#------------------------------------------------------------------------------
#$Date: 2019-11-23 20:46:47 +0200 (Sat, 23 Nov 2019) $
#$Revision: 234919 $
#$URL: file:///home/coder/svn-repositories/cod/cif/4/34/96/4349612.cif $
#------------------------------------------------------------------------------
#
# This file is available in the Crystallography Open Database (COD),
# http://www.crystallography.net/
#
# All data on this site have been placed in the public domain by the
# contributors.
#
data_4349612
loop_
_publ_author_name
'Lovitt, June I.'
'Hawes, Chris S.'
'Lynes, Amy D.'
'Haffner, Benjamin'
'M\"obius, Matthias E.'
'Gunnlaugsson, Thorfinnur'
_publ_section_title
;
 Coordination chemistry of N-picolyl-1,8-naphthalimides: colourful low
 molecular weight metallo-gelators and unique chelation behaviours
;
_journal_issue                   2
_journal_name_full               'Inorganic Chemistry Frontiers'
_journal_page_first              296
_journal_paper_doi               10.1039/C6QI00498A
_journal_volume                  4
_journal_year                    2017
_chemical_formula_moiety         'C36 H24 Cl2 Co N4 O4'
_chemical_formula_sum            'C36 H24 Cl2 Co N4 O4'
_chemical_formula_weight         706.42
_space_group_crystal_system      triclinic
_space_group_IT_number           2
_space_group_name_Hall           '-P 1'
_space_group_name_H-M_alt        'P -1'
_atom_sites_solution_hydrogens   geom
_atom_sites_solution_primary     dual
_audit_creation_date             2016-09-13
_audit_creation_method
;
Olex2 1.2
(compiled 2016.09.09 svn.r3337 for OlexSys, GUI svn.r5227)
;
_audit_update_record
;
2016-10-26 deposited with the CCDC.
2016-12-09 downloaded from the CCDC.
;
_cell_angle_alpha                90.411(2)
_cell_angle_beta                 104.798(2)
_cell_angle_gamma                111.102(2)
_cell_formula_units_Z            1
_cell_length_a                   7.3935(4)
_cell_length_b                   9.1136(6)
_cell_length_c                   12.1362(7)
_cell_measurement_reflns_used    1486
_cell_measurement_temperature    100(2)
_cell_measurement_theta_max      26.93
_cell_measurement_theta_min      2.41
_cell_volume                     733.14(8)
_computing_cell_refinement       'SAINT V8.35A (2016)'
_computing_data_reduction        'SAINT V8.35A (2016)'
_computing_molecular_graphics    'Olex2 (Dolomanov et al., 2009)'
_computing_publication_material  'Olex2 (Dolomanov et al., 2009)'
_computing_structure_refinement  'ShelXL (Sheldrick, 2015)'
_computing_structure_solution    'ShelXT (Sheldrick, 2015)'
_diffrn_ambient_temperature      100.0
_diffrn_detector_area_resol_mean 8
_diffrn_measured_fraction_theta_full 0.999
_diffrn_measured_fraction_theta_max 0.996
_diffrn_measurement_device_type  'Bruker APEX-II CCD'
_diffrn_measurement_method       '\w and \f scans'
_diffrn_radiation_monochromator  graphite
_diffrn_radiation_type           MoK\a
_diffrn_radiation_wavelength     0.71073
_diffrn_reflns_av_R_equivalents  0.0323
_diffrn_reflns_av_unetI/netI     0.0740
_diffrn_reflns_Laue_measured_fraction_full 0.999
_diffrn_reflns_Laue_measured_fraction_max 0.996
_diffrn_reflns_limit_h_max       9
_diffrn_reflns_limit_h_min       -8
_diffrn_reflns_limit_k_max       9
_diffrn_reflns_limit_k_min       -11
_diffrn_reflns_limit_l_max       15
_diffrn_reflns_limit_l_min       -15
_diffrn_reflns_number            5391
_diffrn_reflns_point_group_measured_fraction_full 0.999
_diffrn_reflns_point_group_measured_fraction_max 0.996
_diffrn_reflns_theta_full        26.000
_diffrn_reflns_theta_max         27.500
_diffrn_reflns_theta_min         1.746
_diffrn_source                   'sealed tube'
_diffrn_standards_number         0
_exptl_absorpt_coefficient_mu    0.819
_exptl_absorpt_correction_T_max  0.7456
_exptl_absorpt_correction_T_min  0.6474
_exptl_absorpt_correction_type   multi-scan
_exptl_absorpt_process_details
;
SADABS-2014/5 (Bruker,2014/5) was used for absorption correction.
wR2(int) was 0.0481 before and 0.0391 after correction.
The Ratio of minimum to maximum transmission is 0.8683.
The \l/2 correction factor is Not present.
;
_exptl_crystal_colour            pink
_exptl_crystal_colour_primary    pink
_exptl_crystal_density_diffrn    1.600
_exptl_crystal_description       block
_exptl_crystal_F_000             361
_exptl_crystal_size_max          0.11
_exptl_crystal_size_mid          0.06
_exptl_crystal_size_min          0.05
_refine_diff_density_max         0.620
_refine_diff_density_min         -0.935
_refine_diff_density_rms         0.096
_refine_ls_extinction_method     none
_refine_ls_goodness_of_fit_ref   1.036
_refine_ls_hydrogen_treatment    constr
_refine_ls_matrix_type           full
_refine_ls_number_parameters     214
_refine_ls_number_reflns         3362
_refine_ls_number_restraints     0
_refine_ls_restrained_S_all      1.036
_refine_ls_R_factor_all          0.0831
_refine_ls_R_factor_gt           0.0466
_refine_ls_shift/su_max          0.000
_refine_ls_shift/su_mean         0.000
_refine_ls_structure_factor_coef Fsqd
_refine_ls_weighting_details
'w=1/[\s^2^(Fo^2^)+(0.0350P)^2^+0.5300P] where P=(Fo^2^+2Fc^2^)/3'
_refine_ls_weighting_scheme      calc
_refine_ls_wR_factor_gt          0.0895
_refine_ls_wR_factor_ref         0.1047
_reflns_Friedel_coverage         0.000
_reflns_number_gt                2365
_reflns_number_total             3362
_reflns_threshold_expression     'I > 2\s(I)'
_cod_data_source_file            c6qi00498a2.cif
_cod_data_source_block           2
_cod_database_code               4349612
_shelx_space_group_comment
;
The symmetry employed for this shelxl refinement is uniquely defined
by the following loop, which should always be used as a source of
symmetry information in preference to the above space-group names.
They are only intended as comments.
;
_shelx_estimated_absorpt_t_max   0.960
_shelx_estimated_absorpt_t_min   0.915
_olex2_refinement_description
;
1. Fixed Uiso
 At 1.2 times of:
  All C(H) groups, All C(H,H) groups
2.a Secondary CH2 refined with riding coordinates:
 C6(H6A,H6B)
2.b Aromatic/amide H refined with riding coordinates:
 C1(H1), C2(H2), C3(H3), C4(H4), C9(H9), C10(H10), C11(H11), C13(H13),
 C14(H14), C15(H15)
;
_shelx_res_file
;
    mo_csh171_0m.res created by SHELXL-2014/7

TITL mo_csh171_0m_a.res in P-1
REM Old TITL mo_CSH171_0m in P-1
REM SHELXT solution in P-1
REM R1 0.107, Rweak 0.004, Alpha 0.043, Orientation as input
REM Formula found by SHELXT: C36 N4 O4 Cl2 Co
CELL 0.71073 7.3935 9.1136 12.1362 90.411 104.798 111.102
ZERR 1 0.0004 0.0006 0.0007 0.002 0.002 0.002
LATT 1
SFAC C H Cl Co N O
UNIT 36 24 2 1 4 4

L.S. 10
PLAN  20
SIZE 0.05 0.06 0.11
TEMP -173.15
BOND $H
list 4
MORE -1
CONF
fmap 2
acta 52
REM <olex2.extras>
REM <HklSrc "%.\\mo_CSH171_0m.hkl">
REM </olex2.extras>

WGHT    0.035000    0.530000
FVAR       0.67859
CO1   4    1.000000    0.500000    1.000000    10.50000    0.01460    0.01870 =
         0.01336    0.00561    0.00329    0.00834
CL1   3    1.108063    0.425948    0.845777    11.00000    0.02472    0.02604 =
         0.01429    0.00705    0.00666    0.01482
O1    6    0.689208    0.389856    0.887223    11.00000    0.01616    0.02115 =
         0.01632    0.00701    0.00147    0.00897
O2    6    0.465185    0.752822    0.707619    11.00000    0.02667    0.01946 =
         0.02056    0.00444    0.00091    0.01345
N1    5    1.030222    0.725312    0.931038    11.00000    0.01913    0.02075 =
         0.01410    0.00544    0.00520    0.01130
N2    5    0.573599    0.569144    0.797102    11.00000    0.01451    0.01912 =
         0.01353    0.00342    0.00376    0.00894
C1    1    1.216184    0.814055    0.925311    11.00000    0.01657    0.02004 =
         0.01800    0.00564    0.00491    0.00596
AFIX  43
H1    2    1.318696    0.771674    0.946553    11.00000   -1.20000
AFIX   0
C2    1    1.266675    0.964341    0.890031    11.00000    0.01865    0.02242 =
         0.01873    0.00479    0.00581    0.00379
AFIX  43
H2    2    1.400854    1.023373    0.888013    11.00000   -1.20000
AFIX   0
C3    1    1.118622    1.026972    0.857821    11.00000    0.02976    0.01441 =
         0.01461    0.00244    0.00473    0.00628
AFIX  43
H3    2    1.148625    1.129749    0.833382    11.00000   -1.20000
AFIX   0
C4    1    0.925935    0.936102    0.862128    11.00000    0.02822    0.01994 =
         0.01276    0.00286    0.00368    0.01392
AFIX  43
H4    2    0.820881    0.975682    0.839775    11.00000   -1.20000
AFIX   0
C5    1    0.885858    0.786363    0.899289    11.00000    0.01972    0.02018 =
         0.00747    0.00105    0.00177    0.00914
C6    1    0.675632    0.683317    0.901043    11.00000    0.01723    0.02195 =
         0.01335    0.00243    0.00348    0.00976
AFIX  23
H6A   2    0.681912    0.625500    0.969793    11.00000   -1.20000
H6B   2    0.597377    0.750299    0.905487    11.00000   -1.20000
AFIX   0
C7    1    0.587540    0.422415    0.799819    11.00000    0.01560    0.02086 =
         0.01496    0.00717    0.00721    0.00851
C8    1    0.477109    0.308424    0.697685    11.00000    0.01478    0.01877 =
         0.01448    0.00496    0.00581    0.00562
C9    1    0.494676    0.162890    0.693553    11.00000    0.02200    0.02285 =
         0.01764    0.00810    0.00677    0.01121
AFIX  43
H9    2    0.581593    0.138249    0.756493    11.00000   -1.20000
AFIX   0
C10   1    0.384761    0.050635    0.596761    11.00000    0.03163    0.01779 =
         0.02507    0.00578    0.01176    0.00991
AFIX  43
H10   2    0.396085   -0.049891    0.595192    11.00000   -1.20000
AFIX   0
C11   1    0.261475    0.086150    0.504814    11.00000    0.02627    0.01990 =
         0.02058   -0.00012    0.00670    0.00695
AFIX  43
H11   2    0.185377    0.008723    0.440702    11.00000   -1.20000
AFIX   0
C12   1    0.245856    0.236384    0.503959    11.00000    0.01889    0.02211 =
         0.01641    0.00403    0.00754    0.00756
C13   1    0.129332    0.281260    0.407664    11.00000    0.01760    0.02929 =
         0.01468    0.00132    0.00386    0.00716
AFIX  43
H13   2    0.050789    0.205962    0.342613    11.00000   -1.20000
AFIX   0
C14   1    0.128488    0.430960    0.407170    11.00000    0.01821    0.03185 =
         0.01610    0.00749    0.00451    0.01279
AFIX  43
H14   2    0.052341    0.459677    0.341376    11.00000   -1.20000
AFIX   0
C15   1    0.239867    0.542254    0.503647    11.00000    0.01911    0.02277 =
         0.01736    0.00739    0.00638    0.01072
AFIX  43
H15   2    0.240483    0.646648    0.502472    11.00000   -1.20000
AFIX   0
C16   1    0.348694    0.501010    0.600383    11.00000    0.01434    0.02169 =
         0.01459    0.00571    0.00520    0.00794
C17   1    0.462234    0.618746    0.701788    11.00000    0.01492    0.02372 =
         0.01562    0.00708    0.00514    0.00965
C18   1    0.355599    0.348743    0.601254    11.00000    0.01478    0.02113 =
         0.01447    0.00483    0.00643    0.00692
HKLF 4

REM  mo_csh171_0m_a.res in P-1
REM R1 =  0.0466 for    2365 Fo > 4sig(Fo)  and  0.0831 for all    3362 data
REM    214 parameters refined using      0 restraints

END

WGHT      0.0340      0.5513

REM Highest difference peak  0.620,  deepest hole -0.935,  1-sigma level  0.096
Q1    1   1.1116  0.4638  0.9350  11.00000  0.05    0.62
Q2    1   1.1107  0.5408  1.0023  11.00000  0.05    0.55
Q3    1   1.0088  0.4718  0.9258  11.00000  0.05    0.52
Q4    1   0.4172  0.3257  0.6468  11.00000  0.05    0.41
Q5    1   1.1469  0.5106  0.8837  11.00000  0.05    0.39
Q6    1   1.0522  0.6467  0.9575  11.00000  0.05    0.39
Q7    1   1.2555  0.5710  0.8538  11.00000  0.05    0.39
Q8    1   1.2484  0.9181  0.9407  11.00000  0.05    0.38
Q9    1   1.0809  0.6978  0.8196  11.00000  0.05    0.37
Q10   1   1.0353  0.4178  0.9993  11.00000  0.05    0.36
Q11   1   1.0636  0.3527  0.7714  11.00000  0.05    0.36
Q12   1   1.1935  1.0020  0.8820  11.00000  0.05    0.35
Q13   1   0.6142  0.6208  0.8434  11.00000  0.05    0.34
Q14   1   0.4466  0.2206  0.6791  11.00000  0.05    0.34
Q15   1   0.5854  0.3591  0.8910  11.00000  0.05    0.34
Q16   1   1.0336  0.2872  0.8723  11.00000  0.05    0.33
Q17   1   0.3085  0.3003  0.5478  11.00000  0.05    0.33
Q18   1   0.7839  0.4315  0.7955  11.00000  0.05    0.33
Q19   1   0.5259  0.3636  0.7384  11.00000  0.05    0.33
Q20   1   0.5742  0.4997  0.8027  11.00000  0.05    0.32
;
_shelx_res_checksum              49801
_shelx_hkl_file
;
  -1   0   0   13.90    2.70
  -1   0   0   10.50    3.70
  -1   0   0    8.70    2.60
   1   0   0   15.10    2.60
   1   0   0   10.50    3.40
   1   0   0   10.80    2.70
  -2   0   0  408.66   13.80
  -2   0   0  402.76   12.20
  -2   0   0  375.16   12.40
   2   0   0  402.26   13.70
   2   0   0  388.26   12.30
  -3   0   0    7.70    4.30
  -3   0   0   16.40    4.70
   3   0   0   15.20    4.30
   3   0   0    6.60    5.90
  -4   0   0   11.60    4.60
  -4   0   0    6.30    4.60
   4   0   0    3.80    5.30
   4   0   0   -1.10    4.60
  -5   0   0   73.79    7.90
   5   0   0   83.09   10.10
  -6   0   0   -2.50    5.50
   6   0   0    6.80    7.50
  -7   0   0   36.50    8.30
   7   0   0   32.30    9.50
  -8   0   0  191.18   15.00
   8   0   0  199.08   17.20
   8  -1   0   80.19   13.20
  -8   1   0   63.19    9.80
   7  -1   0  352.36   20.00
  -7   1   0  329.57   16.10
   6  -1   0  231.38   15.70
  -6   1   0  210.18   12.00
   5  -1   0  192.08   13.50
  -5   1   0  205.68   10.90
   4  -1   0   93.29    8.20
   4  -1   0  102.19    9.30
  -4   1   0   91.79    7.30
   3  -1   0   15.60    3.80
   3  -1   0    3.60    3.80
   3  -1   0    2.20    5.40
  -3   1   0   13.60    4.00
  -3   1   0   15.50    5.60
   2  -1   0   28.50    6.10
   2  -1   0   16.80    3.40
  -2   1   0   22.40    3.80
   1  -1   0  251.07    7.20
   1  -1   0  267.87    8.30
  -1   1   0  274.67    8.70
  -1   1   0  256.27    7.30
   0  -1   0 2514.65   57.89
   0   1   0 2550.64   57.89
  -1  -1   0  775.62   19.80
  -1  -1   0  767.62   19.70
   1   1   0  753.22   19.80
   1   1   0  792.32   19.80
  -2  -1   0 1250.37   32.20
  -2  -1   0 1258.27   31.60
   2   1   0 1223.38   31.40
   2   1   0 1309.97   32.20
  -3  -1   0  643.04   19.60
  -3  -1   0  632.74   19.10
   3   1   0  628.54   20.20
  -4  -1   0   16.30    5.40
  -4  -1   0   16.50    5.90
   4   1   0   15.30    6.30
  -5  -1   0   43.00    7.00
  -5  -1   0   44.00    7.80
   5   1   0   54.09    9.20
  -6  -1   0   -0.20    6.90
   6   1   0    4.40    7.50
  -7  -1   0   -2.20    7.10
  -8  -1   0    2.70    7.80
   9  -2   0   39.60   11.30
   8  -2   0  152.58   16.40
  -8   2   0  146.69   12.50
   7  -2   0  218.58   16.90
  -7   2   0  165.38   11.60
   6  -2   0    3.60    7.20
  -6   2   0    0.20    5.10
   5  -2   0  335.57   16.80
  -5   2   0  362.26   13.60
   4  -2   0   49.10    5.00
   4  -2   0   53.29    5.80
   4  -2   0   45.60    7.60
  -4   2   0   46.30    5.40
   3  -2   0   84.79    5.80
   3  -2   0   71.89    7.70
  -3   2   0   82.69    6.20
   2  -2   0  146.39    6.20
   2  -2   0  160.28    9.30
  -2   2   0  140.79    6.50
  -2   2   0  129.69    7.50
   1  -2   0  450.25   12.40
   1  -2   0  414.26   11.80
  -1   2   0  432.16   12.40
   0  -2   0  722.13   19.70
   0   2   0  704.63   19.50
  -1  -2   0  535.15   15.20
  -1  -2   0  566.94   16.60
   1   2   0  567.54   16.60
  -2  -2   0  121.49    7.50
  -2  -2   0  144.79    8.80
   2   2   0   86.49    6.80
  -3  -2   0  593.34   19.10
  -3  -2   0  583.34   18.70
   3   2   0  557.84   18.00
  -4  -2   0   37.30    6.70
  -4  -2   0   28.50    7.10
  -5  -2   0    7.40    6.30
  -5  -2   0    6.50    6.80
  -6  -2   0   36.70    7.40
  -6  -2   0   27.70    9.00
  -7  -2   0   23.00    8.80
   9  -3   0   58.79   12.90
   8  -3   0  117.19   14.20
  -8   3   0  136.69   11.70
   7  -3   0   70.79   11.20
  -7   3   0   80.99    8.90
   6  -3   0   32.50    8.60
  -6   3   0   23.50    6.00
   5  -3   0  187.38   12.90
  -5   3   0  204.18   10.00
   4  -3   0  131.39   11.60
   4  -3   0  123.99    6.70
  -4   3   0  134.29    7.50
   3  -3   0  764.22   20.30
   3  -3   0  783.52   23.10
  -3   3   0  769.62   24.40
  -3   3   0  791.22   20.60
   2  -3   0   71.79    5.20
   2  -3   0   61.99    6.20
  -2   3   0   70.69    6.00
  -2   3   0   63.59    5.20
   1  -3   0  184.78    7.60
  -1   3   0  183.78    7.60
   0  -3   0    8.20    4.80
  -1  -3   0  432.86   13.10
  -1  -3   0  476.95   15.80
  -2  -3   0  604.74   19.40
  -2  -3   0  587.84   17.80
   2   3   0  610.54   19.40
  -3  -3   0  431.96   16.70
  -4  -3   0  147.69   12.60
  -4  -3   0  167.88   12.60
  -5  -3   0   89.39   10.30
  -5  -3   0   84.49   11.30
  -6  -3   0   23.00    7.10
  -6  -3   0   13.00    7.80
  -7  -3   0    0.60    8.90
   9  -4   0   46.30   11.60
   8  -4   0   68.59   12.00
   7  -4   0  193.58   16.70
  -7   4   0  185.68   11.60
   6  -4   0  254.27   15.90
  -6   4   0  243.08   11.70
   5  -4   0  245.38   15.40
  -5   4   0  228.28   10.40
   4  -4   0  123.19    6.80
   4  -4   0  125.39   11.20
  -4   4   0  107.69    7.20
   3  -4   0   19.00    4.00
   3  -4   0   28.40    6.80
  -3   4   0   24.10    4.40
   2  -4   0   94.69    7.30
   2  -4   0   68.69    5.70
  -2   4   0   55.89    5.60
   1  -4   0 1060.99   26.70
   1  -4   0 1051.79   29.80
   0  -4   0  462.95   16.60
   0  -4   0  475.05   13.50
  -1  -4   0  142.69    6.90
  -1  -4   0  156.98   10.40
  -2  -4   0  666.63   20.10
  -2  -4   0  706.23   22.50
  -3  -4   0  219.68   13.10
  -4  -4   0  113.69   11.90
  -4  -4   0  120.09   11.70
  -5  -4   0   78.49   11.60
  -5  -4   0   50.59    9.70
  -6  -4   0   13.60    8.90
   9  -5   0   -5.80    8.70
   8  -5   0   61.39   11.90
   7  -5   0  184.08   15.40
  -7   5   0  181.18   11.10
   6  -5   0  600.24   25.20
  -6   5   0  618.14   19.70
   5  -5   0  442.46   19.90
  -5   5   0  428.16   14.90
   4  -5   0  309.37   12.70
   4  -5   0  326.97   15.70
  -4   5   0  324.27   12.10
   3  -5   0   73.99    6.10
   3  -5   0   87.79    8.60
   2  -5   0   70.99    9.00
   2  -5   0   68.99    6.60
   1  -5   0    8.70    5.80
   1  -5   0    3.30    3.50
   0  -5   0   16.30    6.50
   0  -5   0   22.60    3.90
  -1  -5   0  271.77   10.00
  -1  -5   0  287.27   14.30
  -2  -5   0  507.85   19.90
  -3  -5   0  545.15   21.80
  -4  -5   0  127.89   12.60
  -4  -5   0  134.59   13.30
  -5  -5   0   28.20    9.70
  -5  -5   0   36.00   10.40
  -6  -5   0   21.00    9.90
   9  -6   0   27.00   11.00
   8  -6   0   29.50   10.10
   7  -6   0   79.19   12.70
  -7   6   0  105.79    9.00
   6  -6   0 1339.67   42.00
  -6   6   0 1331.07   35.80
   5  -6   0  260.47   16.00
  -5   6   0  217.38   10.80
   4  -6   0  328.37   15.90
   3  -6   0  339.37   14.30
   2  -6   0   21.30    6.80
   2  -6   0   37.00    5.70
   1  -6   0    4.80    6.10
   1  -6   0    1.60    3.70
   0  -6   0   90.19    6.30
   0  -6   0   60.89    8.60
  -1  -6   0   24.10    4.10
  -1  -6   0   10.50    7.00
  -2  -6   0    5.60    7.10
  -3  -6   0   59.69   10.40
  -4  -6   0   46.90   10.20
  -4  -6   0   53.49   11.30
  -5  -6   0   62.79   11.90
   9  -7   0   13.00    9.40
   8  -7   0   27.00   11.00
   7  -7   0  208.38   16.60
   6  -7   0  299.27   18.00
   5  -7   0  276.97   16.80
   4  -7   0  181.78   13.10
   3  -7   0   30.60    7.20
   3  -7   0   32.70    8.10
   2  -7   0   40.50    8.50
   2  -7   0   44.70    6.40
   1  -7   0   -0.10    6.30
   1  -7   0   -2.30    3.90
   0  -7   0   -2.50    7.10
   0  -7   0    0.30    3.70
  -1  -7   0   14.80    4.50
  -1  -7   0    7.60    7.30
  -2  -7   0   44.90    8.90
  -3  -7   0  484.95   23.20
  -4  -7   0   57.89   10.60
  -4  -7   0   53.59   12.30
   8  -8   0   22.30   10.60
   7  -8   0   -2.30    9.00
   6  -8   0  134.79   14.80
   5  -8   0   55.79   10.60
   4  -8   0  110.29   12.70
   4  -8   0  150.38   13.20
   3  -8   0  362.86   16.20
   3  -8   0  377.96   20.40
   2  -8   0  220.18   11.60
   2  -8   0  220.88   15.70
   1  -8   0   10.90    8.50
   1  -8   0   -7.90    3.90
   0  -8   0    9.40    8.80
  -1  -8   0    8.60    8.00
  -2  -8   0   -4.80    7.20
  -3  -8   0   -1.70    9.30
   8  -9   0   27.20   10.90
   7  -9   0    3.50    8.70
   6  -9   0    2.20    9.10
   6  -9   0    4.10    8.60
   5  -9   0  146.99   14.00
   5  -9   0  165.38   16.10
   4  -9   0  183.58   14.40
   4  -9   0  207.58   16.30
   3  -9   0  316.77   19.10
   3  -9   0  281.47   15.20
   2  -9   0  165.28   15.30
   1  -9   0   78.79   12.40
   0  -9   0   35.10   10.50
  -1  -9   0   -6.40    8.00
  -2  -9   0    3.30    9.10
   7 -10   0   22.20   10.00
   7 -10   0   20.40   10.20
   6 -10   0    4.50    8.00
   6 -10   0   12.30    9.50
   5 -10   0  -13.10    8.70
   5 -10   0    6.70    8.40
   4 -10   0   41.40   10.70
   3 -10   0  200.78   17.30
   2 -10   0   86.09   13.60
   1 -10   0  186.78   17.00
   0 -10   0    2.50    8.30
  -1 -10   0    2.10    9.60
   6 -11   0   22.60   10.80
   5 -11   0   -3.80    9.50
   4 -11   0   11.50   10.50
   3 -11   0   59.09   12.10
   2 -11   0   54.99   12.80
   1 -11   0   52.99   13.00
   0 -11   1   24.80   11.40
   1 -11   1   23.20   10.40
   2 -11   1   31.30   11.90
   3 -11   1   52.99   12.10
   4 -11   1   81.19   14.20
   5 -11   1   -5.30    8.10
   6 -11   1    6.10    8.60
  -1 -10   1   -4.50    9.50
   0 -10   1    7.90    9.80
   1 -10   1   -5.10    8.20
   2 -10   1   35.70   10.50
   3 -10   1  181.48   17.80
   4 -10   1  191.58   17.10
   5 -10   1   59.19   11.30
   6 -10   1   73.89   11.80
   6 -10   1   54.39   11.20
   7 -10   1    4.10    7.80
  -3  -9   1   17.30   12.10
  -2  -9   1   14.50   10.30
  -1  -9   1   74.39   13.10
   0  -9   1    6.90    8.00
   1  -9   1   98.89   12.80
   2  -9   1   44.40   10.80
   3  -9   1  317.47   19.60
   3  -9   1  348.67   17.30
   4  -9   1  193.68   16.20
   4  -9   1  191.38   14.40
   5  -9   1  184.98   15.80
   5  -9   1  157.68   14.70
   6  -9   1   61.29   11.20
   6  -9   1   66.99   11.10
   7  -9   1   30.20   10.00
   7  -9   1   29.80    9.00
   8  -9   1    4.40    8.80
   8  -9   1   18.70    8.80
  -4  -8   1   89.09   15.20
  -3  -8   1   14.40   10.30
  -2  -8   1   52.69   10.90
  -1  -8   1   29.30    9.60
   0  -8   1   10.60    8.80
   1  -8   1   13.60    8.00
   1  -8   1   -7.20    4.60
   2  -8   1    3.50    7.40
   2  -8   1    0.50    5.20
   3  -8   1  310.07   18.00
   3  -8   1  315.97   15.00
   4  -8   1   92.59   10.80
   4  -8   1  106.19   13.20
   5  -8   1  364.16   20.60
   5  -8   1  390.96   19.30
   6  -8   1  131.69   14.20
   7  -8   1  217.98   17.70
   8  -8   1   21.40   10.80
  -5  -7   1    2.10    8.00
  -4  -7   1  197.48   18.30
  -3  -7   1   26.40   10.10
  -2  -7   1  762.72   28.90
  -1  -7   1   55.49    5.00
  -1  -7   1   51.39    9.30
   0  -7   1   11.60    3.40
   0  -7   1   21.90    8.40
   1  -7   1   -7.60    3.60
   1  -7   1    5.80    7.00
   2  -7   1   12.40    7.00
   2  -7   1   21.00    5.60
   3  -7   1   45.80    9.40
   3  -7   1   42.50    7.50
   4  -7   1    6.20    6.90
   4  -7   1    8.70    7.30
   5  -7   1   13.60    8.20
  -6   7  -1  348.57   15.30
   6  -7   1  324.07   18.90
  -7   7  -1   73.79    8.90
   7  -7   1   91.39   13.20
   8  -7   1   89.79   13.60
  -5  -6   1   -0.20   10.00
  -5  -6   1   29.10   10.40
  -4  -6   1  260.27   18.60
  -3  -6   1   70.69   11.20
  -2  -6   1    4.10    6.30
  -1  -6   1  126.99    6.30
  -1  -6   1  125.19   11.30
   0  -6   1   57.49    8.60
   0  -6   1   53.99    4.80
   1  -6   1    2.90    5.80
   1  -6   1   -1.20    3.40
   2  -6   1   59.59    6.30
   2  -6   1   45.50    8.00
   3  -6   1   33.90    7.60
   3  -6   1   46.40    7.10
  -4   6  -1  330.37   13.80
   4  -6   1  328.87   15.90
  -5   6  -1   38.30    6.60
   5  -6   1   30.40    8.20
  -6   6  -1   24.80    6.20
   6  -6   1   28.70    9.70
  -7   6  -1   88.49    9.30
   7  -6   1  107.39   14.20
   8  -6   1  192.68   18.00
   9  -6   1   28.10   11.20
  -6  -5   1    1.40    8.70
  -5  -5   1   53.19   11.40
  -5  -5   1   69.19   11.50
  -4  -5   1   29.60    9.60
  -3  -5   1  259.27   15.80
  -2  -5   1  542.25   17.00
  -2  -5   1  585.54   21.70
  -1  -5   1  408.86   17.30
  -1  -5   1  383.56   11.60
   0  -5   1  207.08   12.20
   0  -5   1  214.08    7.40
   1  -5   1  463.85   13.60
   1  -5   1  460.25   18.50
   2  -5   1   17.40    6.80
   2  -5   1   19.70    5.00
  -3   5  -1   42.00    5.80
   3  -5   1   53.69    7.20
  -4   5  -1   18.80    5.10
   4  -5   1   22.00    6.60
  -5   5  -1  303.17   13.00
   5  -5   1  305.37   15.90
  -6   5  -1  158.48   10.60
   6  -5   1  143.69   13.30
  -7   5  -1  165.98   11.80
   7  -5   1  175.78   16.60
   8  -5   1  249.97   19.50
   9  -5   1   41.30   11.70
  -7  -4   1   -6.90    8.60
  -6  -4   1    9.30    8.80
  -6  -4   1   16.50    8.10
  -5  -4   1   -0.70    7.70
  -5  -4   1    1.80    7.60
  -4  -4   1   39.20    8.90
  -3  -4   1  238.48   14.10
  -2  -4   1  640.24   21.90
  -2  -4   1  633.54   18.40
  -1  -4   1  772.32   23.80
  -1  -4   1  755.52   19.50
   0  -4   1  214.78    7.00
   0  -4   1  219.28   11.50
  -1   4  -1  918.51   23.00
   1  -4   1  875.41   24.50
   1  -4   1  931.61   26.70
   1  -4   1  921.21   23.00
  -2   4  -1   32.10    4.60
  -2   4  -1   34.50    5.30
   2  -4   1   35.80    4.90
   2  -4   1   31.20    6.30
   2  -4   1   39.00    5.50
  -3   4  -1   68.39    6.30
   3  -4   1   72.39    8.10
   3  -4   1   74.69    6.20
  -4   4  -1   90.89    7.70
   4  -4   1   85.49    8.90
  -5   4  -1    3.40    5.00
   5  -4   1    4.40    7.10
  -6   4  -1   78.69    8.50
   6  -4   1   70.69   10.70
  -7   4  -1  317.17   15.30
   7  -4   1  303.97   18.50
  -8   4  -1   85.89   10.20
   8  -4   1   85.89   13.30
   9  -4   1    6.40    9.40
  -7  -3   1    2.10    7.20
  -6  -3   1   10.30    7.40
  -6  -3   1   30.70    8.10
  -5  -3   1  121.59   12.20
  -5  -3   1  154.28   13.90
  -4  -3   1   83.59   10.10
  -3  -3   1  158.68   11.30
  -2  -3   1  954.70   27.10
  -2  -3   1  906.91   24.60
   1   3  -1  399.26   14.20
  -1  -3   1  379.06   11.00
  -1  -3   1  401.26   14.50
   0  -3   1  941.91   21.80
   0  -3   1  914.11   25.80
  -1   3  -1  397.96   11.50
   1  -3   1  410.26   11.70
   1  -3   1  400.26   14.80
   1  -3   1  397.46   12.80
  -2   3  -1    3.50    4.00
  -2   3  -1   10.80    4.20
   2  -3   1   10.40    4.10
   2  -3   1   10.40    4.90
  -3   3  -1  203.08    9.40
   3  -3   1  213.98   11.00
   3  -3   1  195.98    8.60
  -4   3  -1    5.00    4.40
   4  -3   1    3.90    5.70
  -5   3  -1   24.70    5.80
   5  -3   1   25.50    7.40
  -6   3  -1   35.10    7.10
   6  -3   1   25.40    8.20
  -7   3  -1  113.89   10.60
   7  -3   1  109.19   13.00
  -8   3  -1  164.98   13.60
   8  -3   1  206.18   17.60
   9  -3   1   25.90   10.60
  -8  -2   1   31.60    9.90
  -7  -2   1   91.99   12.40
  -7  -2   1  100.89   14.20
   6   2  -1   10.50    7.20
  -6  -2   1   10.70    6.80
  -6  -2   1    4.10    7.60
   5   2  -1  128.89   11.70
  -5  -2   1  146.49   12.50
  -5  -2   1  146.19   12.20
   4   2  -1  120.79    9.80
  -4  -2   1   88.09    9.00
  -4  -2   1  107.89    9.70
   3   2  -1   -0.70    4.60
  -3  -2   1    5.60    5.40
  -3  -2   1   -0.90    4.90
   2   2  -1    5.80    4.10
   2   2  -1    0.60    3.70
  -2  -2   1    4.70    4.30
  -2  -2   1    3.90    4.60
   1   2  -1  794.32   22.20
  -1  -2   1  846.12   23.00
  -1  -2   1  794.32   20.00
   0  -2   1  591.34   13.60
   0  -2   1  583.94   17.00
  -1   2  -1 1155.28   27.80
  -1   2  -1 1100.59   27.20
   1  -2   1 1084.99   27.40
   1  -2   1 1142.39   28.70
   1  -2   1 1138.49   27.40
  -2   2  -1  598.94   17.80
  -2   2  -1  624.84   17.10
   2  -2   1  614.14   16.90
   2  -2   1  642.14   18.60
  -3   2  -1  224.98    9.60
   3  -2   1  208.68   11.00
   3  -2   1  218.18    9.00
  -4   2  -1  338.37   12.80
   4  -2   1  336.57   15.50
  -5   2  -1  566.84   18.80
   5  -2   1  560.34   21.40
  -6   2  -1   17.10    6.20
   6  -2   1   15.30    8.70
  -7   2  -1   18.70    7.20
   7  -2   1   19.90    8.40
  -8   2  -1   58.29    9.80
   8  -2   1   69.69   11.90
   8   1  -1   95.59   12.80
  -8  -1   1   65.79   11.00
   7   1  -1   45.30    9.90
  -7  -1   1   29.00    8.60
   6   1  -1   13.90    8.10
  -6  -1   1   14.60    7.20
  -6  -1   1   23.90    7.10
   5   1  -1    3.90    5.70
  -5  -1   1    6.30    5.60
  -5  -1   1   11.60    6.20
   4   1  -1    3.20    5.70
  -4  -1   1    1.20    4.90
  -4  -1   1   -4.10    4.60
   3   1  -1  489.55   16.40
   3   1  -1  516.55   17.20
  -3  -1   1  515.75   17.10
  -3  -1   1  513.15   17.00
   2   1  -1    1.60    4.10
   2   1  -1    2.20    4.40
  -2  -1   1    5.10    4.10
  -2  -1   1    1.90    4.80
   1   1  -1   56.59    5.50
   1   1  -1   56.39    4.80
  -1  -1   1   75.59    5.00
  -1  -1   1   61.69    5.70
   0   1  -1   16.60    3.10
   0   1  -1    9.90    1.40
   0   1  -1   10.20    2.80
   0  -1   1   13.60    3.40
  -1   1  -1  113.69    6.30
  -1   1  -1  122.99    6.10
   1  -1   1  106.49    6.80
   1  -1   1  119.99    5.90
  -2   1  -1 1085.09   27.10
   2  -1   1 1081.69   28.40
   2  -1   1 1081.69   27.10
  -3   1  -1  278.27   10.90
   3  -1   1  268.07   10.40
   3  -1   1  289.57   13.20
   3  -1   1  280.17   10.20
  -4   1  -1  183.68    9.60
   4  -1   1  164.48   11.00
  -5   1  -1   28.20    6.10
   5  -1   1   24.70    7.50
  -6   1  -1  140.09   11.40
   6  -1   1  102.09   11.80
  -7   1  -1   51.29    8.80
   7  -1   1   59.49   10.50
  -8   1  -1    4.20    7.30
   8  -1   1    8.80    9.40
   8   0  -1   49.40   10.40
  -8   0   1   57.19    9.70
   7   0  -1  119.99   13.20
  -7   0   1   97.09   10.50
   6   0  -1  111.19   12.30
  -6   0   1  100.69    9.50
   5   0  -1   -4.70    5.60
  -5   0   1   -2.80    4.60
  -5   0   1   12.00    5.60
   4   0  -1   49.99    7.30
  -4   0   1   51.89    6.00
  -4   0   1   45.70    6.60
   3   0  -1  213.08   10.70
  -3   0   1  209.98   11.20
  -3   0   1  206.68   10.50
  -3   0   1  240.28    9.40
   2   0  -1  351.76   12.50
   2   0  -1  359.26   12.30
  -2   0   1  347.37   11.70
  -2   0   1  345.97   12.00
   1   0  -1 1481.55   35.00
   1   0  -1 1518.35   34.70
  -1   0   1 1423.96   34.60
  -1   0   1 1479.75   35.00
   0   0  -1  446.06   12.50
   0   0  -1  544.05   12.50
   0   0   1  552.74   12.50
   0   0   1  573.74   13.20
  -1   0  -1 3109.69   69.59
   1   0   1 2934.31   68.29
   1   0   1 3102.59   69.59
   1   0   1 3005.40   70.19
  -2   0  -1  823.32   22.80
  -2   0  -1  779.62   20.10
  -2   0  -1  809.82   21.40
   2   0   1  757.62   21.00
   2   0   1  802.82   20.20
   2   0   1  850.61   23.00
  -3   0  -1  652.73   18.90
   3   0   1  590.94   19.80
   3   0   1  608.34   17.30
  -4   0  -1    5.70    4.90
   4   0   1    1.30    5.40
  -5   0  -1   34.40    7.00
   5   0   1   36.80    7.90
  -6   0  -1   -1.30    6.30
   6   0   1    3.40    7.70
  -7   0  -1   64.19   10.00
   7   0   1   78.09   12.20
  -8   0  -1   81.59   11.40
   9  -1  -1   82.89   13.40
   8  -1  -1  162.08   16.70
  -8   1   1  135.29   12.20
   7  -1  -1  195.98   15.10
  -7   1   1  184.48   12.00
   6  -1  -1  151.98   12.90
  -6   1   1  142.39   10.20
   5  -1  -1  244.18   13.70
  -5   1   1  249.88   11.30
   4  -1  -1   36.50    7.10
  -4   1   1   38.10    4.90
   3  -1  -1    1.70    5.40
   3  -1  -1    2.20    2.90
  -3   1   1    0.20    3.10
  -3   1   1    3.30    4.70
   2  -1  -1    3.90    2.40
   2  -1  -1   12.70    5.40
   2  -1  -1   -2.10    3.80
  -2   1   1    4.60    2.50
   1  -1  -1 1605.04   37.90
  -1  -1  -1   76.59    6.10
  -1  -1  -1   70.69    5.00
  -1  -1  -1   67.69    5.50
   1   1   1   72.49    5.00
  -2  -1  -1 1610.54   39.70
  -2  -1  -1 1581.34   40.20
  -2  -1  -1 1595.04   38.30
   2   1   1 1597.74   38.40
  -3  -1  -1  768.02   21.10
  -3  -1  -1  763.12   22.40
   3   1   1  752.32   23.20
   3   1   1  739.53   20.70
  -4  -1  -1  250.87   11.20
  -4  -1  -1  252.17   13.00
   4   1   1  286.47   14.30
  -5  -1  -1   28.80    5.70
  -5  -1  -1   25.60    7.40
   5   1   1   19.70    7.20
  -6  -1  -1   -3.20    6.70
  -7  -1  -1   92.69   12.10
  -8  -1  -1   61.29   11.10
   9  -2  -1   12.80    8.60
   8  -2  -1  110.29   14.60
  -8   2   1   70.29    9.10
   7  -2  -1  681.63   27.70
  -7   2   1  643.24   21.90
   6  -2  -1  147.79   13.70
  -6   2   1  118.49    9.00
   5  -2  -1  162.38   13.10
  -5   2   1  161.38    8.80
   4  -2  -1  103.79    6.00
   4  -2  -1  121.89   10.10
  -4   2   1  111.79    6.70
   3  -2  -1   36.20    7.00
   3  -2  -1   29.40    3.30
  -3   2   1   36.50    3.70
   2  -2  -1  249.88    7.40
   2  -2  -1  265.57   10.60
  -2   2   1  253.97   12.30
  -2   2   1  256.17    7.60
   1  -2  -1  420.06   12.50
  -1   2   1  392.96   12.20
   0  -2  -1   -1.00    3.50
  -1  -2  -1  279.37   10.30
   1   2   1  279.67    9.90
  -2  -2  -1 1114.79   30.10
  -2  -2  -1 1130.89   30.30
  -2  -2  -1 1129.09   29.30
   2   2   1 1145.79   29.40
  -3  -2  -1  102.99    8.50
  -3  -2  -1  103.29    8.80
  -4  -2  -1  353.06   14.40
  -4  -2  -1  351.06   15.60
  -5  -2  -1   13.20    5.60
  -5  -2  -1    5.90    6.40
  -6  -2  -1   16.60    8.50
  -7  -2  -1   -2.50    7.80
   9  -3  -1   16.30   10.30
   8  -3  -1   62.09   11.80
   7  -3  -1   58.69   10.70
  -7   3   1   46.50    7.20
   6  -3  -1   11.50    8.70
  -6   3   1    8.50    5.00
   5  -3  -1  439.96   13.90
   5  -3  -1  445.06   19.00
  -5   3   1  471.75   14.60
   4  -3  -1  138.79   11.60
   4  -3  -1  135.69    6.50
  -4   3   1  128.79    6.60
   3  -3  -1   18.10    3.10
   3  -3  -1   22.50    6.30
  -3   3   1   17.40    3.30
   2  -3  -1   37.70    5.70
   2  -3  -1   39.00    3.70
  -2   3   1   48.30    5.50
   1  -3  -1   11.50    3.90
  -1   3   1   12.30    4.00
   0  -3  -1  290.27   11.80
  -1  -3  -1   58.79    6.00
  -2  -3  -1  906.11   25.60
  -3  -3  -1   11.50    5.50
  -3  -3  -1    8.50    5.90
  -4  -3  -1  247.88   15.00
  -4  -3  -1  239.48   13.50
  -5  -3  -1  217.78   14.80
  -5  -3  -1  237.68   14.20
  -6  -3  -1   73.49   11.60
  -7  -3  -1   12.20    9.60
   9  -4  -1   16.90   10.70
   8  -4  -1    8.40    8.90
   7  -4  -1  174.38   16.40
  -7   4   1  146.99    9.90
   6  -4  -1  214.48   15.40
  -6   4   1  207.98   10.20
   5  -4  -1  265.17   10.00
   5  -4  -1  271.07   15.90
  -5   4   1  265.97   10.30
   4  -4  -1  207.58    8.10
   4  -4  -1  217.98   12.40
  -4   4   1  228.18    8.60
   3  -4  -1    8.70    3.30
   3  -4  -1   11.10    5.80
   2  -4  -1 1022.20   26.10
   2  -4  -1 1037.10   27.60
   1  -4  -1   38.10    4.80
   1  -4  -1   36.40    6.30
   0  -4  -1   -0.70    4.40
  -1  -4  -1  223.88   11.30
  -2  -4  -1  125.89    9.40
  -3  -4  -1   69.39    9.00
  -3  -4  -1   83.69    8.80
  -4  -4  -1  158.48   14.10
  -4  -4  -1  159.48   13.10
  -5  -4  -1  229.08   15.10
  -5  -4  -1  227.98   15.90
  -6  -4  -1   23.10    8.90
   9  -5  -1    9.20    9.20
   8  -5  -1    9.60    9.80
   7  -5  -1    4.70    8.70
  -7   5   1    0.90    4.70
   6  -5  -1  196.68   16.40
  -6   5   1  210.68    9.90
   5  -5  -1  268.47   10.10
   5  -5  -1  274.17   15.30
  -5   5   1  283.77   10.80
   4  -5  -1  888.11   23.60
   4  -5  -1  908.11   27.90
   3  -5  -1   31.40    6.10
   3  -5  -1   36.50    4.50
   2  -5  -1 1306.57   33.70
   2  -5  -1 1334.57   34.70
  -2   5   1 1351.26   34.70
   1  -5  -1    1.40    5.90
   1  -5  -1    6.80    3.90
   0  -5  -1    5.60    5.60
  -1  -5  -1    0.40    4.50
  -2  -5  -1  171.78   11.70
  -3  -5  -1  166.58   13.10
  -3  -5  -1  144.39   12.40
  -4  -5  -1  225.98   16.40
  -4  -5  -1  187.38   15.30
  -5  -5  -1   47.10   10.90
  -6  -5  -1   95.99   13.80
   9  -6  -1   59.99   13.10
   8  -6  -1   15.30   10.60
   7  -6  -1  145.39   15.00
   6  -6  -1  -12.60    8.80
  -6   6   1    6.50    4.40
   5  -6  -1  231.78   14.70
   4  -6  -1  196.78   13.10
   3  -6  -1  718.93   23.00
   2  -6  -1  244.18   13.80
   2  -6  -1  232.48   10.70
   1  -6  -1    8.60    4.20
   1  -6  -1   12.60    6.90
   0  -6  -1   17.20    4.70
   0  -6  -1   12.40    6.60
  -1  -6  -1  254.07   14.60
  -2  -6  -1  245.98   14.90
  -3  -6  -1   -7.40    7.00
  -3  -6  -1   -3.10    7.50
  -4  -6  -1    8.60    9.10
  -4  -6  -1   32.80    9.40
  -5  -6  -1   67.29   11.90
   9  -7  -1   27.60   11.10
   8  -7  -1   39.60   11.10
   7  -7  -1   31.60   11.40
   6  -7  -1   -3.70    8.80
   5  -7  -1   37.20    9.40
   4  -7  -1   99.29   10.70
   3  -7  -1  319.77   15.00
   3  -7  -1  321.57   17.10
   2  -7  -1  152.28   13.60
   2  -7  -1  136.39    9.40
   1  -7  -1  156.78    9.50
   1  -7  -1  160.08   12.90
   0  -7  -1   14.60    4.90
   0  -7  -1    4.40    7.40
  -1  -7  -1  342.27   18.10
  -2  -7  -1  148.69   14.30
  -3  -7  -1    6.90    8.30
  -3  -7  -1   18.30    8.20
  -4  -7  -1   -2.00    7.30
   8  -8  -1   18.60   10.10
   7  -8  -1   -3.40    8.50
   6  -8  -1   40.30   11.10
   5  -8  -1   12.20    9.00
   4  -8  -1   69.79   10.50
   4  -8  -1   77.39   10.40
   3  -8  -1    8.40    6.70
   3  -8  -1    9.10    8.30
   2  -8  -1  307.27   18.30
   2  -8  -1  273.27   13.30
   1  -8  -1   16.60    7.80
   1  -8  -1   25.10    5.90
   0  -8  -1   44.00   10.10
   0  -8  -1   37.50    6.10
  -1  -8  -1   34.80    9.10
  -2  -8  -1   -0.90    7.80
  -3  -8  -1   26.60   10.30
  -3  -8  -1   37.20   10.20
   8  -9  -1    4.30   10.20
   7  -9  -1    0.60   10.00
   6  -9  -1  -17.20    8.40
   5  -9  -1   -2.00    7.40
   5  -9  -1  -12.30    8.00
   4  -9  -1  667.33   25.10
   4  -9  -1  642.74   27.60
   3  -9  -1  102.39   13.60
   3  -9  -1   67.09    9.40
   2  -9  -1  144.79   10.90
   2  -9  -1  169.08   16.30
   1  -9  -1   44.70   10.70
   0  -9  -1   94.79   13.30
  -1  -9  -1   11.20    8.60
  -2  -9  -1   -4.30    8.30
   7 -10  -1  -13.70    9.70
   7 -10  -1    5.50    8.20
   6 -10  -1   27.90   10.80
   6 -10  -1    3.00    9.80
   5 -10  -1   -3.70    8.80
   5 -10  -1  -15.30    8.60
   4 -10  -1   20.30    9.30
   3 -10  -1   48.00   10.80
   2 -10  -1   65.09   12.50
   1 -10  -1  187.88   18.10
   0 -10  -1  167.18   16.90
  -1 -10  -1    2.20    8.80
   6 -11  -1   -1.30    8.10
   5 -11  -1    2.30    8.50
   4 -11  -1    5.20    8.50
   3 -11  -1   -2.40    8.20
   2 -11  -1   10.50   10.20
   1 -11  -1   42.10   11.20
   0 -11   2   -6.20    9.70
   1 -11   2    6.50    9.50
   2 -11   2   31.30   12.00
   3 -11   2   30.20   11.80
   4 -11   2   16.10   10.60
   5 -11   2   73.09   13.10
  -1 -10   2    0.70    8.90
   0 -10   2  -11.90    8.80
   1 -10   2    5.60    8.90
   2 -10   2   13.60   10.10
   3 -10   2   59.29   12.00
   4 -10   2   65.59   11.90
   5 -10   2   75.19   13.10
   6 -10   2  476.45   25.80
   7 -10   2   62.49   12.90
   7 -10   2   74.29   15.20
  -3  -9   2   46.10   13.30
  -2  -9   2   37.10   12.10
  -1  -9   2   21.90    9.50
   0  -9   2   12.40    8.60
   1  -9   2   -3.70    8.80
   2  -9   2   78.09   13.10
   3  -9   2   -2.60    7.50
   4  -9   2   69.09    8.90
   4  -9   2   49.99   10.70
   5  -9   2  113.39   14.50
   5  -9   2  132.19   12.10
   6  -9   2  198.18   17.60
   6  -9   2  231.98   16.90
   7  -9   2   35.90   10.00
   7  -9   2   15.20    9.40
  -4  -8   2  140.99   18.00
  -3  -8   2   26.30   11.70
  -2  -8   2  180.58   17.00
  -1  -8   2   86.59   12.80
   0  -8   2   -7.10    7.00
   1  -8   2   14.10    8.10
   2  -8   2    2.20    7.50
   2  -8   2   23.80    5.00
   3  -8   2  128.29   14.30
   3  -8   2  135.09   10.20
   4  -8   2  150.38   15.00
   4  -8   2  158.68   12.30
   5  -8   2  298.37   16.90
   5  -8   2  276.97   18.60
   6  -8   2  189.78   15.70
   6  -8   2  183.78   16.20
   7  -8   2   59.49   10.60
   7  -8   2   69.19   11.60
   8  -8   2   88.69   12.50
   8  -8   2   88.39   13.30
  -5  -7   2  -16.90   10.90
  -5  -7   2   26.90   10.10
  -4  -7   2  116.39   15.80
  -3  -7   2  203.98   17.70
  -2  -7   2  293.27   18.60
  -1  -7   2  279.57   17.60
   0  -7   2   16.30    7.70
   1  -7   2   41.80    3.90
   1  -7   2   38.90    8.60
   2  -7   2   19.80    5.00
   2  -7   2   11.70    7.30
   3  -7   2  133.99   10.00
   3  -7   2  111.29   12.50
   4  -7   2  255.97   14.50
   4  -7   2  259.97   16.70
  -5   7  -2  846.12   26.80
   5  -7   2  822.12   29.10
   5  -7   2  870.21   30.70
  -6   7  -2   -0.80    5.90
   6  -7   2    2.80    8.30
  -7   7  -2  248.68   14.20
   7  -7   2  249.38   18.50
   8  -7   2  173.58   16.20
  -5  -6   2    0.40   10.80
  -5  -6   2   16.50    8.20
  -4  -6   2  -12.60    8.90
  -3  -6   2   28.30   10.00
  -2  -6   2  214.58   15.50
  -1  -6   2  139.09   13.10
   0  -6   2  304.07   16.80
   1  -6   2  156.78   12.20
   1  -6   2  176.48    7.10
   2  -6   2    1.00    4.30
   2  -6   2   10.50    6.40
   3  -6   2   -9.70    6.30
   3  -6   2   -0.70    5.00
  -4   6  -2  413.56   16.00
   4  -6   2  397.66   17.00
   4  -6   2  389.86   17.90
  -5   6  -2  672.43   22.10
   5  -6   2  628.34   23.80
  -6   6  -2   -6.60    5.20
   6  -6   2    1.10    8.20
  -7   6  -2   87.79   10.10
   7  -6   2   88.59   12.90
   8  -6   2  134.69   15.00
  -6  -5   2   31.10   10.60
  -6  -5   2   15.10    8.30
  -5  -5   2  -11.10    8.50
  -4  -5   2   10.50    8.80
  -3  -5   2    6.90    7.20
  -2  -5   2  277.17   10.40
  -2  -5   2  325.27   16.50
  -1  -5   2  264.67    7.60
  -1  -5   2  276.77   15.00
  -1  -5   2  284.57    7.50
   0  -5   2  964.60   30.10
  -1   5  -2   34.00    3.40
   1  -5   2   36.30    7.50
   1  -5   2   36.80    3.90
   2  -5   2  180.78   11.50
   2  -5   2  198.08    9.30
  -3   5  -2    6.70    5.00
   3  -5   2    5.30    5.10
   3  -5   2    5.10    5.90
  -4   5  -2    1.90    5.00
   4  -5   2   -6.40    5.80
  -5   5  -2    5.60    5.40
   5  -5   2    1.00    6.40
  -6   5  -2   87.69    9.30
   6  -5   2   62.69   10.30
  -7   5  -2  162.28   12.80
   7  -5   2  178.68   16.50
  -8   5  -2  327.87   16.80
   8  -5   2  326.67   20.20
  -7  -4   2   20.50    9.10
  -6  -4   2   14.60    8.80
  -6  -4   2   13.40    8.70
  -5  -4   2  -13.60    7.50
  -5  -4   2    4.60    6.50
  -4  -4   2    0.70    6.90
  -3  -4   2  328.87   13.60
  -3  -4   2  403.96   17.90
  -2  -4   2  211.18    8.60
  -2  -4   2  222.88   13.40
  -1  -4   2    8.60    2.20
  -1  -4   2    6.80    6.10
   0  -4   2 2317.77   58.29
  -1   4  -2 1651.03   39.40
   1  -4   2 1679.13   39.50
   1  -4   2 1665.63   43.50
  -2   4  -2  121.19    8.60
   2  -4   2  119.39    9.90
   2  -4   2  122.09    7.70
  -3   4  -2  206.68   10.20
   3  -4   2  206.28   11.10
  -4   4  -2   65.29    7.00
   4  -4   2   72.69    9.10
  -5   4  -2    4.40    5.60
   5  -4   2   11.30    7.60
  -6   4  -2   -7.00    5.60
   6  -4   2    2.00    8.00
  -7   4  -2   36.40    8.20
   7  -4   2   10.80    8.10
  -8   4  -2  103.89   11.40
   8  -4   2  105.89   13.60
  -7  -3   2   38.80    8.70
  -7  -3   2   29.30    9.90
  -6  -3   2   52.59   10.00
  -6  -3   2   35.00    8.70
   5   3  -2    7.40    6.00
  -5  -3   2   -1.20    7.20
  -5  -3   2   -1.00    5.70
   4   3  -2   30.50    6.30
  -4  -3   2   18.00    7.90
   3   3  -2   14.10    4.70
  -3  -3   2    0.00    4.80
  -3  -3   2    2.30    5.70
  -2  -3   2  101.09    9.40
  -2  -3   2  101.79    6.70
   1   3  -2  311.97   14.10
  -1  -3   2  306.27   13.90
  -1  -3   2  303.77    8.30
   0  -3   2 1396.06   36.50
  -1   3  -2 2242.18   52.09
  -1   3  -2 2173.88   54.29
  -1   3  -2 2302.97   53.79
   1  -3   2 2303.47   52.19
   1  -3   2 2177.88   53.29
   1  -3   2 2189.18   54.49
  -2   3  -2   23.70    5.40
  -2   3  -2   -0.20    3.90
   2  -3   2   20.90    5.20
   2  -3   2   15.60    5.40
   2  -3   2   10.50    4.60
  -3   3  -2   28.70    5.50
   3  -3   2   11.80    6.10
  -4   3  -2   21.10    5.40
   4  -3   2    8.30    5.90
  -5   3  -2   -2.40    5.30
   5  -3   2    9.30    7.40
  -6   3  -2   10.10    6.50
   6  -3   2    4.30    8.40
  -7   3  -2   58.39    9.20
   7  -3   2   54.49   11.10
  -8   3  -2    7.20    7.30
   8  -3   2   -4.10    7.50
  -8  -2   2  102.49   12.90
   7   2  -2  132.19   13.50
  -7  -2   2  170.28   14.30
  -7  -2   2  112.89   12.50
   6   2  -2  280.57   16.30
  -6  -2   2  299.67   16.90
  -6  -2   2  281.37   16.30
   5   2  -2   54.69    8.30
  -5  -2   2   30.70    7.70
  -5  -2   2   42.70    8.80
   4   2  -2   48.20    7.30
  -4  -2   2   59.59    8.50
   3   2  -2    5.90    4.40
  -3  -2   2    0.00    4.60
  -3  -2   2   13.90    6.50
   2   2  -2    2.60    4.30
   2   2  -2    1.50    3.80
  -2  -2   2    7.20    3.70
  -2  -2   2   14.80    5.90
   1   2  -2    5.30    2.50
  -1  -2   2    2.20    5.40
  -1  -2   2    6.10    2.40
   0   2  -2 2118.09   52.59
   0   2  -2 2201.08   49.70
   0  -2   2 2268.37   52.99
  -1   2  -2  559.04   15.90
  -1   2  -2  546.25   15.50
   1  -2   2  532.65   15.40
   1  -2   2  565.04   16.00
   1  -2   2  548.05   16.10
  -2   2  -2 1119.79   28.40
   2  -2   2 1080.09   28.00
   2  -2   2 1085.99   28.90
  -3   2  -2    5.80    4.40
   3  -2   2   -1.80    5.00
   3  -2   2   12.20    5.00
  -4   2  -2  275.07   12.20
   4  -2   2  244.08   13.10
  -5   2  -2   26.80    6.60
   5  -2   2    8.40    7.50
  -6   2  -2   90.59    9.80
   6  -2   2   64.19   10.00
  -7   2  -2   -4.40    6.90
   7  -2   2   10.90    7.80
  -8   2  -2   31.50    9.40
   8  -2   2   39.10   10.20
   8   1  -2   51.89   11.20
  -8  -1   2   46.70    9.70
   7   1  -2  197.08   15.30
  -7  -1   2  195.08   14.40
   6   1  -2   75.59   10.90
  -6  -1   2   92.19   10.60
  -6  -1   2   91.99   10.00
   5   1  -2   17.30    6.90
  -5  -1   2   10.40    6.50
  -5  -1   2   18.10    6.10
   4   1  -2    0.90    5.40
  -4  -1   2    1.70    5.70
   3   1  -2   83.09   12.10
   3   1  -2   75.19    7.40
  -3  -1   2   80.29    8.10
  -3  -1   2   82.69    7.20
   2   1  -2 1219.98   30.60
  -2  -1   2 1203.68   30.60
  -2  -1   2 1252.87   32.30
   1   1  -2 2678.43   61.89
  -1  -1   2 2772.02   63.89
  -1  -1   2 2673.83   61.89
   0   1  -2   56.19    4.80
   0   1  -2   57.59    4.90
   0  -1   2   63.79    5.50
  -1   1  -2  191.08    8.80
  -1   1  -2  200.28    8.20
   1  -1   2  205.08    8.40
   1  -1   2  201.58    7.30
  -2   1  -2 2399.36   55.79
   2  -1   2 2238.68   55.49
   2  -1   2 2387.86   56.89
  -3   1  -2  512.55   16.30
   3  -1   2  535.55   18.60
   3  -1   2  508.85   14.60
  -4   1  -2  129.09    8.50
   4  -1   2  125.39    7.10
   4  -1   2  118.19   10.10
  -5   1  -2    0.30    5.30
   5  -1   2    2.40    6.40
  -6   1  -2  148.89   12.20
   6  -1   2  118.29   12.60
  -7   1  -2   -3.10    6.90
   7  -1   2   10.90    9.10
  -8   1  -2   29.70    9.50
   8   0  -2   55.19   10.50
  -8   0   2   45.10    8.90
   7   0  -2  268.17   17.60
  -7   0   2  281.97   14.90
   6   0  -2  145.39   13.60
  -6   0   2  147.79   11.10
   5   0  -2  222.98   13.70
  -5   0   2  227.38   12.90
  -5   0   2  230.68   11.20
   4   0  -2  252.57   12.50
  -4   0   2  242.98   10.30
  -4   0   2  233.58   11.80
   3   0  -2 1551.34   39.40
   3   0  -2 1527.65   39.70
  -3   0   2 1585.94   40.00
  -3   0   2 1509.25   39.30
   2   0  -2 9999.00  224.88
   2   0  -2 9569.44  221.78
  -2   0   2 9965.20  222.48
  -2   0   2 9738.53  221.68
   1   0  -2 2717.53   65.19
  -1   0   2 2882.71   64.39
  -1   0   2 2873.61   65.89
  -1   0   2 2875.71   65.29
   0   0  -2  435.06   11.90
   0   0  -2  453.55   11.60
   0   0   2  443.86   12.00
   0   0   2  444.06   11.70
  -1   0  -2 1600.44   38.40
  -2   0  -2  775.22   21.00
   2   0   2  724.23   17.90
   2   0   2  724.43   20.60
  -3   0  -2  726.53   21.60
   3   0   2  695.33   18.80
   3   0   2  761.12   23.10
  -4   0  -2  240.98   12.00
   4   0   2  199.58    9.00
   4   0   2  239.78   13.70
  -5   0  -2  169.48   11.80
   5   0   2  176.78   13.80
  -6   0  -2    0.30    6.60
  -7   0  -2   45.80    9.90
  -8   0  -2  116.49   13.60
   9  -1  -2   22.30    9.40
   8  -1  -2   96.59   13.70
  -8   1   2   68.49    9.20
   7  -1  -2   46.10   10.10
  -7   1   2   48.10    7.40
   6  -1  -2  610.64   24.10
  -6   1   2  598.34   19.80
   5  -1  -2  250.07   14.90
  -5   1   2  259.87   10.90
   4  -1  -2  533.85   19.60
  -4   1   2  547.15   15.70
   3  -1  -2  102.99    7.60
   3  -1  -2  119.39    8.70
  -3   1   2  107.69    5.40
  -3   1   2  111.19    8.50
   2  -1  -2  542.05   16.30
  -2   1   2  492.75   15.80
  -2   1   2  517.65   12.40
   1  -1  -2  490.85   12.10
   1  -1  -2  511.75   14.40
  -1   1   2  504.65   12.10
   0  -1  -2  165.28    6.50
   0   1   2  164.18    6.90
  -1  -1  -2  217.88    7.00
  -1  -1  -2  243.28    9.40
  -2  -1  -2  843.62   21.20
  -2  -1  -2  861.61   24.00
  -2  -1  -2  827.02   24.50
   2   1   2  885.31   21.40
  -3  -1  -2 1248.18   33.50
  -3  -1  -2 1218.88   30.40
   3   1   2 1200.68   30.40
  -4  -1  -2  268.17   13.80
  -4  -1  -2  261.27   10.30
  -5  -1  -2  113.79   11.00
  -6  -1  -2   84.19   10.60
  -7  -1  -2  112.69   12.30
   9  -2  -2   12.10    8.80
   8  -2  -2   79.89   12.60
   7  -2  -2   10.60    8.90
  -7   2   2    1.40    5.20
   6  -2  -2 1061.99   34.30
  -6   2   2 1057.79   28.70
   5  -2  -2  656.43   23.40
  -5   2   2  662.73   18.60
   4  -2  -2  809.42   25.20
  -4   2   2  809.52   20.60
   3  -2  -2  168.08   10.60
   3  -2  -2  136.09    8.20
  -3   2   2  140.89    4.90
   2  -2  -2   22.70    5.30
   1  -2  -2  309.57   11.30
   0  -2  -2  434.06   12.90
  -1  -2  -2  189.88    9.20
  -1  -2  -2  194.48    8.10
  -2  -2  -2  578.74   16.60
  -2  -2  -2  583.04   19.00
   2   2   2  579.54   16.40
  -3  -2  -2  304.97   14.50
  -3  -2  -2  314.97   12.10
   3   2   2  344.47   13.00
  -4  -2  -2  358.86   13.50
  -4  -2  -2  324.87   16.30
  -5  -2  -2   94.49    8.60
  -5  -2  -2   71.19   10.50
  -6  -2  -2   23.80    9.10
  -7  -2  -2    4.20    8.80
   9  -3  -2   12.50   10.20
   8  -3  -2    7.90    9.80
   7  -3  -2   33.00    9.80
  -7   3   2   43.30    6.40
   6  -3  -2   -0.90    8.40
  -6   3   2    0.00    4.10
   5  -3  -2  701.63   24.80
  -5   3   2  673.93   18.40
   4  -3  -2  524.35   13.90
   4  -3  -2  548.55   19.40
  -4   3   2  534.15   14.10
   3  -3  -2  158.08    5.30
   3  -3  -2  172.28   10.80
   1  -3  -2    0.90    4.40
   0  -3  -2   59.59    5.90
  -1  -3  -2    5.90    4.10
  -1  -3  -2    7.30    4.80
  -2  -3  -2   20.90    6.30
  -2  -3  -2   19.50    4.60
  -3  -3  -2   22.80    6.70
  -3  -3  -2   34.60    6.10
  -4  -3  -2  318.57   14.50
  -4  -3  -2  346.87   17.60
  -5  -3  -2  183.28   14.20
  -6  -3  -2   59.59   11.60
  -7  -3  -2   23.60    9.30
   9  -4  -2    4.10   10.00
   8  -4  -2    7.90   10.10
   7  -4  -2   -0.70    9.20
  -7   4   2   -3.40    4.30
   6  -4  -2   71.69   10.70
  -6   4   2   75.29    6.30
   5  -4  -2  410.16   18.20
   5  -4  -2  413.76   12.00
  -5   4   2  412.96   12.30
   4  -4  -2  263.47   14.00
   4  -4  -2  246.58    8.00
   3  -4  -2   -5.80    2.40
   3  -4  -2    6.40    5.20
   2  -4  -2  195.18   10.00
  -2   4   2  179.88    8.90
   1  -4  -2  149.79    8.40
   0  -4  -2   12.10    5.00
  -1  -4  -2   38.60    5.90
  -2  -4  -2   32.10    5.80
  -2  -4  -2   27.60    7.00
  -3  -4  -2   -0.80    6.70
  -3  -4  -2   -2.00    5.40
  -4  -4  -2  210.28   15.50
  -4  -4  -2  189.78   13.50
  -5  -4  -2  144.09   13.90
  -6  -4  -2   16.40   10.00
   9  -5  -2    6.50    9.10
   8  -5  -2   49.30   11.40
   7  -5  -2   32.90   10.40
   6  -5  -2   10.70    9.40
  -6   5   2   11.70    3.70
   5  -5  -2  187.98    7.40
   5  -5  -2  174.78   13.10
   4  -5  -2  773.52   24.60
   4  -5  -2  717.13   19.30
   3  -5  -2  887.61   26.00
   3  -5  -2  845.42   22.40
   2  -5  -2  484.55   16.50
   1  -5  -2  216.98   12.50
   1  -5  -2  194.58    9.90
   0  -5  -2  133.89   10.20
  -1  -5  -2   -7.90    4.40
  -2  -5  -2    8.10    5.80
  -2  -5  -2    5.70    6.20
  -3  -5  -2  124.29   11.10
  -3  -5  -2  115.19   11.90
  -4  -5  -2   24.50    8.60
  -4  -5  -2   19.50    8.40
  -5  -5  -2  129.59   15.10
   8  -6  -2  209.18   18.00
   7  -6  -2   30.30   10.40
   6  -6  -2   32.80   10.70
   5  -6  -2   32.90    9.50
   5  -6  -2   46.20    4.80
   4  -6  -2  277.97   15.00
   4  -6  -2  275.37   10.20
   3  -6  -2  448.86   17.20
   2  -6  -2  632.24   20.30
   1  -6  -2   19.20    5.20
   1  -6  -2   20.30    7.10
   0  -6  -2   47.70    8.10
  -1  -6  -2   31.80    7.30
  -2  -6  -2  100.19   10.30
  -2  -6  -2  100.69   11.40
  -3  -6  -2    6.00    8.10
  -3  -6  -2   -0.40    7.00
  -4  -6  -2   -5.50    7.40
  -5  -6  -2   49.60   10.90
   9  -7  -2  257.67   21.50
   8  -7  -2   29.80   12.50
   7  -7  -2   14.50   10.60
   6  -7  -2   24.10   10.60
   5  -7  -2    4.50    8.50
   4  -7  -2  134.29   12.10
   3  -7  -2  418.56   17.00
   2  -7  -2  297.47   17.00
   2  -7  -2  292.27   13.30
   1  -7  -2  167.28   13.60
   1  -7  -2  164.48   10.40
   0  -7  -2  806.42   24.80
   0  -7  -2  803.42   28.50
  -1  -7  -2  427.36   19.60
  -2  -7  -2   33.00    9.20
  -2  -7  -2   22.60    7.90
  -3  -7  -2   -1.40    7.80
  -3  -7  -2    5.20    8.50
  -4  -7  -2    7.20    8.40
   8  -8  -2   11.20   11.30
   7  -8  -2   24.70   10.30
   6  -8  -2    1.50    8.40
   5  -8  -2   46.80   10.80
   4  -8  -2  103.09   11.50
   3  -8  -2   24.10    8.20
   3  -8  -2   34.90    7.60
   2  -8  -2  113.89   12.30
   2  -8  -2  109.09    9.90
   1  -8  -2  223.98   12.10
   1  -8  -2  206.28   15.10
   0  -8  -2  219.38   15.20
   0  -8  -2  233.18   12.40
  -1  -8  -2   75.99   11.20
  -2  -8  -2    6.20    7.90
  -2  -8  -2    8.20    7.70
  -3  -8  -2   12.20    8.40
   8  -9  -2   77.79   14.70
   7  -9  -2   19.60   11.00
   6  -9  -2  -11.00    9.60
   5  -9  -2    2.30    9.30
   4  -9  -2   -3.40    7.70
   4  -9  -2    0.30    8.40
   3  -9  -2   69.39   11.20
   3  -9  -2   70.39    9.60
   2  -9  -2   30.80    7.10
   2  -9  -2   50.09   11.00
   1  -9  -2  147.19   14.30
   0  -9  -2   38.20   10.10
  -1  -9  -2   45.80   10.20
  -2  -9  -2   21.00    9.40
  -2  -9  -2   13.80    9.20
   7 -10  -2   18.40   12.00
   6 -10  -2    4.90    8.00
   6 -10  -2  -21.20    9.10
   5 -10  -2  -22.90    8.40
   5 -10  -2    3.00    8.90
   4 -10  -2    6.20    8.70
   4 -10  -2   25.70   10.20
   3 -10  -2   16.60    8.80
   2 -10  -2   79.59   12.10
   1 -10  -2  168.88   15.80
   0 -10  -2   73.19   12.70
  -1 -10  -2   65.89   11.80
   6 -11  -2   60.29   13.10
   5 -11  -2   18.20    9.50
   4 -11  -2    2.90    9.20
   3 -11  -2    1.60    9.60
   2 -11  -2   -9.10    8.40
   1 -11  -2  110.29   15.10
   1 -11   3   10.40    9.70
   2 -11   3   -0.60   10.10
   3 -11   3   22.90   10.50
   4 -11   3   27.90   10.70
   5 -11   3  -10.20    8.20
  -1 -10   3   59.79   13.80
   0 -10   3   14.70   10.50
   1 -10   3    7.80   10.10
   2 -10   3    4.70    8.60
   3 -10   3    2.60    8.80
   4 -10   3   -3.20    8.00
   5 -10   3  119.79   15.80
   6 -10   3   97.19   13.50
  -3  -9   3  -12.20    9.50
  -2  -9   3   68.69   13.30
  -1  -9   3   13.60    9.20
   0  -9   3  328.77   20.40
   1  -9   3    2.60    8.40
   2  -9   3   14.50    8.80
   3  -9   3   -6.00    7.40
   4  -9   3    1.30    7.90
   5  -9   3   25.70    8.00
   5  -9   3   33.70   10.40
   6  -9   3  124.59   15.10
   6  -9   3  132.69   13.60
   7  -9   3   69.99   12.50
   7  -9   3  111.19   13.50
  -4  -8   3  -31.00    9.00
  -3  -8   3   78.29   14.50
  -2  -8   3  119.69   14.20
  -1  -8   3  100.79   13.80
   0  -8   3  323.07   19.90
   1  -8   3   50.09   10.10
   2  -8   3  129.79   14.40
   3  -8   3   17.70    5.40
   3  -8   3   -1.20    7.20
   4  -8   3  116.89   13.70
   4  -8   3  128.39   11.00
   5  -8   3    5.80    7.40
   5  -8   3   11.70    8.50
  -6   8  -3    8.40    7.00
   6  -8   3    6.00    8.30
   6  -8   3   30.40    9.10
  -7   8  -3   97.49   11.10
   7  -8   3   94.09   13.00
   7  -8   3   91.99   12.70
   8  -8   3   92.49   13.30
  -5  -7   3  245.68   23.20
  -4  -7   3   74.59   14.10
  -3  -7   3   52.19   12.20
  -2  -7   3  176.58   16.20
  -1  -7   3  220.58   16.80
   0  -7   3   45.00    9.10
   1  -7   3  201.88   14.60
   2  -7   3  154.78    8.00
   2  -7   3  143.19   13.00
   3  -7   3   35.30    8.50
   3  -7   3   36.30    6.50
  -4   7  -3   62.39    8.30
   4  -7   3   52.49    9.60
   4  -7   3   69.59    9.10
  -5   7  -3   28.50    7.50
   5  -7   3   21.30    7.80
   5  -7   3   33.40    8.90
  -6   7  -3   13.30    6.90
   6  -7   3    1.80    8.10
   6  -7   3    8.10    7.70
  -7   7  -3  126.09   12.00
   7  -7   3  134.79   14.90
   7  -7   3  124.39   13.50
   8  -7   3   87.29   13.80
  -5  -6   3   39.50   12.00
  -4  -6   3   -7.90    8.40
  -3  -6   3    8.00    8.30
  -2  -6   3   39.60    9.70
  -1  -6   3  107.29   11.70
   0  -6   3  323.87   16.50
   1  -6   3  464.75   19.60
   2  -6   3   19.60    4.50
   2  -6   3   11.40    7.30
  -3   6  -3   11.10    5.90
   3  -6   3   -3.80    5.60
   3  -6   3    0.70    5.00
  -4   6  -3  125.19   10.70
   4  -6   3  147.49   11.30
   4  -6   3  150.98   12.80
  -5   6  -3   39.10    7.40
   5  -6   3   40.40    8.30
   5  -6   3   47.40    8.80
  -6   6  -3   85.69   10.00
   6  -6   3   74.29   11.50
   6  -6   3   71.79   10.20
  -7   6  -3   24.10    8.10
   7  -6   3   38.70    9.70
  -8   6  -3   49.20   13.40
   8  -6   3   71.59   12.60
  -6  -5   3   41.90   11.50
  -6  -5   3   54.29   11.00
  -5  -5   3    4.60   10.20
  -4  -5   3   23.20   10.30
  -3  -5   3   36.60    9.70
  -2  -5   3   94.29    4.70
  -2  -5   3   97.99   11.10
  -1  -5   3    7.10    6.40
   0  -5   3  498.15   19.90
  -1   5  -3  201.38    7.20
   1  -5   3  203.58   13.00
   1  -5   3  199.08    7.20
  -2   5  -3  618.34   20.40
   2  -5   3  591.74   21.30
   2  -5   3  630.44   18.30
  -3   5  -3  229.88   11.90
   3  -5   3  246.58   11.80
   3  -5   3  236.68   13.40
  -4   5  -3  104.99    9.10
   4  -5   3  115.79   10.40
   4  -5   3  105.49    9.90
  -5   5  -3    4.00    6.10
   5  -5   3    9.80    7.80
  -6   5  -3    8.80    6.90
   6  -5   3    6.60    7.50
  -7   5  -3   50.09    9.20
   7  -5   3   61.29   12.00
  -8   5  -3   13.70    8.00
   8  -5   3    5.30    9.10
  -7  -4   3   59.19   11.00
  -7  -4   3   46.00   10.80
  -6  -4   3  114.09   12.20
  -6  -4   3   88.59   12.70
  -5  -4   3    4.50    8.90
  -4  -4   3   10.50    8.80
  -3  -4   3  111.39    7.70
  -3  -4   3  125.39   11.90
  -2  -4   3  254.17    8.40
  -2  -4   3  246.78   13.90
  -1  -4   3   39.80    7.20
   0  -4   3  305.17   13.90
  -1   4  -3  450.65   15.50
  -1   4  -3  423.56   12.60
   1  -4   3  446.56   17.00
  -2   4  -3  404.06   14.50
   2  -4   3  391.36   13.60
   2  -4   3  399.86   15.70
  -3   4  -3  715.43   22.10
   3  -4   3  717.53   22.60
   3  -4   3  714.23   22.50
  -4   4  -3  298.67   13.70
   4  -4   3  306.77   15.10
  -5   4  -3    0.50    5.80
   5  -4   3    5.80    6.70
  -6   4  -3   11.10    6.90
   6  -4   3    5.10    7.40
  -7   4  -3  126.89   12.40
   7  -4   3  118.49   14.40
  -8   4  -3   19.70    8.60
   8  -4   3   39.70   11.10
  -7  -3   3   42.90    9.60
  -7  -3   3    8.60    8.10
   6   3  -3  359.76   17.40
  -6  -3   3  320.67   19.30
  -6  -3   3  296.67   17.30
   5   3  -3   37.60    7.40
  -5  -3   3   35.70    9.50
   4   3  -3    6.30    5.10
  -4  -3   3   -0.70    7.70
   3   3  -3   46.80    5.50
  -3  -3   3   42.00    5.40
  -3  -3   3   41.10    7.90
   2   3  -3    5.60    3.20
  -2  -3   3    4.50    6.00
  -2  -3   3    7.70    3.00
  -1  -3   3  133.89    9.80
   0   3  -3 1093.29   30.50
   0   3  -3 1150.88   26.30
   0  -3   3 1136.09   31.10
  -1   3  -3  853.01   21.70
  -1   3  -3  796.12   23.20
  -1   3  -3  842.02   23.00
   1  -3   3  790.82   22.80
   1  -3   3  807.72   23.40
  -2   3  -3  683.33   20.60
   2  -3   3  678.73   20.30
   2  -3   3  707.33   20.50
  -3   3  -3 1174.68   32.70
   3  -3   3 1254.87   32.60
   3  -3   3 1235.08   33.90
  -4   3  -3   57.09    7.50
   4  -3   3   62.09    8.70
  -5   3  -3    5.60    6.20
   5  -3   3    9.30    6.70
  -6   3  -3   11.80    6.80
   6  -3   3   23.60    8.40
  -7   3  -3   21.00    8.50
   7  -3   3   51.39   11.10
  -8   3  -3   16.40    8.60
   8  -3   3   25.90    9.30
   8   2  -3   49.10   10.20
  -8  -2   3   15.40    8.80
   7   2  -3   36.40    9.20
  -7  -2   3   31.00    9.00
  -7  -2   3   45.50    9.20
   6   2  -3  430.86   19.60
  -6  -2   3  418.76   19.10
  -6  -2   3  468.15   21.20
   5   2  -3  263.07   14.60
  -5  -2   3  277.27   16.60
   4   2  -3  291.07   13.00
  -4  -2   3  291.17   15.60
   3   2  -3   -1.10    4.30
  -3  -2   3    8.20    6.90
  -3  -2   3   -2.40    3.80
   2   2  -3   -2.90    3.60
  -2  -2   3    7.90    5.80
  -2  -2   3    0.60    3.30
   1   2  -3    1.50    2.50
  -1  -2   3    5.30    6.00
   0   2  -3  110.69    7.50
   0   2  -3  107.59    7.50
   0  -2   3  103.29    7.90
  -1   2  -3  264.57    9.90
  -1   2  -3  253.57   10.30
  -1   2  -3  259.87    9.90
   1  -2   3  253.37   10.40
   1  -2   3  265.07   10.30
  -2   2  -3   53.89    6.40
  -2   2  -3   42.00    5.70
   2  -2   3   43.40    5.30
   2  -2   3   36.70    6.40
   2  -2   3   36.90    4.70
  -3   2  -3 2492.75   60.79
   3  -2   3 2459.25   62.09
  -4   2  -3   67.39    7.30
   4  -2   3   65.29    9.20
  -5   2  -3   47.40    7.30
   5  -2   3   65.19   10.10
  -6   2  -3    5.90    7.10
   6  -2   3   16.50    8.10
  -7   2  -3   -0.60    7.50
  -8   2  -3   13.80    8.90
   8   1  -3   45.90   10.70
  -8  -1   3   25.00    8.50
   7   1  -3   65.79   11.10
  -7  -1   3   63.99    9.40
  -7  -1   3   69.69   10.50
   6   1  -3  113.19   12.20
  -6  -1   3  115.79   11.80
  -6  -1   3  124.99   10.90
   5   1  -3   25.50    7.40
  -5  -1   3   31.00    6.60
  -5  -1   3   27.80    7.20
   4   1  -3  305.77   13.80
  -4  -1   3  294.57   14.20
   3   1  -3   24.60    5.70
  -3  -1   3   19.60    4.70
  -3  -1   3   19.70    6.80
   2   1  -3    2.80    4.00
  -2  -1   3    4.00    3.80
  -2  -1   3    5.40    6.10
   1   1  -3   25.80    3.80
   1   1  -3   24.20    5.50
  -1  -1   3   25.60    5.60
  -1  -1   3   25.30    4.50
   0   1  -3  171.88    7.80
   0   1  -3  172.68    8.50
   0  -1   3  174.68    7.60
   0  -1   3  188.38    8.60
  -1   1  -3    3.20    4.40
  -1   1  -3   -0.70    3.80
  -1   1  -3   -4.70    2.80
   1  -1   3    4.30    3.10
  -2   1  -3  391.66   14.30
  -2   1  -3  398.76   14.00
   2  -1   3  403.26   13.40
   2  -1   3  411.86   11.10
  -3   1  -3 1016.80   28.00
   3  -1   3  980.40   24.50
  -4   1  -3  229.08   12.10
   4  -1   3  214.38    8.60
   4  -1   3  214.68   12.90
  -5   1  -3  187.18   12.50
  -6   1  -3  138.09   12.70
  -7   1  -3  -16.20    6.60
  -8   1  -3    8.20    8.50
   8   0  -3    9.70    8.00
  -8   0   3   -5.30    6.30
   7   0  -3   47.90   10.60
  -7   0   3   44.10    8.00
   6   0  -3  118.69   12.00
  -6   0   3  123.79   12.00
  -6   0   3  116.59    9.50
   5   0  -3  149.59   11.40
  -5   0   3  146.09    9.30
  -5   0   3  127.29   11.50
   4   0  -3  676.93   22.70
  -4   0   3  722.13   23.40
   3   0  -3  150.08    9.50
  -3   0   3  117.59    8.30
  -3   0   3  126.49   10.50
   2   0  -3 4047.20   91.89
  -2   0   3 4022.60   92.79
  -2   0   3 3814.52   91.59
   1   0  -3  619.64   17.30
   1   0  -3  638.94   18.00
   1   0  -3  622.04   16.10
  -1   0   3  620.74   16.10
  -1   0   3  619.54   17.70
   0   0  -3  541.45   14.50
   0   0  -3  549.25   15.10
   0   0   3  559.74   14.60
   0   0   3  522.45   15.00
  -1   0  -3   83.39    6.50
  -2   0  -3  587.24   18.20
  -3   0  -3   65.39    6.90
   3   0   3   60.09    3.80
  -4   0  -3  324.37   14.10
   4   0   3  326.47   10.30
  -5   0  -3  247.78   14.20
  -6   0  -3 1246.18   38.20
  -7   0  -3   20.50    8.80
   9  -1  -3   30.40   11.10
   8  -1  -3   44.90   10.40
   7  -1  -3   12.20    9.10
  -7   1   3   12.00    5.30
   6  -1  -3   18.40    8.10
  -6   1   3   38.40    5.90
   5  -1  -3  272.67   15.10
  -5   1   3  253.07   10.20
   4  -1  -3  374.56   15.60
  -4   1   3  383.06   11.70
   3  -1  -3   70.49    7.20
   3  -1  -3   83.29    8.40
  -3   1   3   72.49    8.10
  -3   1   3   85.49    7.80
   2  -1  -3  535.35   16.50
  -2   1   3  503.65   12.60
   1  -1  -3 4311.77   95.69
   1  -1  -3 4293.27   97.69
   1  -1  -3 3987.60   96.99
  -1   1   3 4321.67   95.69
   0  -1  -3  615.84   16.60
   0   1   3  614.54   16.80
  -1  -1  -3  249.68   10.50
  -1  -1  -3  238.58    6.80
  -2  -1  -3   10.10    5.10
  -2  -1  -3    3.70    2.00
  -3  -1  -3  162.98   10.60
   3   1   3  149.39    6.00
  -4  -1  -3  198.68   12.70
   4   1   3  213.08    8.20
  -5  -1  -3   15.60    6.80
  -6  -1  -3  286.87   17.30
  -7  -1  -3   41.30    9.60
   9  -2  -3   10.20   10.00
   8  -2  -3   20.60    9.20
   7  -2  -3  108.59   13.00
  -7   2   3  101.59    8.40
   6  -2  -3  313.27   17.40
  -6   2   3  326.07   11.80
   5  -2  -3  571.34   21.50
  -5   2   3  576.14   15.90
   4  -2  -3  106.19    9.80
  -4   2   3  110.69    4.80
   3  -2  -3  749.13   22.60
   2  -2  -3  614.24   18.50
   2  -2  -3  611.54   14.30
   1  -2  -3   32.30    3.70
   1  -2  -3   35.50    6.10
   0  -2  -3 1125.09   28.40
  -1  -2  -3 1399.56   35.60
  -1  -2  -3 1363.66   33.40
  -2  -2  -3   90.29    8.20
  -2  -2  -3   74.59    5.60
  -3  -2  -3  234.88   12.70
  -3  -2  -3  269.57    9.80
   3   2   3  245.38    9.20
  -4  -2  -3   25.40    7.10
  -4  -2  -3   44.20    5.00
  -5  -2  -3  187.48   14.90
  -6  -2  -3   39.70    9.10
  -7  -2  -3   15.10    9.40
   9  -3  -3   16.90    9.40
   8  -3  -3    4.20    8.80
   7  -3  -3   21.60    9.70
  -7   3   3   33.50    5.40
   6  -3  -3   17.90    8.50
  -6   3   3    6.90    3.50
   5  -3  -3   35.40    8.20
  -5   3   3   39.50    3.40
   4  -3  -3  493.75   19.00
   3  -3  -3 1040.00   29.50
   2  -3  -3 1343.27   34.20
   2  -3  -3 1277.17   30.30
  -2   3   3 1242.08   33.70
   1  -3  -3   54.19    6.30
   1  -3  -3   74.89    5.80
   0  -3  -3   28.70    5.50
  -1  -3  -3  197.08   11.00
  -1  -3  -3  205.28    9.10
  -2  -3  -3   66.59    7.70
  -2  -3  -3   74.29    6.60
  -3  -3  -3   53.09    8.20
  -3  -3  -3   45.70    6.20
  -4  -3  -3   42.10    9.40
  -4  -3  -3   52.59    6.60
  -5  -3  -3   49.99   10.30
  -6  -3  -3   73.29   11.70
   9  -4  -3   21.60   10.30
   8  -4  -3    4.40    9.20
   7  -4  -3   13.80    9.30
   6  -4  -3   12.60    9.30
  -6   4   3    0.80    2.90
   5  -4  -3   94.59   11.40
   4  -4  -3  189.68   11.80
   3  -4  -3  808.12   20.00
   3  -4  -3  830.82   25.10
   2  -4  -3  606.14   19.50
   1  -4  -3   41.90    6.30
   0  -4  -3  102.49    8.20
   0  -4  -3  102.49    8.10
  -1  -4  -3  112.29    8.30
  -1  -4  -3  107.29    9.70
  -2  -4  -3    3.30    5.70
  -2  -4  -3   -2.20    4.30
  -3  -4  -3    4.40    5.40
  -3  -4  -3    3.40    6.40
  -4  -4  -3   14.10    7.90
  -5  -4  -3   91.79   12.20
  -6  -4  -3   60.49   11.70
   9  -5  -3   60.69   13.30
   8  -5  -3   33.20   12.00
   7  -5  -3    7.30    9.30
   6  -5  -3    5.50    8.10
   5  -5  -3   39.90    8.50
   5  -5  -3   51.09    3.60
   4  -5  -3   40.40    7.40
   4  -5  -3   45.80    3.60
   3  -5  -3  711.33   22.80
   3  -5  -3  671.43   18.30
   2  -5  -3  417.16   15.80
   1  -5  -3 1156.38   32.00
   0  -5  -3  522.25   18.60
  -1  -5  -3  113.79    9.70
  -1  -5  -3  125.09   10.60
  -2  -5  -3   -7.80    4.80
  -2  -5  -3    3.80    7.00
  -3  -5  -3    0.70    6.90
  -3  -5  -3   -4.30    5.90
  -4  -5  -3  -10.40    6.90
  -5  -5  -3   -1.40    8.90
   9  -6  -3   -8.70   10.10
   8  -6  -3  354.16   23.30
   7  -6  -3   19.30   10.90
   6  -6  -3   38.80   10.70
   5  -6  -3   -2.10    7.70
   5  -6  -3    0.90    3.00
   4  -6  -3   30.20    4.00
   4  -6  -3   41.20    7.70
   3  -6  -3  178.18   11.60
   3  -6  -3  183.88    8.20
   2  -6  -3   66.19    7.60
   1  -6  -3    1.30    5.90
   1  -6  -3    2.80    4.70
   0  -6  -3 1006.70   31.20
  -1  -6  -3   93.09   10.40
  -1  -6  -3   92.39    9.90
  -2  -6  -3  139.09   11.80
  -2  -6  -3  131.39   13.20
  -3  -6  -3   27.80    8.60
  -3  -6  -3   21.90    7.80
  -4  -6  -3    4.00    8.90
   9  -7  -3   12.10   11.40
   8  -7  -3   50.99   12.60
   7  -7  -3   54.89   11.80
   6  -7  -3   19.60   10.10
   5  -7  -3   -2.10    7.70
   4  -7  -3   52.29    8.40
   3  -7  -3  128.99   10.80
   2  -7  -3  188.08   11.90
   2  -7  -3  183.98   13.40
   1  -7  -3    0.70    6.60
   1  -7  -3    7.30    5.30
   0  -7  -3  430.66   19.40
   0  -7  -3  430.46   17.20
  -1  -7  -3   28.40    7.60
  -1  -7  -3   42.20    8.30
  -2  -7  -3    0.60    6.50
  -2  -7  -3   -1.80    7.50
  -3  -7  -3   10.90    8.90
  -4  -7  -3   13.30    8.70
   8  -8  -3   42.80   13.30
   7  -8  -3   46.30   12.70
   6  -8  -3    5.70    9.60
   5  -8  -3   16.30    9.00
   4  -8  -3  122.79   12.20
   3  -8  -3    9.10    6.30
   3  -8  -3    7.10    8.00
   2  -8  -3   -7.60    5.30
   2  -8  -3    9.00    7.90
   1  -8  -3  100.09    9.60
   1  -8  -3   80.49   11.00
   0  -8  -3  209.08   12.40
   0  -8  -3  173.88   14.50
  -1  -8  -3   30.30    8.50
  -1  -8  -3   44.80    9.90
  -2  -8  -3  120.99   12.80
  -2  -8  -3  148.59   14.90
  -3  -8  -3   39.60   10.10
   8  -9  -3   70.59   13.80
   7  -9  -3  206.28   19.40
   6  -9  -3  -12.30    9.60
   5  -9  -3   50.19   11.40
   4  -9  -3    0.50    8.10
   4  -9  -3   -2.00    7.20
   3  -9  -3    9.80    7.90
   3  -9  -3   14.40    7.00
   2  -9  -3    7.40    6.20
   2  -9  -3   11.10    7.70
   1  -9  -3    4.00    5.80
   1  -9  -3    6.50    8.20
   0  -9  -3   50.69   10.50
  -1  -9  -3   97.39   12.60
  -1  -9  -3   94.29   12.20
  -2  -9  -3   47.10   11.40
   7 -10  -3   20.80   12.40
   6 -10  -3  -14.20    9.80
   5 -10  -3   74.19   12.90
   5 -10  -3  104.79   13.70
   4 -10  -3   49.00   11.30
   4 -10  -3   25.00    9.20
   3 -10  -3    3.30    8.10
   3 -10  -3   -9.20   10.40
   2 -10  -3   -4.80    8.40
   1 -10  -3   77.89   12.50
   0 -10  -3   27.90    9.60
   6 -11  -3   91.59   14.80
   6 -11  -3   58.49   23.50
   5 -11  -3   26.70   10.10
   4 -11  -3   39.00   12.00
   3 -11  -3    8.70    8.80
   2 -11  -3    3.30    8.10
   1 -11   4   -6.20    9.20
   2 -11   4    3.40    9.40
   3 -11   4    7.70    9.50
   4 -11   4   16.80   10.70
  -1 -10   4   87.79   15.00
   0 -10   4   39.40   12.20
   1 -10   4   18.60   10.00
   2 -10   4    8.30   10.30
   3 -10   4   -9.10    9.10
   4 -10   4   95.09   14.70
   5 -10   4   11.20   10.00
   6 -10   4   70.09   12.60
  -3  -9   4  -21.10    9.30
  -2  -9   4    0.80   10.70
  -1  -9   4  105.79   14.40
   0  -9   4   -5.10    8.80
   1  -9   4  218.78   17.50
   2  -9   4   49.40   12.00
   3  -9   4    0.30    8.80
   4  -9   4    7.90    9.20
   5  -9   4   42.00   11.30
   6  -9   4   32.00    8.90
   6  -9   4   37.10   10.60
   7  -9   4   69.79   11.60
   7  -9   4   90.29   13.60
  -4  -8   4  -17.50   11.60
  -3  -8   4   23.10   12.10
  -2  -8   4   95.49   14.40
  -1  -8   4  278.57   18.70
   0  -8   4  173.28   15.40
   1  -8   4  248.98   17.30
   2  -8   4   83.99   12.40
   3  -8   4   18.00    5.30
   3  -8   4   14.80    8.80
   4  -8   4   42.20    9.50
   4  -8   4   49.50    7.90
  -5   8  -4   21.40    8.00
   5  -8   4   28.50    8.10
   5  -8   4   17.00    9.10
  -6   8  -4   24.20    8.10
   6  -8   4   30.50    9.10
   6  -8   4   20.70    9.00
  -7   8  -4  109.19   12.20
   7  -8   4  117.99   13.80
   7  -8   4  135.89   15.10
  -5  -7   4  -26.00   11.00
  -4  -7   4  -12.20    9.40
  -3  -7   4   -6.80    9.60
  -2  -7   4   74.89   12.40
  -1  -7   4   30.80    9.10
   0  -7   4  207.98   15.00
   1  -7   4  268.87   17.60
   2  -7   4  648.24   26.00
   3  -7   4  189.38   10.50
   3  -7   4  174.88   13.90
  -4   7  -4  521.05   20.80
   4  -7   4  503.85   19.80
   4  -7   4  506.55   22.70
  -5   7  -4   16.30    7.30
   5  -7   4   29.90    8.80
   5  -7   4   28.20    8.20
  -6   7  -4    1.90    6.90
   6  -7   4   23.30    8.60
   6  -7   4   17.70    8.10
  -7   7  -4   30.80    8.70
   7  -7   4   32.30   10.20
   7  -7   4   34.90    9.60
   8  -7   4   30.80   10.30
  -5  -6   4   -8.70   10.50
  -4  -6   4   -1.90   10.00
  -3  -6   4   62.99   12.00
  -2  -6   4   15.50    8.20
  -1  -6   4   51.69    9.30
   0  -6   4  257.27   15.90
  -1   6  -4  393.86   10.90
   1  -6   4  436.36   19.60
   2  -6   4  798.22   27.80
  -3   6  -4  377.76   16.80
   3  -6   4  379.86   18.30
   3  -6   4  395.66   15.40
  -4   6  -4   38.80    7.80
   4  -6   4   32.20    8.30
   4  -6   4   37.30    7.70
  -5   6  -4   -4.50    5.90
   5  -6   4    7.40    7.50
   5  -6   4   -1.50    6.70
  -6   6  -4    3.50    7.20
   6  -6   4    8.70    7.40
   6  -6   4    7.10    6.80
  -7   6  -4    1.60    7.30
   7  -6   4    8.10    8.00
  -8   6  -4   31.50    9.50
   8  -6   4   35.50   10.80
  -6  -5   4   58.59   12.60
  -5  -5   4   37.50   10.90
  -4  -5   4  -10.30    9.00
  -3  -5   4   49.70    9.60
  -2  -5   4  563.74   22.70
  -1  -5   4  182.58   12.90
   0  -5   4   84.49    9.30
  -1   5  -4  512.55   14.30
   1  -5   4  519.75   19.70
  -2   5  -4  600.74   20.20
   2  -5   4  591.14   21.60
  -3   5  -4  770.52   24.60
   3  -5   4  825.52   26.20
   3  -5   4  785.92   24.60
  -4   5  -4  191.48   11.60
   4  -5   4  193.38   12.80
   4  -5   4  184.58   12.60
  -5   5  -4    2.40    6.60
   5  -5   4    6.90    7.50
   5  -5   4    4.30    5.90
  -6   5  -4   26.80    8.10
   6  -5   4   34.10    9.70
   6  -5   4   39.00    8.00
  -7   5  -4    5.50    7.80
   7  -5   4    3.40    8.50
  -8   5  -4   -7.80    7.60
   8  -5   4    9.20    8.30
  -7  -4   4   75.39   11.90
  -7  -4   4   88.39   12.80
  -6  -4   4  241.78   18.90
  -5  -4   4   16.80   10.20
   4   4  -4  104.39    8.40
  -4  -4   4  114.29   13.20
   3   4  -4  380.16   12.40
  -3  -4   4  362.06   12.40
  -3  -4   4  369.16   19.20
  -2  -4   4   73.69    4.00
  -2  -4   4   83.39   10.30
  -1  -4   4   32.90    7.10
   0  -4   4   57.39    7.70
  -1   4  -4   45.40    5.00
  -1   4  -4   55.19    6.90
   1  -4   4   53.19    7.60
  -2   4  -4  557.14   17.80
  -2   4  -4  575.64   19.20
   2  -4   4  571.84   19.40
  -3   4  -4  533.65   18.70
   3  -4   4  517.95   18.60
   3  -4   4  522.95   18.20
  -4   4  -4  441.76   17.80
   4  -4   4  438.96   16.80
   4  -4   4  455.75   18.80
  -5   4  -4  233.28   13.30
   5  -4   4  200.38   14.70
   5  -4   4  216.18   12.00
  -6   4  -4   24.10    8.40
   6  -4   4   25.70    6.30
   6  -4   4   34.60   10.00
  -7   4  -4   -1.90    7.60
   7  -4   4   13.20    9.10
  -8   4  -4  -14.70    7.60
   7   3  -4  171.78   13.50
  -7  -3   4  162.18   14.80
  -7  -3   4  217.48   17.10
   6   3  -4   16.70    7.00
  -6  -3   4    5.10    8.10
   5   3  -4  179.88   11.80
  -5  -3   4  170.88   15.70
   4   3  -4  345.07   13.70
  -4  -3   4  297.87   17.00
   3   3  -4  158.68    8.50
  -3  -3   4  183.28   13.00
  -3  -3   4  157.88    8.20
   2   3  -4    6.10    3.20
  -2  -3   4    5.80    2.80
  -2  -3   4    7.90    6.10
   1   3  -4    1.30    2.10
  -1  -3   4    3.70    5.60
   0   3  -4  926.31   26.10
   0   3  -4  903.61   22.60
   0  -3   4  931.01   27.10
  -1   3  -4  232.88   11.20
  -1   3  -4  198.68   10.20
  -1   3  -4  208.78    9.00
   1  -3   4  224.38   11.10
  -2   3  -4  282.37   12.00
  -2   3  -4  299.67   12.90
   2  -3   4  285.07   12.00
  -3   3  -4  854.61   25.50
   3  -3   4  833.02   23.70
   3  -3   4  817.32   25.70
  -4   3  -4  358.56   15.20
   4  -3   4  358.36   16.90
   4  -3   4  379.16   13.70
  -5   3  -4   72.09    9.20
   5  -3   4   73.39   10.00
  -6   3  -4  206.58   14.20
   6  -3   4  184.18   14.60
  -7   3  -4    0.90    7.20
  -8   3  -4    9.90    8.50
   8   2  -4   12.70    8.00
  -8  -2   4    1.30    7.80
   7   2  -4  268.87   17.30
  -7  -2   4  280.87   18.40
  -7  -2   4  280.57   16.50
   6   2  -4   80.19   10.10
  -6  -2   4   95.49   10.50
  -6  -2   4   98.69   12.50
   5   2  -4  355.56   16.40
  -5  -2   4  379.06   18.60
   4   2  -4  322.37   14.00
  -4  -2   4  309.27   16.80
   3   2  -4  332.37   12.50
  -3  -2   4  336.97   15.60
  -3  -2   4  327.57   12.10
   2   2  -4    2.50    3.60
  -2  -2   4   -0.30    3.10
  -2  -2   4   10.50    6.90
   1   2  -4   56.39    4.80
   1   2  -4   69.09    7.40
  -1  -2   4   70.29    6.10
  -1  -2   4   75.79    7.60
   0   2  -4  124.59    7.90
   0   2  -4  110.69    8.30
   0  -2   4  110.29    8.80
  -1   2  -4  385.46   13.60
  -1   2  -4  297.27   11.60
  -1   2  -4  343.27   11.90
   1  -2   4  355.26   12.10
  -2   2  -4    3.00    4.70
   2  -2   4    8.80    3.60
  -3   2  -4   11.80    5.50
   3  -2   4   22.40    3.80
  -4   2  -4  172.68   11.00
   4  -2   4  167.68    7.20
   4  -2   4  166.48    7.90
  -5   2  -4  303.77   15.10
  -6   2  -4   30.00    8.50
  -7   2  -4    2.40    8.10
  -8   2  -4  -10.60    8.10
   8   1  -4   15.20    8.60
  -8  -1   4   14.10    8.00
   7   1  -4   48.00    9.80
  -7  -1   4   61.59    9.20
  -7  -1   4   62.89   10.10
   6   1  -4   68.39   10.10
  -6  -1   4   84.09   11.30
  -6  -1   4   76.39    9.10
   5   1  -4  288.57   15.10
  -5  -1   4  304.57   16.60
   4   1  -4  995.00   28.30
  -4  -1   4  929.41   29.70
   3   1  -4  900.71   24.70
  -3  -1   4  864.71   26.70
  -3  -1   4  852.51   24.40
   2   1  -4  317.97   11.40
  -2  -1   4  323.27   14.40
  -2  -1   4  311.07   10.90
   1   1  -4    8.20    4.10
   1   1  -4   10.10    5.10
   1   1  -4   15.80    4.60
  -1  -1   4    9.50    5.00
  -1  -1   4    7.50    3.60
   0   1  -4  119.59    8.20
   0   1  -4  123.69    7.30
   0  -1   4  124.29    7.60
  -1   1  -4   28.90    3.70
  -1   1  -4   26.80    5.80
   1  -1   4   35.20    4.00
  -2   1  -4  264.07   11.90
   2  -1   4  231.28    7.40
  -3   1  -4  615.14   20.40
   3  -1   4  646.14   15.80
   3  -1   4  646.44   15.80
  -4   1  -4   43.30    7.00
   4  -1   4   39.10    3.70
  -5   1  -4  158.38   12.80
  -6   1  -4    9.10    7.50
  -7   1  -4   35.40    9.40
   8   0  -4    7.70    7.80
   7   0  -4    7.80    7.70
  -7   0   4    6.10    5.90
   6   0  -4   30.20    9.40
  -6   0   4   37.80    6.50
  -6   0   4   18.20    7.70
   5   0  -4   42.30    8.60
  -5   0   4   50.89    8.80
  -5   0   4   42.00    5.80
   4   0  -4 4474.75  105.49
  -4   0   4 4370.16  106.39
   3   0  -4    8.90    5.50
  -3   0   4   14.30    5.00
  -3   0   4    8.50    5.80
   2   0  -4  427.56   14.20
   2   0  -4  417.16   15.00
  -2   0   4  420.36   13.90
  -2   0   4  415.26   12.20
  -2   0   4  429.96   15.30
   1   0  -4  113.29    6.50
   1   0  -4  106.69    7.20
   1   0  -4  118.89    8.40
  -1   0   4  113.49    8.50
  -1   0   4  107.79    6.20
   0   0  -4  692.93   19.00
   0   0  -4  695.23   18.20
   0   0   4  690.53   18.80
   0   0   4  678.53   18.40
  -1   0  -4  117.99    7.80
  -1   0  -4  108.99    4.10
  -2   0  -4   82.19    7.60
  -3   0  -4   53.79    6.90
  -4   0  -4  284.57   13.80
  -5   0  -4 1069.89   33.00
  -6   0  -4    7.60    7.80
  -7   0  -4   97.09   12.00
   9  -1  -4   28.60   10.20
   8  -1  -4   38.50   10.00
   7  -1  -4   10.90    8.80
  -7   1   4    1.30    4.80
   6  -1  -4   23.20    9.50
  -6   1   4   29.90    5.30
   5  -1  -4   98.79   10.20
  -5   1   4  111.89    6.90
   4  -1  -4 1198.48   34.10
  -4   1   4 1196.28   34.30
   3  -1  -4  697.23   21.10
  -3   1   4  679.63   17.10
  -3   1   4  692.93   22.00
   2  -1  -4 1616.94   36.60
   2  -1  -4 1509.05   39.80
   2  -1  -4 1580.74   39.70
  -2   1   4 1523.25   39.60
  -2   1   4 1587.74   36.60
  -2   1   4 1600.14   40.30
   1  -1  -4  817.02   22.60
   1  -1  -4  836.32   21.20
  -1   1   4  865.01   21.40
   0  -1  -4  983.10   24.20
   0  -1  -4  957.60   25.00
  -1  -1  -4    9.90    5.00
  -1  -1  -4   16.00    2.20
  -2  -1  -4   -8.20    4.50
  -3  -1  -4   -2.30    5.40
  -4  -1  -4   13.40    6.80
  -5  -1  -4  600.04   23.60
  -6  -1  -4   -4.70    6.80
  -7  -1  -4   24.10    9.20
   9  -2  -4  256.67   20.20
   8  -2  -4   16.50   10.50
   7  -2  -4   -5.70    8.20
  -7   2   4    3.80    4.10
   6  -2  -4   56.89   10.80
  -6   2   4   52.79    5.00
   5  -2  -4  190.38   12.70
  -5   2   4  178.38    6.70
   4  -2  -4  189.48   11.50
  -4   2   4  181.38    5.20
  -4   2   4  183.68    5.20
   3  -2  -4  416.86   16.00
   2  -2  -4 1292.17   33.30
   2  -2  -4 1165.28   32.30
   2  -2  -4 1228.78   28.90
  -2   2   4 1250.57   28.90
   1  -2  -4  930.01   23.60
  -1   2   4  942.21   23.60
   0  -2  -4   -1.00    3.40
   0   2   4    5.20    3.80
  -1  -2  -4   19.40    3.30
  -1  -2  -4   12.50    5.40
  -2  -2  -4   26.00    3.30
  -2  -2  -4   19.00    5.50
  -3  -2  -4   79.39    4.70
  -3  -2  -4   49.30    8.10
  -4  -2  -4   59.19    9.40
  -5  -2  -4   43.30    9.60
  -6  -2  -4   89.79   12.70
   9  -3  -4   84.29   13.30
   8  -3  -4   35.00   11.00
   7  -3  -4    1.60    8.60
   6  -3  -4   -6.80    8.20
  -6   3   4    2.60    2.60
   5  -3  -4   45.10    9.20
   4  -3  -4    1.10    6.20
   3  -3  -4  986.40   28.50
   2  -3  -4  678.83   17.20
   2  -3  -4  662.63   20.90
   1  -3  -4  136.69    7.10
   0  -3  -4  552.84   17.30
  -1  -3  -4   62.69    7.40
  -1  -3  -4   56.99    5.30
  -2  -3  -4  174.88   11.90
  -2  -3  -4  171.68    8.20
  -3  -3  -4   -1.80    5.70
  -3  -3  -4   -3.90    4.10
  -4  -3  -4   10.30    7.10
  -5  -3  -4    1.10    7.90
  -6  -3  -4   -0.50    8.40
   9  -4  -4  138.39   16.20
   8  -4  -4   13.10    9.90
   7  -4  -4   62.39   11.80
   6  -4  -4   22.00    9.70
   5  -4  -4   31.30    8.80
   4  -4  -4   24.10    6.50
   3  -4  -4    1.40    2.10
   3  -4  -4    3.80    5.20
   2  -4  -4  335.77   10.90
   2  -4  -4  332.27   14.40
   1  -4  -4  300.27   13.40
   1  -4  -4  294.77   11.30
   0  -4  -4  194.38   10.30
   0  -4  -4  196.18    9.90
  -1  -4  -4  193.38    9.90
  -1  -4  -4  190.88   12.00
  -2  -4  -4   -1.00    4.30
  -2  -4  -4   -3.10    6.40
  -3  -4  -4   -1.70    6.40
  -3  -4  -4   -5.40    4.90
  -4  -4  -4   64.49   10.90
  -5  -4  -4   -2.00    7.50
   9  -5  -4    8.10   11.50
   8  -5  -4  117.09   15.80
   7  -5  -4   48.40   12.00
   6  -5  -4    0.00    7.80
   5  -5  -4   44.40    8.80
   4  -5  -4    4.50    2.00
   4  -5  -4    7.40    5.90
   3  -5  -4  139.09   10.80
   2  -5  -4  225.08   12.20
   1  -5  -4  576.64   20.20
   1  -5  -4  594.64   18.70
   0  -5  -4  656.63   21.70
   0  -5  -4  638.44   21.50
  -1  -5  -4   96.89    9.00
  -1  -5  -4   95.39    9.60
  -2  -5  -4   75.89    8.20
  -2  -5  -4   70.49    9.80
  -3  -5  -4    3.60    7.30
  -4  -5  -4   71.69   12.00
  -5  -5  -4    0.30    9.40
   9  -6  -4   27.30   13.00
   8  -6  -4   79.69   14.60
   7  -6  -4  154.38   16.30
   6  -6  -4   12.90    9.40
   5  -6  -4   26.70    8.10
   4  -6  -4   -2.10    2.50
   4  -6  -4   -0.30    6.20
   3  -6  -4   53.89    8.30
   2  -6  -4   18.50    6.10
   1  -6  -4 1048.30   31.40
   1  -6  -4 1075.69   32.60
   1  -6  -4 1054.69   30.20
   0  -6  -4    3.10    5.60
   0  -6  -4   -4.10    5.70
  -1  -6  -4  229.08   13.00
  -1  -6  -4  236.38   14.20
  -2  -6  -4  300.37   16.90
  -2  -6  -4  279.07   14.80
  -3  -6  -4  122.59   14.00
  -4  -6  -4    6.30    8.90
   9  -7  -4  102.59   15.70
   8  -7  -4  208.08   18.60
   7  -7  -4  141.69   16.50
   6  -7  -4   55.49   12.30
   5  -7  -4    2.60    8.10
   4  -7  -4   20.30    7.80
   3  -7  -4   78.19    9.50
   2  -7  -4  234.28   14.60
   2  -7  -4  229.98   13.20
   1  -7  -4  830.92   27.20
   1  -7  -4  840.82   28.90
   0  -7  -4   30.30    7.10
   0  -7  -4   36.10    7.30
   0  -7  -4   34.80    7.80
  -1  -7  -4   66.29    9.30
  -1  -7  -4   56.29   10.30
  -2  -7  -4   -1.40    6.20
  -2  -7  -4    7.40    8.10
  -3  -7  -4    2.10    7.80
   8  -8  -4  101.29   15.80
   7  -8  -4   49.60   12.20
   6  -8  -4  144.69   15.10
   5  -8  -4   -7.70    8.00
   4  -8  -4    0.90    7.00
   3  -8  -4   51.99    9.00
   2  -8  -4   -2.00    6.20
   2  -8  -4    1.10    5.80
   1  -8  -4   40.10    7.90
   1  -8  -4   58.29   10.10
   0  -8  -4   89.19   10.50
   0  -8  -4  113.59   12.20
   0  -8  -4  114.39   10.50
  -1  -8  -4   32.90    9.50
  -1  -8  -4   27.10    8.20
  -2  -8  -4  114.89   13.80
   8  -9  -4   37.50   12.40
   7  -9  -4   69.19   13.00
   6  -9  -4  192.28   18.00
   5  -9  -4   18.40    9.40
   4  -9  -4    1.50    7.20
   3  -9  -4   23.40    9.50
   3  -9  -4   17.50    7.80
   2  -9  -4    2.10    6.40
   2  -9  -4    6.90    8.50
   1  -9  -4    2.20    6.20
   1  -9  -4   -1.00    7.50
   1  -9  -4    5.00    6.00
   0  -9  -4    7.10    7.60
   0  -9  -4    7.40    7.60
  -1  -9  -4   23.50    8.90
  -1  -9  -4   30.80    8.80
   7 -10  -4   49.60   14.40
   6 -10  -4   45.80   12.80
   5 -10  -4  309.87   19.80
   4 -10  -4   65.49   11.70
   4 -10  -4   60.09   11.10
   3 -10  -4    7.20    7.20
   3 -10  -4   11.30    9.40
   2 -10  -4   19.90    9.80
   1 -10  -4   -1.90    7.50
   1 -10  -4    2.60    6.80
   0 -10  -4   10.30    8.10
   0 -10  -4   -7.70    7.50
   6 -11  -4   26.90   12.80
   6 -11  -4   75.19   12.80
   5 -11  -4   60.49   13.00
   4 -11  -4   54.89   11.60
   3 -11  -4   -1.70    9.00
   2 -11  -4   63.89    9.50
   2 -11  -4   56.19   11.30
   1 -11   5   -5.40   10.40
   2 -11   5   15.50   10.30
   3 -11   5   63.09   13.60
   4 -11   5    6.80   10.70
  -1 -10   5   71.19   13.80
   0 -10   5   53.49   13.10
   1 -10   5   53.19   13.20
   2 -10   5   62.39   13.30
   3 -10   5    8.60   10.80
   4 -10   5    0.60    8.40
   5 -10   5   14.80   10.30
  -3  -9   5  -29.90   10.60
  -2  -9   5   37.60   12.00
  -1  -9   5   64.69   12.30
   0  -9   5   48.60   11.20
   1  -9   5  138.69   15.70
   2  -9   5  115.69   14.60
   3  -9   5   85.19   13.70
   4  -9   5   -0.90    8.70
   5  -9   5    6.10    8.60
  -6   9  -5    5.10    7.70
   6  -9   5    1.00    8.30
  -4  -8   5  -29.10   11.30
  -3  -8   5   -3.30    9.50
  -2  -8   5    1.90   10.10
  -1  -8   5   22.50    9.60
   0  -8   5   76.19   11.90
   1  -8   5  586.74   26.50
   2  -8   5  127.09   13.70
   3  -8   5  177.28   16.40
   4  -8   5  127.49   14.40
  -5   8  -5    9.30    7.50
   5  -8   5    3.30    8.20
   5  -8   5   12.70    7.20
  -6   8  -5    4.00    7.60
   6  -8   5   -0.60    7.80
   6  -8   5   24.60    8.60
  -7   8  -5   43.60    9.90
   7  -8   5   63.19   11.00
  -5  -7   5   20.10   13.80
  -4  -7   5   -4.50   10.50
  -3  -7   5    3.30    9.20
  -2  -7   5    3.40    9.50
  -1  -7   5    4.40    7.60
   0  -7   5    9.10    8.70
   1  -7   5   65.89   11.00
   2  -7   5  333.27   18.90
  -3   7  -5 1371.86   40.60
   3  -7   5 1397.76   42.90
  -4   7  -5  233.28   14.50
   4  -7   5  295.67   17.40
  -5   7  -5   17.10    7.60
   5  -7   5   14.40    7.60
   5  -7   5   20.20    8.30
  -6   7  -5   -1.10    7.10
   6  -7   5   22.30    8.70
   6  -7   5    0.60    7.00
  -7   7  -5    2.20    7.60
  -5  -6   5   19.60   12.40
  -4  -6   5   61.89   12.60
  -3  -6   5   89.09   12.60
  -2  -6   5   10.80    8.60
  -1  -6   5    7.10    7.10
   0  -6   5   17.40    8.20
  -1   6  -5   94.99    5.00
   1  -6   5  100.19   10.70
  -2   6  -5   32.00    7.80
   2  -6   5   27.20    7.90
  -3   6  -5  303.77   15.10
   3  -6   5  307.37   16.50
  -4   6  -5  199.28   13.70
   4  -6   5  202.68   14.40
  -5   6  -5   24.10    8.20
   5  -6   5   32.80    8.50
   5  -6   5   28.80    7.80
  -6   6  -5   31.40    8.90
   6  -6   5   35.80    8.50
   6  -6   5   45.40   10.30
  -7   6  -5    9.40    8.30
  -6  -5   5   44.40   12.10
  -5  -5   5   66.19   13.60
  -4  -5   5   26.70   11.10
  -3  -5   5   42.00   10.60
  -2  -5   5   44.00    9.90
  -1  -5   5    7.00    7.20
   0  -5   5   24.10    7.10
  -1   5  -5   32.80    4.60
  -1   5  -5   38.30    7.40
   1  -5   5   29.50    7.50
  -2   5  -5   98.89    8.70
  -2   5  -5   87.89    8.90
   2  -5   5  115.89   10.40
  -3   5  -5  377.36   16.00
   3  -5   5  373.56   16.50
  -4   5  -5  524.25   20.80
   4  -5   5  526.65   20.10
  -5   5  -5   25.80    7.90
   5  -5   5   42.90    7.80
  -6   5  -5  143.19   13.10
  -7   5  -5   18.20    9.10
  -7  -4   5   70.79   11.50
  -7  -4   5   82.99   13.10
  -6  -4   5  125.79   15.40
   5   4  -5  136.79   10.10
  -5  -4   5   86.69   12.50
   4   4  -5   84.79    7.80
  -4  -4   5   94.29   13.20
   3   4  -5   95.19    6.30
  -3  -4   5   90.19    6.10
  -3  -4   5   91.99   12.40
   2   4  -5   75.99    4.10
  -2  -4   5   85.89   10.80
  -1  -4   5   36.30    7.50
   0   4  -5   73.19    4.60
   0  -4   5   61.79    8.70
  -1   4  -5   26.20    6.00
  -1   4  -5   32.70    5.20
   1  -4   5   23.90    6.30
  -2   4  -5  115.39    9.30
   2  -4   5  123.09    9.60
  -3   4  -5  698.93   23.10
   3  -4   5  718.03   22.60
  -4   4  -5  214.48   13.80
   4  -4   5  219.68   11.50
  -5   4  -5  118.59   12.00
   5  -4   5  106.69    9.30
  -6   4  -5  535.45   22.70
  -7   4  -5    8.50    8.70
  -8   4  -5   12.50    9.50
  -7  -3   5   41.50   10.00
  -7  -3   5   32.10    8.80
   6   3  -5   74.59    9.50
  -6  -3   5   44.30   10.80
   5   3  -5  122.99   10.30
  -5  -3   5   97.19   13.30
   4   3  -5  551.34   18.20
  -4  -3   5  520.75   22.70
   3   3  -5  509.95   16.20
  -3  -3   5  510.35   15.80
  -3  -3   5  523.45   21.90
   2   3  -5  100.29    6.10
  -2  -3   5   94.09    9.80
   1   3  -5  138.89    6.30
  -1  -3   5  165.78   12.30
   0   3  -5   97.69    8.70
   0  -3   5   80.49    8.40
  -1   3  -5  118.09    9.20
  -1   3  -5   94.99    7.70
   1  -3   5  120.59    8.90
  -2   3  -5  479.45   17.30
   2  -3   5  491.15   16.30
  -3   3  -5  480.45   17.90
   3  -3   5  469.85   15.70
  -4   3  -5  249.88   13.50
   4  -3   5  269.17   11.00
  -5   3  -5  192.58   13.00
   5  -3   5  213.38   10.00
  -6   3  -5  263.97   16.40
  -7   3  -5   62.49   11.00
   8   2  -5   17.40    7.90
  -8  -2   5   14.10    8.30
   7   2  -5    2.20    7.10
  -7  -2   5   13.50    8.50
  -7  -2   5    5.10    7.20
   6   2  -5   17.70    7.60
  -6  -2   5   22.20    8.30
   5   2  -5  335.97   15.90
  -5  -2   5  317.67   18.90
   4   2  -5  362.36   15.00
  -4  -2   5  365.66   18.40
   3   2  -5  259.77   11.10
  -3  -2   5  247.48   15.10
  -3  -2   5  243.68   10.40
   2   2  -5 1254.97   31.40
  -2  -2   5 1228.18   35.20
   1   2  -5  141.29    7.30
   1   2  -5  136.69    9.20
  -1  -2   5  161.58   11.30
   0   2  -5  504.05   16.30
   0   2  -5  486.95   16.50
   0  -2   5  523.95   17.40
  -1   2  -5 1372.86   35.70
  -1   2  -5 1319.67   35.00
  -1   2  -5 1343.57   34.40
   1  -2   5 1387.36   34.70
  -2   2  -5  118.69    9.70
   2  -2   5  126.59    7.10
  -3   2  -5   10.80    6.40
   3  -2   5   15.10    3.50
  -4   2  -5   73.29    8.90
   4  -2   5   98.99    5.20
   4  -2   5   92.69    5.70
  -5   2  -5  248.48   15.50
  -6   2  -5  422.96   19.70
  -7   2  -5   32.60   10.20
   8   1  -5   11.20    8.00
   7   1  -5   29.80    9.00
  -7  -1   5   30.90    8.60
  -7  -1   5   32.20    7.90
   6   1  -5   -0.90    7.40
  -6  -1   5   -1.60    6.60
   5   1  -5   93.19   10.20
  -5  -1   5   73.49   10.00
   4   1  -5   25.50    6.60
  -4  -1   5   21.40    7.20
   3   1  -5  769.32   22.30
  -3  -1   5  721.53   20.80
  -3  -1   5  735.03   21.80
  -3  -1   5  761.92   25.00
   2   1  -5  436.86   14.20
  -2  -1   5  435.66   16.60
   1   1  -5  427.26   14.90
   1   1  -5  430.66   14.30
  -1  -1   5  463.55   15.60
   0   1  -5  127.19    8.70
   0   1  -5  115.29    7.30
   0  -1   5  132.09    8.10
   0  -1   5  119.09    7.30
  -1   1  -5    5.60    4.80
  -1   1  -5    3.20    3.10
   1  -1   5   13.50    3.80
  -2   1  -5    0.40    4.80
   2  -1   5    1.50    2.30
  -3   1  -5   26.50    6.30
  -4   1  -5   23.30    6.70
  -5   1  -5   87.89   10.70
  -6   1  -5   16.60    7.70
  -7   1  -5   76.39   12.30
   8   0  -5    6.40    8.40
   7   0  -5   -2.60    8.40
  -7   0   5   -1.40    5.60
  -7   0   5   10.10    6.90
   6   0  -5    6.60    8.20
  -6   0   5   21.80    7.60
  -6   0   5   20.40    5.70
   5   0  -5  211.08   13.90
  -5   0   5  223.08   13.90
   4   0  -5  730.53   23.70
  -4   0   5  748.43   25.20
   3   0  -5 1073.39   29.50
  -3   0   5 1085.09   31.30
  -3   0   5 1032.60   26.70
   2   0  -5 1245.68   30.40
   2   0  -5 1212.78   32.10
  -2   0   5 1217.08   33.40
  -2   0   5 1196.58   30.20
   1   0  -5  591.24   16.80
   1   0  -5  576.94   18.00
  -1   0   5  586.54   16.50
  -1   0   5  591.84   18.30
   0   0  -5  210.18    8.80
   0   0  -5  224.58    9.60
   0   0   5  210.88    8.80
   0   0   5  221.38    9.30
  -1   0  -5  138.69    8.90
  -1   0  -5  135.39    5.30
  -2   0  -5   23.20    6.10
  -3   0  -5   14.80    5.80
  -4   0  -5  268.37   14.80
  -5   0  -5  577.64   23.10
  -6   0  -5  172.28   15.10
  -7   0  -5  188.78   16.80
   9  -1  -5   44.10   11.60
   8  -1  -5   41.40   10.50
   7  -1  -5   -7.20    8.60
  -7   1   5    8.70    4.90
   6  -1  -5    1.10    8.50
  -6   1   5   -4.00    3.80
   5  -1  -5   18.30    7.10
  -5   1   5   18.20    6.90
  -5   1   5   37.50    4.50
   4  -1  -5   64.59    8.00
  -4   1   5   64.09    8.10
  -4   1   5   68.59    4.70
   3  -1  -5  107.59    9.40
  -3   1   5  127.29    5.60
  -3   1   5  115.39   10.60
   2  -1  -5 1013.20   25.10
   2  -1  -5  988.50   28.30
   2  -1  -5 1041.40   28.40
  -2   1   5  993.70   24.90
  -2   1   5 1030.10   28.80
   1  -1  -5  462.45   13.60
   1  -1  -5  436.46   14.90
  -1   1   5  445.66   13.30
   0  -1  -5 2190.88   52.29
   0  -1  -5 2131.19   50.99
   0   1   5 2147.39   52.29
  -1  -1  -5  294.47   12.00
  -1  -1  -5  301.97    8.40
  -2  -1  -5   10.10    5.50
  -3  -1  -5    8.10    5.50
  -4  -1  -5   12.90    7.10
  -5  -1  -5    9.00    7.70
  -6  -1  -5   14.10    9.00
  -7  -1  -5  123.29   14.20
   9  -2  -5   75.39   12.80
   8  -2  -5   52.79   12.80
   7  -2  -5    9.30   10.00
   6  -2  -5   85.99   12.30
  -6   2   5   85.09    5.50
   5  -2  -5   -0.20    6.20
  -5   2   5    0.90    2.00
  -5   2   5    3.10    2.10
   4  -2  -5    4.10    5.50
   3  -2  -5  146.99    9.80
  -3   2   5  155.78    4.90
   2  -2  -5 1568.54   41.30
   2  -2  -5 1581.94   37.60
  -2   2   5 1606.74   37.60
   1  -2  -5    2.70    3.70
   1  -2  -5    5.50    3.50
  -1   2   5    6.60    3.10
   0  -2  -5 2721.73   65.09
  -1  -2  -5  102.29    8.00
  -1  -2  -5   89.09    5.20
  -2  -2  -5  287.37   13.80
  -3  -2  -5   20.70    6.40
  -4  -2  -5    2.50    6.50
  -5  -2  -5   -0.50    7.30
  -6  -2  -5    2.20    7.80
   9  -3  -5  118.29   16.50
   8  -3  -5   42.60   11.60
   7  -3  -5  281.47   19.60
   6  -3  -5  146.99   14.40
   5  -3  -5   17.30    7.20
   4  -3  -5    4.10    6.10
   3  -3  -5  311.27    8.00
   3  -3  -5  303.17   13.70
   2  -3  -5  180.78    7.20
   2  -3  -5  187.28   10.70
   1  -3  -5   23.00    4.30
   0  -3  -5  397.46   14.30
  -1  -3  -5  500.45   15.00
  -1  -3  -5  468.85   17.30
  -2  -3  -5   39.40    4.40
  -2  -3  -5   36.10    7.00
  -3  -3  -5   26.80    7.30
  -4  -3  -5   -5.60    7.10
  -5  -3  -5   10.10    7.90
  -6  -3  -5   -2.00    8.40
   9  -4  -5  110.29   16.60
   8  -4  -5  104.19   14.30
   7  -4  -5   -9.70    9.20
   6  -4  -5  136.09   13.90
   5  -4  -5  151.38   12.20
   4  -4  -5    3.60    5.80
   3  -4  -5   58.99    4.00
   3  -4  -5   49.60    7.50
   2  -4  -5   14.20    3.80
   2  -4  -5   12.40    6.10
   1  -4  -5   71.49    6.50
   0  -4  -5  314.47   12.90
  -1  -4  -5  233.48   12.50
  -1  -4  -5  239.38   10.80
  -2  -4  -5   38.70    7.70
  -2  -4  -5   46.80    5.80
  -3  -4  -5   38.70    9.20
  -4  -4  -5    5.20    8.30
  -5  -4  -5    8.30    8.80
   9  -5  -5   82.19   14.40
   8  -5  -5  168.88   18.10
   7  -5  -5  147.49   15.20
   6  -5  -5  370.96   19.30
   5  -5  -5    9.00    7.10
   4  -5  -5   -2.80    5.70
   3  -5  -5  115.09   10.80
   3  -5  -5  115.49    6.20
   2  -5  -5   -0.90    5.80
   2  -5  -5    8.60    4.00
   1  -5  -5  131.29   10.80
   1  -5  -5  129.49    9.00
   0  -5  -5  311.37   14.20
   0  -5  -5  299.77   13.80
  -1  -5  -5  339.37   14.50
  -1  -5  -5  326.87   15.70
  -2  -5  -5  164.78   14.00
  -2  -5  -5  148.49   10.30
  -3  -5  -5  100.09   13.00
  -4  -5  -5    5.80    8.90
  -5  -5  -5  -10.00    7.50
   9  -6  -5    9.00   10.80
   8  -6  -5   78.89   14.80
   7  -6  -5  276.07   20.30
   6  -6  -5  109.59   12.80
   5  -6  -5   70.79   10.20
   4  -6  -5  179.58    7.20
   4  -6  -5  207.78   14.10
   4  -6  -5  176.18    6.90
   3  -6  -5   76.09    6.30
   3  -6  -5   73.99    9.40
   2  -6  -5  183.68   12.50
   2  -6  -5  191.28   10.30
   1  -6  -5  129.19   11.10
   1  -6  -5  137.39   10.10
   1  -6  -5  117.99   10.70
   0  -6  -5  105.59   10.20
   0  -6  -5  108.79   10.60
  -1  -6  -5  106.89   10.90
  -1  -6  -5  115.89   10.50
  -2  -6  -5  351.36   18.50
  -3  -6  -5  182.18   15.40
  -4  -6  -5   41.60   11.70
   9  -7  -5   -1.10   11.80
   8  -7  -5   59.19   12.90
   7  -7  -5  263.87   20.00
   6  -7  -5  201.28   15.90
   5  -7  -5   95.19   11.40
   4  -7  -5   86.69    6.80
   4  -7  -5   61.29    9.60
   3  -7  -5  127.19    8.60
   3  -7  -5  131.69   12.40
   2  -7  -5   44.60    6.80
   2  -7  -5   42.00    8.20
   1  -7  -5   51.49    8.10
   1  -7  -5   52.19    8.40
   1  -7  -5   57.79    8.70
   0  -7  -5   -2.10    5.50
   0  -7  -5   -1.60    5.40
  -1  -7  -5   87.29   10.10
  -1  -7  -5  101.99   11.40
  -2  -7  -5   97.19   12.20
  -3  -7  -5   27.80   10.50
   8  -8  -5   45.00   14.10
   7  -8  -5  -11.00    9.00
   6  -8  -5  141.29   14.80
   5  -8  -5  139.49   14.50
   4  -8  -5  189.48   14.80
   4  -8  -5  209.08   10.00
   3  -8  -5   47.60    6.80
   3  -8  -5   43.30    9.10
   2  -8  -5    6.80    6.00
   2  -8  -5    0.90    7.40
   2  -8  -5    6.00    6.40
   1  -8  -5   45.90    9.10
   1  -8  -5   39.60    8.10
   1  -8  -5   40.20    7.80
   0  -8  -5    5.90    7.50
   0  -8  -5   14.60    7.30
   0  -8  -5   23.60    7.20
  -1  -8  -5    2.80    8.00
  -1  -8  -5   -8.50    5.70
  -2  -8  -5   -3.90    8.10
   8  -9  -5   38.50   14.20
   7  -9  -5   -9.40    9.50
   6  -9  -5   73.29   13.40
   5  -9  -5   21.50    9.40
   4  -9  -5   -1.90    7.10
   3  -9  -5    6.00    7.40
   3  -9  -5   19.60    8.10
   3  -9  -5   22.70    6.10
   2  -9  -5   11.00    8.10
   2  -9  -5   23.90    7.00
   2  -9  -5    4.50    6.60
   1  -9  -5   -3.40    7.00
   1  -9  -5    9.60    6.50
   1  -9  -5   -1.40    6.20
   0  -9  -5   -7.00    6.80
   0  -9  -5   -4.90    6.70
  -1  -9  -5   77.89   12.00
   7 -10  -5  -25.00   11.20
   6 -10  -5   53.29   13.10
   5 -10  -5  124.09   14.60
   4 -10  -5  289.17   18.00
   4 -10  -5  311.57   21.10
   3 -10  -5   43.70    9.70
   3 -10  -5   47.60   11.20
   2 -10  -5   16.40    9.20
   2 -10  -5   20.20    7.30
   1 -10  -5    4.00    7.70
   1 -10  -5    9.50    7.00
   5 -11  -5  106.19   15.10
   5 -11  -5   77.19   14.80
   4 -11  -5   33.40   10.30
   3 -11  -5  203.08   18.60
  -1 -10   6  -11.00    9.30
   0 -10   6    0.60    9.40
   1 -10   6   69.59   13.20
   2 -10   6  215.28   18.80
   3 -10   6   15.10    9.70
   4 -10   6   -2.90    9.50
   5 -10   6    7.20   10.10
  -2  -9   6   17.40   11.40
  -1  -9   6   10.20    9.80
   0  -9   6   16.80    9.80
   1  -9   6   46.90   11.30
   2  -9   6  152.68   16.50
   3  -9   6   41.20   11.50
   4  -9   6  105.09   13.70
   5  -9   6   15.70   10.00
  -6   9  -6  102.79   13.10
   6  -9   6   88.79   13.70
  -4  -8   6  -30.40   11.80
  -3  -8   6  -32.10   10.00
  -2  -8   6  -12.30   10.00
  -1  -8   6  -12.60    9.10
   0  -8   6   62.39   11.50
   1  -8   6  170.68   15.60
   2  -8   6   85.49   11.80
   3  -8   6   98.49   12.40
  -4   8  -6  156.18   14.50
   4  -8   6  161.88   15.80
  -5   8  -6   10.60    8.20
   5  -8   6    1.90    8.30
  -6   8  -6   68.69   11.40
   6  -8   6   59.19   12.10
  -5  -7   6   19.70   14.40
  -4  -7   6   31.70   12.30
  -3  -7   6   65.19   12.90
  -2  -7   6    8.70   10.30
  -1  -7   6    3.00    8.80
   0  -7   6   -0.10    7.30
   1  -7   6  815.42   30.40
   2  -7   6   36.20    9.60
  -3   7  -6  890.31   29.90
   3  -7   6  886.21   31.60
  -4   7  -6  341.27   18.10
   4  -7   6  311.57   18.20
  -5   7  -6   80.99   11.30
   5  -7   6   77.49   11.00
  -6   7  -6   22.80    9.00
  -7   7  -6   15.40    9.00
  -5  -6   6   34.90   13.90
  -4  -6   6   90.99   14.00
  -3  -6   6   69.69   12.40
  -2  -6   6   70.39   12.50
  -1  -6   6    0.40    8.10
   0  -6   6  117.99   12.60
  -1   6  -6  304.87   10.90
   1  -6   6  344.97   18.00
  -2   6  -6   13.60    6.70
   2  -6   6   28.00    7.80
  -3   6  -6   84.09    9.90
   3  -6   6   87.39   10.70
  -4   6  -6   57.09    9.50
   4  -6   6   42.00    8.60
  -5   6  -6  166.88   13.20
   5  -6   6  133.69   12.70
  -6   6  -6  100.39   12.30
  -7   6  -6   42.50    9.90
  -6  -5   6   -1.10   10.30
  -5  -5   6   36.20   12.20
  -4  -5   6  612.84   27.30
  -3  -5   6   -0.50    9.40
  -2  -5   6   55.89   10.20
  -1  -5   6   -4.90    6.50
   0   5  -6   25.90    2.80
   0   5  -6   19.60    3.20
   0  -5   6   24.10    7.90
  -1   5  -6    0.60    5.70
   1  -5   6    9.60    6.70
  -2   5  -6    1.40    6.20
   2  -5   6    2.60    5.80
  -3   5  -6  123.19   11.50
   3  -5   6  116.19   11.20
  -4   5  -6  226.98   14.10
   4  -5   6  228.38   13.20
  -5   5  -6   95.89   11.10
   5  -5   6  111.59   10.60
  -6   5  -6   63.29   11.40
  -7   5  -6    5.50    8.50
  -7  -4   6    6.00    7.40
  -7  -4   6   24.10    9.30
  -6  -4   6   19.80   10.20
  -5  -4   6   15.00   10.50
   4   4  -6  287.17   11.90
  -4  -4   6  276.77   19.90
   3   4  -6   72.19    6.10
  -3  -4   6   76.49   12.10
   2   4  -6   31.90    3.80
  -2  -4   6   32.70    8.60
   1   4  -6  217.18    7.40
  -1  -4   6  201.98   13.60
   0   4  -6   39.50    6.90
   0   4  -6   56.59    4.70
   0  -4   6   70.59    9.10
  -1   4  -6   10.70    6.10
   1  -4   6    3.90    5.50
  -2   4  -6   69.29    8.70
   2  -4   6   72.89    8.00
  -3   4  -6   45.10    8.40
   3  -4   6   33.60    6.40
  -4   4  -6  133.49   12.30
   4  -4   6  117.69    9.30
  -5   4  -6  380.06   18.60
   5  -4   6  392.76   19.90
  -6   4  -6  118.69   13.20
  -7   4  -6   40.00   11.00
  -7  -3   6    2.50    7.20
  -7  -3   6    8.00    8.90
   6   3  -6   15.10    6.80
  -6  -3   6    7.40    8.30
   5   3  -6   42.00    7.30
  -5  -3   6   33.90   10.00
   4   3  -6  599.44   20.20
  -4  -3   6  645.04   26.50
   3   3  -6  706.73   20.40
  -3  -3   6  710.53   26.60
  -3  -3   6  678.33   20.00
   2   3  -6  273.57   10.30
  -2  -3   6  297.37   15.70
   1   3  -6  253.77    9.50
  -1  -3   6  268.77   14.70
   0   3  -6  141.49    9.60
   0  -3   6  162.28   11.30
  -1   3  -6   18.40    5.20
  -1   3  -6    8.70    5.90
   1  -3   6    5.70    4.90
  -2   3  -6   15.40    5.90
   2  -3   6    9.10    4.70
  -3   3  -6   85.19    9.90
   3  -3   6   88.89    7.30
  -4   3  -6   17.30    7.10
   4  -3   6   23.10    4.60
  -5   3  -6  378.66   18.90
  -6   3  -6  172.68   15.30
  -7   3  -6   30.80   10.00
  -8  -2   6   92.09   13.70
   7   2  -6   12.60    7.60
  -7  -2   6   16.10    7.30
  -7  -2   6   25.40    9.30
   6   2  -6    5.90    7.20
  -6  -2   6    3.90    7.70
   5   2  -6   44.70    8.30
  -5  -2   6   33.00    9.90
   4   2  -6  168.08   11.10
  -4  -2   6  164.18   14.90
   3   2  -6  259.17   11.50
  -3  -2   6  257.07   15.90
  -3  -2   6  265.07   11.00
   2   2  -6  680.73   19.60
  -2  -2   6  680.13   23.40
   1   2  -6  428.66   14.00
   1   2  -6  424.66   15.00
  -1  -2   6  403.76   16.50
   0   2  -6  327.77   13.30
   0   2  -6  353.56   13.60
   0  -2   6  365.06   14.30
  -1   2  -6  407.16   15.20
  -1   2  -6  386.66   13.50
   1  -2   6  389.46   14.10
  -2   2  -6   13.60    6.30
   2  -2   6   14.10    4.00
  -3   2  -6   31.00    6.90
   3  -2   6   41.20    4.10
  -4   2  -6    6.00    6.50
  -5   2  -6  130.49   13.00
  -6   2  -6   90.19   11.40
  -7   2  -6   92.29   13.00
   8   1  -6   28.20    9.30
  -8  -1   6   36.50    9.60
   7   1  -6   11.20    8.50
  -7  -1   6    5.20    6.30
  -7  -1   6   11.90    8.60
   6   1  -6   14.60    8.20
  -6  -1   6   10.40    8.70
   5   1  -6  753.42   25.50
  -5  -1   6  728.43   27.10
   4   1  -6   -0.80    5.60
  -4  -1   6   -1.50    6.40
   3   1  -6  250.07   11.30
  -3  -1   6  239.18   13.70
   2   1  -6  684.23   20.10
  -2  -1   6  668.33   19.50
  -2  -1   6  655.13   22.00
   1   1  -6  144.59    8.90
  -1  -1   6  151.68    9.80
   0   1  -6  195.68   10.00
   0   1  -6  193.38    9.50
   0  -1   6  218.28   10.50
  -1   1  -6   23.50    3.90
  -1   1  -6   29.20    5.90
   1  -1   6   26.10    4.30
  -2   1  -6   33.70    7.00
   2  -1   6   24.80    2.80
  -3   1  -6   41.20    7.90
  -4   1  -6  117.39   12.10
  -5   1  -6    8.30    7.30
  -6   1  -6   20.10    9.40
  -7   1  -6   49.20   11.20
   8   0  -6   65.49   12.00
   7   0  -6   -5.20    8.60
  -7   0   6    5.00    7.90
  -7   0   6    4.70    5.50
   6   0  -6  355.86   18.90
  -6   0   6  362.56   19.60
   5   0  -6  137.99   12.40
  -5   0   6  145.29   12.60
   4   0  -6   -3.30    5.30
  -4   0   6    3.90    6.10
   3   0  -6   52.09    7.20
  -3   0   6   50.49    8.20
   2   0  -6  388.76   12.90
   2   0  -6  385.06   14.50
  -2   0   6  381.06   15.20
   1   0  -6  429.86   14.10
   1   0  -6  424.56   15.20
  -1   0   6  401.86   13.60
  -1   0   6  444.26   15.30
   0   0  -6  145.99    8.50
   0   0  -6  136.29    7.60
   0   0   6  134.69    7.70
  -1   0  -6  206.98   10.60
  -1   0  -6  192.98    6.90
  -2   0  -6  127.79    9.60
  -3   0  -6  105.39    9.50
  -4   0  -6  616.34   22.80
  -5   0  -6   50.99   10.00
  -6   0  -6   26.10    9.80
  -7   0  -6   70.49   12.90
   9  -1  -6   23.60   10.50
   8  -1  -6   87.89   13.90
   7  -1  -6   19.50    9.70
   6  -1  -6   24.90    9.70
  -6   1   6   31.30    4.80
   5  -1  -6   -7.90    6.70
  -5   1   6    1.30    7.10
   4  -1  -6   -4.70    4.80
  -4   1   6   -3.50    5.40
  -4   1   6    1.70    2.70
   3  -1  -6  708.43   22.50
  -3   1   6  686.73   18.20
  -3   1   6  703.13   23.40
   2  -1  -6  186.08    7.90
   2  -1  -6  172.08   10.70
  -2   1   6  170.18    7.30
  -2   1   6  171.98   11.00
   1  -1  -6  292.67   10.70
   1  -1  -6  262.67   11.30
  -1   1   6  273.57   10.20
   0  -1  -6  329.07   12.40
   0  -1  -6  317.17   11.30
  -1  -1  -6  451.85   12.00
  -1  -1  -6  456.25   16.00
  -2  -1  -6   82.19    8.20
  -3  -1  -6  112.49   10.00
  -4  -1  -6  199.68   14.30
  -5  -1  -6   59.39   10.50
  -6  -1  -6   -9.70    7.90
   9  -2  -6  188.18   18.90
   8  -2  -6   90.39   14.10
   7  -2  -6   49.99   11.70
   6  -2  -6   13.30    9.20
  -6   2   6    6.00    2.70
   5  -2  -6    0.90    7.00
  -5   2   6    1.60    1.80
  -5   2   6   -1.20    1.80
   4  -2  -6   11.60    6.40
  -4   2   6    6.70    1.70
   3  -2  -6   -1.00    5.20
   3  -2  -6   -1.10    2.40
  -3   2   6    2.30    2.30
   2  -2  -6  193.18    7.90
   2  -2  -6  189.18   11.60
  -2   2   6  190.08    7.70
   1  -2  -6 2714.23   62.69
   1  -2  -6 2489.75   62.99
  -1   2   6 2683.13   62.79
   0  -2  -6  957.50   24.80
   0  -2  -6  942.51   26.20
  -1  -2  -6  377.76   14.90
  -1  -2  -6  348.07   10.50
  -1  -2  -6  371.46   10.80
  -2  -2  -6   96.89    9.50
  -3  -2  -6  122.19   11.00
  -4  -2  -6    1.90    6.60
  -5  -2  -6    7.40    7.50
  -6  -2  -6    3.20    8.90
   9  -3  -6   91.39   14.80
   8  -3  -6  145.79   15.80
   7  -3  -6  313.17   20.30
   6  -3  -6  591.24   24.10
   5  -3  -6   -1.80    6.20
   4  -3  -6    7.50    6.70
   3  -3  -6    4.60    5.40
   3  -3  -6   14.70    2.60
   2  -3  -6   45.90    7.30
   2  -3  -6   60.29    5.00
   1  -3  -6   -3.70    3.50
   0  -3  -6  492.35   16.90
  -1  -3  -6  144.99    7.40
  -1  -3  -6  151.98   10.10
  -2  -3  -6  287.57   15.20
  -2  -3  -6  290.07    9.40
  -3  -3  -6  181.28   14.20
  -4  -3  -6   28.20    9.10
  -5  -3  -6   -5.20    7.20
   9  -4  -6   83.59   14.50
   8  -4  -6   70.29   13.10
   7  -4  -6   43.40   12.10
   6  -4  -6   -2.50    7.60
   5  -4  -6  186.98   14.10
   4  -4  -6   87.49    9.80
   3  -4  -6    8.30    5.70
   3  -4  -6    2.70    2.80
   2  -4  -6   -2.70    5.80
   2  -4  -6    1.30    3.40
   1  -4  -6   15.60    4.80
   0  -4  -6  121.79    8.90
  -1  -4  -6   50.69    7.80
  -1  -4  -6   67.59    6.40
  -2  -4  -6    9.80    7.10
  -2  -4  -6    9.30    4.40
  -3  -4  -6  222.78   15.90
  -4  -4  -6   31.30    9.90
  -5  -4  -6    0.90    9.10
   9  -5  -6   25.10   13.20
   8  -5  -6   40.20   12.80
   7  -5  -6  172.38   15.70
   6  -5  -6   60.29   10.30
   5  -5  -6   56.39    9.10
   4  -5  -6   11.00    6.70
   3  -5  -6   10.30    6.20
   3  -5  -6   14.50    3.60
   2  -5  -6    3.70    5.70
   2  -5  -6    8.90    4.30
   1  -5  -6   16.30    5.40
   0  -5  -6    6.30    5.80
   0  -5  -6   10.40    5.10
  -1  -5  -6  209.48   11.50
  -1  -5  -6  234.18   14.60
  -2  -5  -6   17.40    8.50
  -3  -5  -6   99.79   12.30
  -4  -5  -6   69.69   12.40
   9  -6  -6  -10.20   11.70
   8  -6  -6   55.29   12.60
   7  -6  -6  126.89   15.80
   6  -6  -6  170.58   15.90
   5  -6  -6   96.79   11.30
   4  -6  -6  282.97   16.60
   4  -6  -6  288.07    9.50
   3  -6  -6  172.18    9.00
   3  -6  -6  195.98   13.80
   2  -6  -6  666.23   24.50
   2  -6  -6  667.43   21.00
   1  -6  -6   16.50    7.70
   1  -6  -6   18.00    6.10
   0  -6  -6    9.10    6.50
   0  -6  -6   22.00    6.50
  -1  -6  -6   19.60    8.10
  -1  -6  -6   26.50    6.60
  -2  -6  -6  127.29   13.60
  -3  -6  -6   74.79   12.40
   9  -7  -6   -5.80   10.80
   8  -7  -6   32.00   13.30
   7  -7  -6  153.08   17.00
   6  -7  -6  164.58   15.00
   5  -7  -6  159.58   13.70
   4  -7  -6  584.54   17.00
   4  -7  -6  540.85   23.50
   3  -7  -6  250.77   15.70
   3  -7  -6  218.48   11.20
   2  -7  -6   82.29    8.60
   2  -7  -6   70.19    9.80
   1  -7  -6    9.30    6.00
   1  -7  -6    4.40    6.70
   1  -7  -6    7.60    5.90
   0  -7  -6   -0.60    6.40
   0  -7  -6    8.90    6.30
  -1  -7  -6   29.00    8.30
  -2  -7  -6  161.58   15.90
  -3  -7  -6   36.50   11.50
   8  -8  -6   11.20   11.50
   7  -8  -6   59.89   13.80
   6  -8  -6    2.50    8.30
   5  -8  -6  318.17   19.00
   4  -8  -6  222.18   16.20
   3  -8  -6  121.79   12.80
   3  -8  -6  111.89    9.30
   2  -8  -6   16.50    7.20
   2  -8  -6   11.80    6.40
   2  -8  -6    5.50    7.10
   1  -8  -6   -3.00    6.30
   1  -8  -6    1.10    5.90
   1  -8  -6    1.70    6.30
   0  -8  -6   22.30    7.90
   0  -8  -6   11.50    6.70
   0  -8  -6   16.70    7.40
  -1  -8  -6    7.30    8.40
  -2  -8  -6   23.80    9.60
   8  -9  -6    4.80   12.80
   7  -9  -6  -23.80   10.40
   6  -9  -6   38.10   11.70
   5  -9  -6   31.90   10.20
   4  -9  -6   -0.50    7.70
   3  -9  -6   37.90    7.10
   3  -9  -6   39.40    9.80
   3  -9  -6   24.60    8.50
   2  -9  -6   71.09   11.10
   2  -9  -6   70.59   10.50
   2  -9  -6   79.19    9.60
   1  -9  -6   23.80    7.70
   1  -9  -6   32.20    8.40
   1  -9  -6   25.90    8.40
   0  -9  -6   27.90    7.80
   0  -9  -6   18.80    8.00
   7 -10  -6  -18.50   11.00
   6 -10  -6    0.80   10.20
   5 -10  -6   48.40   11.70
   4 -10  -6   28.70    9.80
   4 -10  -6   39.60   10.90
   3 -10  -6  182.18   15.80
   3 -10  -6  197.38   17.40
   2 -10  -6   64.09   11.50
   2 -10  -6   59.59   10.90
   2 -10  -6   50.99    9.00
   1 -10  -6    3.20    6.70
   1 -10  -6    0.20    7.30
   0 -10   7   11.30   11.60
   1 -10   7   39.10   11.90
   2 -10   7   34.70   11.20
   3 -10   7  111.59   15.70
   4 -10   7  127.99   16.30
  -2  -9   7  -16.20    9.80
  -1  -9   7   -8.50   10.20
   0  -9   7   -5.30    9.80
   1  -9   7    0.90    8.60
   2  -9   7  -15.10    7.40
   3  -9   7  155.08   16.90
   4  -9   7  121.19   15.30
  -5   9  -7  197.48   16.50
   5  -9   7  153.38   16.70
  -3  -8   7   -8.00   10.60
  -2  -8   7  -13.50   10.30
  -1  -8   7   26.90   11.40
   0  -8   7   -0.20    8.10
   1  -8   7    5.10    9.10
   2  -8   7   15.10    9.30
   3  -8   7  178.28   16.50
  -4   8  -7   73.39   10.80
   4  -8   7   95.89   13.00
  -5   8  -7  354.46   20.30
   5  -8   7  370.46   20.80
  -6   8  -7   32.70   10.30
  -4  -7   7   85.69   16.60
  -3  -7   7  156.58   17.90
  -2  -7   7   85.29   13.20
  -1  -7   7   51.89   12.10
   0  -7   7   68.99   11.90
   1  -7   7  276.57   18.50
   2  -7   7   72.69   10.40
  -3   7  -7  198.98   14.40
   3  -7   7  200.88   15.50
  -4   7  -7  287.57   16.90
   4  -7   7  296.67   17.60
  -5   7  -7  106.89   12.60
   5  -7   7  103.59   12.10
  -6   7  -7  212.98   17.00
  -5  -6   7   53.49   14.70
  -4  -6   7  107.59   16.40
  -3  -6   7  149.39   15.90
  -2  -6   7  175.68   16.00
  -1  -6   7   27.70   10.20
   0  -6   7  157.08   13.70
   1  -6   7  228.08   15.90
  -2   6  -7   -5.60    6.00
   2  -6   7    0.30    6.90
  -3   6  -7  127.69   12.60
   3  -6   7  103.79   11.20
  -4   6  -7   31.70    9.20
   4  -6   7   38.30    8.50
  -5   6  -7  146.89   14.70
   5  -6   7  172.58   20.10
  -6   6  -7  337.37   20.00
  -7   6  -7   68.09   12.50
  -6  -5   7    5.80    9.80
  -5  -5   7    3.30   10.60
  -4  -5   7  157.38   17.30
  -3  -5   7  325.17   20.40
  -2  -5   7  240.98   16.80
  -1  -5   7  259.67   17.50
   0   5  -7   96.19    5.80
   0  -5   7   74.79   10.00
  -1   5  -7    0.10    5.70
   1  -5   7    1.00    5.80
  -2   5  -7  123.99   11.00
   2  -5   7  127.79   11.40
  -3   5  -7   17.60    7.40
   3  -5   7   11.40    6.10
  -4   5  -7   61.99    9.70
   4  -5   7   68.19    8.60
  -5   5  -7  280.37   17.80
  -6   5  -7   44.90    9.90
  -7   5  -7  119.19   14.50
  -7  -4   7   21.10    9.80
  -6  -4   7    1.30   10.20
  -5  -4   7   19.10   11.10
   4   4  -7    7.90    4.60
  -4  -4   7   -5.00    8.80
   3   4  -7    8.00    4.40
  -3  -4   7   15.30    9.70
   2   4  -7  218.08    8.80
  -2  -4   7  243.38   16.10
   1   4  -7  454.35   13.70
  -1  -4   7  456.35   19.80
   0   4  -7  121.99   10.40
   0  -4   7  121.99   11.40
  -1   4  -7    8.10    6.30
   1  -4   7    5.80    6.10
  -2   4  -7  146.59   11.40
   2  -4   7  144.09   10.90
  -3   4  -7   60.59    9.70
   3  -4   7   59.79    7.30
  -4   4  -7   62.59    9.70
   4  -4   7   58.09    6.80
  -5   4  -7   67.59   10.60
  -6   4  -7   56.69   11.50
  -7   4  -7   84.79   13.30
  -7  -3   7   36.90   10.60
   6   3  -7   16.10    6.90
  -6  -3   7   11.20    9.90
   5   3  -7    5.80    6.30
  -5  -3   7    9.80    8.70
   4   3  -7   90.09    8.80
  -4  -3   7   81.29   11.70
   3   3  -7  309.37   12.40
  -3  -3   7  297.47   17.50
   2   3  -7  522.95   16.30
  -2  -3   7  525.65   21.60
   1   3  -7  844.42   23.30
   1   3  -7  848.32   25.90
  -1  -3   7  817.22   27.70
   0   3  -7    5.70    5.80
   0  -3   7    5.60    5.50
  -1   3  -7  130.19   10.80
   1  -3   7  112.79    9.70
  -2   3  -7   55.29    8.00
   2  -3   7   62.49    7.00
  -3   3  -7   -4.30    6.10
   3  -3   7    3.70    4.10
  -4   3  -7    1.20    7.60
  -5   3  -7   43.20    9.10
  -6   3  -7   99.39   12.10
  -7   3  -7   65.49   11.80
  -8  -2   7   88.79   13.10
   7   2  -7    8.70    7.20
  -7  -2   7    5.70    7.80
   6   2  -7   10.80    7.80
  -6  -2   7    3.00    8.10
   5   2  -7   11.00    7.40
  -5  -2   7   14.80    9.80
   4   2  -7   15.40    6.50
  -4  -2   7    2.60    7.30
   3   2  -7  205.18   10.80
  -3  -2   7  231.58   15.80
   2   2  -7  101.19    7.70
  -2  -2   7   87.49    9.80
   1   2  -7 3111.39   74.69
  -1  -2   7 3035.30   75.99
   0   2  -7  266.97   12.60
   0  -2   7  305.47   13.60
  -1   2  -7  561.14   19.60
  -1   2  -7  572.84   17.70
   1  -2   7  556.14   18.20
  -2   2  -7   73.29    8.80
   2  -2   7   71.09    6.20
  -3   2  -7    9.10    6.40
   3  -2   7    8.70    3.40
  -4   2  -7   51.39    8.90
  -5   2  -7   25.20    9.10
  -6   2  -7   27.40    9.90
  -7   2  -7   71.99   12.00
   8   1  -7  160.08   15.60
  -8  -1   7  138.79   15.40
   7   1  -7   43.60   10.50
  -7  -1   7   31.30    9.10
  -7  -1   7   41.70    8.10
   6   1  -7  296.47   17.90
  -6  -1   7  305.87   18.60
   5   1  -7  121.39   11.80
  -5  -1   7  129.29   13.00
   4   1  -7   12.20    6.30
  -4  -1   7    2.40    6.70
   3   1  -7   28.00    6.00
  -3  -1   7   27.10    8.00
   2   1  -7  239.98   11.00
   2   1  -7  234.28   11.10
  -2  -1   7  249.38   13.20
   1   1  -7  340.07   13.00
  -1  -1   7  356.66   14.70
   0   1  -7  412.26   15.20
   0   1  -7  392.96   14.30
   0  -1   7  417.36   14.70
  -1   1  -7  757.52   20.90
  -1   1  -7  765.12   23.70
   1  -1   7  763.32   21.00
  -2   1  -7   11.60    5.90
   2  -1   7   14.70    2.40
  -3   1  -7   46.70    8.10
  -4   1  -7   -0.40    7.20
  -5   1  -7    0.70    8.00
  -6   1  -7    2.60    7.80
   8   0  -7  197.48   17.80
   7   0  -7    3.00    8.70
  -7   0   7   16.90    8.20
   6   0  -7  802.82   28.90
  -6   0   7  778.92   29.40
   5   0  -7  175.58   13.10
  -5   0   7  158.78   13.40
   4   0  -7  196.28   12.10
  -4   0   7  183.68   14.10
   3   0  -7  112.09    9.40
  -3   0   7  120.79   11.40
   2   0  -7  109.09    9.00
   2   0  -7  117.89    7.50
  -2   0   7  114.09    7.00
  -2   0   7  112.89   10.10
   1   0  -7   48.70    5.70
  -1   0   7   41.80    6.10
   0   0  -7  499.55   16.00
   0   0  -7  519.55   17.60
   0   0   7  525.45   16.20
  -1   0  -7  364.36   15.10
  -1   0  -7  386.06   11.30
  -2   0  -7 1420.36   39.80
  -3   0  -7    0.10    5.80
  -4   0  -7   11.00    7.60
  -5   0  -7   78.99   12.00
  -6   0  -7    0.80    8.80
   9  -1  -7   32.20   12.00
   8  -1  -7   15.20   11.30
   7  -1  -7   85.09   13.30
   6  -1  -7  214.58   16.20
  -6   1   7  231.78    9.60
   5  -1  -7  102.39   11.20
  -5   1   7   70.59    9.70
   4  -1  -7   -0.50    5.30
  -4   1   7    6.90    6.00
  -4   1   7    1.20    2.80
   3  -1  -7  109.49    9.20
   3  -1  -7  112.49    6.50
  -3   1   7  110.89    9.90
   2  -1  -7  173.48   11.30
   2  -1  -7  179.18    8.60
  -2   1   7  181.88   11.30
   1  -1  -7    8.80    4.30
   1  -1  -7   -2.80    4.60
   0  -1  -7    9.60    4.20
   0  -1  -7   18.40    5.00
  -1  -1  -7  350.06   14.50
  -1  -1  -7  354.86   10.20
  -2  -1  -7  388.56   16.30
  -3  -1  -7  220.88   13.40
  -4  -1  -7  108.79   11.50
  -5  -1  -7    1.90    7.20
  -6  -1  -7   17.10    9.80
   9  -2  -7   27.00   12.40
   8  -2  -7   29.10   11.50
   7  -2  -7  138.89   15.40
   6  -2  -7  130.09   13.40
   5  -2  -7   36.70    8.00
  -5   2   7   36.20    2.70
   4  -2  -7   10.60    6.10
  -4   2   7    7.10    2.30
   3  -2  -7  487.35   13.70
   3  -2  -7  485.15   18.40
  -3   2   7  470.25   13.60
   2  -2  -7  208.68   12.20
   2  -2  -7  251.87    9.60
   1  -2  -7  664.33   22.10
   1  -2  -7  728.13   20.80
   0  -2  -7  447.06   14.40
   0  -2  -7  464.25   16.30
  -1  -2  -7  285.17    9.40
  -1  -2  -7  306.27   14.00
  -2  -2  -7  195.48   12.20
  -3  -2  -7  157.28   12.30
  -4  -2  -7   57.59    9.60
  -5  -2  -7   -7.10    8.10
   9  -3  -7    5.30   11.50
   8  -3  -7   53.19   13.50
   7  -3  -7  625.64   27.50
   6  -3  -7  371.26   19.20
   5  -3  -7  114.49   11.40
   4  -3  -7   64.69    9.60
   3  -3  -7   69.59    5.10
   3  -3  -7   81.19    9.80
   2  -3  -7   11.60    6.40
   2  -3  -7   13.80    4.10
   1  -3  -7   24.80    5.00
   0  -3  -7    1.40    4.90
   0  -3  -7   10.70    3.30
  -1  -3  -7  100.39    6.40
  -1  -3  -7  109.79    5.80
  -1  -3  -7  107.59   10.00
  -2  -3  -7  344.37   16.20
  -3  -3  -7  331.07   17.20
  -4  -3  -7   16.10    8.80
  -5  -3  -7    9.60    9.50
   9  -4  -7   -2.30   11.40
   8  -4  -7  -18.70   10.10
   7  -4  -7  398.06   22.30
   6  -4  -7  103.99   12.20
   5  -4  -7  127.79   12.70
   4  -4  -7  346.67   16.70
   3  -4  -7  175.08   12.10
   3  -4  -7  171.28    7.60
   2  -4  -7   19.90    4.60
   2  -4  -7   27.20    7.80
   1  -4  -7    5.60    4.50
   0  -4  -7   13.60    5.50
  -1  -4  -7    4.40    6.20
  -1  -4  -7    3.30    3.90
  -2  -4  -7  101.69   11.10
  -3  -4  -7   35.90    9.60
  -4  -4  -7   27.20   10.20
   9  -5  -7  -11.70   11.70
   8  -5  -7  -17.10    8.90
   7  -5  -7   32.60   11.40
   6  -5  -7   77.49   11.50
   5  -5  -7  399.96   19.10
   4  -5  -7  162.08    5.80
   4  -5  -7  190.28   14.20
   3  -5  -7   -0.50    6.20
   3  -5  -7    2.20    3.50
   2  -5  -7   11.10    4.70
   2  -5  -7    4.90    6.10
   1  -5  -7   36.40    6.50
   0  -5  -7   15.20    5.40
   0  -5  -7    5.10    5.80
  -1  -5  -7    2.70    6.00
  -1  -5  -7    4.20    4.80
  -2  -5  -7  153.48   14.10
  -3  -5  -7   75.79   11.90
  -4  -5  -7   83.89   13.60
   9  -6  -7   -9.50   12.10
   8  -6  -7   -8.90   11.10
   7  -6  -7   10.90    9.20
   6  -6  -7   16.60    8.60
   5  -6  -7  114.99   13.10
   4  -6  -7  616.44   24.90
   4  -6  -7  614.74   17.00
   3  -6  -7  175.58   13.30
   3  -6  -7  174.28    9.30
   2  -6  -7   38.50    6.60
   2  -6  -7   41.70    8.30
   1  -6  -7   54.79    9.90
   1  -6  -7   57.09    8.20
   0  -6  -7    6.40    5.60
   0  -6  -7    5.90    6.70
  -1  -6  -7    0.30    7.30
  -2  -6  -7   -1.80    8.00
  -3  -6  -7   22.30   10.00
   8  -7  -7  -26.60   10.60
   7  -7  -7  -10.90    9.60
   6  -7  -7   18.10    9.80
   5  -7  -7  130.29   14.30
   4  -7  -7  177.38   15.10
   3  -7  -7  370.96   14.80
   3  -7  -7  376.76   19.50
   2  -7  -7  172.68   14.20
   2  -7  -7  157.18   11.40
   1  -7  -7   -0.10    5.80
   1  -7  -7    3.30    6.00
   1  -7  -7    7.40    7.50
   0  -7  -7    8.90    6.10
   0  -7  -7    9.70    7.20
  -1  -7  -7   15.70    7.70
  -2  -7  -7   37.60   10.20
   8  -8  -7  -23.00   10.50
   7  -8  -7   -7.40    8.90
   6  -8  -7   -0.90    8.20
   5  -8  -7   34.80   10.30
   4  -8  -7  335.37   19.50
   3  -8  -7  123.39   13.30
   3  -8  -7  128.49   10.20
   2  -8  -7  217.68   13.50
   2  -8  -7  225.18   15.80
   2  -8  -7  191.28   14.60
   1  -8  -7   15.60    6.90
   1  -8  -7    6.00    6.40
   1  -8  -7    4.50    7.00
   0  -8  -7   38.80    9.20
   0  -8  -7   32.30    8.50
  -1  -8  -7   55.59   11.20
   7  -9  -7  -16.40   10.30
   6  -9  -7   -9.10    9.10
   5  -9  -7   -6.10    8.40
   4  -9  -7    6.00    8.30
   3  -9  -7   71.69   11.40
   3  -9  -7  107.39   13.10
   2  -9  -7  108.89   12.70
   2  -9  -7  102.89   12.80
   2  -9  -7  111.29   11.10
   1  -9  -7   -3.90    6.30
   1  -9  -7   19.90    8.00
   1  -9  -7   16.00    7.60
   0  -9  -7  165.28   13.90
   0  -9  -7  154.78   14.70
   6 -10  -7  -10.00    9.30
   5 -10  -7   -5.10    8.60
   4 -10  -7    0.30    8.20
   4 -10  -7    7.00    8.60
   3 -10  -7   75.99   11.70
   3 -10  -7   71.99   11.70
   2 -10  -7   27.10    9.10
   2 -10  -7   32.80    9.40
   1 -10   8    0.60    9.30
   2 -10   8   39.70   13.30
   3 -10   8   38.70   12.60
  -2  -9   8    2.00   11.60
  -1  -9   8   -3.00   10.20
   0  -9   8  -13.70    9.90
   1  -9   8   14.00   10.50
   2  -9   8   27.20   11.00
   3  -9   8   11.40   10.00
   4  -9   8   -3.90    8.60
  -3  -8   8   -6.80   11.20
  -2  -8   8   -4.20   10.00
  -1  -8   8    3.30    9.80
   0  -8   8   14.40   10.50
   1  -8   8   -3.80    8.70
   2  -8   8   -8.30    8.40
   3  -8   8   46.90   10.70
  -4   8  -8    1.00    8.30
   4  -8   8    0.20    8.20
  -5   8  -8   99.49   12.70
  -4  -7   8   40.00   13.60
  -3  -7   8   84.79   15.80
  -2  -7   8  202.48   19.30
  -1  -7   8    3.30   10.20
   0  -7   8  673.43   28.10
   1  -7   8   -1.50    8.00
  -2   7  -8   -1.70    7.50
   2  -7   8   -7.20    7.40
  -3   7  -8   10.70    7.80
   3  -7   8   14.60    8.00
  -4   7  -8   13.40    7.80
   4  -7   8   18.90    8.00
  -5   7  -8   40.00   10.70
  -6   7  -8   48.70   11.30
  -5  -6   8   51.49   14.70
  -4  -6   8   14.90   11.70
  -3  -6   8  144.59   16.50
  -2  -6   8  253.97   18.70
  -1  -6   8    4.10    8.60
   0  -6   8   40.70   10.20
  -1   6  -8   -1.10    7.30
   1  -6   8    6.80    7.00
  -2   6  -8  176.38   14.50
   2  -6   8  156.18   13.80
  -3   6  -8   41.50    9.00
   3  -6   8   43.30    8.80
  -4   6  -8   12.10    7.90
   4  -6   8   12.50    7.00
  -5   6  -8   45.90   11.10
  -6   6  -8  111.59   14.20
  -6  -5   8   59.59   13.80
  -5  -5   8   68.19   14.80
  -4  -5   8   22.00   11.00
  -3  -5   8  308.97   20.40
  -2  -5   8  338.27   20.10
   1   5  -8  210.18    8.00
  -1  -5   8  207.38   15.70
   0  -5   8  144.99   14.00
  -1   5  -8   16.60    6.90
   1  -5   8   22.90    8.10
  -2   5  -8   16.40    7.40
   2  -5   8   19.30    6.90
  -3   5  -8  109.09   12.60
   3  -5   8   99.39   10.10
  -4   5  -8    9.70    7.70
   4  -5   8    1.10    5.80
  -5   5  -8   25.10    9.60
  -6   5  -8   21.60   10.10
  -6  -4   8   32.30   11.10
  -5  -4   8    1.90    9.10
  -4  -4   8   -1.90    9.00
   3   4  -8   53.69    6.30
  -3  -4   8   39.40   10.60
   2   4  -8  135.59    7.60
  -2  -4   8  115.99   13.10
   1   4  -8  380.36   13.10
  -1  -4   8  370.26   19.50
   0   4  -8  220.58   12.90
   0  -4   8  200.78   14.50
  -1   4  -8  345.27   16.70
   1  -4   8  340.47   16.50
  -2   4  -8  102.19   11.30
   2  -4   8   90.59    9.40
  -3   4  -8   10.10    7.30
   3  -4   8   17.10    5.90
  -4   4  -8    3.80    7.50
  -5   4  -8   -6.60    7.30
  -6   4  -8   10.20    9.50
  -7  -3   8   52.69   11.10
  -6  -3   8    7.30    8.90
   5   3  -8   -5.90    6.50
  -5  -3   8    7.40    9.00
   4   3  -8  -12.90    5.40
  -4  -3   8   -6.00    9.10
   3   3  -8   35.40    6.10
  -3  -3   8   34.80    9.70
   2   3  -8  122.79    8.20
  -2  -3   8  105.79   11.60
   1   3  -8  110.49   10.10
   1   3  -8   97.39    7.90
  -1  -3   8   99.79   10.60
   0   3  -8  182.18   11.40
   0  -3   8  196.78   13.30
  -1   3  -8  279.57   14.30
   1  -3   8  282.97   13.70
  -2   3  -8  305.87   15.60
   2  -3   8  319.57   13.70
  -3   3  -8   -0.80    6.80
   3  -3   8   -8.90    4.20
  -4   3  -8   22.70    8.40
  -5   3  -8   34.90   10.00
  -6   3  -8    3.90    7.90
   7   2  -8   39.60    9.50
  -7  -2   8   37.40   10.60
   6   2  -8   23.90    8.90
  -6  -2   8   32.80    9.90
   5   2  -8    1.50    7.20
  -5  -2   8   -1.10    8.90
   4   2  -8   50.99    8.00
  -4  -2   8   45.20   10.60
   3   2  -8   63.89    7.30
  -3  -2   8   58.09   10.30
   2   2  -8   95.79    8.00
  -2  -2   8   85.39    9.90
   1   2  -8   32.10    6.70
  -1  -2   8   31.60    7.90
   0   2  -8  694.73   22.90
   0  -2   8  733.33   23.20
  -1   2  -8  755.92   25.40
  -1   2  -8  823.82   28.40
   1  -2   8  750.92   23.20
  -2   2  -8  332.97   16.10
   2  -2   8  341.47   12.50
  -3   2  -8   82.69   10.10
  -4   2  -8   82.59   10.50
  -5   2  -8   -4.80    7.70
  -6   2  -8   21.60   10.00
   8   1  -8  140.09   14.90
  -8  -1   8  187.08   17.70
   7   1  -8    1.40    8.80
  -7  -1   8   19.10    8.90
   6   1  -8  326.17   18.40
  -6  -1   8  348.37   20.10
   5   1  -8   34.70    8.60
  -5  -1   8   51.79   10.90
   4   1  -8   -3.60    5.60
  -4  -1   8   -1.00    7.90
   3   1  -8   94.99    8.80
  -3  -1   8  102.29   11.40
   2   1  -8   68.09    7.70
   2   1  -8   51.79    6.60
  -2  -1   8   56.09    8.90
   1   1  -8  103.99    8.70
  -1  -1   8  105.89    9.90
   0   1  -8  145.49   10.70
   0  -1   8  126.09    9.40
  -1   1  -8  402.36   16.90
  -1   1  -8  387.26   13.20
   1  -1   8  397.46   13.40
  -2   1  -8    5.30    6.00
  -3   1  -8  225.18   15.00
  -4   1  -8   46.40    9.00
  -5   1  -8    6.30    8.70
  -6   1  -8    3.10    9.40
   8   0  -8  274.57   20.10
   7   0  -8   43.40   11.10
  -7   0   8   57.59   11.40
   6   0  -8   61.89   11.00
  -6   0   8   90.29   12.60
   5   0  -8   48.50    9.20
  -5   0   8   51.99   10.00
   4   0  -8    0.30    6.00
  -4   0   8    3.60    7.20
   3   0  -8    1.60    5.60
  -3   0   8    1.00    5.90
   2   0  -8    8.10    5.30
   2   0  -8   23.80    5.20
  -2   0   8   12.80    6.00
   1   0  -8   40.30    6.30
  -1   0   8   46.50    6.50
   0   0  -8  143.19    8.90
   0   0  -8  164.58   10.70
   0   0   8  167.68    8.70
  -1   0  -8  989.70   29.10
  -1   0  -8  936.61   24.50
  -2   0  -8  229.98   14.20
  -3   0  -8  892.11   30.00
  -4   0  -8   32.60    9.40
  -5   0  -8    7.50    9.00
  -6   0  -8   26.60   10.50
   8  -1  -8   68.89   12.80
   7  -1  -8   43.20   11.40
   6  -1  -8  194.18   15.90
   5  -1  -8    1.70    6.40
  -5   1   8   -2.20    7.20
   4  -1  -8   70.59    8.90
  -4   1   8   83.99   10.90
   3  -1  -8   -1.00    5.80
   3  -1  -8    1.20    3.60
  -3   1   8   -1.90    5.70
   2  -1  -8   15.80    4.60
   2  -1  -8    5.50    5.60
   1  -1  -8  131.89    9.00
   0  -1  -8   -1.00    4.20
   0  -1  -8    8.70    5.70
  -1  -1  -8  409.66   11.80
  -1  -1  -8  418.36   16.80
  -2  -1  -8   24.90    7.00
  -3  -1  -8  132.19   12.50
  -4  -1  -8  167.38   15.00
  -5  -1  -8   75.19   12.00
   9  -2  -8   -8.80   10.60
   8  -2  -8   13.20   11.20
   7  -2  -8  121.69   15.40
   6  -2  -8   77.29   12.20
   5  -2  -8  224.58   14.00
   4  -2  -8  482.65   19.80
  -4   2   8  453.65   13.10
   3  -2  -8   59.79    8.90
   3  -2  -8   56.09    5.20
   2  -2  -8   56.19    8.40
   2  -2  -8   67.89    6.30
   1  -2  -8  104.49    8.30
   0  -2  -8  261.77   10.80
   0  -2  -8  257.77   12.80
  -1  -2  -8   15.30    6.10
  -1  -2  -8   16.90    3.60
  -2  -2  -8   95.69   10.30
  -3  -2  -8  123.29   12.00
  -4  -2  -8  127.89   13.80
  -5  -2  -8   -0.50    8.70
   9  -3  -8  -10.30   11.60
   8  -3  -8  -19.10   10.10
   7  -3  -8  122.89   14.20
   6  -3  -8  213.48   15.40
   5  -3  -8  238.68   14.80
   4  -3  -8  312.07   16.70
   3  -3  -8   44.10    4.80
   3  -3  -8   30.90    7.40
   2  -3  -8    0.60    6.00
   2  -3  -8   -2.60    4.00
   1  -3  -8  182.28   10.10
   0  -3  -8   12.10    3.80
   0  -3  -8   12.70    5.70
  -1  -3  -8    4.30    3.30
  -1  -3  -8    8.20    6.40
  -2  -3  -8  149.49   13.00
  -3  -3  -8  184.38   14.10
  -4  -3  -8  100.29   12.50
   9  -4  -8  -21.00   10.90
   8  -4  -8   78.99   15.10
   7  -4  -8   17.90   10.20
   6  -4  -8  124.39   13.70
   5  -4  -8  261.17   15.80
   4  -4  -8  408.16   10.90
   4  -4  -8  397.56   18.60
   3  -4  -8  143.29    7.80
   3  -4  -8  143.69   12.10
   2  -4  -8    6.00    4.50
   2  -4  -8   12.30    7.70
   1  -4  -8   -5.50    4.40
   0  -4  -8   15.10    6.00
  -1  -4  -8   54.19    9.00
  -2  -4  -8    8.70    6.90
  -3  -4  -8   44.30    9.40
  -4  -4  -8    2.70    9.20
   9  -5  -8   -8.10   12.10
   8  -5  -8   -5.90    9.70
   7  -5  -8   46.00   11.80
   6  -5  -8   12.10    8.00
   5  -5  -8  179.08   14.20
   4  -5  -8  123.49   12.50
   4  -5  -8  116.09    6.50
   3  -5  -8  150.28   12.70
   3  -5  -8  142.79    8.20
   2  -5  -8  142.19    9.50
   2  -5  -8  154.18   12.70
   1  -5  -8   -2.90    5.00
   0  -5  -8   20.40    5.60
   0  -5  -8   28.60    7.10
  -1  -5  -8   11.00    6.90
  -2  -5  -8    3.90    7.10
  -3  -5  -8   -3.50    8.30
   9  -6  -8  -29.90   11.40
   8  -6  -8  -17.00   10.60
   7  -6  -8   -5.30    8.40
   6  -6  -8    5.00    7.90
   5  -6  -8  445.06   22.20
   4  -6  -8  178.28   14.20
   3  -6  -8  272.27   16.50
   3  -6  -8  285.97   12.00
   2  -6  -8  194.28   14.90
   2  -6  -8  168.18   11.00
   1  -6  -8   80.69    9.30
   1  -6  -8  104.09   11.80
   0  -6  -8   21.00    6.90
   0  -6  -8   17.60    6.20
  -1  -6  -8   12.90    7.80
  -2  -6  -8  -10.10    6.80
   8  -7  -8  -10.00   11.30
   7  -7  -8   -8.70    9.40
   6  -7  -8   10.60    8.70
   5  -7  -8  497.65   23.30
   4  -7  -8   18.30    8.20
   3  -7  -8   93.89    8.20
   3  -7  -8   76.89   11.70
   2  -7  -8  159.38   13.60
   2  -7  -8  152.68   11.40
   1  -7  -8  126.99   11.30
   1  -7  -8  127.99   12.00
   1  -7  -8  103.19   12.50
   0  -7  -8    5.20    6.80
  -1  -7  -8   32.80    8.70
  -2  -7  -8   24.10   10.00
   8  -8  -8   10.60   11.60
   7  -8  -8  -14.80    8.60
   6  -8  -8    1.90    8.40
   5  -8  -8   10.90    9.60
   4  -8  -8   37.10   10.20
   3  -8  -8  116.79   13.50
   2  -8  -8   93.29   12.20
   2  -8  -8   76.39   10.20
   2  -8  -8   90.89    9.90
   1  -8  -8    0.50    6.20
   1  -8  -8    0.70    6.50
   1  -8  -8    7.60    8.00
   0  -8  -8   42.00    9.50
   0  -8  -8   49.30    9.80
   7  -9  -8  -24.60    9.50
   6  -9  -8    1.90    9.30
   5  -9  -8   -3.80    7.50
   4  -9  -8   11.70    9.10
   3  -9  -8   12.50    8.10
   3  -9  -8   15.10    9.40
   2  -9  -8  121.19   13.60
   2  -9  -8  157.18   13.90
   1  -9  -8   54.69    9.80
   1  -9  -8   45.70    9.90
   5 -10  -8   62.99   12.60
   4 -10  -8   32.30   10.80
   4 -10  -8   39.80   10.50
   3 -10  -8   21.00    9.70
   3 -10  -8   18.30    8.70
  -1  -9   9   25.00   13.90
   0  -9   9   -2.70   11.40
   1  -9   9    8.10    9.60
   2  -9   9   -0.20    9.80
   3  -9   9   28.80   10.80
  -3  -8   9   51.69   14.80
  -2  -8   9   14.40   12.80
  -1  -8   9  106.09   15.40
   0  -8   9   10.70    9.70
   1  -8   9    3.20    8.50
   2  -8   9   -5.30    8.00
  -3   8  -9   25.50    9.90
   3  -8   9   36.60   10.40
  -4   8  -9   38.90   10.20
   4  -8   9   12.30    9.10
  -4  -7   9  -17.00   12.30
  -3  -7   9    6.90   11.30
  -2  -7   9   18.60   10.90
  -1  -7   9 1163.28   41.70
   0  -7   9   -5.10    9.50
   1  -7   9   64.19   11.00
  -2   7  -9   -0.50    7.20
   2  -7   9   -4.60    7.70
  -3   7  -9    5.80    7.90
   3  -7   9    8.00    8.00
  -4   7  -9   38.30   10.90
  -5   7  -9    6.90    9.20
  -5  -6   9  -16.10   10.10
  -4  -6   9  -13.40   10.20
  -3  -6   9    1.70   10.60
  -2  -6   9   -1.20   10.60
  -1  -6   9  801.32   32.10
   0  -6   9  245.68   18.40
  -1   6  -9   22.40    8.10
   1  -6   9   35.20   10.00
  -2   6  -9  192.38   15.80
   2  -6   9  191.68   15.00
  -3   6  -9   62.69   11.00
   3  -6   9   65.39    9.80
  -4   6  -9   -6.90    7.10
  -5   6  -9   -5.00    7.60
  -6  -5   9   38.20   12.80
  -5  -5   9    1.00   10.20
  -4  -5   9   -6.20    9.50
  -3  -5   9   -6.30   10.50
  -2  -5   9  106.89   13.80
  -1  -5   9  138.59   14.50
   0   5  -9  216.28   14.00
   0  -5   9  226.48   15.60
  -1   5  -9  225.18   14.40
   1  -5   9  220.88   15.70
  -2   5  -9  250.67   16.50
   2  -5   9  253.07   15.70
  -3   5  -9  179.18   15.30
   3  -5   9  157.78   12.90
  -4   5  -9    2.40    8.70
  -5   5  -9    8.30    9.50
  -6   5  -9    2.00    9.30
  -6  -4   9   20.00   10.90
  -5  -4   9   47.60   12.80
  -4  -4   9   18.90   10.20
   3   4  -9   15.40    8.70
  -3  -4   9   40.00   12.10
   2   4  -9    2.60    4.30
  -2  -4   9   -3.40    9.50
   1   4  -9  231.68   10.80
  -1  -4   9  230.28   17.40
   0   4  -9  169.18   12.30
   0  -4   9  176.68   14.70
  -1   4  -9  213.78   13.70
   1  -4   9  220.78   14.20
  -2   4  -9  343.07   18.20
   2  -4   9  326.87   15.80
  -3   4  -9   15.40    8.50
   3  -4   9    3.10    6.00
  -4   4  -9    6.60    8.10
  -5   4  -9    8.10    9.60
  -6   4  -9   29.00   10.30
  -7  -3   9   97.49   14.80
  -6  -3   9  132.09   15.70
   5   3  -9   -9.30    7.40
  -5  -3   9   -5.50    9.20
   4   3  -9   24.90    7.30
  -4  -3   9   34.80   11.30
   3   3  -9  153.98   10.00
  -3  -3   9  171.78   16.00
   2   3  -9  224.48   11.10
  -2  -3   9  217.98   15.80
   1   3  -9    7.50    4.90
   1   3  -9    8.40    5.90
  -1  -3   9   -2.10    6.70
   0   3  -9   24.20    6.80
   0  -3   9   29.70    8.20
  -1   3  -9  436.16   18.50
   1  -3   9  431.46   18.20
  -2   3  -9  346.37   17.20
   2  -3   9  339.07   14.90
  -3   3  -9  135.59   13.80
  -4   3  -9   25.00    9.60
  -5   3  -9   -4.70    8.60
  -6   3  -9   -9.30    9.00
  -7  -2   9  123.39   15.70
   6   2  -9  131.29   13.30
  -6  -2   9  152.88   16.40
   5   2  -9   38.40    8.90
  -5  -2   9   35.00   10.10
   4   2  -9  198.68   12.70
  -4  -2   9  201.48   16.40
   3   2  -9   62.39    8.10
  -3  -2   9   49.00    9.80
   2   2  -9   78.59    8.20
   2   2  -9   68.49    8.20
  -2  -2   9   68.79   10.30
   1   2  -9    3.60    5.30
  -1  -2   9    0.10    6.60
   0   2  -9  283.37   14.10
   0  -2   9  281.27   14.00
  -1   2  -9  219.48   13.30
   1  -2   9  206.38   11.60
  -2   2  -9  584.24   23.30
   2  -2   9  583.64   17.80
  -3   2  -9  248.48   16.30
  -4   2  -9  110.99   12.30
  -5   2  -9    3.50    7.60
  -6   2  -9   -7.00    8.90
   8   1  -9    8.70   10.00
   7   1  -9  517.45   24.20
  -7  -1   9  565.44   27.40
   6   1  -9   83.89   11.80
  -6  -1   9   71.39   11.40
   5   1  -9  155.28   13.10
  -5  -1   9  161.38   14.70
   4   1  -9   60.79    8.70
  -4  -1   9   44.50    9.20
   3   1  -9   17.00    6.40
  -3  -1   9   20.00    8.40
   2   1  -9    1.90    5.50
   2   1  -9    7.20    5.30
  -2  -1   9    2.20    6.60
   1   1  -9    9.00    5.90
  -1  -1   9    9.60    5.90
   0   1  -9  155.58   11.90
   0  -1   9  172.88   10.60
  -1   1  -9  350.96   16.20
  -1   1  -9  358.56   12.80
   1  -1   9  337.17   12.60
  -2   1  -9  125.69   11.90
  -3   1  -9  165.18   13.10
  -4   1  -9   86.39   12.10
  -5   1  -9   35.50    9.50
   8   0  -9   66.69   12.90
   7   0  -9  521.65   25.00
  -7   0   9  530.75   25.40
   6   0  -9  354.06   20.20
  -6   0   9  379.16   20.50
   5   0  -9  263.17   15.70
  -5   0   9  259.37   17.70
   4   0  -9   88.89   10.00
  -4   0   9   61.39   10.20
   3   0  -9  102.19   10.30
   3   0  -9  103.29    8.10
  -3   0   9   88.19   10.30
   2   0  -9   29.10    7.50
   2   0  -9   24.90    5.80
  -2   0   9   22.40    6.70
   1   0  -9    6.00    5.40
  -1   0   9   11.30    5.30
   0   0  -9   54.59    7.30
   0   0  -9   62.09    8.10
  -1   0  -9   81.29    9.80
  -2   0  -9  238.58   15.10
  -3   0  -9  264.57   16.80
  -4   0  -9   81.49   11.70
  -5   0  -9   -5.80    8.30
   8  -1  -9    6.50   10.90
   7  -1  -9   16.90   11.00
   6  -1  -9   88.49   11.60
   5  -1  -9  112.39   12.00
  -5   1   9  123.19   12.70
   4  -1  -9  426.46   19.00
  -4   1   9  424.26   20.20
   3  -1  -9   21.00    7.20
   3  -1  -9   20.70    4.90
  -3   1   9   19.90    6.60
   2  -1  -9   43.80    8.40
   2  -1  -9   41.20    6.20
   1  -1  -9   55.59    7.40
   0  -1  -9   89.59    9.40
   0  -1  -9   61.49    6.70
  -1  -1  -9   14.90    7.00
  -2  -1  -9  106.39   11.70
  -3  -1  -9  349.27   18.00
  -4  -1  -9   61.59   10.40
  -5  -1  -9  151.18   16.00
   8  -2  -9  -20.40   10.10
   7  -2  -9    6.30   10.30
   6  -2  -9   52.69   10.10
   5  -2  -9   43.50    8.90
   4  -2  -9 1132.29   35.20
   3  -2  -9  249.88   15.00
   3  -2  -9  218.18   10.20
   2  -2  -9   65.49    6.90
   2  -2  -9   46.20    8.30
   1  -2  -9    3.20    5.10
   0  -2  -9    9.70    5.60
  -1  -2  -9    1.90    5.80
  -2  -2  -9    6.20    6.70
  -3  -2  -9   33.20    9.50
  -4  -2  -9   56.29   10.60
   9  -3  -9   -0.70   11.80
   8  -3  -9  -19.00   10.30
   7  -3  -9    2.30    8.60
   6  -3  -9   18.00    8.10
   5  -3  -9   83.99   11.30
   4  -3  -9  300.67    9.90
   4  -3  -9  276.67   15.90
   3  -3  -9  237.98   10.30
   3  -3  -9  239.68   15.40
   2  -3  -9  568.64   22.50
   2  -3  -9  519.65   17.90
   1  -3  -9  308.17   13.90
   0  -3  -9   16.00    6.50
  -1  -3  -9    2.80    6.60
  -2  -3  -9   44.30    9.50
  -3  -3  -9   13.80    7.90
  -4  -3  -9    6.20    8.90
   9  -4  -9  -17.10   10.20
   8  -4  -9   -6.00   11.10
   7  -4  -9  102.59   14.50
   6  -4  -9   46.20   10.00
   5  -4  -9   33.20   10.00
   4  -4  -9  276.27    9.60
   4  -4  -9  242.78   15.70
   3  -4  -9  270.57   16.10
   3  -4  -9  291.67   11.50
   2  -4  -9   69.59    7.60
   2  -4  -9   69.49   10.20
   1  -4  -9   23.80    6.20
   0  -4  -9   16.50    6.50
  -1  -4  -9   43.30    8.80
  -2  -4  -9    8.20    7.20
  -3  -4  -9    6.00    7.70
   8  -5  -9  -16.30   10.50
   7  -5  -9  117.89   15.30
   6  -5  -9   18.80    9.20
   5  -5  -9  121.79   14.00
   4  -5  -9  100.09   12.70
   3  -5  -9  320.77   17.70
   3  -5  -9  309.27   12.70
   2  -5  -9  179.08   10.40
   2  -5  -9  178.78   14.20
   1  -5  -9  189.58   11.80
   0  -5  -9   16.20    7.20
  -1  -5  -9   -8.90    5.60
  -2  -5  -9    1.70    7.90
  -3  -5  -9   -3.50    8.60
   8  -6  -9   -2.00   10.30
   7  -6  -9    3.30    9.80
   6  -6  -9   30.20   10.50
   5  -6  -9   34.20   10.50
   4  -6  -9   37.20    9.60
   3  -6  -9   49.80    6.60
   3  -6  -9   31.30    9.00
   2  -6  -9  202.48   12.10
   2  -6  -9  216.28   15.40
   1  -6  -9   58.49   10.30
   1  -6  -9   69.09    9.00
   0  -6  -9   98.59   11.00
  -1  -6  -9   29.70    9.10
  -2  -6  -9   -1.40    8.10
   8  -7  -9   24.30   11.70
   7  -7  -9   -0.90    9.90
   6  -7  -9    1.20    9.10
   5  -7  -9   71.49   12.30
   4  -7  -9    6.40    7.80
   3  -7  -9  153.98   15.60
   2  -7  -9  224.68   17.00
   2  -7  -9  215.78   12.70
   1  -7  -9  166.58   12.80
   1  -7  -9  204.28   15.50
   0  -7  -9   80.49   10.40
  -1  -7  -9   31.60    9.80
   7  -8  -9   77.69   14.50
   6  -8  -9    1.30    9.10
   5  -8  -9    0.40    9.30
   4  -8  -9   11.20    9.70
   3  -8  -9   18.80    9.70
   2  -8  -9   14.00    8.00
   2  -8  -9   19.30    6.90
   2  -8  -9    0.10    6.80
   1  -8  -9  169.68   13.70
   1  -8  -9  204.38   16.60
   0  -8  -9   45.40   10.00
   0  -8  -9   48.50   10.20
   6  -9  -9   17.10   10.90
   5  -9  -9   -3.70    7.80
   4  -9  -9    0.50    9.30
   3  -9  -9   34.00    9.10
   3  -9  -9   30.20    9.40
   2  -9  -9   37.80    9.80
   0  -9  10   27.60   13.60
   1  -9  10   -3.70   11.20
   2  -9  10   16.70   11.00
  -2  -8  10  -21.80   10.30
  -1  -8  10  134.49   16.80
   0  -8  10   19.60   12.50
   1  -8  10   22.70   11.10
   2  -8  10   40.20   11.70
  -3   8 -10    1.60    8.60
   3  -8  10  -14.60    7.90
  -4   8 -10   19.80   10.20
  -3  -7  10   21.10   12.80
  -2  -7  10   23.70   12.20
  -1  -7  10   89.49   14.20
   0  -7  10  131.59   16.30
   1  -7  10  169.38   16.80
  -2   7 -10  124.69   14.30
   2  -7  10  108.79   14.00
  -3   7 -10    5.30    9.20
   3  -7  10  -10.50    7.90
  -4   7 -10    6.20    9.30
  -4  -6  10  -12.90   10.50
  -3  -6  10   38.50   13.90
  -2  -6  10   33.70   13.00
  -1  -6  10   54.09   12.80
   0  -6  10   47.90   11.60
  -1   6 -10  237.68   15.80
   1  -6  10  211.48   17.30
  -2   6 -10  196.38   15.00
   2  -6  10  169.58   15.10
  -3   6 -10  141.39   14.30
   3  -6  10  164.98   15.50
  -4   6 -10   36.20   10.70
  -5   6 -10   -6.90    9.10
  -5  -5  10   29.40   12.60
  -4  -5  10  -16.50    9.10
  -3  -5  10   15.80   10.90
  -2  -5  10    0.40    9.40
  -1  -5  10   -3.80    9.90
   0   5 -10   49.90    9.90
   0  -5  10   34.40   10.70
  -1   5 -10  282.97   17.20
   1  -5  10  244.78   17.30
  -2   5 -10  101.59   12.60
   2  -5  10   88.39   10.70
  -3   5 -10  106.19   13.30
  -4   5 -10   22.90    9.50
  -5   5 -10    7.60    9.50
  -6  -4  10   31.60   11.10
  -5  -4  10   51.09   12.50
  -4  -4  10   19.60   10.40
  -3  -4  10   -2.80    9.10
   2   4 -10   10.90    5.20
  -2  -4  10    6.30   10.30
   1   4 -10    8.60    5.20
   1   4 -10    7.20    7.40
  -1  -4  10   -3.30    9.00
   0   4 -10  109.99   11.20
   0  -4  10  116.69   12.80
  -1   4 -10  323.87   17.80
   1  -4  10  328.37   17.50
  -2   4 -10    6.70    8.20
   2  -4  10  -19.20    6.30
  -3   4 -10   34.30    9.40
  -4   4 -10  108.49   13.10
  -5   4 -10    1.20    9.10
  -6  -3  10  124.79   15.40
  -5  -3  10   52.19   11.70
   4   3 -10   -1.10    6.20
  -4  -3  10   -1.40    9.50
   3   3 -10   14.00    5.70
  -3  -3  10    6.80    8.60
   2   3 -10   41.30    6.90
  -2  -3  10   39.60   10.60
   1   3 -10   -1.60    6.60
   1   3 -10    2.20    5.50
  -1  -3  10   -2.30    7.00
   0   3 -10    6.80    7.00
   0  -3  10    5.70    7.60
  -1   3 -10  272.17   16.40
   1  -3  10  243.68   14.50
  -2   3 -10  190.08   14.10
   2  -3  10  172.38   11.40
  -3   3 -10  134.59   13.50
  -4   3 -10  183.98   15.50
  -5   3 -10   39.50   11.00
  -7  -2  10  151.18   17.30
   6   2 -10   44.80   10.50
  -6  -2  10   68.89   13.10
   5   2 -10  143.69   13.00
  -5  -2  10  146.89   15.30
   4   2 -10  207.58   13.30
  -4  -2  10  219.88   17.00
   3   2 -10  518.75   19.70
  -3  -2  10  521.65   24.40
   2   2 -10   -0.60    5.60
   2   2 -10    5.80    6.10
  -2  -2  10    1.50    7.90
   1   2 -10   35.80    7.80
  -1  -2  10   45.00    9.00
   0   2 -10    2.40    6.90
   0  -2  10    1.20    6.20
  -1   2 -10   57.19    9.80
   1  -2  10   53.89    7.30
  -2   2 -10   23.30    8.20
  -3   2 -10  374.76   20.10
  -4   2 -10  100.49   12.90
  -5   2 -10  290.47   18.70
   7   1 -10  -26.50    8.80
  -7  -1  10   12.90    8.50
   6   1 -10  107.49   13.00
  -6  -1  10   90.59   12.90
   5   1 -10   80.89   10.70
  -5  -1  10   82.99   12.00
   4   1 -10  251.67   14.90
  -4  -1  10  245.88   17.60
   3   1 -10  141.39   11.30
  -3  -1  10  116.39   11.90
   2   1 -10   91.49    9.20
   2   1 -10  101.89   10.50
  -2  -1  10   98.69   11.10
   1   1 -10   40.00    8.10
  -1  -1  10   40.00    7.70
   0   1 -10  274.67   15.40
   0  -1  10  298.47   13.50
  -1   1 -10   97.69   10.80
   1  -1  10  124.09    7.90
  -2   1 -10  101.69   11.90
  -3   1 -10  111.79   13.10
  -4   1 -10   32.00    9.10
  -5   1 -10  148.49   15.80
   8   0 -10    6.20   11.00
   7   0 -10   25.30   10.80
  -7   0  10   51.29   11.40
   6   0 -10   75.99   12.10
  -6   0  10   77.79   11.90
   5   0 -10  124.39   12.40
  -5   0  10  146.39   14.70
   4   0 -10  368.76   17.50
  -4   0  10  329.27   18.90
   3   0 -10  189.08   11.00
   3   0 -10  182.18   13.10
  -3   0  10  169.78   13.90
   2   0 -10   82.49   10.00
   2   0 -10   89.89    8.80
  -2   0  10   69.29    9.30
   1   0 -10   63.49    8.30
  -1   0  10   83.69    8.50
   0   0 -10  936.91   29.40
  -1   0 -10  474.45   19.50
  -2   0 -10   -2.40    7.20
  -3   0 -10   14.40    7.80
  -4   0 -10   84.79   11.70
  -5   0 -10    7.00    8.90
   7  -1 -10   16.40   11.20
   6  -1 -10   -9.10    7.70
   5  -1 -10  123.29   12.80
   4  -1 -10    6.40    7.50
   3  -1 -10  195.48   14.20
   3  -1 -10  205.68   10.60
   2  -1 -10   88.39    8.40
   2  -1 -10   76.59   10.70
   1  -1 -10   11.80    6.20
   0  -1 -10   77.49    9.60
  -1  -1 -10    0.90    6.90
  -2  -1 -10   24.30    7.90
  -3  -1 -10   14.70    8.90
  -4  -1 -10  -12.30    6.90
   8  -2 -10  -34.70    9.90
   7  -2 -10   -0.70    9.70
   6  -2 -10   -4.90    7.10
   5  -2 -10  456.25   21.50
   4  -2 -10  131.39   13.10
   3  -2 -10  232.38   14.90
   3  -2 -10  285.97   12.10
   2  -2 -10   55.69    7.30
   2  -2 -10   49.90    9.30
   1  -2 -10   26.50    6.70
   0  -2 -10    1.20    6.30
  -1  -2 -10    2.00    6.30
  -2  -2 -10   -3.30    6.60
  -3  -2 -10   35.70    9.10
  -4  -2 -10   16.70    9.90
   8  -3 -10  -18.10   10.90
   7  -3 -10    6.90   10.00
   6  -3 -10   27.90    9.80
   5  -3 -10   72.59   10.80
   4  -3 -10  194.48   14.40
   4  -3 -10  183.38    8.50
   3  -3 -10   43.40    6.20
   3  -3 -10   37.70    9.40
   2  -3 -10  633.84   25.50
   2  -3 -10  664.43   21.50
   1  -3 -10  698.93   23.50
   0  -3 -10  119.79   11.40
  -1  -3 -10    5.30    6.40
  -2  -3 -10   -2.00    7.50
  -3  -3 -10    0.10    8.10
   8  -4 -10   13.70   11.20
   7  -4 -10   25.00   10.10
   6  -4 -10    8.20    8.70
   5  -4 -10   13.40    9.30
   4  -4 -10    1.50    7.90
   3  -4 -10   91.59    7.70
   3  -4 -10   75.09   11.20
   2  -4 -10   71.69   11.50
   2  -4 -10   80.69    8.40
   1  -4 -10  222.08   13.00
   0  -4 -10   63.39    9.40
  -1  -4 -10   24.30    8.30
  -2  -4 -10   29.40    9.40
  -3  -4 -10   -0.30    8.70
   8  -5 -10   19.90   11.10
   7  -5 -10   -7.00    8.40
   6  -5 -10    9.90    8.50
   5  -5 -10   16.50    9.30
   4  -5 -10   29.60    9.30
   3  -5 -10   86.99   11.90
   3  -5 -10   81.29    7.90
   2  -5 -10   51.79   10.20
   2  -5 -10   42.30    7.30
   1  -5 -10  128.39   11.10
   0  -5 -10  122.89   11.90
  -1  -5 -10   37.40    9.30
  -2  -5 -10    3.90    8.50
   8  -6 -10   12.50   12.40
   7  -6 -10   61.99   12.10
   6  -6 -10  346.87   21.60
   5  -6 -10   71.69   12.70
   4  -6 -10   31.70   10.20
   3  -6 -10    2.30    7.30
   2  -6 -10   29.00    9.10
   2  -6 -10   11.30    6.10
   1  -6 -10   21.80    7.20
   1  -6 -10   38.30   10.30
   0  -6 -10   39.40    8.70
  -1  -6 -10   51.19   10.10
   7  -7 -10    3.70   10.60
   6  -7 -10   64.69   12.60
   5  -7 -10    0.50    8.00
   4  -7 -10   -4.20    8.70
   3  -7 -10   10.20    9.00
   2  -7 -10   59.49   10.70
   2  -7 -10   44.30    8.20
   1  -7 -10   60.59   11.00
   1  -7 -10   61.49    9.40
   0  -7 -10   54.49    9.80
   7  -8 -10   53.79   14.10
   6  -8 -10   75.09   13.80
   5  -8 -10    6.80    9.00
   4  -8 -10    5.00    8.30
   3  -8 -10    9.30    9.20
   2  -8 -10   12.60    9.10
   1  -8 -10    1.80    6.50
   1  -8 -10    3.50    8.20
   5  -9 -10   42.30   11.90
   4  -9 -10   13.20    9.20
  -1  -8  11   15.50   12.40
   0  -8  11   27.00   12.80
   1  -8  11  101.19   15.30
   2  -8  11  -17.80    9.70
  -3  -7  11  332.77   27.10
  -2  -7  11   92.19   16.90
  -1  -7  11  -25.30   10.70
   0  -7  11   35.30   12.70
   1  -7  11  106.59   14.90
  -2   7 -11  252.47   17.50
   2  -7  11  217.18   19.20
  -3   7 -11   23.40   10.20
  -4  -6  11   38.30   12.80
  -3  -6  11   37.90   13.30
  -2  -6  11   -8.20   11.50
  -1  -6  11   49.10   13.70
   0  -6  11   70.89   13.80
  -1   6 -11  204.18   16.50
   1  -6  11  180.58   16.80
  -2   6 -11  179.48   15.20
   2  -6  11  162.08   15.10
  -3   6 -11  204.48   17.90
  -4   6 -11  141.99   15.90
  -5  -5  11  108.09   16.10
  -4  -5  11   26.50   11.80
  -3  -5  11  -16.50   10.50
  -2  -5  11  -15.00    8.80
  -1  -5  11   16.10   11.20
   0   5 -11   45.50   10.00
   0  -5  11   18.90    9.80
  -1   5 -11  420.66   20.40
   1  -5  11  371.16   20.60
  -2   5 -11  183.18   16.10
   2  -5  11  157.88   15.10
  -3   5 -11  394.36   21.80
  -4   5 -11   93.19   13.10
  -6  -4  11  126.39   17.80
  -5  -4  11   94.79   15.80
  -4  -4  11  135.49   15.80
  -3  -4  11  143.99   16.90
  -2  -4  11   13.90   10.40
   1   4 -11    7.30    7.50
   1   4 -11   10.20    5.80
  -1  -4  11   -5.00    9.40
   0   4 -11   -1.10    7.50
   0  -4  11   -6.00    8.30
  -1   4 -11   10.50    8.10
   1  -4  11   -5.30    7.80
  -2   4 -11    2.40    8.60
  -3   4 -11   42.40   10.00
  -4   4 -11  152.38   15.40
  -6  -3  11   80.89   14.60
  -5  -3  11  238.98   19.50
  -4  -3  11   37.90   11.90
   3   3 -11    9.80    6.20
  -3  -3  11   13.40    9.10
   2   3 -11   24.80    6.90
  -2  -3  11   39.90   10.60
   1   3 -11    1.80    5.90
   1   3 -11   -3.70    6.40
  -1  -3  11   -4.30    7.50
   0   3 -11    6.60    7.30
   0  -3  11   -1.30    7.20
  -1   3 -11   12.00    7.70
   1  -3  11    2.00    6.80
  -2   3 -11   58.49   10.30
  -3   3 -11  153.68   14.70
  -4   3 -11  121.19   15.00
  -7  -2  11   48.30   11.80
  -6  -2  11   36.80   10.60
   5   2 -11  237.28   15.80
  -5  -2  11  297.87   19.70
   4   2 -11  113.19   11.20
  -4  -2  11  120.09   14.10
   3   2 -11  275.97   14.80
  -3  -2  11  250.97   17.40
   2   2 -11    2.60    6.40
   2   2 -11   10.10    6.60
  -2  -2  11   20.00    8.90
   1   2 -11   -3.70    5.50
  -1  -2  11    9.30    7.40
   0   2 -11   52.99    9.00
   0  -2  11   58.29    8.40
  -1   2 -11    3.30    7.90
   1  -2  11    7.30    5.10
  -2   2 -11   45.30    9.70
  -3   2 -11  102.19   13.30
  -4   2 -11  195.98   17.40
   7   1 -11  -22.50    9.30
  -7  -1  11    9.00    8.20
   6   1 -11  -15.40    8.40
  -6  -1  11   15.20    8.80
   5   1 -11  147.19   13.40
  -5  -1  11  158.28   16.30
   4   1 -11  395.46   18.40
  -4  -1  11  390.56   21.50
   3   1 -11  402.56   18.30
  -3  -1  11  388.76   20.30
   2   1 -11   66.09    9.40
   2   1 -11   68.89    8.80
  -2  -1  11   75.99   10.30
   1   1 -11   50.79    8.70
  -1  -1  11   58.39    8.60
   0   1 -11   30.00    7.80
   0  -1  11   35.50    6.40
  -1   1 -11    3.70    6.90
  -2   1 -11   47.60   10.20
  -3   1 -11   43.70    9.70
  -4   1 -11   59.69   12.00
   7   0 -11  -14.70    9.50
  -7   0  11   19.70    8.80
   6   0 -11   16.10    9.50
  -6   0  11   35.00    9.60
   5   0 -11   45.50    9.20
  -5   0  11   43.30    9.80
   4   0 -11  264.57   16.00
  -4   0  11  269.67   16.80
   3   0 -11  434.26   16.70
   3   0 -11  415.16   19.50
  -3   0  11  409.76   19.20
   2   0 -11  422.46   17.20
   2   0 -11  411.36   19.70
  -2   0  11  419.86   18.70
   1   0 -11  143.49   11.90
   0   0 -11   67.09    9.10
  -1   0 -11    5.10    7.50
  -2   0 -11    6.90    7.30
  -3   0 -11   -1.80    7.10
  -4   0 -11   -0.60    7.90
   8  -1 -11  -25.80   10.20
   7  -1 -11  -17.00    9.30
   6  -1 -11   31.80    9.90
   5  -1 -11   21.40    7.90
   4  -1 -11    8.00    8.00
   3  -1 -11  137.39   10.10
   3  -1 -11  157.18   14.30
   2  -1 -11  343.77   18.50
   2  -1 -11  294.77   14.40
   1  -1 -11  389.36   17.80
   0  -1 -11   38.50    8.50
  -1  -1 -11   28.30    8.60
  -2  -1 -11   17.90    7.80
  -3  -1 -11    5.00    8.80
  -4  -1 -11   -2.40    8.10
   8  -2 -11  -25.80   10.80
   7  -2 -11  -20.60    8.60
   6  -2 -11   48.20   11.00
   5  -2 -11   -4.70    6.80
   4  -2 -11   22.60    8.30
   4  -2 -11   42.30    5.80
   3  -2 -11  130.69   10.20
   3  -2 -11  139.39   14.00
   2  -2 -11  253.97   13.10
   2  -2 -11  225.08   15.60
   1  -2 -11   32.30    7.30
   0  -2 -11   12.60    7.10
  -1  -2 -11   56.09   10.00
  -2  -2 -11   24.20    9.20
  -3  -2 -11   98.49   13.60
   8  -3 -11   15.00   11.50
   7  -3 -11    0.90    9.50
   6  -3 -11   21.70    8.80
   5  -3 -11    1.50    7.40
   4  -3 -11   -3.80    6.70
   3  -3 -11   78.89   12.00
   3  -3 -11   79.49    7.90
   2  -3 -11  296.47   17.90
   2  -3 -11  292.17   14.40
   1  -3 -11  520.85   20.30
   0  -3 -11  172.28   13.50
  -1  -3 -11   85.59   11.20
  -2  -3 -11   53.89   11.20
  -3  -3 -11   33.40    9.90
   8  -4 -11   33.30   13.10
   7  -4 -11   74.79   13.80
   6  -4 -11   25.30   10.10
   5  -4 -11    7.80    8.70
   4  -4 -11    5.20    7.50
   3  -4 -11    6.50    8.40
   3  -4 -11    7.60    5.40
   2  -4 -11  286.87   14.60
   2  -4 -11  303.67   18.40
   1  -4 -11   22.00    7.50
   0  -4 -11  107.49   11.40
  -1  -4 -11  139.89   13.30
  -2  -4 -11   62.49   11.30
   8  -5 -11  105.39   16.70
   7  -5 -11   47.60   11.70
   6  -5 -11   16.10    9.40
   5  -5 -11   -1.70    7.70
   4  -5 -11    8.40    8.00
   3  -5 -11    3.30    8.60
   2  -5 -11   44.40   10.30
   2  -5 -11   71.29    8.90
   1  -5 -11   14.80    7.00
   0  -5 -11   85.39   10.90
  -1  -5 -11   31.70    9.70
   7  -6 -11   83.89   14.00
   6  -6 -11   16.00   10.50
   5  -6 -11   18.00    9.10
   4  -6 -11   29.90   10.50
   3  -6 -11    1.30    8.60
   2  -6 -11    7.40    8.10
   2  -6 -11   -1.90    6.10
   1  -6 -11    2.90    7.60
   1  -6 -11    1.30    6.80
   0  -6 -11   54.19    9.90
   7  -7 -11  234.78   20.80
   6  -7 -11   27.10   11.80
   5  -7 -11   23.90   11.20
   4  -7 -11   -4.30    9.00
   3  -7 -11    2.80    7.80
   2  -7 -11   -0.80    7.50
   1  -7 -11   17.60    7.90
   1  -7 -11   32.70   10.50
   5  -8 -11   22.20   11.30
   4  -8 -11   70.79   12.40
   3  -8 -11   45.80   10.50
  -2  -7  12  -19.40   12.40
  -1  -7  12  -27.20   11.60
   0  -7  12  -21.60   10.90
   1  -7  12   -7.00   11.10
  -2   7 -12   58.89   12.20
  -3  -6  12   33.00   14.10
  -2  -6  12   29.00   14.00
  -1  -6  12  -27.60    9.60
   0  -6  12    5.40   11.20
  -1   6 -12   17.40    8.60
   1  -6  12  -12.80    9.40
  -2   6 -12   10.20    8.20
  -3   6 -12   83.49   13.40
  -4  -5  12   88.99   16.10
  -3  -5  12   31.40   12.70
  -2  -5  12    3.00   11.60
  -1  -5  12  -16.80    9.40
   0   5 -12   36.50    9.80
   0  -5  12   32.80   11.50
  -1   5 -12    3.30    7.80
   1  -5  12  -19.80    8.40
  -2   5 -12  107.69   13.10
  -3   5 -12  226.98   17.40
  -5  -4  12   90.59   16.10
  -4  -4  12  154.68   18.10
  -3  -4  12  442.36   25.80
  -2  -4  12   47.30   11.80
   1   4 -12   38.90    8.50
   1   4 -12   44.40    9.60
  -1  -4  12   12.80   10.00
   0   4 -12   70.59   11.10
   0  -4  12   56.89   11.40
  -1   4 -12    3.80    7.50
   1  -4  12  -12.80    7.50
  -2   4 -12   88.09   12.30
  -3   4 -12   12.50    9.80
  -4   4 -12   68.09   13.10
  -6  -3  12   27.00   10.20
  -5  -3  12   30.90   11.70
  -4  -3  12  145.19   15.80
   3   3 -12   52.39    8.60
  -3  -3  12   51.49   12.40
   2   3 -12   80.79    9.90
  -2  -3  12   64.09   11.00
   1   3 -12   34.30    8.30
   1   3 -12   40.70    9.30
  -1  -3  12   17.10    8.50
   0   3 -12   41.40    8.90
   0  -3  12   48.80    9.20
  -1   3 -12   -1.00    7.30
  -2   3 -12   16.60    9.40
  -3   3 -12   14.60    8.70
  -4   3 -12   51.99   12.40
  -6  -2  12   15.20    9.90
   5   2 -12   15.00   12.90
  -5  -2  12   46.80   11.90
   4   2 -12  112.89   11.50
  -4  -2  12  147.99   16.10
   3   2 -12  198.18   14.00
  -3  -2  12  192.98   17.00
   2   2 -12  161.08   13.20
   2   2 -12  175.98   13.20
  -2  -2  12  181.48   15.40
   1   2 -12   32.00    8.40
  -1  -2  12   39.70    8.70
   0   2 -12   26.40    9.30
   0  -2  12   48.30    8.00
  -1   2 -12   20.50    8.20
  -2   2 -12   16.50    9.60
  -3   2 -12   39.90   11.20
  -4   2 -12   68.89   13.20
  -7  -1  12   18.50    8.80
   6   1 -12  -13.10    8.30
  -6  -1  12   26.80   10.60
   5   1 -12   18.90    8.50
  -5  -1  12   25.70    9.70
   4   1 -12  159.68   13.30
  -4  -1  12  128.19   14.40
   3   1 -12  182.08   12.80
   3   1 -12  166.58   13.60
  -3  -1  12  178.28   14.40
   2   1 -12   12.10    6.90
   2   1 -12   17.30    7.60
  -2  -1  12   27.80    8.40
   1   1 -12 1059.39   33.40
  -1  -1  12 1028.30   32.50
   0   1 -12   10.90    8.20
   0  -1  12   34.00    6.40
  -1   1 -12   31.10    8.80
  -2   1 -12   20.00    8.70
  -3   1 -12   -8.10    8.10
   7   0 -12  -25.50    9.20
   6   0 -12   -3.10    8.20
  -6   0  12   12.70    8.40
   5   0 -12    5.00    7.70
  -5   0  12   18.60    9.40
   4   0 -12   24.00    8.60
  -4   0  12   32.50    8.80
   3   0 -12  306.77   14.70
   3   0 -12  307.17   17.90
  -3   0  12  316.37   17.90
   2   0 -12   25.70    7.40
   2   0 -12   36.00    8.80
  -2   0  12   32.80    8.00
   1   0 -12 1225.18   37.00
   0   0 -12  111.59   11.40
  -1   0 -12   31.90    8.50
  -2   0 -12   -1.50    7.90
  -3   0 -12   -1.60    8.20
   7  -1 -12  -15.90    9.60
   6  -1 -12   64.69   11.10
   5  -1 -12   19.00    9.00
   4  -1 -12    6.50    7.90
   3  -1 -12   14.40    7.90
   3  -1 -12   17.00    6.20
   2  -1 -12   23.80    9.00
   2  -1 -12    0.00    6.50
   1  -1 -12  210.08   14.10
   0  -1 -12  170.38   12.90
  -1  -1 -12  100.79   12.20
  -2  -1 -12   36.20    9.20
  -3  -1 -12  -10.40    8.30
   7  -2 -12    6.30   10.80
   6  -2 -12   53.89   11.60
   5  -2 -12    0.80    8.60
   4  -2 -12   10.00    7.70
   3  -2 -12   -6.00    6.80
   3  -2 -12    8.50    5.90
   2  -2 -12   42.30   10.60
   2  -2 -12   33.20    7.70
   1  -2 -12   24.40    7.70
   0  -2 -12   45.20    9.30
  -1  -2 -12   61.39   10.50
  -2  -2 -12   88.89   12.70
   7  -3 -12   -2.30    8.60
   6  -3 -12   11.20    9.50
   5  -3 -12   62.69   11.90
   4  -3 -12   -9.30    6.80
   3  -3 -12    7.30    8.80
   3  -3 -12    6.90    5.60
   2  -3 -12   69.69   12.40
   2  -3 -12   47.10    8.40
   1  -3 -12   63.79    9.40
   0  -3 -12  154.68   13.70
  -1  -3 -12  120.69   13.60
  -2  -3 -12   -2.40    7.50
   7  -4 -12   29.40   11.20
   6  -4 -12   71.39   13.00
   5  -4 -12   13.10    9.60
   4  -4 -12   -6.70    8.10
   3  -4 -12   16.80    9.70
   2  -4 -12   35.60   10.60
   2  -4 -12   39.10    7.90
   1  -4 -12  148.39   13.20
   0  -4 -12   53.29    9.70
  -1  -4 -12  110.79   13.30
   7  -5 -12  468.65   26.40
   6  -5 -12   77.59   13.70
   5  -5 -12   25.30    9.80
   4  -5 -12   38.30   10.80
   3  -5 -12    1.60    7.90
   2  -5 -12   53.69   12.00
   2  -5 -12   40.20    8.30
   1  -5 -12   20.30    9.90
   1  -5 -12   10.10    7.20
   0  -5 -12   38.60    9.50
   7  -6 -12   65.09   14.30
   6  -6 -12   93.59   14.60
   5  -6 -12   61.89   12.20
   4  -6 -12   32.90   10.20
   3  -6 -12   10.70    9.00
   2  -6 -12    2.10    8.00
   1  -6 -12   13.50    7.70
   1  -6 -12   19.60    9.90
   6  -7 -12   36.10   12.20
   5  -7 -12   56.89   12.90
   4  -7 -12   16.80    9.40
   3  -7 -12   14.70    9.30
   2  -7 -12   -4.80    8.30
  -2  -6  13    1.50   12.30
  -1  -6  13  -30.30   10.90
   0  -6  13  -33.80   10.10
  -1   6 -13    6.00    8.00
  -3  -5  13  140.79   17.00
  -2  -5  13  152.98   18.20
  -1  -5  13   -6.20    9.80
   0   5 -13   17.00    8.40
   0  -5  13   -8.40   10.00
  -1   5 -13   19.00    9.80
  -2   5 -13   37.20   11.10
  -4  -4  13  111.39   16.60
  -3  -4  13  321.47   23.20
  -2  -4  13  166.58   17.70
   1   4 -13   38.80    9.80
  -1  -4  13   37.80   11.00
   0   4 -13   12.00    9.10
   0  -4  13    0.00    8.00
  -1   4 -13    0.10    8.20
  -2   4 -13    9.20    8.50
  -3   4 -13    8.60    9.90
  -5  -3  13   15.60   10.20
  -4  -3  13   55.39   12.70
  -3  -3  13  127.59   15.80
   2   3 -13  138.79   13.70
   2   3 -13  155.08   13.20
  -2  -3  13  161.38   16.20
   1   3 -13  187.18   15.30
   1   3 -13  194.98   14.80
  -1  -3  13  192.88   15.80
   0   3 -13   84.39   12.30
   0  -3  13   88.89   11.00
  -1   3 -13    8.00    8.10
  -2   3 -13   26.10   10.30
  -3   3 -13    0.30    9.30
  -6  -2  13   16.50    9.00
  -5  -2  13   15.60   10.00
   4   2 -13   -4.60    6.90
  -4  -2  13   13.60    9.10
   3   2 -13    9.10    7.60
  -3  -2  13   17.80    9.00
   2   2 -13  192.38   14.30
   2   2 -13  185.88   14.20
  -2  -2  13  176.58   15.30
   1   2 -13  183.98   15.30
   1   2 -13  173.08   14.50
  -1  -2  13  188.38   13.80
   0   2 -13    2.90    8.10
  -1   2 -13   66.69   11.80
  -2   2 -13   -3.20    8.90
  -3   2 -13   49.30   12.10
   6   1 -13  -15.50   14.00
  -6  -1  13    6.90    8.00
   5   1 -13   -5.10    7.70
  -5  -1  13    6.10    7.90
   4   1 -13  105.89   12.50
  -4  -1  13   96.19   12.50
   3   1 -13   74.09   11.10
   3   1 -13   88.59   10.00
  -3  -1  13   96.39   12.40
   2   1 -13  128.19   12.20
   2   1 -13  153.48   14.70
  -2  -1  13  179.68   14.00
   1   1 -13   72.19   10.70
  -1  -1  13   68.49    9.00
   0   1 -13   88.89   11.30
  -1   1 -13   34.10    9.20
  -2   1 -13   34.50   10.40
  -3   1 -13   16.80   10.00
   6   0 -13  -13.90    7.90
   5   0 -13    7.10    8.30
  -5   0  13   14.10    9.20
   4   0 -13   -4.10    7.20
  -4   0  13    4.70    7.00
   3   0 -13    2.80    6.30
   3   0 -13   -1.70    6.70
  -3   0  13    8.80    7.10
   2   0 -13  719.63   28.60
   2   0 -13  679.73   25.00
   1   0 -13  146.99   13.60
   0   0 -13  113.59   12.40
  -1   0 -13  106.29   13.50
  -2   0 -13   47.60   11.40
   7  -1 -13   41.70   12.90
   6  -1 -13   19.20    9.60
   5  -1 -13    8.00    8.40
   4  -1 -13   11.30    9.30
   3  -1 -13   -0.60    7.00
   3  -1 -13    4.00    6.00
   2  -1 -13   57.79    9.30
   2  -1 -13   42.20   10.80
   1  -1 -13  214.08   15.00
   0  -1 -13   52.99   10.70
  -1  -1 -13  142.09   14.60
  -2  -1 -13    6.00    7.90
   7  -2 -13   54.99   13.20
   6  -2 -13   12.20    9.40
   5  -2 -13    2.10    8.90
   4  -2 -13   71.89   12.60
   3  -2 -13   10.50    6.40
   3  -2 -13    1.10    7.60
   2  -2 -13    5.40    6.90
   2  -2 -13    7.30    8.20
   1  -2 -13   -1.00    7.30
   0  -2 -13   22.60    8.80
  -1  -2 -13  486.85   23.00
   7  -3 -13   40.10   11.90
   6  -3 -13  114.19   14.10
   5  -3 -13   30.90   10.90
   4  -3 -13   10.60    9.30
   3  -3 -13   11.90    9.50
   2  -3 -13   22.50    9.50
   2  -3 -13   16.90    7.50
   1  -3 -13    9.50    7.80
   0  -3 -13    7.50    7.90
  -1  -3 -13  146.29   14.50
   7  -4 -13   44.10   12.70
   6  -4 -13   36.10   11.90
   5  -4 -13   76.49   13.70
   4  -4 -13   -1.50    7.90
   3  -4 -13   90.19   14.10
   2  -4 -13   24.90    9.90
   2  -4 -13   31.40    8.20
   1  -4 -13   23.90    8.50
   1  -4 -13   27.40    9.60
   0  -4 -13   13.30    8.50
   6  -5 -13  131.69   16.60
   5  -5 -13   66.99   13.30
   4  -5 -13    9.50    8.70
   3  -5 -13   13.60    9.90
   2  -5 -13    7.70    8.30
   1  -5 -13   20.80   10.10
   1  -5 -13    8.60    8.00
   5  -6 -13   88.69   15.10
   4  -6 -13  138.99   17.20
   3  -6 -13   15.20   10.40
   2  -6 -13    6.10    9.30
  -2  -5  14   15.30   10.90
  -1  -5  14  393.96   24.50
   0   5 -14   46.10   11.00
  -3  -4  14  130.89   17.20
  -2  -4  14   13.70   10.00
   1   4 -14   99.99   12.80
  -1  -4  14   97.89   13.60
   0   4 -14  155.38   15.00
  -1   4 -14   34.60   10.70
  -4  -3  14   46.90   11.70
  -3  -3  14   94.89   14.10
   2   3 -14   45.50   10.20
  -2  -3  14   49.40   10.70
   1   3 -14  235.98   16.50
   1   3 -14  196.48   16.00
  -1  -3  14  211.68   15.90
   0   3 -14  170.68   16.10
  -1   3 -14   23.40   10.20
  -2   3 -14   28.00   10.50
  -5  -2  14   36.50   11.10
  -4  -2  14   96.09   13.90
   3   2 -14   16.50    8.10
  -3  -2  14   39.90   10.40
   2   2 -14   36.70    9.50
   2   2 -14   19.60    8.20
  -2  -2  14   46.90    9.60
   1   2 -14  189.98   16.10
   1   2 -14  191.48   15.90
  -1  -2  14  220.28   18.90
   0   2 -14   89.69   11.90
  -1   2 -14  338.57   19.70
  -2   2 -14   45.10   11.40
   5   1 -14   -1.50    8.20
  -5  -1  14   21.60    9.60
   4   1 -14   64.99   11.40
  -4  -1  14   78.09   12.70
   3   1 -14  234.88   15.20
   3   1 -14  187.88   15.90
  -3  -1  14  220.68   16.60
   2   1 -14   89.59   11.20
   2   1 -14   95.19   12.50
  -2  -1  14   98.29   11.30
   1   1 -14   19.20    9.10
   1   1 -14    2.80    7.70
   0   1 -14   61.49   11.40
  -1   1 -14  197.98   16.00
   6   0 -14   11.60   10.00
   5   0 -14  -12.30    7.50
   4   0 -14  227.78   17.50
   3   0 -14  185.88   13.20
   3   0 -14  167.88   15.70
   2   0 -14    6.80    7.40
   2   0 -14   15.70    9.10
   1   0 -14   39.50    9.60
   0   0 -14  129.39   14.00
  -1   0 -14  155.58   14.90
   6  -1 -14   56.89   12.00
   5  -1 -14   50.59   11.40
   4  -1 -14   67.19   11.40
   3  -1 -14   -4.60    8.20
   2  -1 -14    8.20    8.90
   2  -1 -14   -1.30    7.20
   1  -1 -14    6.80    8.00
   0  -1 -14    5.00    8.50
  -1  -1 -14   19.00    9.90
   6  -2 -14   70.59   12.80
   5  -2 -14   20.50   10.40
   4  -2 -14    6.60    9.10
   3  -2 -14    8.40    9.20
   2  -2 -14   -0.90    7.00
   2  -2 -14    9.10    8.30
   1  -2 -14    1.00    7.80
   0  -2 -14   14.70    9.10
   6  -3 -14   87.49   13.60
   5  -3 -14  126.79   15.10
   4  -3 -14   20.70   10.20
   3  -3 -14   11.60    9.00
   2  -3 -14   21.20    9.50
   1  -3 -14   62.29   12.00
   1  -3 -14   56.49   10.80
   0  -3 -14   -4.80    7.80
   5  -4 -14  165.38   17.20
   4  -4 -14  108.99   14.40
   3  -4 -14   13.10    9.30
   2  -4 -14   45.30   11.90
   1  -4 -14   46.80   11.80
   1  -4 -14   20.30    8.60
   5  -5 -14   55.59   13.00
   4  -5 -14  106.69   14.90
   3  -5 -14   79.09   14.10
  -3  -3  15   35.90   10.10
   2   3 -15   13.30    8.70
  -2  -3  15   19.60    8.50
   1   3 -15   64.59   12.00
   0   3 -15   79.39   13.10
  -4  -2  15   72.39   12.30
  -3  -2  15   61.89   11.20
   2   2 -15   42.00   10.30
   2   2 -15   28.30    9.30
  -2  -2  15   55.89    9.70
   1   2 -15   18.30    8.90
   1   2 -15   35.40    9.80
   0   2 -15  123.79   14.80
   4   1 -15   18.30    9.30
  -4  -1  15   34.20    9.40
   3   1 -15   42.90    9.10
   3   1 -15   41.90   10.50
  -3  -1  15   61.69   10.60
   2   1 -15   14.20    8.20
   2   1 -15   13.30    8.80
   1   1 -15   10.70    8.20
   1   1 -15   11.20    7.80
   0   1 -15    6.10    9.20
   4   0 -15   41.40   11.10
   3   0 -15   83.29   13.30
   2   0 -15   20.00    9.60
   2   0 -15   12.10    7.90
   1   0 -15   -3.60    8.20
   1   0 -15   10.90    8.40
   0   0 -15   11.00    9.10
   5  -1 -15   99.89   14.70
   4  -1 -15   21.00   10.10
   3  -1 -15   21.00    9.90
   2  -1 -15   37.10   10.90
   2  -1 -15   10.50    8.30
   1  -1 -15   23.80    9.60
   1  -1 -15   23.80    9.20
   5  -2 -15   50.39   12.00
   4  -2 -15   19.00   10.20
   3  -2 -15   46.50   11.70
   2  -2 -15    8.80    8.50
   1  -2 -15   69.59   12.40
   1  -2 -15   76.79   11.60
   4  -3 -15  104.59   15.40
   3  -3 -15   86.59   14.60
   2  -3 -15   22.50    9.90

_computing_structure_solution     'SHELXT 2014/4 (Sheldrick, 2014)'
;
_shelx_hkl_checksum              75187
_shelx_shelxl_version_number     2014/7
_olex2_submission_special_instructions 'No special instructions were received'
loop_
_space_group_symop_operation_xyz
'x, y, z'
'-x, -y, -z'
loop_
_atom_site_label
_atom_site_type_symbol
_atom_site_fract_x
_atom_site_fract_y
_atom_site_fract_z
_atom_site_U_iso_or_equiv
_atom_site_adp_type
_atom_site_occupancy
_atom_site_site_symmetry_order
_atom_site_calc_flag
_atom_site_refinement_flags_posn
_atom_site_refinement_flags_adp
_atom_site_refinement_flags_occupancy
Co1 Co 1.0000 0.5000 1.0000 0.01504(16) Uani 1 2 d S T P
Cl1 Cl 1.10806(11) 0.42595(9) 0.84578(6) 0.01987(19) Uani 1 1 d . . .
O1 O 0.6892(3) 0.3899(2) 0.88722(17) 0.0179(5) Uani 1 1 d . . .
O2 O 0.4652(3) 0.7528(3) 0.70762(18) 0.0219(5) Uani 1 1 d . . .
N1 N 1.0302(4) 0.7253(3) 0.9310(2) 0.0167(5) Uani 1 1 d . . .
N2 N 0.5736(4) 0.5691(3) 0.7971(2) 0.0150(5) Uani 1 1 d . . .
C1 C 1.2162(5) 0.8141(4) 0.9253(2) 0.0184(6) Uani 1 1 d . . .
H1 H 1.3187 0.7717 0.9466 0.022 Uiso 1 1 calc R . .
C2 C 1.2667(5) 0.9643(4) 0.8900(3) 0.0209(7) Uani 1 1 d . . .
H2 H 1.4009 1.0234 0.8880 0.025 Uiso 1 1 calc R . .
C3 C 1.1186(5) 1.0270(4) 0.8578(2) 0.0204(7) Uani 1 1 d . . .
H3 H 1.1486 1.1297 0.8334 0.025 Uiso 1 1 calc R . .
C4 C 0.9259(5) 0.9361(4) 0.8621(2) 0.0193(7) Uani 1 1 d . . .
H4 H 0.8209 0.9757 0.8398 0.023 Uiso 1 1 calc R . .
C5 C 0.8859(4) 0.7864(4) 0.8993(2) 0.0157(6) Uani 1 1 d . . .
C6 C 0.6756(4) 0.6833(4) 0.9010(2) 0.0170(6) Uani 1 1 d . . .
H6A H 0.6819 0.6255 0.9698 0.020 Uiso 1 1 calc R . .
H6B H 0.5974 0.7503 0.9055 0.020 Uiso 1 1 calc R . .
C7 C 0.5875(4) 0.4224(4) 0.7998(2) 0.0160(6) Uani 1 1 d . . .
C8 C 0.4771(4) 0.3084(4) 0.6977(2) 0.0158(6) Uani 1 1 d . . .
C9 C 0.4947(5) 0.1629(4) 0.6936(3) 0.0197(7) Uani 1 1 d . . .
H9 H 0.5816 0.1382 0.7565 0.024 Uiso 1 1 calc R . .
C10 C 0.3848(5) 0.0506(4) 0.5968(3) 0.0238(7) Uani 1 1 d . . .
H10 H 0.3961 -0.0499 0.5952 0.029 Uiso 1 1 calc R . .
C11 C 0.2615(5) 0.0861(4) 0.5048(3) 0.0227(7) Uani 1 1 d . . .
H11 H 0.1854 0.0087 0.4407 0.027 Uiso 1 1 calc R . .
C12 C 0.2459(5) 0.2364(4) 0.5040(3) 0.0186(7) Uani 1 1 d . . .
C13 C 0.1293(5) 0.2813(4) 0.4077(3) 0.0211(7) Uani 1 1 d . . .
H13 H 0.0508 0.2060 0.3426 0.025 Uiso 1 1 calc R . .
C14 C 0.1285(5) 0.4310(4) 0.4072(3) 0.0211(7) Uani 1 1 d . . .
H14 H 0.0523 0.4597 0.3414 0.025 Uiso 1 1 calc R . .
C15 C 0.2399(4) 0.5423(4) 0.5036(2) 0.0186(7) Uani 1 1 d . . .
H15 H 0.2405 0.6466 0.5025 0.022 Uiso 1 1 calc R . .
C16 C 0.3487(4) 0.5010(4) 0.6004(2) 0.0163(6) Uani 1 1 d . . .
C17 C 0.4622(4) 0.6187(4) 0.7018(2) 0.0172(6) Uani 1 1 d . . .
C18 C 0.3556(4) 0.3487(4) 0.6013(2) 0.0162(6) Uani 1 1 d . . .
loop_
_atom_site_aniso_label
_atom_site_aniso_U_11
_atom_site_aniso_U_22
_atom_site_aniso_U_33
_atom_site_aniso_U_23
_atom_site_aniso_U_13
_atom_site_aniso_U_12
Co1 0.0146(3) 0.0187(3) 0.0134(3) 0.0056(2) 0.0033(2) 0.0083(3)
Cl1 0.0247(4) 0.0260(5) 0.0143(4) 0.0071(3) 0.0067(3) 0.0148(4)
O1 0.0162(11) 0.0212(12) 0.0163(10) 0.0070(9) 0.0015(9) 0.0090(9)
O2 0.0267(12) 0.0195(12) 0.0206(11) 0.0044(9) 0.0009(10) 0.0134(10)
N1 0.0191(13) 0.0208(14) 0.0141(12) 0.0054(10) 0.0052(11) 0.0113(12)
N2 0.0145(12) 0.0191(14) 0.0135(12) 0.0034(10) 0.0038(10) 0.0089(11)
C1 0.0166(15) 0.0200(17) 0.0180(15) 0.0056(12) 0.0049(13) 0.0060(13)
C2 0.0186(16) 0.0224(17) 0.0187(16) 0.0048(13) 0.0058(13) 0.0038(14)
C3 0.0298(18) 0.0144(16) 0.0146(15) 0.0024(12) 0.0047(13) 0.0063(14)
C4 0.0282(18) 0.0199(17) 0.0128(14) 0.0029(12) 0.0037(13) 0.0139(14)
C5 0.0197(16) 0.0202(16) 0.0075(13) 0.0010(11) 0.0018(12) 0.0091(13)
C6 0.0172(15) 0.0219(17) 0.0134(14) 0.0024(12) 0.0035(12) 0.0098(13)
C7 0.0156(15) 0.0209(17) 0.0150(14) 0.0072(12) 0.0072(12) 0.0085(13)
C8 0.0148(15) 0.0188(16) 0.0145(14) 0.0050(12) 0.0058(12) 0.0056(13)
C9 0.0220(16) 0.0229(17) 0.0176(15) 0.0081(13) 0.0068(13) 0.0112(14)
C10 0.0316(19) 0.0178(17) 0.0251(17) 0.0058(13) 0.0118(15) 0.0099(15)
C11 0.0263(18) 0.0199(17) 0.0206(16) -0.0001(13) 0.0067(14) 0.0069(14)
C12 0.0189(15) 0.0221(17) 0.0164(15) 0.0040(12) 0.0075(13) 0.0076(14)
C13 0.0176(16) 0.0293(19) 0.0147(15) 0.0013(13) 0.0039(13) 0.0072(14)
C14 0.0182(16) 0.0319(19) 0.0161(15) 0.0075(13) 0.0045(13) 0.0128(15)
C15 0.0191(16) 0.0228(17) 0.0174(15) 0.0074(13) 0.0064(13) 0.0107(14)
C16 0.0143(15) 0.0217(17) 0.0146(14) 0.0057(12) 0.0052(12) 0.0079(13)
C17 0.0149(15) 0.0237(18) 0.0156(15) 0.0071(13) 0.0051(12) 0.0096(13)
C18 0.0148(15) 0.0211(17) 0.0145(14) 0.0048(12) 0.0064(12) 0.0069(13)
loop_
_atom_type_symbol
_atom_type_description
_atom_type_scat_dispersion_real
_atom_type_scat_dispersion_imag
_atom_type_scat_source
C C 0.0033 0.0016 'International Tables Vol C Tables 4.2.6.8 and 6.1.1.4'
H H 0.0000 0.0000 'International Tables Vol C Tables 4.2.6.8 and 6.1.1.4'
Cl Cl 0.1484 0.1585 'International Tables Vol C Tables 4.2.6.8 and 6.1.1.4'
Co Co 0.3494 0.9721 'International Tables Vol C Tables 4.2.6.8 and 6.1.1.4'
N N 0.0061 0.0033 'International Tables Vol C Tables 4.2.6.8 and 6.1.1.4'
O O 0.0106 0.0060 'International Tables Vol C Tables 4.2.6.8 and 6.1.1.4'
loop_
_geom_angle_atom_site_label_1
_geom_angle_atom_site_label_2
_geom_angle_atom_site_label_3
_geom_angle
_geom_angle_site_symmetry_1
_geom_angle_site_symmetry_3
Cl1 Co1 Cl1 180.00(3) . 2_767
O1 Co1 Cl1 86.81(6) 2_767 2_767
O1 Co1 Cl1 93.19(6) . 2_767
O1 Co1 Cl1 93.19(6) 2_767 .
O1 Co1 Cl1 86.81(6) . .
O1 Co1 O1 180.00(11) 2_767 .
N1 Co1 Cl1 88.64(7) . .
N1 Co1 Cl1 91.36(7) 2_767 .
N1 Co1 Cl1 88.64(7) 2_767 2_767
N1 Co1 Cl1 91.36(7) . 2_767
N1 Co1 O1 89.42(8) 2_767 .
N1 Co1 O1 89.42(8) . 2_767
N1 Co1 O1 90.58(8) . .
N1 Co1 O1 90.58(8) 2_767 2_767
N1 Co1 N1 180.0 . 2_767
C7 O1 Co1 135.9(2) . .
C1 N1 Co1 115.27(19) . .
C1 N1 C5 117.6(3) . .
C5 N1 Co1 127.1(2) . .
C7 N2 C6 118.7(2) . .
C7 N2 C17 124.8(3) . .
C17 N2 C6 116.5(2) . .
N1 C1 H1 118.3 . .
N1 C1 C2 123.4(3) . .
C2 C1 H1 118.3 . .
C1 C2 H2 120.5 . .
C3 C2 C1 118.9(3) . .
C3 C2 H2 120.5 . .
C2 C3 H3 120.9 . .
C4 C3 C2 118.2(3) . .
C4 C3 H3 120.9 . .
C3 C4 H4 120.0 . .
C3 C4 C5 119.9(3) . .
C5 C4 H4 120.0 . .
N1 C5 C4 122.0(3) . .
N1 C5 C6 117.2(3) . .
C4 C5 C6 120.8(3) . .
N2 C6 C5 110.6(2) . .
N2 C6 H6A 109.5 . .
N2 C6 H6B 109.5 . .
C5 C6 H6A 109.5 . .
C5 C6 H6B 109.5 . .
H6A C6 H6B 108.1 . .
O1 C7 N2 120.2(3) . .
O1 C7 C8 122.1(3) . .
N2 C7 C8 117.7(2) . .
C9 C8 C7 120.1(3) . .
C9 C8 C18 119.8(3) . .
C18 C8 C7 120.1(3) . .
C8 C9 H9 119.7 . .
C8 C9 C10 120.5(3) . .
C10 C9 H9 119.7 . .
C9 C10 H10 119.9 . .
C11 C10 C9 120.1(3) . .
C11 C10 H10 119.9 . .
C10 C11 H11 119.5 . .
C10 C11 C12 121.0(3) . .
C12 C11 H11 119.5 . .
C11 C12 C13 122.7(3) . .
C18 C12 C11 118.8(3) . .
C18 C12 C13 118.4(3) . .
C12 C13 H13 119.5 . .
C14 C13 C12 121.1(3) . .
C14 C13 H13 119.5 . .
C13 C14 H14 120.0 . .
C13 C14 C15 120.1(3) . .
C15 C14 H14 120.0 . .
C14 C15 H15 119.8 . .
C16 C15 C14 120.4(3) . .
C16 C15 H15 119.8 . .
C15 C16 C17 119.7(3) . .
C15 C16 C18 120.2(3) . .
C18 C16 C17 120.1(3) . .
O2 C17 N2 119.3(3) . .
O2 C17 C16 124.1(3) . .
N2 C17 C16 116.6(3) . .
C12 C18 C8 119.6(3) . .
C16 C18 C8 120.6(3) . .
C16 C18 C12 119.8(3) . .
loop_
_geom_bond_atom_site_label_1
_geom_bond_atom_site_label_2
_geom_bond_distance
_geom_bond_site_symmetry_2
Co1 Cl1 2.3940(7) .
Co1 Cl1 2.3940(7) 2_767
Co1 O1 2.208(2) 2_767
Co1 O1 2.208(2) .
Co1 N1 2.181(2) .
Co1 N1 2.181(2) 2_767
O1 C7 1.239(3) .
O2 C17 1.215(4) .
N1 C1 1.341(4) .
N1 C5 1.348(4) .
N2 C6 1.474(4) .
N2 C7 1.378(4) .
N2 C17 1.418(3) .
C1 H1 0.9500 .
C1 C2 1.386(4) .
C2 H2 0.9500 .
C2 C3 1.383(4) .
C3 H3 0.9500 .
C3 C4 1.381(4) .
C4 H4 0.9500 .
C4 C5 1.393(4) .
C5 C6 1.505(4) .
C6 H6A 0.9900 .
C6 H6B 0.9900 .
C7 C8 1.462(4) .
C8 C9 1.380(4) .
C8 C18 1.421(4) .
C9 H9 0.9500 .
C9 C10 1.408(4) .
C10 H10 0.9500 .
C10 C11 1.371(4) .
C11 H11 0.9500 .
C11 C12 1.415(4) .
C12 C13 1.422(4) .
C12 C18 1.413(4) .
C13 H13 0.9500 .
C13 C14 1.367(4) .
C14 H14 0.9500 .
C14 C15 1.402(4) .
C15 H15 0.9500 .
C15 C16 1.381(4) .
C16 C17 1.475(4) .
C16 C18 1.407(4) .
loop_
_geom_torsion_atom_site_label_1
_geom_torsion_atom_site_label_2
_geom_torsion_atom_site_label_3
_geom_torsion_atom_site_label_4
_geom_torsion
Co1 O1 C7 N2 -51.8(4)
Co1 O1 C7 C8 129.0(3)
Co1 N1 C1 C2 -176.2(2)
Co1 N1 C5 C4 176.4(2)
Co1 N1 C5 C6 -6.0(4)
O1 C7 C8 C9 -4.4(5)
O1 C7 C8 C18 177.3(3)
N1 C1 C2 C3 -0.6(5)
N1 C5 C6 N2 -80.5(3)
N2 C7 C8 C9 176.5(3)
N2 C7 C8 C18 -1.9(4)
C1 N1 C5 C4 -0.2(4)
C1 N1 C5 C6 177.4(2)
C1 C2 C3 C4 -0.1(4)
C2 C3 C4 C5 0.6(4)
C3 C4 C5 N1 -0.5(4)
C3 C4 C5 C6 -178.0(3)
C4 C5 C6 N2 97.2(3)
C5 N1 C1 C2 0.8(4)
C6 N2 C7 O1 -2.1(4)
C6 N2 C7 C8 177.1(2)
C6 N2 C17 O2 4.1(4)
C6 N2 C17 C16 -176.0(2)
C7 N2 C6 C5 91.5(3)
C7 N2 C17 O2 -177.8(3)
C7 N2 C17 C16 2.1(4)
C7 C8 C9 C10 178.3(3)
C7 C8 C18 C12 -178.6(3)
C7 C8 C18 C16 3.5(4)
C8 C9 C10 C11 1.0(5)
C9 C8 C18 C12 3.1(4)
C9 C8 C18 C16 -174.9(3)
C9 C10 C11 C12 1.5(5)
C10 C11 C12 C13 176.1(3)
C10 C11 C12 C18 -1.8(5)
C11 C12 C13 C14 -175.6(3)
C11 C12 C18 C8 -0.6(4)
C11 C12 C18 C16 177.4(3)
C12 C13 C14 C15 -1.5(5)
C13 C12 C18 C8 -178.5(3)
C13 C12 C18 C16 -0.5(4)
C13 C14 C15 C16 -1.0(5)
C14 C15 C16 C17 -179.0(3)
C14 C15 C16 C18 2.7(4)
C15 C16 C17 O2 1.2(5)
C15 C16 C17 N2 -178.8(3)
C15 C16 C18 C8 176.1(3)
C15 C16 C18 C12 -1.9(4)
C17 N2 C6 C5 -90.3(3)
C17 N2 C7 O1 179.8(3)
C17 N2 C7 C8 -1.0(4)
C17 C16 C18 C8 -2.3(4)
C17 C16 C18 C12 179.8(3)
C18 C8 C9 C10 -3.3(5)
C18 C12 C13 C14 2.3(4)
C18 C16 C17 O2 179.5(3)
C18 C16 C17 N2 -0.4(4)
