#------------------------------------------------------------------------------
#$Date: 2019-11-23 14:19:00 +0200 (Sat, 23 Nov 2019) $
#$Revision: 233588 $
#$URL: file:///home/coder/svn-repositories/cod/cif/4/34/91/4349115.cif $
#------------------------------------------------------------------------------
#
# This file is available in the Crystallography Open Database (COD),
# http://www.crystallography.net/
#
# All data on this site have been placed in the public domain by the
# contributors.
#
data_4349115
loop_
_publ_author_name
'Valverde-Mu\~noz, Francisco Javier'
'Seredyuk, Maksym'
'Mu\~noz, M Carmen'
'Znovjyak, Kateryna'
'Fritsky, Igor O.'
'Real, Jos\'e Antonio'
_publ_section_title
;
 Strong Cooperative Spin Crossover in 2D and 3D
 Fe<sup>II</sup>-M<sup>I,II</sup> Hofmann-Like Coordination Polymers Based
 on 2-Fluoropyrazine.
;
_journal_issue                   20
_journal_name_full               'Inorganic chemistry'
_journal_page_first              10654
_journal_page_last               10665
_journal_paper_doi               10.1021/acs.inorgchem.6b01901
_journal_volume                  55
_journal_year                    2016
_chemical_formula_sum            'C8 H3 F Fe N6 O0.5 Pt'
_chemical_formula_weight         461.10
_space_group_crystal_system      monoclinic
_space_group_IT_number           10
_space_group_name_Hall           '-P 2y'
_space_group_name_H-M_alt        'P 1 2/m 1'
_atom_sites_solution_hydrogens   geom
_audit_creation_method           SHELXL-2014
_cell_angle_alpha                90
_cell_angle_beta                 101.494(5)
_cell_angle_gamma                90
_cell_formula_units_Z            1
_cell_length_a                   7.2782(3)
_cell_length_b                   7.5613(2)
_cell_length_c                   7.4820(4)
_cell_measurement_reflns_used    1421
_cell_measurement_temperature    120(1)
_cell_measurement_theta_max      32.14
_cell_measurement_theta_min      3.57
_cell_volume                     403.50(3)
_computing_cell_refinement       'CrysAlisPro 2015'
_computing_data_collection       'CrysAlisPro 2015'
_computing_data_reduction        'CrysAlisPro 2015'
_computing_structure_refinement  'SHELXL-2014 (Sheldrick, 2014)'
_computing_structure_solution    'SHELXS-2014 (Sheldrick, 2014)'
_diffrn_ambient_temperature      120(1)
_diffrn_measured_fraction_theta_full 0.979
_diffrn_measured_fraction_theta_max 0.933
_diffrn_measurement_device_type  'SuperNova Sapphire3'
_diffrn_radiation_type           MoK\a
_diffrn_radiation_wavelength     0.71069
_diffrn_reflns_av_R_equivalents  0.0509
_diffrn_reflns_av_unetI/netI     0.0533
_diffrn_reflns_Laue_measured_fraction_full 0.979
_diffrn_reflns_Laue_measured_fraction_max 0.933
_diffrn_reflns_limit_h_max       9
_diffrn_reflns_limit_h_min       -10
_diffrn_reflns_limit_k_max       11
_diffrn_reflns_limit_k_min       -10
_diffrn_reflns_limit_l_max       11
_diffrn_reflns_limit_l_min       -9
_diffrn_reflns_number            4484
_diffrn_reflns_point_group_measured_fraction_full 0.979
_diffrn_reflns_point_group_measured_fraction_max 0.933
_diffrn_reflns_theta_full        25.000
_diffrn_reflns_theta_max         32.139
_diffrn_reflns_theta_min         3.566
_exptl_absorpt_coefficient_mu    9.559
_exptl_absorpt_correction_T_max  1.00000
_exptl_absorpt_correction_T_min  0.76714
_exptl_absorpt_correction_type   multi-scan
_exptl_absorpt_process_details   'CrysAlisPro 1.171.38.41q'
_exptl_crystal_colour            red
_exptl_crystal_density_diffrn    1.898
_exptl_crystal_description       prismatic
_exptl_crystal_F_000             210
_exptl_crystal_size_max          0.060
_exptl_crystal_size_mid          0.020
_exptl_crystal_size_min          0.020
_refine_diff_density_max         2.513
_refine_diff_density_min         -2.508
_refine_diff_density_rms         0.296
_refine_ls_extinction_method     none
_refine_ls_goodness_of_fit_ref   0.985
_refine_ls_hydrogen_treatment    constr
_refine_ls_matrix_type           full
_refine_ls_number_parameters     56
_refine_ls_number_reflns         1413
_refine_ls_number_restraints     0
_refine_ls_restrained_S_all      0.985
_refine_ls_R_factor_all          0.0421
_refine_ls_R_factor_gt           0.0406
_refine_ls_shift/su_max          0.013
_refine_ls_shift/su_mean         0.002
_refine_ls_structure_factor_coef Fsqd
_refine_ls_weighting_details
'w=1/[\s^2^(Fo^2^)+(0.0702P)^2^] where P=(Fo^2^+2Fc^2^)/3'
_refine_ls_weighting_scheme      calc
_refine_ls_wR_factor_gt          0.0980
_refine_ls_wR_factor_ref         0.0993
_reflns_Friedel_coverage         0.000
_reflns_number_gt                1384
_reflns_number_total             1413
_reflns_threshold_expression     'I > 2\s(I)'
_cod_data_source_file            ic6b01901_si_007.cif
_cod_data_source_block           shelx
_cod_original_sg_symbol_H-M      'P 2/m'
_cod_original_formula_sum        'C8 H3 F Fe N6 O0.50 Pt'
_cod_database_code               4349115
_shelx_space_group_comment
;
The symmetry employed for this shelxl refinement is uniquely defined
by the following loop, which should always be used as a source of
symmetry information in preference to the above space-group names.
They are only intended as comments.
;
_shelx_estimated_absorpt_t_min   0.598
_shelx_estimated_absorpt_t_max   0.832
_shelxl_version_number           2014-1
_shelx_res_file
;
TITL in P2/m
CELL 0.71069  7.278202   7.561281   7.481988  90.0000  101.4939  90.0000
Zerr 1   0.000271   0.000200   0.000449     0.0000     0.0049     0.0000
LATT   1
SYMM  - X,   Y, - Z
SFAC  C    H    N    F    FE   PT  O
UNIT  8    3    6    1    1    1   0.5
MERG   2
OMIT    -3.00 180.00
OMIT     0   3   0
OMIT     0   1   1
OMIT     0   1   2
OMIT    -1   0   2
OMIT     3   2   0
omit    -3   2   1
omit    -2   0   2
omit     2   0   1
omit     0   3   1
omit    -1   0   4
omit     0   2   2
omit     0   3   2
omit     2   0   0
FMAP   2
PLAN   25
ACTA    50.00
LIST   1
size   0.02 0.02 0.06
L.S.   6
WGHT    0.070200
FVAR       3.93576
PT    6    0.000000    0.000000    0.000000    10.25000    0.01285    0.00846 =
         0.03668    0.00000    0.00677    0.00000
FE    5    0.500000    0.500000    0.000000    10.25000    0.01507    0.00978 =
         0.04245    0.00000    0.01294    0.00000
N2    3    0.290262    0.299366   -0.028144    11.00000    0.02197    0.01450 =
         0.06299   -0.00128    0.01644   -0.00143
N1    3    0.504568    0.500000    0.291507    10.50000    0.03798    0.02124 =
         0.05259    0.00000    0.01097    0.00000
C3    1    0.184661    0.187581   -0.018957    11.00000    0.01553    0.01145 =
         0.05342    0.00041    0.00810   -0.00007
C1    1    0.343222    0.500000    0.377210    10.50000    0.06340    0.05737 =
         0.07286    0.00000    0.02019    0.00000
AFIX  43
H1    2    0.226643    0.500000    0.298933    10.50000   -1.20000
AFIX   0
C2    1    0.658374    0.500000    0.441729    10.50000    0.04724    0.07425 =
         0.07803    0.00000    0.01209    0.00000
F     4    0.848261    0.500000    0.403352    10.25000   10.19247   10.13186 =
        10.08848   10.00000   10.02813   10.00000
O     7    0.355965    0.065387    0.455042    10.12500    0.08091    0.02072 =
         0.03319   -0.00561   -0.00824   -0.02193
HKLF    4

REM  in P2/m
REM R1 =  0.0406 for    1384 Fo > 4sig(Fo)  and  0.0421 for all    1413 data
REM     56 parameters refined using      0 restraints

END

WGHT      0.0615      0.0000

REM Highest difference peak  2.513,  deepest hole -2.508,  1-sigma level  0.296
Q1    1   0.3433  0.2598  0.4619  11.00000  0.05    2.51
Q2    1   1.0277  0.5000  0.3744  10.50000  0.05    1.81
Q3    1   0.1036  0.0000  0.1006  10.50000  0.05    1.72
Q4    1   0.1254  0.0000 -0.0389  10.50000  0.05    1.69
Q5    1   1.0000  0.5000  0.5000  10.25000  0.05    1.36
Q6    1   0.0255  0.0000 -0.1787  10.50000  0.05    1.29
Q7    1   0.3808  0.0000  0.6137  10.50000  0.05    1.29
Q8    1   0.3802  0.0491  0.5802  11.00000  0.05    1.17
Q9    1   0.1566  0.0000  0.5140  10.50000  0.05    1.16
Q10   1   0.5445  0.5000  0.2191  10.50000  0.05    1.08
Q11   1   0.0590  0.0382  0.1364  11.00000  0.05    1.03
Q12   1  -0.0114  0.0000  0.3938  10.50000  0.05    1.03
Q13   1   0.1070  0.1247  0.0408  11.00000  0.05    0.90
Q14   1   0.3507  0.5000  0.0209  10.50000  0.05    0.85
Q15   1   0.5081  0.0000  0.3933  10.50000  0.05    0.84
Q16   1   0.5103  0.5000 -0.1028  10.50000  0.05    0.83
Q17   1   0.0609  0.0995 -0.1097  11.00000  0.05    0.80
Q18   1   0.0000  0.5000  0.0000  10.25000  0.05    0.79
Q19   1   0.5178  0.5000  0.4398  10.50000  0.05    0.75
Q20   1   0.3177  0.1385  0.3817  11.00000  0.05    0.70
Q21   1   0.2695  0.0000  0.1673  10.50000  0.05    0.69
Q22   1   0.4711  0.0000  0.5484  10.50000  0.05    0.68
Q23   1   0.8124  0.7200  0.2818  11.00000  0.05    0.68
Q24   1   0.3724  0.5000 -0.0822  10.50000  0.05    0.65
Q25   1   0.1052  0.5000 -0.0773  10.50000  0.05    0.65
;
_shelx_res_checksum              83771
_shelx_hkl_file
;
   0  -9  -4 5878.38 1100.00   1
   0  -9  -5 3048.83 870.775   1
   0  -8  -4 13797.9 1552.81   1
   0  -8  -5 12022.5 1480.41   1
   0  -8  -6 7916.73 1291.58   1
   0  -7  -4 10248.7 1236.87   1
   0  -7  -5 8528.22 1195.54   1
   0  -7  -6 6026.87 1051.32   1
   0  -6  -4 35563.8 2237.03   1
   0  -6  -5 25761.1 1949.31   1
   0  -6  -6 15239.7 1564.33   1
   0  -6   8 8309.79 1417.24   4
   0  -5  -4 13257.3 1201.60   1
   0  -5  -5 12750.8 1262.33   1
   0  -5   8 4224.93 1026.91   4
   0  -5   9 1058.60 701.661   4
   0  -4  -3 68946.8 2938.42   1
   0  -4  -4 47130.6 2359.46   1
   0  -4  -5 29942.4 1905.94   1
   0  -4   7 15589.3 1603.28   4
   0  -4   8 6068.86 1137.00   4
   0  -4   9 3444.52 958.109   4
   0  -3  -3 14792.6 1035.51   1
   0  -3  -4 16207.7 1173.76   1
   0  -3   6 5993.70 892.801   4
   0  -3   7 3604.73 784.740   4
   0  -3   8 3475.45 828.459   4
   0  -3   9 355.151 556.487   4
   0  -3  10 1184.36 710.580   4
   0  -2   1 26228.3 1102.18   3
   0  -2  -2 38285.5 1604.71   1
   0  -2   2 36689.0 1352.85   3
   0  -2  -3 65536.8 2586.76   1
   0  -2   5 28178.3 1745.49   4
   0  -2   6 18903.3 1509.07   4
   0  -2   7 13656.7 1368.50   4
   0  -2   8 4506.46 782.742   6
   0  -2   8 8309.47 1141.69   4
   0  -2   9 3855.40 895.189   4
   0  -2  10 1602.71 695.012   4
   0  -1  -1 43033.4 1477.56   1
   0  -1   1 42150.9 1503.46   7
   0  -1  -1 41061.7 1482.56   6
   0  -1  -1 41744.2 1457.11   4
   0  -1   1 40979.8 1352.93   3
   0  -1   1 41459.0 1483.83   5
   0  -1  -2 54553.5 2014.21   1
   0  -1   4 18821.6 1232.66   4
   0  -1   5 13643.7 1134.15   4
   0  -1   6 8520.96 983.044   4
   0  -1   7 4219.62 674.602   6
   0  -1   7 4796.10 804.283   4
   0  -1   8 2790.36 698.733   4
   0  -1   8 4583.30 752.041   6
   0  -1   9 2477.55 712.849   4
   0  -1   9 1185.52 512.721   6
   0  -1  10 727.837 503.730   4
   0   0   2 264530. 7889.16   2
   0   0   2 264119. 8097.77   4
   0   0   3 152861. 5141.83   4
   0   0   3 156001. 4864.08   2
   0   0   4 91274.6 3424.52   4
   0   0   4 85207.2 3276.94   6
   0   0   4 90486.6 3080.13   2
   0   0   5 47678.7 2233.95   4
   0   0   5 42339.8 2052.07   6
   0   0   6 24570.9 1558.16   6
   0   0   6 27247.0 1721.62   4
   0   0   7 19012.0 1508.26   4
   0   0   7 16470.6 1332.92   6
   0   0   8 8451.47 1035.19   6
   0   0   8 8066.11 1051.09   4
   0   0   9 4289.37 789.829   6
   0   0   9 3337.64 760.850   4
   0   0  10 2135.27 750.377   4
   0   1   1 41417.3 1558.06   2
   0   1   1 42329.0 1525.44   6
   0   1  -1 41960.5 1506.40   5
   0   1  -1 43773.0 1405.79   3
   0   1   1 43660.0 1496.99   4
   0   1  -1 43769.2 1556.41   7
   0   1   2 54581.5 1922.77   4
   0   1   2 54080.7 1946.20   6
   0   1  -2 52558.5 1891.58   5
   0   1  -2 50144.1 2191.44   7
   0   1   2 55099.3 1966.91   2
   0   1  -2 48851.2 1623.50   3
   0   1  -3 11544.9 759.276   5
   0   1  -3 11363.2 493.170   3
   0   1   3 11058.7 753.540   2
   0   1   3 12135.1 805.184   4
   0   1  -3 10486.7 1044.40   7
   0   1   3 11135.2 766.050   6
   0   1   4 18503.9 1082.89   2
   0   1   4 18817.9 1148.10   4
   0   1   4 18039.2 1112.11   6
   0   1  -4 17947.3 749.852   3
   0   1  -5 11857.6 606.750   3
   0   1   5 13447.4 950.928   2
   0   1   5 12816.0 996.100   6
   0   1   5 14071.5 1058.64   4
   0   1   6 8764.72 930.645   4
   0   1   6 9003.95 901.955   6
   0   1   7 5285.97 759.514   6
   0   1   7 4244.94 734.050   4
   0   1   8 5120.21 800.057   6
   0   1   8 3663.79 754.938   4
   0   1   9 2356.58 675.807   4
   0   1   9 3444.65 724.126   6
   0   1  10 1425.83 591.837   4
   0   2   0 166796. 5122.77   7
   0   2   0 156442. 5143.00   6
   0   2   0 167101. 5174.02   2
   0   2  -1 29605.3 1229.82   7
   0   2   1 29189.4 1339.60   2
   0   2   1 30628.5 1262.22   4
   0   2  -1 28134.0 1271.74   5
   0   2  -1 30161.1 1176.70   2
   0   2   1 28737.8 1269.27   6
   0   2   2 39451.3 1741.14   2
   0   2  -2 38482.9 1640.90   5
   0   2  -2 38576.6 1711.16   7
   0   2   2 39023.7 1609.13   4
   0   2   2 39907.5 1675.93   6
   0   2  -3 61259.1 2397.37   5
   0   2  -3 59258.7 2768.38   7
   0   2   3 64674.5 2537.62   2
   0   2   3 61177.1 2447.10   6
   0   2   3 59040.6 2373.07   4
   0   2   4 32171.4 1542.65   4
   0   2   4 32035.9 1588.50   6
   0   2  -4 30221.0 1502.56   5
   0   2  -4 30181.4 2027.83   7
   0   2   4 34277.0 1645.06   2
   0   2   5 29682.4 1636.77   4
   0   2   5 24815.3 1557.03   6
   0   2   5 27601.5 1599.45   2
   0   2   6 16443.8 1276.05   4
   0   2   6 14729.8 1226.87   6
   0   2   6 18424.8 1313.32   2
   0   2   7 11594.5 1182.03   4
   0   2   7 14869.8 1291.48   6
   0   2   8 7391.30 979.813   6
   0   2   8 6017.57 908.550   4
   0   2   9 3475.78 785.993   4
   0   2   9 3048.73 723.560   6
   0   2  10 2518.17 697.519   4
   0   3   0 16851.4 995.138   6
   0   3   0 17430.4 1014.34   2
   0   3   0 19375.9 989.274   7
   0   3  -1 38051.6 1590.56   2
   0   3  -1 37119.8 1581.44   7
   0   3   1 34354.5 1701.15   2
   0   3   1 36821.3 1666.48   6
   0   3  -2 37922.4 1760.26   5
   0   3   2 38629.5 1869.15   2
   0   3   2 40412.6 1735.67   4
   0   3   2 38835.1 1797.09   6
   0   3  -2 38695.4 1766.99   7
   0   3  -3 11837.6 889.969   5
   0   3  -3 12298.6 1034.96   7
   0   3   3 10837.2 940.071   2
   0   3   3 13666.6 924.917   4
   0   3   3 14384.8 1004.55   6
   0   3  -4 14925.7 1071.06   5
   0   3   4 13155.8 1097.01   2
   0   3   4 13980.2 1090.31   6
   0   3  -4 15325.0 1388.65   7
   0   3   4 15829.3 1079.56   4
   0   3   5 11830.1 1073.02   2
   0   3   5 11008.7 1022.63   6
   0   3   5 10512.3 953.574   4
   0   3  -5 9142.29 891.364   5
   0   3  -5 9716.37 1325.26   7
   0   3   6 6766.84 838.379   4
   0   3   6 8182.55 965.526   2
   0   3   6 7036.45 865.947   6
   0   3   7 3390.98 658.040   4
   0   3   7 2889.28 675.061   6
   0   3   8 1792.47 562.392   4
   0   3   8 2832.15 690.589   6
   0   3   9 2793.03 700.745   4
   0   3   9 738.930 420.176   6
   0   3  10 230.510 395.913   4
   0   4   0 182138. 6156.70   6
   0   4   0 183353. 6207.62   2
   0   4   0 184869. 6081.55   7
   0   4   1 65014.6 2721.79   6
   0   4  -1 68072.9 2636.64   2
   0   4   1 64093.6 2780.59   2
   0   4  -1 66254.9 2592.14   7
   0   4   1 63077.2 2581.70   7
   0   4  -2 79146.8 2903.64   2
   0   4   2 80924.4 3203.64   6
   0   4   2 76244.1 3232.84   2
   0   4  -2 82619.9 3206.26   5
   0   4  -2 73543.5 3055.88   7
   0   4  -3 65936.6 2869.31   5
   0   4  -3 65971.0 2946.71   7
   0   4   3 68633.9 3035.88   2
   0   4   3 68238.8 2947.94   6
   0   4   3 68814.8 2820.53   4
   0   4   4 45343.9 2182.63   4
   0   4   4 43735.5 2291.92   6
   0   4  -4 44606.8 2240.23   5
   0   4  -4 43201.4 2530.69   7
   0   4   4 46215.4 2396.70   2
   0   4   5 27982.6 1822.98   6
   0   4   5 24948.0 1630.97   4
   0   4  -5 27109.8 2235.81   7
   0   4   5 29883.5 1897.02   2
   0   4  -5 29975.5 1786.95   5
   0   4   6 17659.9 1493.40   6
   0   4  -6 18279.3 1435.89   5
   0   4  -6 15471.6 1905.84   7
   0   4   6 17900.7 1416.17   4
   0   4   6 19547.2 1595.34   2
   0   4   7 10065.1 1167.05   6
   0   4   7 12836.3 1259.20   4
   0   4   8 5118.87 867.636   4
   0   4   8 5287.69 942.736   6
   0   4   9 2831.17 723.754   4
   0   4   9 3969.79 941.585   6
   0   5   0 8180.38 759.639   7
   0   5   0 8334.93 850.321   2
   0   5   1 27265.1 1635.70   6
   0   5  -1 25544.5 1466.30   7
   0   5   1 25649.8 1481.63   7
   0   5  -1 27319.5 1555.27   2
   0   5   1 25625.6 1638.90   2
   0   5   2 17983.0 1401.87   2
   0   5  -2 19254.6 1378.59   5
   0   5   2 20031.4 1388.34   6
   0   5  -2 20164.4 1304.12   7
   0   5  -3 12276.7 1115.97   5
   0   5   3 11880.1 1190.96   2
   0   5  -3 12748.4 1118.28   7
   0   5   3 12891.9 1157.59   6
   0   5   4 12765.2 1220.28   2
   0   5  -4 10819.5 1062.58   5
   0   5   4 11831.5 1046.74   4
   0   5  -4 10013.9 1158.09   7
   0   5   4 11275.4 1146.70   6
   0   5  -5 11254.4 1124.63   5
   0   5   5 8739.65 1091.28   2
   0   5   5 10191.7 1144.17   6
   0   5  -5 9631.69 1339.66   7
   0   5   5 9689.03 997.965   4
   0   5  -6 5950.98 1235.66   7
   0   5  -6 6967.26 955.534   5
   0   5   6 7723.20 1049.00   6
   0   5   6 8828.81 1129.37   2
   0   5   6 8179.87 963.318   4
   0   5  -7 3519.13 723.017   5
   0   5  -7 1963.20 866.090   7
   0   5   7 3274.38 754.492   6
   0   5   7 3404.26 689.680   4
   0   5   8 3310.57 732.068   4
   0   5   8 2892.70 786.276   6
   0   5   9 724.198 440.467   4
   0   5   9 1688.54 650.751   6
   0   6   0 90581.2 3733.94   7
   0   6   0 93867.7 3924.99   2
   0   6   1 68928.2 3131.80   6
   0   6  -1 63084.1 2880.82   7
   0   6   1 65704.8 2975.28   7
   0   6   1 66062.5 3155.31   2
   0   6  -1 68480.3 3055.55   2
   0   6   2 50499.7 2634.70   6
   0   6   2 48014.9 2440.65   7
   0   6  -2 52409.7 2665.88   5
   0   6   2 48492.2 2653.64   2
   0   6  -2 47613.1 2430.05   7
   0   6   3 57938.8 2911.60   6
   0   6  -3 55942.3 2811.30   7
   0   6   3 53396.4 2897.04   2
   0   6  -3 50992.7 2770.82   5
   0   6   4 31423.9 2166.44   2
   0   6   4 31836.5 2122.39   6
   0   6  -4 32269.0 2070.70   5
   0   6  -4 30109.6 2137.04   7
   0   6   5 21699.6 1818.05   2
   0   6  -5 20511.1 1989.14   7
   0   6  -5 21461.3 1722.94   5
   0   6   5 25131.6 1914.96   6
   0   6   6 11140.6 1348.39   6
   0   6   6 14687.1 1367.22   4
   0   6   6 16320.9 1613.26   2
   0   6  -6 12955.4 1809.88   7
   0   6  -6 14434.0 1444.05   5
   0   6  -7 6604.20 1070.25   5
   0   6   7 9105.29 1153.14   4
   0   6  -7 7631.55 1546.79   7
   0   6   7 7927.76 1181.36   6
   0   6   8 6135.67 1104.72   6
   0   6   8 4700.37 866.604   4
   0   6   9 1171.63 687.262   6
   0   7   0 14666.8 1330.17   2
   0   7   0 11786.6 1106.23   7
   0   7   1 19142.6 1617.97   2
   0   7   1 22427.7 1585.45   7
   0   7  -1 21623.1 1697.31   5
   0   7  -1 20701.6 1495.34   7
   0   7   2 18395.3 1598.25   2
   0   7  -2 16058.0 1357.53   7
   0   7  -2 17142.3 1509.58   5
   0   7   2 17391.4 1523.26   6
   0   7   2 14982.3 1328.24   7
   0   7  -3 10977.2 1248.70   5
   0   7  -3 10719.3 1168.23   7
   0   7   3 8198.07 1009.47   7
   0   7   3 12227.6 1328.68   2
   0   7   3 11596.5 1277.33   6
   0   7  -4 7973.44 1125.26   7
   0   7   4 8598.30 1174.70   2
   0   7  -4 10003.0 1199.90   5
   0   7   4 8976.24 1177.05   6
   0   7  -5 5760.28 1123.77   7
   0   7   5 6813.35 1080.29   6
   0   7   5 8173.63 1172.62   2
   0   7  -5 6417.75 1015.34   5
   0   7   6 5308.07 992.702   6
   0   7  -6 4095.10 1132.61   7
   0   7  -6 5627.68 997.399   5
   0   7   7 2141.51 789.489   6
   0   7  -7 1529.53 621.280   5
   0   7  -7 1996.53 935.338   7
   0   7  -8 1635.49 650.483   5
   0   7   8 2018.45 735.514   6
   0   8   0 28418.9 1906.03   7
   0   8  -1 21585.9 1798.82   5
   0   8   1 16647.4 1478.33   7
   0   8  -1 15925.6 1418.33   7
   0   8   1 18266.2 1679.69   2
   0   8  -2 18137.2 1536.90   7
   0   8   2 16145.4 1482.91   7
   0   8   2 19285.4 1797.15   2
   0   8  -2 21061.9 1802.26   5
   0   8  -3 17407.1 1623.49   7
   0   8   3 18901.7 1797.36   2
   0   8   3 18805.3 1641.14   7
   0   8  -3 22700.9 1918.72   5
   0   8   3 21062.7 1860.33   6
   0   8   4 13495.6 1532.69   6
   0   8  -4 11678.6 1413.61   7
   0   8   4 12088.4 1357.64   7
   0   8  -4 13968.0 1520.31   5
   0   8   4 11845.3 1499.99   2
   0   8   5 10563.3 1339.41   7
   0   8   5 11695.0 1485.26   6
   0   8  -5 9256.93 1451.84   7
   0   8  -5 11406.2 1432.48   5
   0   8  -6 5885.94 1307.62   7
   0   8  -6 7920.40 1236.53   5
   0   8   6 6894.73 1189.06   6
   0   8   7 4073.76 1009.47   6
   0   8  -7 2655.49 881.607   5
   0   8  -7 1386.20 794.195   7
   0   9   0 4472.50 798.364   7
   0   9   0 4715.51 916.777   5
   0   9  -1 7955.87 1040.78   7
   0   9   1 8745.99 1085.41   7
   0   9  -1 9218.87 1269.44   5
   0   9  -2 6054.39 945.361   7
   0   9   2 6705.90 991.376   7
   0   9  -2 6208.70 1068.61   5
   0   9  -3 7035.73 1220.88   5
   0   9   3 2960.99 731.847   7
   0   9  -3 5672.79 976.079   7
   0   9   4 5322.78 1065.48   6
   0   9  -4 4348.41 963.581   5
   0   9  -4 3212.01 863.321   7
   0   9   4 4467.58 911.252   7
   0   9   5 2503.75 745.473   7
   0   9  -5 4908.55 1034.97   5
   0   9   5 3289.96 925.047   6
   0   9   6 1272.26 717.446   6
   0   9  -6 2975.47 919.990   5
   0   9   6 2218.53 718.386   7
   0  10   0 30192.9 2473.76   5
   0  10   1 24868.1 2012.46   7
   0  10   1 28773.9 2385.79   5
   0  10  -1 25890.7 2328.73   5
   0  10   2 28012.8 2198.37   7
   0  10  -2 23225.3 2235.84   5
   0  10  -3 18466.8 1981.66   5
   0  10   3 18800.7 1797.42   7
   0  10  -4 16676.8 1893.65   5
   0  10   4 10416.4 1410.24   7
   0  10   5 7694.02 1251.20   7
   1  -9  -5 12425.2 1650.42   1
   1  -9  -4 17914.7 1932.15   1
  -1  -9  -4 13507.4 1610.81   1
  -1  -9  -5 6695.75 1193.85   1
   1  -8  -6 4784.99 1121.34   1
   1  -8  -5 5569.81 1064.77   1
   1  -8  -4 10836.1 1385.83   1
  -1  -8  -4 4209.89 879.975   1
  -1  -8  -5 3903.88 885.898   1
  -1  -8  -6 881.864 608.493   1
   1  -7  -6 11561.3 1453.93   1
   1  -7  -5 17428.6 1701.17   1
   1  -7  -4 22473.9 1870.43   1
  -1  -7  -4 27541.8 2046.35   1
  -1  -7  -5 16733.9 1634.81   1
  -1  -7  -6 11378.4 1434.23   1
   1  -7   7 6207.36 1254.09   4
   1  -6  -6 6889.76 1090.02   1
   1  -6  -5 7869.31 1089.76   1
   1  -6  -4 12046.9 1255.51   1
  -1  -6  -4 11488.9 1192.75   1
  -1  -6  -5 12238.8 1307.42   1
   1  -6   7 3274.09 894.709   4
   1  -6   8 3009.59 987.028   4
  -1  -5   9 3375.83 980.906   4
  -1  -5   8 7159.20 1234.68   4
   1  -5  -6 17804.5 1621.59   1
   1  -5  -5 31049.1 2070.76   1
   1  -5  -4 48418.1 2576.80   1
  -1  -5  -3 51648.5 2514.56   1
  -1  -5  -4 40125.3 2228.38   1
  -1  -5  -5 20023.3 1579.31   1
   1  -5   7 10479.8 1456.64   4
   1  -5   8 5383.43 1166.29   4
   1  -5   9 1290.22 679.110   4
  -1  -4  10 1170.19 660.210   4
  -1  -4   9 1362.12 605.451   4
  -1  -4   8 2153.50 797.957   4
   1  -4  -5 10134.6 1073.08   1
   1  -4  -4 10058.3 976.735   1
   1  -4  -3 15332.5 1153.11   1
  -1  -4  -3 16424.5 1161.09   1
  -1  -4  -4 12828.7 1080.26   1
   1  -4   6 6919.80 1044.57   4
   1  -4   7 5699.32 1048.63   4
   1  -4   8 2428.08 832.943   4
   1  -4   9 1315.59 697.747   4
  -1  -3  10 2482.88 816.363   4
  -1  -3   9 3233.86 789.456   4
  -1  -3   8 9713.46 1276.43   4
  -1  -3   7 16253.9 1523.28   4
   1  -3  -4 44186.2 1912.42   1
  -1  -3   4 22053.6 826.391   3
   1  -3  -3 61386.7 2507.51   1
  -1  -3   3 54678.0 1994.27   3
   1  -3   2 54355.9 2062.83   2
  -1  -3  -3 55413.8 2219.67   1
   1  -3   3 47290.4 1780.59   2
  -1  -3  -4 50135.9 2317.80   1
   1  -3   5 23226.0 1682.18   4
   1  -3   6 18704.2 1635.28   4
   1  -3   7 12773.5 1411.77   4
   1  -3   8 6168.77 1107.19   4
   1  -3   9 4437.86 994.623   4
  -1  -2  10 1246.70 621.032   4
  -1  -2   9 3355.28 775.939   6
  -1  -2   9 2828.55 796.557   4
  -1  -2   8 6761.04 1024.77   4
  -1  -2   7 5261.22 834.945   4
  -1  -2   6 14332.7 1271.93   4
   1  -2  -3 19208.8 1148.31   1
   1  -2  -2 55503.9 2191.32   1
   1  -2  -1 43827.5 1569.14   4
   1  -2   1 32911.2 1263.22   7
  -1  -2  -2 22635.0 1087.18   1
  -1  -2  -3 13713.5 887.403   1
   1  -2   4 5068.32 707.276   4
   1  -2   5 8863.39 988.020   4
   1  -2   6 4343.57 770.086   4
   1  -2   7 3029.91 704.512   4
   1  -2   7 1557.98 438.571   6
   1  -2   8 1800.79 647.179   4
   1  -2   9 1250.37 639.453   4
   1  -2  10 335.618 492.036   4
  -1  -1  11 898.012 520.798   4
  -1  -1  10 2614.74 717.268   6
  -1  -1  10 1796.31 631.934   4
  -1  -1   9 4320.37 831.957   4
  -1  -1   9 4279.30 834.025   6
  -1  -1   8 7612.47 1016.49   6
  -1  -1   8 8323.10 1094.88   4
  -1  -1   7 17846.1 1473.06   4
  -1  -1   7 17793.6 1442.50   6
  -1  -1   6 23011.8 1567.14   4
  -1  -1   5 40567.7 2061.00   4
   1  -1  -2 94677.3 3085.04   4
   1  -1  -2 97141.2 3285.07   1
   1  -1  -1 153083. 4847.45   3
   1  -1  -1 155638. 4806.01   1
   1  -1   0 171203. 5189.30   6
   1  -1   0 172060. 5261.03   5
   1  -1   0 168738. 5300.62   3
  -1  -1   0 181349. 5321.29   4
  -1  -1   0 174391. 5307.11   7
   1  -1   1 144581. 4673.69   7
   1  -1   1 143945. 4616.49   3
  -1  -1  -1 148399. 4541.98   6
  -1  -1  -1 152612. 4504.92   1
   1  -1   2 82555.7 3008.31   4
   1  -1   3 77673.0 3059.01   4
   1  -1   4 61458.9 2722.53   4
   1  -1   5 25242.9 1116.20   2
   1  -1   5 28577.7 1759.84   4
   1  -1   6 19802.3 1313.01   6
   1  -1   6 23685.5 1685.64   4
   1  -1   7 9828.89 975.552   6
   1  -1   7 13518.3 1341.25   4
   1  -1   8 8544.71 1188.40   4
   1  -1   9 5718.14 1025.97   4
   1  -1  10 1884.79 818.773   4
  -1   0  11 485.466 470.646   4
  -1   0  10 1544.23 577.105   6
  -1   0  10 461.468 406.130   4
  -1   0   9 1195.65 515.603   6
  -1   0   9 1567.73 556.083   4
  -1   0   8 2808.12 673.221   6
  -1   0   8 1740.90 527.960   4
  -1   0   7 3029.38 617.926   4
  -1   0   7 3230.63 597.232   6
  -1   0   6 6285.40 760.527   4
  -1   0   6 4215.89 684.893   6
  -1   0   5 8480.62 836.817   6
  -1   0   5 9601.40 843.648   4
   1   0  -4 6618.08 448.880   3
  -1   0   4 7458.36 666.702   4
   1   0  -3 10991.8 651.116   2
  -1   0   3 10877.7 533.382   5
   1   0  -3 9010.04 986.098   7
  -1   0   3 11480.4 728.408   4
   1   0  -3 9453.94 513.347   3
   1   0  -2 21132.5 810.224   3
  -1   0   2 20657.1 807.776   3
   1   0  -2 21477.6 1238.14   7
   1   0  -1 49638.9 1703.81   7
  -1   0   1 47610.3 1576.59   3
   1   0   1 63280.2 2155.28   4
  -1   0  -1 61031.0 2151.99   4
   1   0   2 49551.8 1722.07   6
   1   0   2 52470.6 2012.59   4
   1   0   3 32504.5 1562.45   4
   1   0   3 29571.4 1288.91   6
   1   0   4 20395.0 1312.85   4
   1   0   4 21355.0 1130.64   6
   1   0   5 22014.7 1464.94   4
   1   0   5 20074.6 1212.67   6
   1   0   5 22173.2 1153.75   2
   1   0   6 11024.6 1154.92   4
   1   0   6 11857.7 978.041   6
   1   0   6 13216.0 893.521   2
   1   0   7 5574.76 868.465   4
   1   0   7 5608.49 747.142   6
   1   0   8 3259.91 776.747   4
   1   0   9 2168.98 700.119   4
   1   0  10 1625.91 678.206   4
  -1   1  10 2670.13 728.106   4
  -1   1  10 3595.96 791.515   6
  -1   1   9 2867.06 725.682   4
  -1   1   9 4135.92 858.221   6
  -1   1   8 9296.43 1081.32   4
  -1   1   8 8060.52 1042.81   6
  -1   1   7 17684.6 1435.34   6
  -1   1   7 16108.4 1303.87   4
  -1   1   6 24934.0 1588.77   6
  -1   1   6 21559.3 1432.87   4
  -1   1   5 38187.0 1839.94   4
  -1   1   5 37175.6 1947.20   6
   1   1  -4 54015.2 1989.56   2
  -1   1   4 63680.8 2536.63   6
   1   1  -4 59966.2 3062.45   7
  -1   1   4 63587.6 2373.91   4
   1   1  -3 101641. 4033.89   7
  -1   1   3 101633. 3654.10   6
   1   1  -3 106174. 3375.16   5
  -1   1   3 99646.0 3447.39   4
  -1   1   2 97604.2 3342.22   6
   1   1  -2 95823.1 3418.26   7
  -1   1   2 99492.9 3099.29   4
   1   1  -2 95838.0 3091.74   5
  -1   1   1 160437. 4884.02   6
  -1   1   1 154377. 4883.99   3
   1   1  -1 153290. 4880.41   7
   1   1   0 185064. 5379.13   4
  -1   1   0 173509. 5366.59   3
  -1   1   0 175269. 5262.43   6
   1   1   0 174402. 5368.29   7
  -1   1   0 177846. 5338.83   5
   1   1   1 150411. 4733.31   6
  -1   1  -1 156465. 4919.66   5
  -1   1  -1 156909. 4803.71   3
   1   1   1 157580. 4886.72   4
  -1   1  -2 80697.4 2677.69   3
   1   1   2 83004.5 2690.63   6
   1   1   2 82043.7 2873.47   4
   1   1   2 70537.7 2629.31   1
  -1   1  -2 84834.2 2906.67   5
   1   1   3 78640.6 2988.64   4
  -1   1  -3 78615.6 2693.17   3
   1   1   3 76393.3 2771.32   6
   1   1   4 58927.0 2383.35   6
  -1   1  -4 58966.3 2217.46   3
   1   1   4 60346.9 2604.16   4
  -1   1  -5 24090.8 1209.65   3
   1   1   5 27605.3 1462.36   2
   1   1   5 24942.8 1419.72   6
   1   1   5 24964.6 1603.17   4
   1   1   6 21945.7 1620.21   4
   1   1   6 21548.8 1405.38   6
   1   1   6 25032.1 1442.39   2
  -1   1  -6 21304.4 1153.93   3
   1   1   7 9840.05 1010.78   6
   1   1   7 12314.5 1030.65   2
   1   1   7 15366.2 1374.05   4
   1   1   8 5731.44 844.245   6
   1   1   8 6758.43 1013.90   4
   1   1   9 5278.24 983.526   4
   1   1  10 2220.55 734.201   4
  -1   2  10 1716.90 556.488   4
  -1   2  10 1054.92 628.788   6
  -1   2   9 2610.72 679.783   6
  -1   2   9 2665.11 662.851   4
  -1   2   8 6684.87 965.542   6
  -1   2   8 4457.35 756.076   4
  -1   2   7 5902.80 776.294   4
  -1   2   7 5494.76 828.818   6
   1   2  -6 11047.4 1541.73   7
  -1   2   6 12755.7 1029.65   4
  -1   2   6 11323.9 1093.51   6
   1   2  -5 15390.1 1017.39   5
  -1   2   5 14718.2 1032.61   4
  -1   2   5 16264.1 1217.98   6
   1   2  -5 15677.6 1604.07   7
   1   2  -4 26608.1 1838.92   7
   1   2  -4 28793.3 1369.65   5
  -1   2   4 27275.7 1551.20   6
  -1   2   4 26607.8 1349.29   4
  -1   2   3 19266.5 967.069   4
  -1   2   3 17922.2 1135.44   6
   1   2  -3 18295.9 1228.52   7
   1   2  -3 17739.8 965.492   5
  -1   2   2 52524.5 2140.03   6
   1   2  -2 52699.9 2166.18   7
  -1   2   2 54673.3 1915.05   4
   1   2  -1 47060.8 1840.68   7
  -1   2   1 46232.9 1821.91   6
   1   2   0 16851.7 897.731   7
  -1   2   0 17878.5 887.146   5
  -1   2   0 15378.3 813.522   6
  -1   2   0 17737.4 924.276   3
  -1   2   0 17051.5 707.440   7
  -1   2  -1 32419.7 1281.04   7
   1   2   1 30892.2 1346.86   6
  -1   2  -1 33187.1 1440.97   5
  -1   2  -1 31733.5 1368.01   3
   1   2   1 33337.0 1425.81   4
   1   2   2 21713.3 1093.54   6
  -1   2  -2 21669.3 1027.27   3
  -1   2  -2 20613.5 1255.98   7
   1   2   2 21027.5 1143.35   4
  -1   2  -2 22471.6 1187.79   5
  -1   2  -3 13172.1 756.842   3
   1   2   3 13269.0 885.345   6
  -1   2  -3 14082.9 1021.36   5
  -1   2  -3 10561.5 1103.60   7
   1   2   3 13720.3 961.475   4
   1   2   4 6244.91 669.796   2
   1   2   4 5481.05 594.469   6
   1   2   4 5322.79 656.026   4
  -1   2  -4 5838.35 483.367   3
  -1   2  -5 9584.49 648.755   3
   1   2   5 9071.36 850.601   6
   1   2   5 9133.40 943.236   4
   1   2   5 10169.9 910.861   2
   1   2   6 3719.57 621.247   6
   1   2   6 4168.13 653.058   2
   1   2   6 4062.59 676.551   4
   1   2   7 3033.48 647.889   4
   1   2   7 2252.76 521.963   2
   1   2   7 2432.99 557.587   6
   1   2   8 2567.71 620.329   6
   1   2   8 2427.59 665.602   4
   1   2   9 1245.16 558.656   4
   1   2  10 219.385 446.341   4
  -1   3  10 1813.93 679.789   6
  -1   3   9 3551.41 718.395   4
  -1   3   9 3596.93 825.893   6
  -1   3   8 6505.02 1002.57   6
  -1   3   8 6979.51 925.844   4
  -1   3   7 12827.9 1152.34   4
  -1   3   7 11930.6 1260.15   6
  -1   3   6 18093.1 1427.72   6
  -1   3   6 16075.4 1215.56   4
   1   3  -6 17239.1 1223.35   5
   1   3  -6 12312.4 1655.34   7
   1   3  -5 29770.5 2226.66   7
  -1   3   5 27830.2 1755.08   6
   1   3  -5 29336.3 1597.02   5
  -1   3   5 30070.6 1609.70   4
  -1   3   4 39760.3 2059.66   6
   1   3  -4 37647.4 2241.32   7
  -1   3   4 42390.3 1875.40   4
   1   3  -4 40915.2 1892.76   5
   1   3  -3 63358.0 2749.58   7
  -1   3   3 60275.3 2637.49   6
  -1   3   3 65434.6 2430.27   4
   1   3  -3 61337.7 2508.79   5
   1   3  -2 58783.2 2441.31   7
  -1   3   2 60016.1 2462.19   6
   1   3  -1 75938.3 2827.34   7
  -1   3   1 72696.2 2802.63   6
  -1   3   0 115764. 3929.67   5
   1   3   0 111047. 3927.43   7
  -1   3   0 109626. 3855.74   6
  -1   3   0 111634. 3674.05   7
  -1   3  -1 84394.8 3006.44   3
  -1   3  -1 78062.3 2771.29   7
  -1   3  -1 79252.1 3030.48   5
   1   3   1 79663.8 2998.61   6
  -1   3  -2 58029.1 2315.16   3
  -1   3  -2 56983.0 2386.84   7
   1   3   2 60360.4 2419.87   6
   1   3   2 58725.9 2427.79   4
  -1   3  -2 60025.4 2469.51   5
  -1   3  -3 54674.3 2436.01   5
  -1   3  -3 52290.7 2168.06   3
   1   3   3 59015.6 2422.02   6
   1   3   3 55580.0 2414.45   4
  -1   3  -3 52532.1 2646.43   7
  -1   3  -4 37994.3 2522.40   7
   1   3   4 48009.7 2209.50   6
  -1   3  -4 46469.4 2263.81   5
   1   3   4 47550.8 2262.23   4
   1   3   4 48026.0 2289.89   2
  -1   3  -4 42156.7 1838.67   3
  -1   3  -5 19723.1 1069.21   3
   1   3   5 21829.4 1443.47   6
   1   3   5 20291.1 1459.23   2
  -1   3  -5 23207.6 1553.51   5
   1   3   5 21831.8 1501.92   4
   1   3   6 20065.9 1517.12   2
   1   3   6 18926.1 1443.99   6
   1   3   6 18422.3 1476.67   4
   1   3   7 8788.45 1098.95   4
   1   3   7 9650.59 1061.36   6
   1   3   7 9743.07 1086.10   2
   1   3   8 5294.02 913.293   4
   1   3   8 5112.59 829.874   6
   1   3   9 3529.80 818.334   4
   1   3  10 2084.77 777.575   4
  -1   4  10 1225.95 614.191   6
  -1   4   9 2189.22 701.275   6
  -1   4   8 2897.86 621.293   4
  -1   4   8 2277.52 627.859   6
  -1   4   7 3592.73 666.168   4
  -1   4   7 3225.11 716.785   6
   1   4  -7 3788.71 632.853   5
   1   4  -7 2282.04 910.472   7
  -1   4   6 5926.59 898.969   6
   1   4  -6 7527.27 866.526   5
   1   4  -6 5639.60 1142.03   7
  -1   4   6 6587.09 786.382   4
   1   4  -5 10132.3 953.226   5
  -1   4   5 11116.6 1102.19   6
   1   4  -5 8494.23 1173.95   7
  -1   4   5 9272.05 861.335   4
   1   4  -4 12754.0 1196.15   7
  -1   4   4 10801.5 1042.80   6
   1   4  -4 11262.4 949.613   5
  -1   4   4 11631.3 911.961   4
   1   4  -3 14305.2 1144.47   7
   1   4  -3 14450.0 837.642   2
   1   4  -3 14737.8 1065.54   5
  -1   4   3 12553.9 1123.98   2
  -1   4   3 13408.0 1103.26   6
  -1   4   2 21331.5 1413.52   2
   1   4  -2 20539.9 1291.88   7
   1   4  -2 21157.3 1142.55   2
  -1   4   2 20638.5 1317.56   6
  -1   4   1 29237.4 1418.92   7
   1   4  -1 29059.1 1570.22   7
  -1   4   1 34708.3 1677.18   6
  -1   4   0 15801.6 1071.92   5
   1   4   0 13487.3 1006.58   7
  -1   4   0 16626.3 1059.07   6
  -1   4   0 14243.1 890.566   7
  -1   4  -1 28392.4 1355.64   7
   1   4   1 27477.4 1521.69   6
  -1   4  -1 29338.3 1589.37   5
   1   4   1 28673.9 1542.01   7
   1   4   2 24647.1 1440.20   4
   1   4   2 24376.6 1504.67   2
  -1   4  -2 24622.8 1358.12   7
  -1   4  -2 22729.7 1435.06   5
   1   4   2 23938.8 1421.54   6
   1   4   3 16447.6 1187.09   4
   1   4   3 16331.2 1190.33   6
  -1   4  -3 15092.5 1240.28   7
  -1   4  -3 15252.7 1179.85   5
   1   4   3 15099.2 1211.54   2
   1   4   4 11478.3 1109.75   2
  -1   4  -4 11739.6 1081.13   5
  -1   4  -4 10907.9 1258.62   7
   1   4   4 11016.6 1017.40   6
   1   4   4 10336.1 981.892   4
  -1   4  -5 9710.71 1351.53   7
   1   4   5 11676.1 1107.76   6
   1   4   5 11084.8 1131.77   2
  -1   4  -5 11637.7 1138.40   5
   1   4   5 8879.08 998.969   4
   1   4   6 6582.65 967.815   2
   1   4   6 7486.04 958.592   4
  -1   4  -6 6443.06 906.514   5
   1   4   6 7566.23 943.316   6
   1   4   7 3477.08 735.736   4
   1   4   7 3492.69 736.345   2
   1   4   7 4607.30 801.478   6
   1   4   8 2400.84 694.848   4
   1   4   8 2602.76 678.494   2
   1   4   8 2575.87 680.137   6
   1   4   9 5266.52 1011.15   4
  -1   5  10 1726.26 711.746   6
  -1   5   9 1814.40 614.013   6
  -1   5   8 5918.66 1084.66   6
  -1   5   8 7174.05 977.930   4
  -1   5   7 12232.7 1380.91   6
  -1   5   7 12248.4 1174.30   4
   1   5  -7 9216.80 1116.14   5
   1   5  -7 7442.84 1497.94   7
  -1   5   6 16442.4 1310.12   4
   1   5  -6 19053.5 2033.00   7
  -1   5   6 15566.6 1491.04   6
   1   5  -6 15919.4 1380.42   5
  -1   5   5 27559.4 1692.13   4
  -1   5   5 28937.7 1979.21   6
   1   5  -5 26797.0 2141.26   7
   1   5  -5 29924.2 1841.89   5
   1   5  -4 42901.2 2511.60   7
   1   5  -4 45130.7 2346.55   5
  -1   5   4 46081.6 2498.31   6
   1   5  -3 63270.3 2954.98   7
  -1   5   3 62244.8 2946.17   6
   1   5  -3 65533.5 2907.95   5
   1   5  -3 59486.8 2501.57   2
  -1   5   2 65678.0 3008.84   6
   1   5  -2 65633.8 2959.73   7
   1   5  -2 72763.6 2859.62   2
   1   5  -1 75439.7 3121.40   7
  -1   5   1 74672.4 2932.08   7
   1   5  -1 68948.8 3033.92   2
  -1   5   1 76361.7 3188.12   6
  -1   5   0 100182. 3937.88   6
   1   5   0 97398.4 3954.50   2
  -1   5   0 100201. 3719.97   7
  -1   5   0 107971. 4079.04   5
   1   5   0 104135. 3987.44   7
   1   5   1 66536.9 3020.44   2
   1   5   1 68146.8 2990.63   6
  -1   5  -1 67712.4 2721.29   7
  -1   5  -1 69336.1 3046.31   5
   1   5   1 68613.6 2968.65   7
   1   5   2 53122.0 2642.47   2
   1   5   2 50171.7 2495.75   7
   1   5   2 53259.4 2574.97   6
  -1   5  -2 56146.2 2642.94   5
  -1   5  -2 52547.4 2389.98   7
   1   5   3 46089.7 2497.12   2
  -1   5  -3 44111.7 2384.85   7
  -1   5  -3 51008.3 2523.68   5
   1   5   3 45916.8 2408.94   6
   1   5   4 34824.5 2071.50   4
   1   5   4 39277.8 2234.79   6
   1   5   4 38008.5 2294.04   2
  -1   5  -4 33436.9 2322.89   7
  -1   5  -4 40114.2 2262.36   5
  -1   5  -5 15280.7 1745.10   7
   1   5   5 21743.6 1716.22   2
  -1   5  -5 18404.2 1555.19   5
   1   5   5 20159.3 1550.35   4
   1   5   5 20754.2 1624.61   6
   1   5   6 14154.1 1436.82   6
   1   5   6 14143.9 1476.27   2
   1   5   6 13479.4 1333.39   4
   1   5   7 14014.8 1573.07   2
   1   5   7 8717.65 1142.74   4
   1   5   7 9747.49 1222.45   6
   1   5   8 2737.77 737.602   6
   1   5   8 4060.62 866.568   4
   1   5   8 4848.85 961.816   2
   1   5   9 2151.16 692.275   4
  -1   6   9 840.704 601.938   6
   1   6  -8 1639.79 1005.26   7
  -1   6   8 2237.76 739.734   6
  -1   6   7 1916.15 713.090   6
  -1   6   7 1691.49 522.843   4
   1   6  -7 1940.57 837.133   7
   1   6  -7 2145.54 617.639   5
   1   6  -6 7032.46 970.215   5
   1   6  -6 5770.97 1195.75   7
  -1   6   6 3749.44 833.233   6
   1   6  -5 5157.94 969.573   7
   1   6  -5 7367.55 974.219   5
  -1   6   5 5764.68 910.925   6
   1   6  -4 12993.5 1244.03   5
  -1   6   4 12181.8 1278.41   6
   1   6  -4 11244.3 1271.75   7
   1   6  -3 9093.54 846.362   2
  -1   6   3 9782.76 1111.12   6
   1   6  -3 7283.56 908.423   5
   1   6  -3 6632.39 896.744   7
  -1   6   2 21803.4 1570.33   6
  -1   6   2 21101.4 1366.57   7
   1   6  -2 18831.6 1357.75   2
   1   6  -2 19692.5 1458.59   7
   1   6  -1 17165.1 1313.58   2
   1   6  -1 15467.9 1244.94   7
  -1   6   1 17488.4 1370.31   6
  -1   6   1 16419.4 1175.00   7
   1   6   0 16327.1 1336.60   2
   1   6   0 17889.0 1351.91   7
  -1   6   0 19052.3 1430.49   5
  -1   6   0 17042.3 1180.35   7
   1   6   1 20322.3 1467.41   7
   1   6   1 18972.5 1479.41   2
  -1   6  -1 22408.4 1584.01   5
  -1   6  -1 17760.0 1233.44   7
  -1   6  -2 22719.3 1462.38   7
   1   6   2 21079.1 1577.32   6
   1   6   2 20918.8 1535.28   7
  -1   6  -2 23650.1 1691.60   5
   1   6   2 21050.3 1641.48   2
  -1   6  -3 12889.0 1210.41   7
   1   6   3 14819.8 1378.36   2
  -1   6  -3 11395.8 1199.88   5
   1   6   3 13771.3 1287.31   6
  -1   6  -4 10066.3 1224.28   7
  -1   6  -4 9996.50 1176.74   5
   1   6   4 10392.8 1209.66   2
   1   6   4 10742.8 1187.99   6
  -1   6  -5 12028.9 1317.61   5
   1   6   5 11232.1 1257.17   6
   1   6   5 11801.2 1347.10   2
  -1   6  -5 10079.1 1431.80   7
   1   6   5 12285.5 1251.61   4
  -1   6  -6 5126.53 914.567   5
   1   6   6 4130.16 895.234   2
   1   6   6 4913.75 852.624   4
  -1   6  -6 4159.03 1080.76   7
   1   6   6 4428.67 884.922   6
   1   6   7 3380.36 828.196   2
  -1   6  -7 4211.63 912.680   5
   1   6   7 4547.58 912.135   6
   1   6   7 3049.05 741.537   4
   1   6   8 2335.81 739.878   6
   1   6   8 1911.72 597.497   4
   1   6   9 616.160 509.400   4
  -1   7   8 4402.66 999.723   6
   1   7  -8 1831.74 1124.60   7
   1   7  -7 8455.25 1695.49   7
  -1   7   7 8923.46 1315.58   6
   1   7  -7 8105.27 1171.75   5
   1   7  -6 9335.35 1504.96   7
   1   7  -6 9075.97 1200.96   5
  -1   7   6 9679.54 1334.44   6
  -1   7   5 18917.2 1756.02   6
   1   7  -5 15431.5 1721.87   7
   1   7  -5 13894.6 1454.99   5
  -1   7   4 21637.3 1805.18   6
   1   7  -4 17463.9 1667.58   7
   1   7  -4 21991.5 1768.39   5
   1   7  -3 30507.0 2088.16   5
  -1   7   3 29390.8 2077.86   6
   1   7  -3 27826.7 1741.89   2
  -1   7   3 24845.9 1762.03   7
   1   7  -3 30568.5 2066.55   7
   1   7  -2 30370.5 1993.35   7
  -1   7   2 31762.0 1909.71   7
  -1   7   2 32065.2 2123.19   6
   1   7  -2 31501.3 2114.30   5
   1   7  -2 29863.2 1910.10   2
   1   7  -1 32343.0 2065.96   2
  -1   7   1 35549.9 2198.01   6
  -1   7   1 33250.0 1932.71   7
   1   7  -1 35074.4 2100.77   7
   1   7   0 52519.6 2788.60   2
  -1   7   0 46701.6 2386.61   7
  -1   7   0 54273.7 2830.81   5
   1   7   0 46451.5 2584.97   7
  -1   7  -1 33841.5 1919.08   7
  -1   7  -1 36751.8 2291.25   5
   1   7   1 31929.5 2175.15   2
   1   7   1 35655.6 2170.83   7
   1   7   2 31526.1 2077.85   7
   1   7   2 32151.0 2200.73   2
  -1   7  -2 36736.0 2309.54   5
  -1   7  -2 29470.5 1891.31   7
   1   7   3 26935.7 1962.22   7
   1   7   3 30615.7 2119.52   6
  -1   7  -3 23945.6 1802.44   7
   1   7   3 27527.0 2079.51   2
  -1   7  -3 28418.0 2065.25   5
   1   7   4 24372.8 1981.15   6
   1   7   4 23884.4 1976.13   2
  -1   7  -4 26713.8 2058.48   5
  -1   7  -4 20494.8 1890.43   7
   1   7   5 12219.0 1462.76   6
  -1   7  -5 12458.0 1467.32   5
   1   7   5 14012.2 1552.50   2
  -1   7  -5 12477.9 1659.06   7
   1   7   6 10078.7 1380.11   2
   1   7   6 9658.14 1314.93   6
  -1   7  -6 10770.3 1382.69   5
  -1   7  -6 6490.48 1415.13   7
   1   7   7 6415.67 1172.29   2
   1   7   7 6376.38 1122.82   6
  -1   7  -7 5879.54 1131.01   5
   1   7   8 3141.64 854.171   6
   1   7   8 3031.15 794.061   4
   1   8  -7 2669.17 980.174   7
  -1   8   7 1943.89 763.626   6
   1   8  -7 1808.90 627.815   5
   1   8  -6 6767.76 1105.87   5
  -1   8   6 4902.58 1094.39   6
   1   8  -6 4374.08 1113.84   7
   1   8  -5 7550.79 1144.18   5
  -1   8   5 6934.34 1046.58   7
  -1   8   5 7644.18 1230.52   6
   1   8  -5 6082.73 1176.31   7
  -1   8   4 10833.7 1365.22   6
   1   8  -4 9263.36 1230.24   5
   1   8  -4 8049.02 1187.77   7
  -1   8   4 7090.56 1021.76   7
  -1   8   3 8731.69 1065.47   7
   1   8  -3 9611.07 1199.47   7
  -1   8   3 11684.5 1388.00   6
   1   8  -3 11260.4 1323.31   5
  -1   8   2 13680.0 1430.25   6
   1   8  -2 13555.2 1433.48   5
   1   8  -2 12233.1 1252.20   2
  -1   8   2 10266.7 1108.34   7
   1   8  -2 12202.0 1282.38   7
  -1   8   1 12251.1 1179.05   7
   1   8  -1 11877.2 1268.31   2
   1   8  -1 12339.2 1265.29   7
  -1   8   1 13213.2 1372.07   5
   1   8   0 8838.39 1068.84   7
  -1   8   0 7304.50 1059.27   5
   1   8   0 8286.55 1094.82   2
  -1   8   0 8768.19 972.948   7
   1   8   1 10846.7 1284.84   2
  -1   8  -1 12287.6 1141.10   7
   1   8   1 10917.1 1231.47   7
  -1   8  -1 10481.6 1272.05   5
   1   8   2 10043.7 1177.59   7
  -1   8  -2 9382.27 1236.45   5
   1   8   2 10026.5 1269.21   2
  -1   8  -2 8002.42 985.173   7
   1   8   3 5072.02 896.663   7
  -1   8  -3 6839.60 1075.86   5
   1   8   3 5934.80 1034.05   2
  -1   8  -3 3184.64 689.001   7
   1   8   4 4161.88 957.095   2
  -1   8  -4 4072.77 896.658   5
   1   8   4 4140.62 895.096   6
   1   8   4 3899.69 837.731   7
   1   8   5 4712.77 955.726   6
   1   8   5 3800.47 881.420   7
   1   8   5 2126.06 740.196   2
  -1   8  -5 3637.92 863.568   5
   1   8   6 1551.89 642.050   6
  -1   8  -6 1981.78 696.122   5
   1   8   6 2813.50 880.459   2
   1   8   7 1336.67 662.075   6
  -1   8  -7 858.489 501.843   5
  -1   9   6 5127.67 1022.67   7
   1   9  -6 7487.36 1262.77   5
  -1   9   6 7079.81 1273.00   6
   1   9  -6 6370.70 1390.02   7
   1   9  -5 11743.7 1635.72   7
   1   9  -5 11792.3 1519.32   5
  -1   9   5 8502.48 1221.80   7
  -1   9   5 12687.8 1654.08   6
  -1   9   4 17830.7 1871.02   6
  -1   9   4 14665.0 1530.44   7
   1   9  -4 13361.8 1633.28   7
   1   9  -4 15486.3 1714.46   5
  -1   9   3 19930.0 1936.40   6
   1   9  -3 17955.2 1788.97   7
   1   9  -3 20557.1 1943.79   5
  -1   9   3 19833.1 1707.60   7
   1   9  -2 26679.8 2200.67   5
  -1   9   2 21569.7 1764.85   7
  -1   9   2 24092.4 2015.64   5
   1   9  -2 23007.4 1931.17   7
  -1   9   1 22696.6 1951.51   5
   1   9  -1 20473.5 1825.34   2
   1   9  -1 22534.1 1980.57   5
   1   9  -1 19156.7 1729.71   7
   1   9   0 28211.7 2109.35   7
   1   9   0 31345.4 2314.66   2
  -1   9   0 27101.8 2225.70   5
   1   9   1 23542.5 2025.22   2
  -1   9  -1 20202.6 1920.09   5
   1   9   1 19866.2 1769.23   7
   1   9   2 17634.2 1709.26   7
   1   9   2 19450.5 1888.46   2
  -1   9  -2 21794.7 2005.78   5
   1   9   3 14608.0 1602.80   7
   1   9   3 18506.3 1885.79   2
  -1   9  -3 16047.8 1768.33   5
   1   9   4 9295.08 1326.88   7
  -1   9  -4 12224.7 1577.99   5
   1   9   4 10899.6 1491.80   2
   1   9   5 5778.21 1140.34   6
  -1   9  -5 7786.75 1313.07   5
   1   9   5 7108.23 1231.72   7
   1   9   6 5625.04 1161.77   7
   1   9   6 3848.94 999.131   6
  -1  10   4 1726.05 749.884   6
   1  10  -4 3559.74 897.970   5
   1  10  -4 1183.06 619.260   7
   1  10  -3 4219.55 1023.53   5
  -1  10   3 2452.67 736.591   5
   1  10  -3 3548.04 888.597   7
   1  10  -2 6179.89 1050.97   7
  -1  10   2 5338.43 1019.79   5
   1  10  -2 5990.07 1119.25   5
   1  10  -1 6548.67 1175.54   5
  -1  10   1 6702.93 1127.01   5
   1  10  -1 6112.16 1043.56   7
  -1  10   0 7188.57 1193.28   5
   1  10   0 5262.44 949.513   7
   1  10   1 7526.87 1133.68   7
  -1  10  -1 7287.33 1219.91   5
   1  10   1 6264.52 1143.35   2
   1  10   2 9887.52 1432.72   2
   1  10   2 8090.05 1241.14   7
  -1  10  -2 8508.90 1347.42   5
   1  10   3 4202.93 949.546   7
  -1  10  -3 6792.05 1266.55   5
   1  10   4 4286.67 974.368   7
   1  11   2 10028.2 1401.35   7
  -2 -10  -3 7048.45 1212.38   1
   2  -9  -5 5007.79 1073.37   1
   2  -9  -4 8917.91 1371.07   1
  -2  -9  -4 4380.87 931.576   1
   2  -8  -6 12239.3 1634.31   1
   2  -8  -5 19038.4 1903.95   1
   2  -8  -4 25769.8 2171.67   1
  -2  -8  -4 19327.5 1785.90   1
  -2  -8  -5 9078.93 1280.62   1
   2  -7  -6 6370.04 1143.23   1
   2  -7  -5 7691.56 1146.03   1
   2  -7  -4 8917.26 1201.51   1
  -2  -7  -4 5924.54 929.585   1
  -2  -7  -5 7704.10 1084.33   1
   2  -7   6 1769.39 825.123   4
   2  -7   7 1709.06 800.760   4
  -2  -6   9 4322.36 1089.56   4
   2  -6  -6 12695.2 1476.17   1
   2  -6  -5 20382.4 1760.00   1
   2  -6  -4 26287.8 1931.00   1
  -2  -6  -3 31434.8 1946.25   1
  -2  -6  -4 24738.0 1769.39   1
  -2  -6  -5 12075.0 1283.16   1
   2  -6   6 10782.9 1453.66   4
   2  -6   7 3964.33 999.503   4
   2  -6   8 2272.11 903.420   4
  -2  -5   9 1368.84 739.969   4
   2  -5  -6 5765.49 960.012   1
   2  -5  -5 8903.53 1074.78   1
   2  -5  -4 9053.86 1040.13   1
   2  -5  -3 15762.5 1307.95   1
  -2  -5  -3 13534.4 1115.39   1
  -2  -5  -4 11020.7 1058.42   1
  -2  -5  -5 13201.2 1242.21   1
   2  -5   5 12649.6 1404.92   4
   2  -5   6 5646.47 1050.14   4
   2  -5   7 4026.34 1022.72   4
   2  -5   8 2583.98 802.554   4
  -2  -4  10 3854.24 981.253   4
  -2  -4   9 4904.84 1048.69   4
  -2  -4   8 8556.53 1250.04   4
   2  -4  -5 29399.1 1932.50   1
   2  -4  -4 48669.5 2478.57   1
   2  -4  -3 58894.2 2713.37   1
  -2  -4  -3 51170.6 2306.28   1
  -2  -4  -4 30328.7 1745.07   1
   2  -4   5 18767.6 1648.22   4
   2  -4   6 14221.0 1533.38   4
   2  -4   7 9319.21 1323.48   4
   2  -4   8 5414.26 1078.07   4
   2  -4   9 2867.17 908.328   4
  -2  -3  10 551.312 581.444   6
  -2  -3  10 2633.79 788.376   4
  -2  -3   9 1458.88 610.415   4
  -2  -3   8 5650.60 986.429   4
  -2  -3   4 10534.9 536.021   3
   2  -3  -4 15688.3 1158.75   1
   2  -3  -3 21548.7 1332.22   1
   2  -3   1 15669.6 757.457   7
  -2  -3  -2 23505.6 1182.43   1
  -2  -3  -3 8411.69 710.434   1
   2  -3   4 8505.70 966.220   4
   2  -3   5 10881.8 1198.96   4
   2  -3   6 2518.45 678.865   4
   2  -3   7 4778.30 906.870   4
   2  -3   8 1882.27 762.891   4
   2  -3   9 231.910 600.257   4
  -2  -2  11 1732.76 673.732   4
  -2  -2  10 3346.47 805.183   4
  -2  -2  10 3594.32 870.846   6
  -2  -2   9 5570.30 955.018   4
  -2  -2   9 3937.38 897.371   6
  -2  -2   8 9715.88 1172.47   4
  -2  -2   7 23584.0 1730.12   4
   2  -2  -3 118660. 4265.71   1
   2  -2  -2 107272. 3637.52   1
   2  -2  -2 99543.4 3130.90   4
   2  -2   1 130111. 4049.62   7
   2  -2   2 98482.7 3586.49   4
  -2  -2  -2 93317.6 3185.99   1
   2  -2   3 86877.6 3505.48   4
   2  -2   4 58200.7 2777.21   4
   2  -2   5 24628.9 1752.54   4
   2  -2   6 18756.9 1210.75   6
   2  -2   6 21133.9 1735.56   4
   2  -2   7 11297.4 1326.08   4
   2  -2   8 6904.22 1132.51   4
   2  -2   9 2599.63 807.567   4
  -2  -1  11 920.881 538.629   4
  -2  -1  11 1946.31 693.268   6
  -2  -1  10 67.9289 528.083   6
  -2  -1  10 984.496 522.858   4
  -2  -1   9 1326.18 583.045   6
  -2  -1   9 2931.44 705.678   4
  -2  -1   8 3155.87 696.496   4
  -2  -1   8 3379.48 780.238   6
  -2  -1   7 3695.45 646.316   4
  -2  -1   6 9045.67 912.234   4
  -2  -1   3 17500.9 731.564   3
   2  -1  -2 34891.9 1519.57   1
   2  -1  -1 31554.2 1277.18   1
   2  -1  -1 31192.0 1197.98   5
   2  -1  -1 31688.3 1253.72   7
   2  -1   0 25984.4 1008.00   4
   2  -1   0 24074.3 985.078   6
  -2  -1  -1 29424.3 1004.78   1
   2  -1   1 29554.9 1011.88   6
   2  -1   1 31619.2 1355.40   4
  -2  -1  -1 29344.3 1112.21   6
   2  -1   2 39959.7 1759.88   4
  -2  -1  -2 34953.6 1338.63   6
   2  -1   3 15280.6 1109.22   4
   2  -1   4 12361.0 1067.08   4
   2  -1   4 12000.8 731.256   6
   2  -1   5 13640.2 883.933   6
   2  -1   5 14278.1 1298.82   4
   2  -1   6 4831.91 563.031   6
   2  -1   6 5549.90 870.064   4
   2  -1   7 6549.24 997.223   4
   2  -1   8 2758.29 749.754   4
   2  -1   9 1243.43 645.108   4
  -2   0  11 1253.34 609.304   6
  -2   0  10 3849.83 820.169   4
  -2   0  10 2513.39 839.952   6
  -2   0   9 4640.47 786.339   4
  -2   0   9 2782.19 730.976   6
  -2   0   8 7120.10 1016.31   6
  -2   0   8 7386.70 909.549   4
  -2   0   7 13799.1 1191.72   4
  -2   0   7 13597.4 1279.31   6
  -2   0   6 18786.4 1292.72   4
  -2   0   6 21313.0 1503.01   6
  -2   0   5 23651.6 1470.17   6
  -2   0   5 25383.4 1335.20   4
  -2   0   5 17863.3 834.870   5
  -2   0   4 47017.3 1905.18   4
   2   0  -4 39330.0 2474.98   7
   2   0  -3 50174.6 2479.31   7
  -2   0   3 52453.9 1874.26   3
   2   0  -2 36215.1 1597.00   7
  -2   0   2 34440.9 1357.00   3
  -2   0   1 49588.1 1767.70   7
  -2   0   1 50346.4 1834.33   3
  -2   0   1 52385.6 1656.34   4
  -2   0   1 45662.2 1718.31   1
   2   0  -1 50618.9 1775.58   7
   2   0   0 75388.6 2381.98   7
   2   0   0 74585.4 2386.74   4
  -2   0   0 72184.0 2392.53   4
   2   0   0 69578.7 2195.21   1
   2   0   1 48194.8 1863.62   4
   2   0   2 26002.5 1278.65   4
   2   0   2 22121.1 788.434   6
   2   0   3 48669.1 1748.81   6
   2   0   3 51495.4 2261.07   4
   2   0   4 27718.7 1651.30   4
   2   0   4 27353.3 1244.18   6
   2   0   5 16126.9 995.781   6
   2   0   5 17507.6 1360.16   4
   2   0   6 12634.2 957.094   6
   2   0   6 15409.1 1377.60   4
   2   0   7 12109.6 1325.22   4
   2   0   8 6040.76 1051.18   4
   2   0   9 5291.64 1040.48   4
  -2   1  11 480.490 482.053   6
  -2   1  10 662.150 487.344   6
  -2   1   9 2125.73 589.360   4
  -2   1   9 1307.84 589.354   6
  -2   1   8 3863.13 683.830   4
  -2   1   8 3697.12 756.473   6
  -2   1   7 3437.11 582.098   4
  -2   1   7 3109.05 657.959   6
  -2   1   6 8373.58 794.161   4
  -2   1   6 9080.30 988.425   6
  -2   1   5 13077.7 1063.26   6
   2   1  -5 10214.1 1313.22   7
  -2   1   5 11592.7 820.680   4
  -2   1   5 8338.78 495.967   5
   2   1  -4 12147.5 1184.99   7
  -2   1   4 12037.7 949.004   6
  -2   1   4 7885.91 415.883   5
   2   1  -4 10680.0 565.340   5
  -2   1   4 10784.5 687.636   4
  -2   1   3 17975.9 809.381   4
  -2   1   3 16997.4 1089.94   6
   2   1  -3 17124.8 745.771   5
  -2   1   3 17591.7 959.724   3
   2   1  -3 18497.3 1235.51   7
  -2   1   2 32592.2 1090.34   4
  -2   1   2 35728.7 1463.84   3
  -2   1   2 35626.4 1542.87   6
   2   1  -2 36693.9 1563.22   7
  -2   1   2 32736.3 1142.60   5
   2   1  -1 33201.8 1384.46   7
  -2   1   1 31774.0 1385.33   3
  -2   1   1 33867.5 1257.86   5
  -2   1   1 31753.3 1160.68   7
  -2   1   1 34240.0 1360.42   6
   2   1   0 24911.5 1133.38   7
   2   1   0 25725.4 1130.41   4
  -2   1   0 24844.1 1164.55   3
  -2   1   0 25281.3 985.690   6
  -2   1   0 26402.8 1154.56   5
  -2   1  -1 29774.7 1347.16   3
   2   1   1 29864.7 1346.27   4
   2   1   2 33979.1 1350.81   1
   2   1   2 39033.3 1393.06   6
  -2   1  -2 39122.4 1650.40   3
   2   1   2 39144.4 1726.22   4
   2   1   3 16830.3 1125.20   4
  -2   1  -3 16039.4 978.633   3
   2   1   3 15282.0 816.950   6
   2   1   4 10792.5 978.291   4
   2   1   4 12119.4 775.193   6
  -2   1  -4 10051.2 795.070   3
   2   1   5 16722.0 1335.54   4
  -2   1  -5 15949.4 1078.01   3
   2   1   5 14683.1 991.448   6
   2   1   6 5291.36 670.671   2
   2   1   6 3200.85 687.899   4
   2   1   6 3973.90 558.482   6
  -2   1  -6 3975.84 533.525   3
   2   1   7 6919.39 1001.81   4
   2   1   8 2469.22 721.770   4
   2   1   9 1855.72 672.426   4
  -2   2  11 1797.65 656.320   6
  -2   2  10 2068.74 710.977   6
  -2   2   9 3990.75 736.312   4
  -2   2   9 5676.63 987.055   6
  -2   2   8 10300.8 1195.93   6
  -2   2   8 8119.21 931.189   4
  -2   2   7 17907.7 1293.04   4
  -2   2   7 17977.1 1516.03   6
  -2   2   6 24164.6 1684.28   6
   2   2  -6 23261.7 2195.62   7
  -2   2   6 20962.6 1313.76   4
   2   2  -5 37874.1 2579.63   7
  -2   2   5 41626.6 1857.61   4
  -2   2   5 43481.5 2243.53   6
   2   2  -5 43147.5 1810.38   5
   2   2  -4 68037.9 2464.58   5
  -2   2   4 66146.2 2877.79   6
  -2   2   4 65581.5 2441.02   4
   2   2  -4 68421.9 3173.77   7
  -2   2   3 113971. 3661.09   4
  -2   2   3 110327. 4150.47   6
   2   2  -3 115328. 4264.67   7
   2   2  -3 116151. 3821.07   5
   2   2  -2 109808. 3900.67   7
  -2   2   2 109374. 3579.01   5
  -2   2   2 108763. 3876.35   3
  -2   2   2 111312. 3883.08   6
   2   2  -1 159664. 5334.08   7
  -2   2   1 163540. 5352.73   3
  -2   2   1 161909. 5168.18   5
  -2   2   1 162372. 5244.13   6
  -2   2   0 201232. 6477.68   5
   2   2   0 207111. 6548.97   7
  -2   2   0 202308. 6317.22   6
  -2   2   0 203341. 6523.04   3
   2   2   1 133477. 4522.16   4
  -2   2  -1 131478. 4489.38   3
  -2   2  -1 133983. 4573.68   5
  -2   2  -2 90796.0 3541.00   5
   2   2   2 96356.5 3261.39   6
  -2   2  -2 92250.6 3368.62   3
   2   2   2 95213.0 3509.72   4
  -2   2  -3 86709.1 3137.21   3
   2   2   3 84015.7 3070.00   6
   2   2   3 81724.5 3342.74   4
  -2   2  -4 55032.5 2297.65   3
   2   2   4 54962.4 2615.47   4
   2   2   4 56528.6 2332.91   6
   2   2   5 24326.0 1641.23   4
  -2   2  -5 21037.0 1248.43   3
   2   2   5 23644.6 1379.38   6
   2   2   6 19038.1 1565.94   4
   2   2   6 19463.7 1335.37   6
   2   2   6 21130.9 1490.49   2
   2   2   7 11206.1 1125.92   2
   2   2   7 10039.9 1222.84   4
   2   2   8 5142.93 984.796   4
   2   2   9 4188.19 908.808   4
  -2   3  10 687.388 518.170   6
  -2   3   9 2485.06 708.543   6
  -2   3   8 4070.01 687.705   4
  -2   3   8 4848.29 889.449   6
  -2   3   7 5080.52 842.843   6
  -2   3   7 5221.13 685.079   4
   2   3  -7 3191.26 1011.64   7
   2   3  -6 12826.8 1609.22   7
  -2   3   6 11106.9 1188.62   6
  -2   3   6 13370.0 1001.52   4
   2   3  -6 11094.0 915.549   5
  -2   3   5 15492.9 1292.47   6
   2   3  -5 15432.8 1516.44   7
   2   3  -5 17124.4 1076.18   5
  -2   3   5 16106.3 1030.43   4
  -2   3   4 16428.5 1226.84   6
   2   3  -4 14659.1 971.271   5
   2   3  -4 15807.8 1309.45   7
  -2   3   4 15354.2 901.577   4
   2   3  -3 20006.6 1323.25   7
  -2   3   3 19134.0 1272.90   6
   2   3  -2 35998.6 1733.26   7
  -2   3   2 31366.4 1635.75   6
  -2   3   2 33068.0 1508.00   5
   2   3  -1 23906.6 1341.37   7
  -2   3   1 24079.9 1274.28   6
  -2   3   1 24455.1 1371.38   3
  -2   3   1 23912.0 1244.91   5
   2   3   0 18882.0 1163.99   7
  -2   3   0 18799.0 759.986   7
  -2   3   0 18348.9 1030.34   6
  -2   3   0 19353.7 1119.98   5
  -2   3   0 16734.5 1107.01   3
  -2   3  -1 18413.5 1150.81   5
   2   3   1 16236.5 1088.18   7
  -2   3  -1 18295.0 1117.03   3
   2   3   1 17560.9 1121.94   4
  -2   3  -1 17643.2 904.338   7
   2   3   2 22001.7 1353.43   4
   2   3   2 24110.0 1288.74   6
  -2   3  -2 19048.6 1305.15   7
  -2   3  -2 24844.1 1445.86   5
  -2   3  -2 25657.3 1344.82   3
   2   3   3 9497.47 917.305   4
   2   3   3 10673.3 833.251   6
  -2   3  -3 9859.35 942.525   5
  -2   3  -3 10391.5 825.787   3
  -2   3  -4 6444.68 654.315   3
   2   3   4 7437.04 758.293   6
   2   3   4 7273.86 829.010   4
  -2   3  -4 7150.83 871.804   5
   2   3   5 10645.5 964.126   6
  -2   3  -5 10249.7 844.799   3
   2   3   5 10499.0 1091.90   4
   2   3   6 2983.39 689.426   4
   2   3   6 2912.85 580.754   6
   2   3   6 2860.99 629.787   2
   2   3   7 3466.45 759.031   4
   2   3   7 3679.28 704.516   2
   2   3   8 991.141 558.047   4
   2   3   9 1000.86 543.062   4
  -2   4  10 1984.54 702.996   6
  -2   4   9 2431.34 735.539   6
  -2   4   8 8037.12 1144.78   6
   2   4  -8 4931.34 1390.15   7
  -2   4   7 12362.1 1368.91   6
   2   4  -7 9368.47 1603.80   7
   2   4  -7 12920.0 1122.84   5
  -2   4   7 13228.1 1126.20   4
  -2   4   6 17850.4 1522.21   6
  -2   4   6 16046.4 1162.48   4
   2   4  -6 16955.4 1873.84   7
   2   4  -6 17682.6 1260.63   5
  -2   4   5 25668.6 1779.92   6
   2   4  -5 27038.0 1570.90   5
   2   4  -5 26822.2 2039.11   7
  -2   4   5 26067.5 1442.14   4
  -2   4   4 42593.9 2327.62   6
   2   4  -4 44236.7 2142.74   5
   2   4  -4 48840.6 2564.23   7
   2   4  -3 56596.8 2685.29   7
  -2   4   3 56876.2 2639.78   6
  -2   4   2 53271.6 2440.25   6
   2   4  -2 54106.3 2475.82   7
  -2   4   1 72530.8 2889.07   5
  -2   4   1 68299.1 2518.70   7
  -2   4   1 71896.6 2902.02   6
   2   4  -1 69968.8 2956.48   7
   2   4   0 79190.9 3299.50   7
  -2   4   0 80898.3 3173.17   6
  -2   4   0 84061.5 2808.58   7
  -2   4   0 82805.9 3276.82   5
  -2   4   0 80664.7 3322.20   3
   2   4   1 63683.4 2803.57   7
  -2   4  -1 62933.5 2388.83   7
  -2   4  -1 70283.4 2842.55   3
  -2   4  -1 65121.3 2813.11   5
  -2   4  -2 40642.2 2032.36   3
   2   4   2 44940.1 2165.08   4
  -2   4  -2 42952.2 2181.16   5
  -2   4  -2 40238.7 1991.43   7
   2   4   2 40693.8 2031.12   6
   2   4   3 47666.2 2353.34   4
   2   4   3 47051.3 2273.80   6
  -2   4  -3 42188.4 2445.03   7
  -2   4  -3 45611.6 2385.72   5
  -2   4  -3 47146.5 2208.86   3
   2   4   4 30103.0 1870.81   4
   2   4   4 31514.3 1789.47   6
  -2   4  -4 27201.2 1911.77   5
  -2   4  -4 28405.3 1618.89   3
   2   4   5 18041.7 1511.77   2
   2   4   5 15667.1 1303.30   6
   2   4   5 20377.7 1558.91   4
  -2   4  -5 16419.5 1162.12   3
  -2   4  -5 16527.4 1462.27   5
   2   4   6 14932.5 1429.69   4
   2   4   6 13325.3 1357.97   2
   2   4   6 13646.0 1256.63   6
   2   4   7 8886.23 1192.94   4
   2   4   7 6934.06 944.013   6
   2   4   7 6948.57 1045.34   2
   2   4   8 3148.93 778.882   4
   2   4   8 4876.44 900.394   2
   2   4   9 1594.49 646.551   4
  -2   5   9 641.864 443.431   6
   2   5  -8 2731.34 1148.39   7
  -2   5   8 2202.44 728.715   6
  -2   5   7 1351.61 557.246   6
   2   5  -7 2583.15 579.372   5
   2   5  -7 611.550 755.368   7
   2   5  -6 5803.27 1144.29   7
  -2   5   6 5154.03 900.930   6
   2   5  -6 6391.53 809.354   5
  -2   5   6 5400.19 690.182   4
   2   5  -5 8626.96 919.800   5
  -2   5   5 7791.62 999.860   6
   2   5  -5 9216.74 1221.91   7
   2   5  -4 8188.87 691.614   2
   2   5  -4 9612.18 1085.67   7
  -2   5   4 8685.97 1011.82   6
   2   5  -4 8487.25 900.639   5
   2   5  -3 12136.2 1143.57   7
  -2   5   3 13373.3 1194.57   6
   2   5  -2 21509.9 1473.28   7
  -2   5   2 21277.3 1465.09   6
  -2   5   1 22982.6 1469.00   6
   2   5  -1 21960.6 1484.14   7
  -2   5   1 22971.1 1465.15   5
  -2   5   1 22844.6 1222.69   7
  -2   5   0 23727.6 1439.22   6
  -2   5   0 19603.8 1085.99   7
  -2   5   0 22215.6 1469.59   5
   2   5   0 21731.5 1463.71   7
   2   5   1 20534.5 1434.16   7
  -2   5  -1 20099.6 1128.97   7
  -2   5  -1 20978.0 1459.19   5
   2   5   2 28182.5 1763.25   7
  -2   5  -2 25795.8 1510.68   7
   2   5   2 28177.3 1690.42   6
  -2   5  -2 24928.8 1698.79   5
  -2   5  -3 13664.9 1272.91   5
  -2   5  -3 12113.4 1211.78   7
   2   5   3 17010.4 1305.07   6
   2   5   3 13233.5 1210.81   4
   2   5   4 12262.6 1231.03   2
  -2   5  -4 8127.67 1145.24   7
   2   5   4 9524.90 1081.36   4
   2   5   4 11488.8 1127.36   6
  -2   5  -4 11740.1 1216.53   5
   2   5   5 13382.2 1364.70   2
   2   5   5 14769.5 1329.70   6
   2   5   5 11885.4 1235.99   4
  -2   5  -5 11667.5 1304.49   5
   2   5   6 5435.83 949.530   2
   2   5   6 4708.42 863.482   4
   2   5   6 4748.77 806.955   6
   2   5   7 4362.03 891.731   4
   2   5   7 4705.69 851.996   6
   2   5   7 3926.58 853.172   2
   2   5   8 4156.20 931.646   4
   2   5   8 2471.66 723.050   2
   2   5   9 209.066 520.720   4
  -2   6   9 2244.40 897.061   6
   2   6  -8 4587.21 1338.24   7
  -2   6   8 2764.46 848.799   6
   2   6  -7 10800.4 1857.75   7
  -2   6   7 8050.50 1274.88   6
   2   6  -7 8797.94 1087.46   5
   2   6  -6 10459.8 1514.32   7
  -2   6   6 12383.6 1416.07   6
   2   6  -6 10964.7 1170.82   5
  -2   6   5 20262.4 1730.55   6
   2   6  -5 22478.3 1648.81   5
   2   6  -5 18383.2 1801.70   7
  -2   6   4 25330.2 1888.70   6
   2   6  -4 25258.6 1965.85   7
   2   6  -4 28781.4 1890.37   5
  -2   6   3 34351.7 2150.20   6
   2   6  -3 33702.7 1860.40   2
   2   6  -3 34495.2 2170.43   7
  -2   6   2 31563.8 1704.29   7
   2   6  -2 30389.5 1825.93   2
  -2   6   2 35172.1 2071.47   6
  -2   6   2 31848.9 1919.56   5
   2   6  -2 34516.7 2047.65   7
  -2   6   1 44364.0 2348.80   6
   2   6  -1 39873.3 2279.22   7
  -2   6   1 41552.9 2292.66   5
  -2   6   1 42704.6 1997.58   7
  -2   6   0 48472.6 2514.01   6
  -2   6   0 50042.8 2174.84   7
   2   6   0 49295.1 2611.60   7
  -2   6   0 51020.6 2650.46   5
   2   6   1 34903.5 2156.95   2
   2   6   1 40109.9 2248.30   7
  -2   6  -1 34828.6 1767.95   7
  -2   6  -1 36792.7 2193.71   5
   2   6   2 29664.3 1967.48   7
  -2   6  -2 27947.5 1675.39   7
  -2   6  -2 31209.1 2017.14   5
   2   6   2 30580.5 2009.25   2
   2   6   3 28648.6 2017.37   2
  -2   6  -3 23820.2 1793.09   7
   2   6   3 30953.4 1975.49   6
   2   6   3 26422.0 1919.94   7
  -2   6  -3 28118.5 1993.62   5
   2   6   4 25492.7 1934.50   2
   2   6   4 24904.1 1832.63   6
  -2   6  -4 22473.1 1845.10   5
  -2   6  -4 18291.4 1789.55   7
   2   6   5 12273.1 1339.10   4
   2   6   5 12994.7 1442.49   2
  -2   6  -5 13227.7 1451.67   5
   2   6   5 13387.4 1390.33   6
   2   6   6 11647.0 1332.49   6
   2   6   6 9645.30 1307.52   2
  -2   6  -6 10726.2 1385.33   5
   2   6   6 9084.22 1205.67   4
   2   6   7 5861.40 1028.56   4
   2   6   7 6851.90 1097.53   6
   2   6   7 5990.41 1123.31   2
   2   6   8 3010.14 807.891   4
   2   6   8 2673.91 845.382   2
   2   7  -8 1880.84 1023.02   7
  -2   7   8 1595.41 706.385   6
  -2   7   7 2268.67 770.899   6
   2   7  -7 2888.23 986.794   7
  -2   7   6 6427.84 1129.69   6
   2   7  -6 5661.39 1182.86   7
   2   7  -6 5262.08 890.916   5
  -2   7   5 8388.06 1209.32   6
   2   7  -5 7559.45 1215.60   7
   2   7  -5 9368.77 1142.02   5
   2   7  -4 6587.01 1043.57   7
  -2   7   4 8423.32 1155.83   6
   2   7  -4 7732.30 1035.06   5
  -2   7   3 9786.59 983.202   7
   2   7  -3 8374.72 1106.54   7
   2   7  -3 9541.47 1003.43   2
  -2   7   3 10143.1 1194.08   6
   2   7  -3 9272.16 1138.36   5
  -2   7   2 11730.3 1049.81   7
   2   7  -2 14253.5 1254.29   2
  -2   7   2 12783.4 1287.18   6
  -2   7   2 13597.1 1283.42   5
   2   7  -2 11963.0 1242.95   7
   2   7  -1 13164.6 1262.06   2
  -2   7   1 12853.0 1031.00   7
  -2   7   1 10716.3 1162.26   5
  -2   7   1 12728.4 1264.65   6
   2   7  -1 12882.8 1259.66   7
   2   7   0 10007.7 1136.69   7
   2   7   0 8753.86 1064.21   2
  -2   7   0 10060.5 884.180   7
  -2   7   0 9755.92 1122.42   5
   2   7   1 9407.67 1137.94   7
  -2   7  -1 9816.55 904.158   7
   2   7   1 10267.2 1182.77   2
  -2   7  -1 12877.6 1319.72   5
   2   7   2 11035.7 1230.70   7
   2   7   2 10645.9 1244.00   2
  -2   7  -2 10260.4 1005.71   7
  -2   7  -2 11320.1 1257.49   5
  -2   7  -3 5994.38 986.805   5
   2   7   3 6350.27 985.222   7
   2   7   3 6950.70 1057.05   2
   2   7   4 5676.12 952.452   6
   2   7   4 5041.29 943.350   2
  -2   7  -4 5832.65 989.205   5
   2   7   4 4310.74 863.941   7
   2   7   5 4250.47 876.505   6
  -2   7  -5 4776.33 981.230   5
   2   7   5 5924.63 1061.42   2
   2   7   6 3849.58 932.638   6
   2   7   6 2916.68 820.310   2
  -2   7  -6 2585.22 795.248   5
   2   7   7 2085.77 782.049   2
   2   7   7 1790.62 664.211   4
   2   8  -7 6859.03 1487.21   7
  -2   8   7 6904.93 1245.69   6
  -2   8   6 12117.9 1576.52   6
   2   8  -6 10340.3 1671.40   7
   2   8  -6 10649.8 1354.26   5
   2   8  -5 16129.5 1825.04   7
  -2   8   5 16139.5 1736.58   6
  -2   8   5 13070.5 1361.79   7
   2   8  -5 14607.3 1580.86   5
   2   8  -4 24669.4 2146.83   7
  -2   8   4 26192.2 2166.20   6
  -2   8   4 23768.7 1771.22   7
   2   8  -4 28589.1 2173.34   5
  -2   8   3 33898.1 2419.88   6
   2   8  -3 34985.8 2407.53   5
  -2   8   3 30830.0 2189.21   5
   2   8  -3 32119.3 2349.91   7
   2   8  -2 31613.3 2168.51   2
  -2   8   2 33538.5 2368.21   6
  -2   8   2 35353.1 2314.31   5
   2   8  -2 31502.3 2240.67   7
   2   8  -1 41361.8 2575.13   2
   2   8  -1 38229.1 2476.77   7
  -2   8   1 40887.8 2565.94   6
  -2   8   1 43085.7 2640.28   5
   2   8   0 43193.2 2746.55   2
  -2   8   0 49840.9 2913.71   5
   2   8   0 45594.2 2753.04   7
   2   8   1 37790.0 2477.74   7
   2   8   1 35443.3 2484.70   2
  -2   8  -1 39964.7 2600.12   5
   2   8   2 29608.5 2214.73   7
   2   8   2 26059.9 2153.00   2
  -2   8  -2 28449.1 2213.42   5
   2   8   3 26485.1 2149.10   7
   2   8   3 25937.1 2173.79   2
  -2   8  -3 26827.3 2211.35   5
   2   8   4 15182.8 1705.77   7
   2   8   4 18106.3 1851.90   2
  -2   8  -4 18275.5 1860.00   5
   2   8   5 8937.85 1361.83   7
   2   8   5 10226.8 1389.50   6
   2   8   5 10617.3 1473.94   2
  -2   8  -5 10284.1 1457.35   5
   2   8   6 5581.33 1134.05   7
   2   8   6 7824.75 1261.60   6
  -2   8  -6 6570.18 1252.13   5
   2   9  -6 2302.57 897.533   7
   2   9  -6 2924.38 804.040   5
   2   9  -5 3999.64 1042.15   7
   2   9  -5 6147.05 1104.13   5
  -2   9   5 5522.88 1138.86   6
   2   9  -4 6969.71 1179.42   5
  -2   9   4 5676.28 1077.30   6
  -2   9   4 6508.61 993.553   5
   2   9  -4 6071.27 1129.19   7
   2   9  -3 7796.73 1186.73   7
  -2   9   3 6042.33 1117.93   6
   2   9  -3 9706.48 1333.10   5
  -2   9   3 7341.12 1108.85   5
   2   9  -2 9562.34 1266.65   7
  -2   9   2 11616.6 1418.22   6
   2   9  -2 8799.40 1156.91   2
   2   9  -2 11257.9 1418.85   5
  -2   9   2 8837.77 1211.65   5
   2   9  -1 11789.0 1352.48   7
   2   9  -1 11339.9 1355.27   2
  -2   9   1 11597.5 1391.66   5
   2   9   0 9993.88 1262.80   7
  -2   9   0 10160.5 1327.70   5
   2   9   0 10247.3 1315.19   2
   2   9   1 7353.42 1122.94   7
   2   9   1 8957.29 1281.88   2
  -2   9  -1 8959.53 1273.95   5
   2   9   2 8578.84 1233.92   7
  -2   9  -2 9896.25 1387.00   5
   2   9   2 11730.9 1501.75   2
   2   9   3 5953.92 1096.38   7
  -2   9  -3 6739.56 1227.32   5
   2   9   3 5222.62 1064.66   2
   2   9   4 4903.03 1020.41   7
   2   9   4 5607.49 1171.86   2
  -2   9  -4 6260.39 1217.52   5
   2   9   5 3547.89 953.184   7
  -2   9  -5 4653.85 1087.33   5
   2  10  -5 7015.78 1336.40   7
   2  10  -4 7254.45 1267.21   7
  -2  10   4 6708.83 1121.74   5
   2  10  -4 10183.2 1446.27   5
   2  10  -3 10714.4 1484.16   7
  -2  10   3 11154.5 1529.39   6
   2  10  -3 10743.7 1517.03   5
  -2  10   3 11312.6 1439.81   5
   2  10  -2 11842.1 1536.37   5
   2  10  -2 8856.12 1304.44   7
  -2  10   2 11923.0 1477.92   5
   2  10  -1 11730.8 1449.97   7
  -2  10   1 13138.9 1581.00   5
   2  10  -1 10131.0 1381.70   2
   2  10   0 11415.1 1478.68   7
  -2  10   0 17894.9 1857.46   5
   2  10   0 12578.2 1563.95   2
   2  10   1 10065.3 1383.76   7
  -2  10  -1 13030.6 1651.23   5
   2  10   1 13191.1 1626.50   2
   2  10   2 10640.9 1505.48   2
   2  10   2 8804.08 1337.52   7
  -2  10  -2 10684.4 1528.46   5
   2  10   3 8222.07 1310.47   7
  -2  10  -3 9223.71 1490.67   5
   2  11  -2 4348.40 989.470   7
   2  11  -1 4342.65 962.455   7
   2  11   0 3052.79 812.013   7
   3  -9  -4 17439.1 1923.89   1
   3  -9   5 6573.04 1305.01   4
   3  -8  -6 5742.69 1191.49   1
   3  -8  -5 6472.94 1125.40   1
   3  -8  -4 5123.99 1006.52   1
  -3  -8  -3 9575.44 1197.95   1
   3  -8   5 7142.30 1319.58   4
   3  -8   6 3184.46 982.622   4
   3  -7  -6 16005.9 1769.39   1
   3  -7  -5 20506.0 1898.67   1
   3  -7  -4 31812.5 2344.44   1
  -3  -7  -3 27383.7 1910.87   1
   3  -7   5 11457.8 1539.07   4
   3  -7   6 6399.17 1258.78   4
   3  -6  -6 7082.24 1111.25   1
   3  -6  -5 9442.35 1207.12   1
   3  -6  -4 7421.96 1003.15   1
  -3  -6  -3 7824.10 925.802   1
  -3  -6  -4 4987.19 761.201   1
   3  -6   5 5346.79 1049.07   4
   3  -6   6 1921.27 753.598   4
   3  -6   7 2639.38 910.556   4
  -3  -5   9 4355.68 1040.01   4
   3  -5  -6 14684.5 1518.40   1
   3  -5  -5 16466.0 1519.01   1
   3  -5  -4 25727.4 1822.60   1
   3  -5  -3 32212.9 1988.36   1
  -3  -5  -3 29279.4 1698.11   1
   3  -5   4 22947.6 1809.61   4
  -3  -5  -4 19156.3 1412.45   1
   3  -5   5 12515.0 1458.59   4
   3  -5   6 10339.0 1405.00   4
   3  -5   7 7446.04 1287.67   4
   3  -5   8 3923.85 1044.64   4
  -3  -4  10 4247.64 983.301   4
  -3  -4   9 1874.81 680.142   4
   3  -4  -5 12758.0 1259.88   1
   3  -4  -4 12961.7 1182.52   1
   3  -4  -3 15976.0 1260.23   1
   3  -4   1 12818.2 628.042   7
   3  -4   3 10564.3 1091.78   4
  -3  -4  -3 12439.2 919.054   1
   3  -4   4 8298.00 1072.58   4
   3  -4   5 10417.8 1281.62   4
   3  -4   6 3891.88 907.979   4
   3  -4   7 2463.31 821.794   4
   3  -4   8 2117.95 817.333   4
  -3  -3  10 1901.87 788.269   6
  -3  -3  10 2155.21 753.908   4
  -3  -3   9 6038.30 1023.47   4
  -3  -3   8 8793.39 1171.63   4
   3  -3  -4 69694.0 3116.22   1
   3  -3  -3 76662.2 2590.16   4
   3  -3  -3 94557.3 3420.84   1
   3  -3  -2 97087.4 3268.56   1
   3  -3  -2 74166.2 2477.89   4
   3  -3   1 101938. 3388.25   4
   3  -3   1 80288.4 2668.62   7
  -3  -3  -2 60653.3 2298.36   1
   3  -3   2 62697.5 2753.04   4
   3  -3   3 61730.2 2912.30   4
   3  -3   4 39132.4 2311.56   4
   3  -3   5 20765.8 1745.27   4
   3  -3   6 15041.5 1558.64   4
   3  -3   7 10051.7 1373.76   4
   3  -3   8 5147.33 1062.66   4
  -3  -2  10 844.190 610.451   6
  -3  -2  10 898.568 511.031   4
  -3  -2   9 2239.28 760.078   6
  -3  -2   9 2585.72 708.061   4
  -3  -2   8 4014.36 767.195   4
  -3  -2   7 4003.24 688.795   4
  -3  -2   4 9085.05 541.389   3
   3  -2  -3 14135.3 1037.20   1
   3  -2  -2 23273.1 1261.91   1
   3  -2  -1 23875.7 907.794   4
   3  -2   0 16581.0 874.663   4
   3  -2   1 27647.4 1374.66   4
   3  -2   1 24912.4 1034.02   7
   3  -2   2 27202.1 1489.88   4
   3  -2   2 22566.4 955.995   6
   3  -2   3 16669.8 1231.87   4
   3  -2   3 11768.5 619.084   6
   3  -2   4 13904.9 1245.11   4
   3  -2   5 12119.1 1274.56   4
   3  -2   6 6813.37 1019.24   4
   3  -2   7 3989.31 812.262   4
   3  -2   8 3357.87 885.054   4
   3  -2   9 2529.65 826.657   4
  -3  -1  11 797.841 570.446   6
  -3  -1  10 2661.32 793.590   6
  -3  -1   9 4901.13 971.400   6
  -3  -1   9 3904.96 757.903   4
  -3  -1   8 9825.05 1217.13   6
  -3  -1   8 8840.95 1031.01   4
  -3  -1   7 17007.1 1325.43   4
  -3  -1   6 20553.1 1364.48   4
  -3  -1   4 47274.8 1777.04   3
  -3  -1   3 61730.3 2199.17   3
   3  -1  -3 53346.4 2713.88   7
  -3  -1   2 53996.5 2085.89   3
   3  -1  -2 56902.7 2177.72   1
   3  -1  -2 50436.6 1851.94   5
   3  -1  -2 59706.7 2319.89   7
   3  -1  -1 67787.2 2225.15   4
   3  -1  -1 75003.4 2389.52   7
   3  -1  -1 73294.5 2515.27   1
   3  -1   0 85836.0 2890.52   4
   3  -1   0 85704.9 2716.89   7
   3  -1   1 74465.3 2710.75   4
  -3  -1  -1 69763.6 2366.75   6
   3  -1   2 41376.1 1896.29   4
  -3  -1  -2 37361.8 1361.70   6
   3  -1   3 47873.9 2324.16   4
   3  -1   4 32291.9 1859.53   4
   3  -1   4 24938.3 1007.74   6
   3  -1   5 17320.7 1484.16   4
   3  -1   6 13269.1 1401.73   4
   3  -1   7 7623.48 1153.08   4
   3  -1   8 3645.86 906.828   4
   3  -1   9 4818.91 1031.57   4
  -3   0  11 842.029 608.010   6
  -3   0  10 1280.00 610.956   6
  -3   0   9 3035.24 629.434   4
  -3   0   9 3052.66 792.726   6
  -3   0   8 3829.31 800.995   6
  -3   0   8 3966.20 663.261   4
  -3   0   7 7370.01 1006.13   6
  -3   0   7 5310.32 710.047   4
  -3   0   6 10517.5 882.054   4
  -3   0   6 10872.6 1105.95   6
  -3   0   5 18214.3 1356.87   6
  -3   0   5 17934.7 1076.65   4
   3   0  -5 15056.3 1599.48   7
  -3   0   4 19421.1 1010.52   3
   3   0  -4 17925.7 1516.68   7
  -3   0   3 17258.5 941.841   3
   3   0  -3 17905.6 1234.97   7
  -3   0   2 47550.2 1945.99   3
   3   0  -2 52941.2 2060.00   7
  -3   0   2 49116.4 1744.04   4
  -3   0   1 19406.4 839.458   4
  -3   0   1 20167.3 1083.78   3
  -3   0   1 17771.4 842.663   1
   3   0  -1 19858.3 929.094   7
  -3   0   0 28003.0 1412.47   3
   3   0   0 27820.7 1232.73   4
   3   0   0 31531.0 1261.41   7
   3   0   1 13766.8 867.286   4
   3   0   2 26927.6 1462.05   4
   3   0   3 7846.57 809.817   4
   3   0   4 5637.63 378.634   6
   3   0   4 5700.94 762.654   4
   3   0   5 9571.78 1076.81   4
   3   0   6 3674.31 746.398   4
   3   0   7 2697.30 732.991   4
   3   0   8 1607.40 670.592   4
   3   0   9 1523.67 676.199   4
  -3   1  10 3270.39 929.428   6
  -3   1   9 5392.76 980.344   6
  -3   1   8 7893.83 867.115   4
  -3   1   8 8683.53 1126.91   6
  -3   1   7 15580.7 1143.09   4
  -3   1   7 16461.9 1486.95   6
   3   1  -6 17200.1 1930.23   7
  -3   1   6 19331.0 1182.03   4
  -3   1   6 21965.9 1581.73   6
   3   1  -5 31848.3 2275.41   7
  -3   1   5 31707.3 1857.31   6
  -3   1   5 28543.8 1374.59   4
  -3   1   4 47422.9 1734.87   4
   3   1  -4 42777.6 1542.17   5
  -3   1   4 53281.3 2089.84   3
   3   1  -4 48656.9 2526.02   7
  -3   1   4 47169.4 2254.02   6
  -3   1   3 60151.1 1985.77   4
  -3   1   3 61755.5 2607.64   6
   3   1  -3 64612.9 2694.22   7
  -3   1   3 66782.3 2483.53   3
   3   1  -2 56613.4 2283.27   7
  -3   1   2 55556.7 2284.85   6
  -3   1   2 55767.0 2245.57   3
  -3   1   1 75809.5 2848.43   3
  -3   1   1 70896.9 2379.28   4
  -3   1   1 78414.8 2735.59   6
   3   1  -1 81456.3 2815.94   7
  -3   1   1 80804.2 2504.77   7
   3   1   0 85252.0 3109.56   4
   3   1   0 89292.6 3183.43   7
  -3   1   0 90420.7 2894.57   6
  -3   1   0 86069.1 3231.43   3
  -3   1  -1 56683.0 1889.54   6
  -3   1  -1 72474.2 2591.77   3
   3   1   1 73021.7 2526.50   4
   3   1   2 44705.9 2016.61   4
  -3   1  -2 40835.7 1957.40   3
   3   1   3 48751.0 2239.59   4
  -3   1  -3 49739.5 2131.12   3
   3   1   3 35919.3 1569.70   1
   3   1   3 43436.6 1547.33   6
   3   1   4 34941.2 1973.22   4
   3   1   4 30301.2 1324.40   6
  -3   1  -4 32560.9 1757.28   3
   3   1   5 18458.5 1508.77   4
   3   1   5 16894.1 987.046   6
  -3   1  -5 18944.4 1308.37   3
   3   1   6 11045.3 1259.44   4
  -3   1  -6 14378.6 1180.55   3
   3   1   7 7539.02 1088.89   4
   3   1   8 5861.02 1066.58   4
   3   1   9 1554.01 696.821   4
  -3   2  10 476.762 575.069   6
  -3   2   9 2212.94 662.077   6
  -3   2   8 2800.90 750.437   6
   3   2  -7 2223.06 836.205   7
  -3   2   7 3168.67 497.160   4
  -3   2   7 3268.30 700.680   6
  -3   2   6 5977.92 595.278   4
   3   2  -6 7486.43 1256.01   7
  -3   2   6 5897.93 838.557   6
   3   2  -5 9265.93 1189.69   7
  -3   2   5 10276.8 690.738   4
  -3   2   5 11914.2 1111.98   6
   3   2  -5 11324.8 689.315   5
  -3   2   4 8375.87 502.188   4
   3   2  -4 8585.12 952.880   7
  -3   2   4 7563.67 420.274   5
   3   2  -4 9079.69 592.144   5
  -3   2   4 8762.79 863.293   6
  -3   2   3 15043.5 1085.90   6
  -3   2   3 15261.0 1042.20   3
  -3   2   3 13179.0 687.975   5
   3   2  -3 14858.5 1111.50   7
  -3   2   2 22737.9 1285.10   6
  -3   2   2 24918.1 1346.27   3
  -3   2   2 22805.6 1087.14   5
   3   2  -2 24707.7 1353.97   7
   3   2  -1 25631.1 1347.09   7
  -3   2   1 24567.7 1212.95   6
  -3   2   1 25102.3 1221.97   5
  -3   2   1 21051.3 1281.42   3
   3   2   0 15656.0 1026.14   7
  -3   2   0 15955.9 1040.87   3
  -3   2   0 16522.7 849.123   6
   3   2   0 16446.0 1010.18   4
  -3   2   0 15398.2 1011.95   5
   3   2   1 26328.4 1452.57   7
   3   2   1 27862.3 1462.81   4
  -3   2  -1 28122.4 1475.51   3
  -3   2  -1 28257.7 1137.16   6
  -3   2  -1 27057.4 1504.35   5
  -3   2  -2 27803.1 1496.40   3
   3   2   2 28018.6 1571.92   4
   3   2   3 16843.3 1255.41   4
  -3   2  -3 16582.3 1142.53   3
   3   2   3 17271.3 945.584   6
   3   2   4 11318.6 1087.65   4
  -3   2  -4 11713.3 959.114   3
   3   2   4 11583.5 800.231   6
   3   2   5 11639.1 1209.69   4
  -3   2  -5 12503.1 1032.59   3
   3   2   5 13174.5 925.340   6
   3   2   6 5851.65 921.628   4
  -3   2  -6 7090.86 794.916   3
   3   2   7 4417.79 870.530   4
   3   2   7 5235.90 816.446   2
   3   2   8 2834.56 802.527   4
   3   2   9 2216.44 767.534   4
  -3   3  10 2897.25 881.206   6
  -3   3   9 3531.94 810.073   6
   3   3  -8 7308.51 1537.12   7
  -3   3   8 6692.21 1062.72   6
  -3   3   7 19583.2 1687.41   6
   3   3  -7 16832.7 2092.45   7
  -3   3   6 26595.3 1859.87   6
  -3   3   6 22136.3 1271.09   4
   3   3  -6 23714.7 1307.32   5
   3   3  -6 26812.4 2283.81   7
  -3   3   5 37478.4 1603.81   4
  -3   3   5 41094.9 2263.12   6
   3   3  -5 40252.3 1764.02   5
  -3   3   5 34873.6 1494.04   5
   3   3  -5 39246.7 2472.33   7
  -3   3   4 66677.0 3030.86   6
  -3   3   4 64814.0 2424.75   5
   3   3  -4 69105.5 2659.42   5
   3   3  -4 69779.7 3226.85   7
  -3   3   3 88616.8 3188.61   5
  -3   3   3 93450.5 3648.09   6
   3   3  -3 89663.9 3680.24   7
  -3   3   2 92536.0 3532.87   6
  -3   3   2 91948.1 3636.71   3
  -3   3   2 92229.8 3327.17   5
   3   3  -2 92480.0 3617.17   7
  -3   3   1 121927. 3748.59   6
  -3   3   1 120754. 3950.87   3
  -3   3   1 114479. 3714.70   5
   3   3  -1 122383. 3978.63   7
   3   3   0 127110. 4602.57   7
  -3   3   0 124237. 4564.23   3
  -3   3   0 125471. 4289.62   6
  -3   3   0 126378. 4518.74   5
   3   3   1 98283.1 3812.51   7
  -3   3  -1 101167. 3452.63   6
  -3   3  -1 96745.1 3767.74   3
   3   3   1 99155.4 3783.73   4
  -3   3  -1 95726.5 3817.05   5
   3   3   2 59749.7 2703.10   4
  -3   3  -2 62541.1 2674.04   3
  -3   3  -2 59592.1 2791.02   5
  -3   3  -3 59043.2 2606.03   3
   3   3   3 60684.7 2786.97   4
   3   3   3 55782.2 2381.26   6
  -3   3  -3 54869.0 2762.21   5
  -3   3  -4 35325.1 1926.13   3
   3   3   4 37065.4 1838.56   6
   3   3   4 39776.6 2241.23   4
   3   3   5 18458.8 1585.70   4
   3   3   5 20218.3 1319.21   6
  -3   3  -5 21084.2 1399.46   3
   3   3   6 13651.3 1440.93   4
   3   3   7 10164.4 1307.03   4
   3   3   7 9343.54 1172.99   2
   3   3   8 4059.23 951.041   4
   3   3   9 2151.06 788.511   4
  -3   4  10 742.802 484.708   6
  -3   4   9 3744.66 874.048   6
   3   4  -8 2063.93 961.135   7
  -3   4   8 2808.73 798.020   6
   3   4  -7 4417.27 1154.73   7
  -3   4   7 4000.17 827.700   6
   3   4  -6 9916.45 1397.85   7
  -3   4   6 7884.89 1045.77   6
   3   4  -6 6737.85 733.369   5
  -3   4   5 12018.6 1215.52   6
   3   4  -5 13426.0 1011.28   5
  -3   4   5 11165.1 813.521   5
   3   4  -5 12712.1 1356.91   7
  -3   4   4 13047.3 1180.34   6
   3   4  -4 14034.1 1293.74   7
  -3   4   4 11866.5 869.457   5
   3   4  -4 14005.3 1039.05   5
   3   4  -3 14678.0 1242.48   7
  -3   4   3 16578.4 1255.88   6
  -3   4   3 16645.3 1070.35   5
  -3   4   2 29263.9 1647.99   6
  -3   4   2 28073.7 1522.00   5
   3   4  -2 26652.0 1650.74   7
  -3   4   1 20322.6 1293.57   6
  -3   4   1 21266.0 1323.85   5
  -3   4   1 23749.2 1497.68   3
   3   4  -1 21950.2 1442.21   7
  -3   4   1 21619.7 902.997   7
  -3   4   0 19209.7 779.619   7
  -3   4   0 20995.1 1244.04   6
   3   4   0 21470.6 1427.49   7
  -3   4   0 21597.5 1368.80   5
  -3   4   0 23514.8 1473.98   3
   3   4   1 17310.5 1284.41   7
  -3   4  -1 16714.5 1262.43   5
  -3   4  -1 17947.3 1285.33   3
   3   4   2 22347.3 1532.61   7
   3   4   2 21824.5 1485.78   4
  -3   4  -2 20622.5 1505.88   5
  -3   4  -2 21490.3 1444.58   3
   3   4   3 11669.8 1108.78   4
   3   4   3 11759.9 974.565   6
  -3   4  -3 10585.2 990.455   3
  -3   4  -3 10548.7 1104.07   5
   3   4   4 9245.55 910.659   6
   3   4   4 8736.50 1020.40   4
  -3   4  -4 7647.37 846.000   3
  -3   4  -4 8081.23 1042.48   5
   3   4   5 8525.76 932.636   6
   3   4   5 8055.48 1056.04   4
  -3   4  -5 8694.14 902.985   3
   3   4   6 5072.09 935.428   4
   3   4   6 5494.20 928.499   2
   3   4   7 2441.11 715.502   4
   3   4   7 1833.99 639.535   2
   3   4   8 1442.49 633.219   4
   3   5  -9 1719.67 894.849   7
  -3   5   9 1823.69 739.212   6
   3   5  -8 2648.62 1040.13   7
  -3   5   8 4642.71 963.817   6
   3   5  -7 9581.33 1654.88   7
  -3   5   7 9659.06 1271.32   6
  -3   5   6 13600.4 1412.07   6
   3   5  -6 11007.6 1042.00   5
   3   5  -6 12935.6 1621.90   7
  -3   5   5 15879.1 1477.23   6
   3   5  -5 14727.4 1205.50   5
  -3   5   5 15110.9 1081.21   5
   3   5  -5 14604.0 1538.53   7
  -3   5   4 23792.8 1724.13   6
  -3   5   4 22056.0 1400.32   5
   3   5  -4 24692.6 1592.87   5
   3   5  -4 24915.8 1844.46   7
  -3   5   3 31042.9 1923.15   6
  -3   5   3 30898.8 1718.25   5
   3   5  -3 30379.8 1949.87   7
  -3   5   2 28726.6 1720.10   6
   3   5  -2 27251.8 1729.15   7
  -3   5   2 23277.7 1223.79   7
  -3   5   2 24094.5 1526.03   5
  -3   5   1 38456.3 2020.45   6
  -3   5   1 37876.1 2044.25   5
  -3   5   1 37446.5 1528.62   7
   3   5  -1 38255.1 2145.28   7
  -3   5   0 35088.5 1909.25   6
  -3   5   0 35288.9 1402.69   7
  -3   5   0 37181.4 2040.06   5
  -3   5   0 36512.4 2103.82   3
   3   5   0 33507.0 2015.61   7
   3   5   1 35788.3 2090.96   7
  -3   5  -1 35083.8 2058.32   5
  -3   5  -1 35444.4 2047.60   3
  -3   5  -1 33192.4 1557.58   7
  -3   5  -2 19105.6 1458.39   3
   3   5   2 21968.2 1605.53   7
  -3   5  -2 23846.4 1675.47   5
  -3   5  -2 17403.6 1263.24   7
   3   5   3 27438.0 1870.72   4
  -3   5  -3 27554.7 1947.87   5
  -3   5  -3 24880.4 1705.19   3
   3   5   4 20554.3 1652.13   4
   3   5   4 21141.3 1519.35   6
  -3   5  -4 17180.2 1395.24   3
  -3   5  -4 18878.5 1658.84   5
   3   5   5 13103.6 1419.29   2
   3   5   5 12315.1 1213.01   6
   3   5   5 12799.8 1351.88   4
  -3   5  -5 10777.0 1319.89   5
   3   5   6 7600.71 1115.26   4
   3   5   6 8469.22 1199.68   2
   3   5   7 5441.96 1072.32   4
   3   5   7 5749.13 1051.33   2
   3   5   8 4182.80 961.014   4
   3   5   8 2905.19 789.186   2
  -3   6   8 2872.85 845.521   6
   3   6  -8 3904.79 1224.55   7
   3   6  -7 2961.83 1055.42   7
  -3   6   7 2636.98 767.526   6
   3   6  -6 4034.89 715.445   5
  -3   6   6 5275.90 979.780   6
   3   6  -6 5994.56 1149.82   7
  -3   6   5 9073.38 1183.85   6
   3   6  -5 6884.15 1097.29   7
  -3   6   5 8974.70 893.348   5
   3   6  -5 6804.19 890.725   5
   3   6  -4 5346.60 907.509   7
  -3   6   4 7022.23 982.407   6
  -3   6   4 6458.00 796.999   5
   3   6  -4 7535.74 932.929   5
  -3   6   3 12561.6 1233.33   6
  -3   6   3 10252.2 1017.69   5
   3   6  -3 11520.6 1231.54   7
  -3   6   2 12253.5 1187.02   6
  -3   6   2 14484.5 1221.61   5
   3   6  -2 13901.8 1292.09   7
  -3   6   2 12695.3 916.094   7
  -3   6   1 13902.4 1215.04   6
   3   6  -1 11460.0 1189.15   7
  -3   6   1 14349.9 1254.06   5
  -3   6   1 13687.5 864.181   7
   3   6   0 9436.77 1097.86   7
  -3   6   0 9793.68 1022.83   6
  -3   6   0 11970.0 1168.61   5
   3   6   1 11967.0 1238.58   7
  -3   6  -1 14201.5 1316.07   5
   3   6   2 10615.6 1193.15   7
  -3   6  -2 10717.6 1204.14   5
   3   6   3 9062.23 1156.98   7
  -3   6  -3 6914.17 1065.51   5
   3   6   4 6200.34 998.773   2
   3   6   4 6328.59 993.737   4
  -3   6  -4 4899.59 906.077   5
   3   6   5 6927.35 1060.07   4
   3   6   5 5998.68 917.458   6
   3   6   5 7013.71 1110.76   2
  -3   6  -5 6263.29 1079.72   5
   3   6   6 2850.65 792.174   4
   3   6   6 6984.46 1141.08   2
   3   6   7 3833.77 892.194   4
   3   6   7 2019.22 762.758   2
   3   7  -8 2998.73 1140.01   7
  -3   7   8 6024.86 1181.33   6
   3   7  -7 7795.84 1590.00   7
  -3   7   7 10169.2 1425.45   6
   3   7  -6 14965.6 1875.13   7
  -3   7   6 11240.1 1475.50   6
  -3   7   5 18962.8 1836.64   6
   3   7  -5 23056.7 1799.05   5
   3   7  -5 17619.3 1866.28   7
  -3   7   4 26322.7 2060.51   6
  -3   7   4 25494.9 1780.72   5
   3   7  -4 30541.8 2069.32   5
   3   7  -4 25275.0 2087.81   7
   3   7  -3 34090.0 2112.69   2
  -3   7   3 38631.7 2451.35   6
  -3   7   3 36636.9 2222.11   5
   3   7  -3 36463.8 2415.95   7
   3   7  -2 35020.3 2308.55   7
  -3   7   2 37730.9 2343.68   6
  -3   7   2 34515.0 2193.81   5
  -3   7   1 45012.8 2614.16   6
  -3   7   1 45942.2 2644.91   5
   3   7  -1 46859.6 2704.60   7
  -3   7   0 42654.7 2571.59   5
   3   7   0 44398.9 2675.46   7
   3   7   1 37494.0 2451.17   7
  -3   7  -1 39625.3 2504.88   5
   3   7   2 26520.1 2066.12   7
   3   7   2 26515.6 2053.71   2
  -3   7  -2 28774.9 2151.04   5
   3   7   3 25442.4 2074.67   2
  -3   7  -3 27246.1 2149.08   5
   3   7   3 21015.0 1920.04   7
   3   7   4 15501.3 1650.83   2
   3   7   4 13216.3 1561.43   7
  -3   7  -4 16887.1 1742.86   5
   3   7   5 8764.44 1347.19   7
   3   7   5 10603.5 1421.48   2
  -3   7  -5 9880.43 1442.55   5
  -3   7  -6 5772.32 1150.15   5
   3   7   6 7845.42 1316.74   2
   3   7   7 4802.63 1043.95   4
   3   8  -7 1320.47 841.220   7
  -3   8   7 1259.94 656.881   6
   3   8  -6 3725.37 1134.30   7
  -3   8   6 2527.17 883.832   6
   3   8  -6 2047.46 604.810   5
   3   8  -5 4509.99 1008.92   7
  -3   8   5 4852.03 1044.95   6
   3   8  -5 5021.09 950.249   5
   3   8  -4 4587.00 876.668   5
   3   8  -4 5698.48 1038.18   7
  -3   8   4 6791.05 1081.30   6
  -3   8   4 5388.94 845.256   5
   3   8  -3 6946.15 1087.54   7
  -3   8   3 10084.1 1285.80   6
  -3   8   3 7650.99 1089.95   5
   3   8  -2 13100.2 1398.56   7
  -3   8   2 11898.3 1367.81   6
   3   8  -2 8713.40 1130.62   2
  -3   8   2 11117.9 1267.24   5
   3   8  -1 11669.4 1328.40   7
  -3   8   1 11719.2 1301.52   6
   3   8  -1 10405.0 1235.54   2
  -3   8   1 9054.36 1180.43   5
   3   8   0 13243.1 1447.68   2
   3   8   0 12348.0 1391.93   7
  -3   8   0 13287.4 1458.44   5
   3   8   1 12165.7 1400.14   7
  -3   8  -1 12790.3 1469.43   5
   3   8   1 11155.9 1391.99   2
   3   8   2 11887.2 1439.51   7
   3   8   2 13569.0 1564.72   2
  -3   8  -2 12408.3 1501.64   5
   3   8   3 7831.39 1194.00   7
   3   8   3 6822.80 1149.92   2
  -3   8  -3 7054.52 1194.80   5
   3   8   4 7257.76 1225.18   7
   3   8   4 6983.21 1209.72   2
  -3   8  -4 4546.28 1033.65   5
   3   8   5 4195.91 1097.57   7
   3   8   5 7997.26 1315.22   2
  -3   8  -5 5995.31 1233.07   5
   3   9  -6 7911.46 1505.27   7
   3   9  -6 6921.92 1142.62   5
   3   9  -5 8265.85 1447.74   7
  -3   9   5 12145.6 1618.52   6
   3   9  -5 8905.72 1305.43   5
   3   9  -4 12623.0 1649.38   7
  -3   9   4 18722.9 1903.56   6
   3   9  -4 14914.7 1646.44   5
  -3   9   4 12502.6 1394.06   5
  -3   9   3 23012.0 2073.71   6
  -3   9   3 18300.9 1723.82   5
   3   9  -3 18865.7 1854.30   5
   3   9  -3 17123.0 1828.05   7
  -3   9   2 18370.5 1811.18   6
   3   9  -2 13825.4 1540.74   2
  -3   9   2 17103.0 1676.80   5
   3   9  -2 17550.7 1761.85   7
   3   9  -1 21281.2 1932.96   2
  -3   9   1 23149.8 2001.31   5
   3   9  -1 21477.3 1944.40   7
   3   9   0 18806.6 1858.65   2
  -3   9   0 21148.4 1953.96   5
   3   9   0 22572.8 1978.34   7
   3   9   1 20331.0 1989.43   2
  -3   9  -1 21930.4 2063.77   5
   3   9   1 22389.4 2033.94   7
   3   9   2 14443.9 1678.21   7
  -3   9  -2 14966.3 1753.03   5
   3   9   2 12384.5 1560.82   2
   3   9   3 16245.1 1808.46   7
   3   9   3 15105.4 1799.77   2
  -3   9  -3 13649.0 1745.26   5
  -3   9  -4 9578.88 1470.11   5
   3   9   4 9163.45 1424.59   7
   3  10  -4 3626.99 957.018   7
   3  10  -4 3243.33 867.589   5
   3  10  -3 5883.49 1128.30   7
  -3  10   3 6135.48 1171.58   6
  -3  10   3 5051.95 955.273   5
   3  10  -3 5618.28 1104.15   5
   3  10  -2 6301.72 1122.49   7
  -3  10   2 7119.70 1158.47   5
   3  10  -1 7233.39 1174.31   7
   3  10  -1 5948.47 1066.09   2
  -3  10   1 7339.01 1198.27   5
   3  10   0 3710.48 931.886   7
  -3  10   0 6928.57 1200.49   5
   3  10   0 5630.40 1108.48   2
   3  10   1 7499.39 1219.20   7
  -3  10  -1 5025.47 1076.58   5
   3  10   1 4842.55 1033.41   2
   3  10   2 3559.56 885.872   7
  -3  10  -2 5341.37 1106.61   5
   4  -9  -3 6769.74 1183.16   1
   4  -9   4 2944.11 875.798   4
   4  -8  -5 12892.3 1599.48   1
   4  -8  -4 17392.2 1850.28   1
   4  -8  -3 22512.1 2044.58   1
   4  -8   4 11105.9 1512.10   4
   4  -8   5 4605.64 1065.86   4
   4  -7  -6 4278.57 1003.35   1
   4  -7  -5 7109.77 1177.50   1
   4  -7  -4 6831.06 1078.01   1
   4  -7  -3 10121.4 1269.95   1
   4  -7   3 9049.27 1235.92   4
   4  -7   4 6972.74 1123.81   4
   4  -7   5 4489.60 1030.80   4
   4  -7   6 3840.49 1000.04   4
   4  -6  -6 18373.7 1831.19   1
   4  -6  -5 19933.9 1807.47   1
   4  -6  -4 34385.4 2343.04   1
   4  -6  -3 34681.8 2277.66   1
   4  -6   3 23130.1 1876.64   4
   4  -6   4 16114.7 1682.72   4
   4  -6   5 10705.9 1465.58   4
   4  -6   6 6044.34 1162.64   4
   4  -6   7 3622.83 1010.25   4
   4  -5  -5 13504.4 1395.79   1
   4  -5  -4 9778.58 1127.43   1
   4  -5  -3 12066.1 1193.27   1
   4  -5   2 8524.18 979.488   4
   4  -5   3 6085.12 915.407   4
   4  -5   4 5626.56 952.350   4
   4  -5   5 3115.71 831.969   4
   4  -5   6 2717.59 817.185   4
   4  -5   7 1387.95 687.823   4
  -4  -4  10 2886.69 840.540   4
  -4  -4   9 5576.60 1030.02   4
   4  -4  -5 26612.7 1924.57   1
   4  -4  -4 41442.4 2355.17   1
   4  -4  -3 50720.5 2570.39   1
   4  -4  -2 42848.1 2207.99   1
   4  -4   0 61506.6 2564.81   4
   4  -4   1 52224.5 2465.61   4
   4  -4   2 38103.2 2159.29   4
  -4  -4  -2 39287.6 1725.61   1
   4  -4   3 33834.1 2139.02   4
   4  -4   4 22026.1 1806.26   4
   4  -4   5 16952.0 1694.13   4
   4  -4   6 9337.22 1347.11   4
   4  -4   7 6414.67 1159.77   4
   4  -4   8 3529.22 965.985   4
  -4  -3  10 550.161 599.002   6
  -4  -3   9 735.484 522.470   4
   4  -3  -4 7778.39 895.867   1
   4  -3  -3 13657.7 1113.58   1
   4  -3  -2 26005.7 1508.73   1
   4  -3  -1 18521.0 887.782   4
   4  -3   0 23194.0 1231.23   4
   4  -3   1 25698.3 1476.31   4
  -4  -3  -2 22123.5 1015.82   1
   4  -3   2 24499.5 1568.56   4
   4  -3   3 17050.5 1402.36   4
   4  -3   4 12620.9 1298.51   4
   4  -3   5 11787.5 1315.66   4
   4  -3   6 8152.34 1191.33   4
   4  -3   7 3147.03 886.747   4
   4  -3   8 2064.52 864.750   4
  -4  -2  10 2064.20 845.320   6
  -4  -2   9 6299.95 1102.79   6
  -4  -2   9 5122.52 901.725   4
  -4  -2   8 9557.22 1105.93   4
  -4  -2   5 22804.1 1102.81   3
  -4  -2   4 48663.5 2003.37   3
   4  -2  -3 59801.6 2625.14   1
   4  -2  -2 46982.8 2090.35   1
   4  -2  -1 69567.8 2600.95   1
   4  -2  -1 64103.0 2162.22   4
   4  -2   0 66604.5 2476.17   4
   4  -2   1 49401.4 2012.37   4
   4  -2   1 36464.8 1564.98   7
   4  -2   2 37157.9 1963.24   4
   4  -2   3 33435.5 1975.54   4
   4  -2   4 24803.7 1775.42   4
   4  -2   5 14041.0 1405.16   4
   4  -2   6 10337.7 1305.73   4
   4  -2   7 6996.18 1178.01   4
   4  -2   8 3748.69 986.083   4
  -4  -1  10 1496.55 748.104   6
  -4  -1   9 1898.94 682.571   6
  -4  -1   8 5017.84 936.960   6
  -4  -1   8 4118.73 698.422   4
  -4  -1   7 7304.74 830.887   4
  -4  -1   5 18431.4 1020.16   3
  -4  -1   4 10712.7 749.856   3
   4  -1  -4 8641.05 1057.74   7
  -4  -1   3 15439.0 943.430   3
   4  -1  -3 12611.5 618.030   5
   4  -1  -3 15467.5 1197.05   7
   4  -1  -2 28984.8 1443.29   7
  -4  -1   2 28687.5 1481.04   3
   4  -1  -1 18292.2 941.865   1
   4  -1  -1 17205.2 780.988   4
  -4  -1   1 16660.2 813.964   1
   4  -1  -1 18618.6 860.001   7
   4  -1   0 13891.8 840.199   4
   4  -1   0 16997.1 809.346   1
   4  -1   0 16582.0 771.769   7
   4  -1   1 18659.8 1124.55   4
   4  -1   2 15866.7 1111.53   4
  -4  -1  -2 11920.3 548.629   6
   4  -1   3 9811.35 1015.73   4
   4  -1   4 7989.57 996.199   4
   4  -1   5 6330.80 965.232   4
   4  -1   6 3917.55 826.771   4
   4  -1   7 1627.15 660.242   4
   4  -1   8 1742.20 707.401   4
  -4   0  10 3518.56 914.844   6
  -4   0   9 5716.76 1057.62   6
  -4   0   8 8647.85 1192.85   6
  -4   0   7 14601.3 1112.23   4
  -4   0   7 16363.3 1501.26   6
  -4   0   6 24745.9 1383.58   4
  -4   0   6 25500.2 1805.22   6
   4   0  -6 24010.0 2265.25   7
  -4   0   5 27663.3 1377.75   4
  -4   0   5 28125.9 1832.14   6
   4   0  -5 29151.3 2247.31   7
  -4   0   5 31103.3 1514.59   3
   4   0  -4 55561.1 2917.05   7
  -4   0   4 57243.4 2337.96   3
  -4   0   3 84214.0 2938.03   3
   4   0  -3 82670.7 3171.36   7
   4   0  -3 67942.4 2399.31   5
  -4   0   2 52228.4 2290.22   3
   4   0  -2 58810.9 2303.48   7
  -4   0   1 105290. 3925.42   3
   4   0  -1 108869. 3656.35   7
   4   0  -1 106301. 3563.60   4
   4   0   0 87337.3 3191.94   4
  -4   0   0 91584.3 3503.24   3
   4   0   0 91177.5 3180.62   7
   4   0   1 73390.5 2620.08   7
   4   0   1 76056.6 2778.58   4
  -4   0  -1 65514.3 2120.61   6
   4   0   2 35088.9 1215.01   1
   4   0   2 55424.4 2186.92   4
   4   0   3 47449.2 2417.73   4
   4   0   4 29442.9 1938.68   4
   4   0   5 17433.2 1544.69   4
  -4   0  -6 10764.5 1167.81   3
   4   0   6 11881.6 1370.98   4
   4   0   7 6883.44 1119.84   4
   4   0   8 2358.19 783.255   4
  -4   1  10 448.044 502.583   6
  -4   1   9 1879.87 671.187   6
  -4   1   8 4320.23 872.284   6
   4   1  -7 5967.51 1316.69   7
  -4   1   7 5683.26 934.025   6
   4   1  -6 7290.59 1246.52   7
  -4   1   6 6217.10 892.886   6
  -4   1   6 6269.13 571.524   4
  -4   1   5 16210.2 860.829   4
  -4   1   5 18809.6 1415.14   6
  -4   1   5 18176.3 1198.64   3
   4   1  -5 19855.4 1740.34   7
  -4   1   4 10914.5 870.194   3
  -4   1   4 9949.03 500.417   4
  -4   1   4 11032.7 997.271   6
   4   1  -4 9774.33 1018.99   7
   4   1  -4 9704.93 485.404   5
  -4   1   3 14162.2 1034.24   3
  -4   1   3 17574.2 1188.12   6
   4   1  -3 16081.8 1158.14   7
  -4   1   2 27306.2 1497.62   3
  -4   1   2 28903.8 1487.75   6
   4   1  -2 29174.9 1484.38   7
  -4   1   1 17279.2 1133.11   3
  -4   1   1 16512.5 787.615   4
  -4   1   1 19568.6 1022.40   6
   4   1  -1 17898.5 1058.59   7
   4   1   0 15927.0 979.034   4
  -4   1   0 15793.2 1100.71   3
  -4   1   0 16397.1 808.999   6
   4   1   0 15809.7 1021.51   7
   4   1   1 18432.2 1135.94   4
  -4   1  -1 18514.5 1209.94   3
  -4   1  -1 13790.3 561.961   6
   4   1   1 18187.2 1077.11   7
   4   1   2 16195.1 1171.91   4
  -4   1  -2 16366.0 1213.04   3
   4   1   3 10285.8 1003.17   4
  -4   1  -3 11223.4 1030.70   3
   4   1   4 8763.94 1007.35   4
  -4   1  -4 7953.26 911.492   3
   4   1   5 6783.35 1000.07   4
  -4   1  -5 7847.88 923.712   3
   4   1   6 4656.83 886.948   4
  -4   1  -6 5180.05 785.551   3
   4   1   7 2520.03 739.719   4
   4   1   8 1154.44 640.260   4
  -4   2  10 5753.95 1113.17   6
  -4   2   9 5171.63 1028.56   6
  -4   2   8 8659.05 1167.84   6
   4   2  -8 7985.13 1620.17   7
   4   2  -7 15068.9 1967.11   7
  -4   2   7 14599.4 1480.45   6
  -4   2   6 26869.9 1913.45   6
   4   2  -6 28883.3 2417.13   7
  -4   2   5 27457.5 1774.33   6
   4   2  -5 22185.4 1031.22   5
   4   2  -5 25845.0 1941.08   7
  -4   2   4 48402.2 2497.74   6
  -4   2   4 55200.6 2457.34   3
   4   2  -4 50701.1 2649.62   7
  -4   2   3 56490.0 2614.91   6
   4   2  -3 62216.6 2742.39   7
  -4   2   3 58804.2 2596.42   3
  -4   2   2 48269.4 2222.71   3
  -4   2   2 48768.0 2141.91   6
   4   2  -2 43534.1 2130.48   7
   4   2  -1 70391.1 2874.85   7
  -4   2   1 71107.4 2689.36   6
  -4   2   1 68566.3 2927.80   3
  -4   2   0 67359.2 2835.50   3
  -4   2   0 63644.7 2367.64   6
   4   2   0 66444.5 2782.89   7
   4   2   0 65059.3 2678.57   4
   4   2   1 49506.6 2275.90   7
   4   2   1 47513.0 2239.48   4
  -4   2  -1 49063.1 1756.24   6
  -4   2  -1 48409.8 2317.39   3
   4   2   2 42592.7 2141.85   4
  -4   2  -2 38305.2 2049.71   3
   4   2   3 36034.9 2104.21   4
  -4   2  -3 36549.5 1997.27   3
  -4   2  -4 25620.9 1653.66   3
   4   2   4 22621.7 1721.50   4
   4   2   5 15846.9 1475.19   4
  -4   2  -5 14595.2 1256.46   3
   4   2   6 9073.26 1185.63   4
  -4   2  -6 9179.68 1016.98   3
   4   2   7 6163.48 1078.91   4
   4   2   8 2115.68 785.947   4
  -4   3  10 1305.07 629.824   6
  -4   3   9 923.288 529.476   6
   4   3  -8 1475.04 820.268   7
  -4   3   8 1656.10 630.441   6
   4   3  -7 1878.93 851.759   7
  -4   3   7 5719.17 963.297   6
   4   3  -6 2984.52 824.825   7
  -4   3   6 3433.23 749.141   6
   4   3  -5 11072.9 1276.18   7
  -4   3   5 12530.4 1207.70   6
   4   3  -5 10647.4 783.879   5
   4   3  -4 7761.63 939.217   7
  -4   3   4 8152.08 923.512   6
  -4   3   4 6627.75 517.590   5
  -4   3   3 12953.9 1081.28   6
  -4   3   3 11580.3 799.771   5
  -4   3   3 12816.3 1092.79   3
   4   3  -3 13096.7 1131.58   7
  -4   3   2 27127.6 1471.44   6
  -4   3   2 25122.4 1325.16   5
  -4   3   2 19618.7 905.362   7
  -4   3   2 27083.9 1580.64   3
   4   3  -2 26339.9 1542.63   7
  -4   3   1 19234.0 1157.87   6
  -4   3   1 20037.0 1245.95   5
   4   3  -1 17103.8 1244.55   7
  -4   3   1 19657.2 1352.14   3
  -4   3   0 21063.9 1420.81   3
  -4   3   0 22003.1 1179.73   6
  -4   3   0 23203.1 1445.43   5
   4   3   0 21236.4 1425.06   7
   4   3   1 24406.1 1531.76   4
  -4   3  -1 25208.3 1573.66   3
  -4   3  -1 24118.6 1186.12   6
  -4   3  -1 21854.5 1513.86   5
   4   3   1 25017.5 1569.24   7
   4   3   2 21550.4 1480.99   4
   4   3   2 20379.2 1455.06   7
  -4   3  -2 21476.4 1458.26   3
   4   3   3 16152.3 1353.29   4
  -4   3  -3 16810.7 1306.68   3
   4   3   4 13092.2 1295.94   4
  -4   3  -4 10342.1 1063.67   3
  -4   3  -5 11767.4 1131.51   3
   4   3   5 9994.75 1221.15   4
   4   3   6 7699.16 1158.69   4
   4   3   7 2837.86 819.638   4
   4   3   8 3243.68 871.631   4
   4   4  -9 2979.98 1296.26   7
  -4   4   9 3085.17 858.913   6
   4   4  -8 4979.45 1340.11   7
  -4   4   8 7576.88 1174.31   6
   4   4  -7 12500.8 1782.38   7
  -4   4   7 13293.1 1461.34   6
   4   4  -6 16516.6 1819.09   7
  -4   4   6 19442.7 1662.36   6
  -4   4   5 21868.2 1697.18   6
   4   4  -5 21505.5 1336.50   5
   4   4  -5 22760.4 1872.94   7
   4   4  -4 40203.2 2396.13   7
  -4   4   4 40225.3 2274.84   6
  -4   4   4 37718.0 1764.99   5
  -4   4   3 51342.0 2538.62   6
   4   4  -3 49694.6 2623.16   7
  -4   4   3 49134.0 2203.33   5
  -4   4   3 49982.0 2582.76   3
  -4   4   2 43244.2 2128.55   6
  -4   4   2 38975.4 1955.96   5
  -4   4   2 37776.0 2171.90   3
   4   4  -2 39210.6 2187.27   7
  -4   4   1 66125.7 2794.28   6
  -4   4   1 62700.7 2843.60   5
  -4   4   1 66985.0 3057.62   3
   4   4  -1 64612.9 2998.97   7
  -4   4   0 58896.8 2485.59   6
  -4   4   0 57341.9 2731.11   5
  -4   4   0 56645.2 2768.73   3
   4   4   0 58643.0 2809.29   7
   4   4   1 48730.7 2550.94   7
  -4   4  -1 49772.0 2579.68   5
  -4   4  -1 50997.2 2559.15   3
   4   4   2 36800.4 2160.83   4
   4   4   2 38102.7 2242.39   7
  -4   4  -2 40002.3 2211.54   3
  -4   4  -2 38632.4 2295.64   5
   4   4   3 35455.2 2182.62   4
  -4   4  -3 36079.2 2112.66   3
   4   4   4 23104.2 1785.78   4
  -4   4  -4 21722.0 1599.25   3
   4   4   5 16893.0 1596.40   4
  -4   4  -5 13349.1 1274.65   3
   4   4   6 8508.14 1240.70   4
   4   4   7 6967.09 1177.82   4
   4   4   7 6892.20 1130.57   2
   4   4   8 1139.67 686.928   4
   4   5  -9 399.844 701.918   7
  -4   5   9 3099.72 915.643   6
   4   5  -8 4249.55 1220.08   7
  -4   5   8 2766.91 745.671   6
   4   5  -7 5292.34 1233.44   7
  -4   5   7 6136.62 1021.20   6
   4   5  -6 6204.85 1156.61   7
  -4   5   6 5488.90 967.315   6
   4   5  -5 11579.8 1400.17   7
  -4   5   5 14734.7 1425.54   6
   4   5  -5 12127.7 1095.37   5
   4   5  -4 9102.34 1131.16   7
  -4   5   4 10425.0 1137.46   6
  -4   5   4 9261.48 841.533   5
  -4   5   3 14163.0 1249.59   6
  -4   5   3 11816.9 1013.93   5
   4   5  -3 13810.9 1310.81   7
  -4   5   2 17674.1 1366.74   6
  -4   5   2 19030.9 1347.85   5
   4   5  -2 19214.0 1507.20   7
  -4   5   1 10804.6 1010.02   6
  -4   5   1 12441.4 1106.65   5
  -4   5   1 12742.2 1207.80   3
   4   5  -1 12199.5 1171.63   7
  -4   5   0 11379.3 1011.41   6
   4   5   0 12953.0 1225.29   7
  -4   5   0 11768.8 1133.40   5
  -4   5   0 12261.6 1205.68   3
  -4   5  -1 7535.93 966.611   5
   4   5   1 9517.96 1089.31   7
  -4   5  -1 11263.2 1131.50   3
   4   5   2 8090.74 1045.51   7
  -4   5  -2 8033.99 976.604   3
  -4   5  -2 10232.5 1155.01   5
   4   5   3 4837.53 864.338   7
   4   5   3 5604.76 909.557   4
  -4   5  -3 6618.95 910.309   3
  -4   5  -3 5652.08 996.176   5
   4   5   4 3574.03 735.140   4
  -4   5  -4 3588.31 698.706   3
   4   5   5 4116.06 885.115   4
   4   5   6 3533.21 843.445   2
   4   5   6 3308.47 851.160   4
   4   5   7 2095.03 751.872   4
   4   5   7 1256.11 599.768   2
   4   6  -8 6651.22 1638.76   7
  -4   6   8 5251.63 1075.98   6
   4   6  -7 10649.3 1708.92   7
  -4   6   7 8360.26 1266.96   6
   4   6  -6 15612.5 1831.74   7
  -4   6   6 14473.1 1590.57   6
  -4   6   5 16631.3 1620.68   6
   4   6  -5 16857.6 1750.44   7
   4   6  -5 17158.6 1427.50   5
  -4   6   4 32071.9 2202.44   6
  -4   6   4 30000.6 1822.43   5
   4   6  -4 32720.1 2318.49   7
  -4   6   3 30275.9 2066.17   6
   4   6  -3 34296.4 2245.47   7
  -4   6   3 30342.4 1878.48   5
  -4   6   2 35813.5 2132.09   6
  -4   6   2 31874.6 1972.83   5
   4   6  -2 29284.2 2061.07   7
  -4   6   1 38098.7 2199.36   6
  -4   6   1 37496.5 2246.07   5
   4   6  -1 39407.3 2395.77   7
  -4   6   0 41165.6 2305.85   6
  -4   6   0 43806.4 2518.96   5
   4   6   0 43776.6 2601.62   7
   4   6   1 32510.8 2236.53   7
  -4   6  -1 32873.6 2211.84   5
  -4   6  -1 31078.6 2133.30   3
   4   6   2 25274.9 1969.40   7
  -4   6  -2 23041.3 1883.31   5
  -4   6  -2 23704.6 1836.24   3
   4   6   3 20159.1 1834.74   7
  -4   6  -3 20515.7 1846.34   5
  -4   6  -3 20001.3 1694.53   3
   4   6   4 17952.4 1696.65   4
   4   6   4 12365.0 1526.13   7
  -4   6  -4 13238.8 1543.18   5
  -4   6  -4 13617.6 1385.81   3
   4   6   5 10169.3 1378.03   2
   4   6   5 10521.7 1374.43   4
   4   6   6 6078.32 1104.40   4
   4   6   6 5541.54 1096.80   2
   4   6   7 3858.70 967.957   4
   4   7  -7 2542.76 956.243   7
  -4   7   7 2549.08 789.390   6
  -4   7   6 2186.97 742.545   6
   4   7  -6 3997.32 992.717   7
   4   7  -5 8372.62 1413.15   7
  -4   7   5 6644.71 1102.31   6
   4   7  -5 7000.18 1000.82   5
   4   7  -4 5708.75 1018.74   7
  -4   7   4 6732.82 1033.56   6
  -4   7   4 4603.68 730.573   5
   4   7  -3 8708.02 1175.96   7
  -4   7   3 8034.96 1095.59   6
  -4   7   3 8170.97 998.934   5
   4   7  -2 11133.9 1283.11   7
  -4   7   2 11679.7 1265.61   6
  -4   7   2 12959.7 1270.63   5
   4   7  -1 11343.4 1295.32   7
  -4   7   1 10524.4 1176.74   6
  -4   7   1 11249.8 1231.03   5
  -4   7   0 13946.5 1420.75   5
   4   7   0 14476.0 1507.75   7
   4   7   1 11248.7 1339.00   7
  -4   7  -1 12545.8 1382.68   5
   4   7   2 11360.9 1382.55   7
  -4   7  -2 10727.0 1357.05   5
   4   7   3 8216.30 1230.94   7
  -4   7  -3 10142.6 1363.82   5
   4   7   4 5591.28 1065.15   2
   4   7   4 5336.31 1057.25   7
  -4   7  -4 6387.78 1195.59   5
   4   7   5 4879.81 1076.69   7
   4   7   5 6070.40 1125.47   2
  -4   7  -5 5210.50 1134.66   5
   4   7   6 2861.19 914.257   7
   4   8  -6 10367.6 1650.86   7
  -4   8   6 9794.43 1461.14   6
   4   8  -5 10585.9 1567.90   7
  -4   8   5 12716.3 1559.18   6
   4   8  -5 10026.0 1262.21   5
   4   8  -4 15986.1 1773.27   7
  -4   8   4 19398.5 1856.50   6
   4   8  -4 15930.8 1618.63   5
  -4   8   3 20091.3 1835.41   6
  -4   8   3 19296.4 1670.62   5
   4   8  -3 20378.2 1929.62   7
  -4   8   2 15958.7 1612.29   6
  -4   8   2 18030.9 1630.77   5
   4   8  -2 16714.9 1702.91   7
  -4   8   1 24075.2 1909.50   6
  -4   8   1 21648.5 1864.39   5
   4   8  -1 21365.6 1910.24   7
  -4   8   0 23013.3 1979.00   5
   4   8   0 22827.6 2016.67   7
  -4   8  -1 18660.9 1829.25   5
   4   8   1 18883.1 1846.89   7
   4   8   2 15351.5 1693.22   2
   4   8   2 13255.0 1581.99   7
  -4   8  -2 17334.2 1821.34   5
   4   8   3 14366.9 1730.20   7
   4   8   3 14077.7 1679.25   2
  -4   8  -3 13756.4 1689.25   5
   4   8   4 10862.4 1548.01   7
   4   8   4 11743.5 1600.19   2
  -4   8  -4 9361.02 1471.21   5
   4   9  -5 5049.13 1156.18   7
  -4   9   5 5213.00 1103.89   6
   4   9  -5 2806.19 768.320   5
   4   9  -4 2600.98 874.990   7
  -4   9   4 4641.62 1048.69   6
   4   9  -4 3766.23 872.722   5
   4   9  -3 4900.09 1038.25   7
  -4   9   3 5863.25 966.077   5
  -4   9   3 4843.90 1010.31   6
   4   9  -2 7025.08 1169.14   7
  -4   9   2 8069.20 1238.79   6
  -4   9   2 7444.77 1105.89   5
   4   9  -2 6125.97 1075.52   2
   4   9  -1 7070.06 1159.81   7
   4   9  -1 6060.14 1069.44   2
  -4   9   1 4082.58 888.379   5
   4   9   0 6841.51 1192.00   7
   4   9   0 6214.01 1113.57   2
  -4   9   0 7782.14 1211.19   5
   4   9   1 5893.16 1124.31   7
   4   9   1 4768.80 1045.77   2
  -4   9  -1 5978.02 1139.09   5
   4   9   2 6869.76 1195.26   7
   4   9   2 5362.83 1108.33   2
  -4   9  -2 5589.12 1163.57   5
   4   9   3 2418.18 765.327   7
  -4   9  -3 2420.86 839.247   5
  -4  10   3 10080.3 1350.37   5
   4  10  -3 12404.6 1577.11   5
   4  10  -2 15452.0 1769.94   7
  -4  10   2 10240.6 1406.99   5
   4  10  -1 13952.7 1681.21   7
   4  10  -1 13328.2 1651.62   2
  -4  10   1 15886.1 1777.14   5
   4  10   0 18244.8 1958.30   7
  -4  10   0 16415.2 1878.10   5
   5  -8  -5 5391.33 1127.37   1
   5  -8  -4 5960.02 1118.49   1
   5  -8  -3 5626.70 1058.42   1
   5  -7  -6 9341.82 1407.25   1
   5  -7  -5 9147.39 1325.10   1
   5  -7  -4 17276.5 1749.25   1
   5  -7  -3 19412.1 1815.16   1
   5  -7   3 13428.7 1518.12   4
   5  -7   4 7855.38 1232.59   4
   5  -7   5 5765.41 1128.44   4
   5  -6  -6 3620.58 898.463   1
   5  -6  -5 11071.6 1381.49   1
   5  -6  -4 8837.58 1182.28   1
   5  -6  -3 13082.8 1395.11   1
   5  -6   1 11922.7 1162.59   4
   5  -6   2 10517.1 1190.14   4
   5  -6   3 5777.46 998.335   4
   5  -6   4 6271.35 1097.11   4
   5  -6   5 3574.21 882.629   4
   5  -6   6 3122.41 912.521   4
   5  -5  -5 28490.9 2155.14   1
   5  -5  -4 49454.4 2826.66   1
   5  -5  -3 54786.1 2920.27   1
   5  -5  -2 52603.3 2753.66   1
   5  -5   0 58060.8 2622.11   4
   5  -5   1 40522.8 2230.91   4
   5  -5   2 34895.3 2188.32   4
   5  -5   3 29489.5 2127.83   4
   5  -5   4 18035.0 1735.94   4
   5  -5   5 12271.7 1541.62   4
   5  -5   6 6968.77 1227.51   4
   5  -5   7 4120.73 1011.05   4
   5  -4  -4 7298.85 954.843   1
   5  -4  -3 10366.6 1060.22   1
   5  -4  -2 17285.0 1331.55   1
   5  -4   0 10144.6 834.772   4
   5  -4   1 14334.2 1143.27   4
   5  -4   2 10670.5 1088.91   4
   5  -4   3 7857.39 1030.89   4
   5  -4   4 7165.69 1058.13   4
   5  -4   5 4356.02 914.923   4
   5  -4   6 3519.20 908.600   4
   5  -4   7 1412.03 693.783   4
  -5  -3   4 27067.2 1527.26   3
   5  -3  -4 28707.6 1847.00   1
   5  -3  -3 28793.9 1764.19   1
   5  -3  -2 25455.6 1542.09   1
   5  -3  -1 31643.1 1631.12   1
   5  -3  -1 26914.3 1160.01   4
   5  -3   0 35943.1 1675.88   4
   5  -3   1 26705.9 1564.39   4
   5  -3   2 22339.3 1541.60   4
   5  -3   3 22592.2 1691.71   4
   5  -3   4 16256.1 1532.74   4
   5  -3   5 11695.3 1383.54   4
   5  -3   6 7043.44 1161.08   4
   5  -3   7 5537.93 1117.04   4
  -5  -2  10 243.665 552.360   6
  -5  -2   9 2477.21 772.904   6
  -5  -2   5 13272.1 929.665   3
  -5  -2   4 10215.4 847.007   3
  -5  -2   3 15765.3 1123.75   3
   5  -2  -2 21817.6 1312.66   1
   5  -2  -1 17639.2 850.760   4
   5  -2  -1 21119.2 1164.30   1
   5  -2   0 16051.0 964.165   4
   5  -2   1 17118.6 1135.90   4
   5  -2   1 13681.9 698.680   7
   5  -2   2 15902.5 1248.92   4
   5  -2   3 6616.51 881.682   4
   5  -2   4 7529.27 1031.65   4
   5  -2   5 6145.36 1002.30   4
   5  -2   6 4906.90 1013.99   4
   5  -2   7 1894.61 738.746   4
   5  -2   8 1906.50 780.142   4
  -5  -1  10 1880.30 746.680   6
  -5  -1   9 8156.63 1285.13   6
  -5  -1   8 7693.81 1157.27   6
  -5  -1   7 16258.5 1591.33   6
  -5  -1   5 28413.7 1520.63   3
  -5  -1   4 52825.8 2294.31   3
   5  -1  -4 46408.0 2766.54   7
  -5  -1   3 59371.5 2563.86   3
   5  -1  -3 57207.1 2734.93   7
  -5  -1   2 60549.2 2706.30   3
   5  -1  -2 62399.1 2499.56   7
   5  -1  -1 62357.6 2195.80   4
  -5  -1   1 52497.0 2083.72   1
  -5  -1   1 66195.8 2806.45   3
   5  -1  -1 67339.6 2278.90   7
   5  -1   0 73267.9 2728.13   4
   5  -1   0 69668.5 2475.95   1
   5  -1   0 71895.9 2530.66   7
   5  -1   1 54184.5 2307.65   4
   5  -1   1 47086.0 1753.30   1
   5  -1   1 52536.3 2010.71   7
   5  -1   2 38532.0 2066.37   4
   5  -1   3 35481.4 2138.63   4
   5  -1   4 20408.5 1666.90   4
   5  -1   5 12230.8 1377.56   4
   5  -1   6 7601.25 1186.98   4
   5  -1   7 4498.62 1006.72   4
   5  -1   8 1183.20 632.559   4
  -5   0  10 275.080 616.830   6
  -5   0   9 1609.41 711.716   6
  -5   0   8 3736.20 898.107   6
  -5   0   7 5731.01 955.723   6
   5   0  -6 9133.97 1441.65   7
  -5   0   6 5870.16 683.015   3
  -5   0   6 6850.85 954.162   6
   5   0  -5 11774.7 1405.22   7
  -5   0   5 14101.2 1283.15   6
  -5   0   5 12591.0 990.102   3
  -5   0   4 10857.2 902.245   3
   5   0  -4 9205.83 1059.01   7
  -5   0   4 10335.7 1029.03   6
  -5   0   3 12009.7 976.510   3
   5   0  -3 14184.9 1095.00   7
  -5   0   2 21684.2 1367.59   3
   5   0  -2 20691.5 1217.55   7
  -5   0   1 15683.9 1176.40   3
  -5   0   1 16165.6 1002.95   6
   5   0  -1 15683.7 917.708   4
   5   0  -1 16441.3 978.070   7
   5   0   0 12437.8 881.650   4
  -5   0   0 13782.1 1136.18   3
  -5   0   0 13610.4 780.676   6
   5   0   0 13645.9 894.726   7
   5   0   1 17587.3 1116.62   4
   5   0   1 16527.0 979.760   7
  -5   0  -1 15533.0 1220.05   3
  -5   0  -1 12407.6 502.432   6
   5   0   2 13700.9 1134.77   4
  -5   0  -2 14599.6 1265.51   3
  -5   0  -3 9905.79 1081.21   3
   5   0   3 9879.65 1049.80   4
  -5   0  -4 7604.14 1027.45   3
   5   0   4 8949.88 1098.34   4
  -5   0  -5 7674.10 1030.28   3
   5   0   5 7267.38 1047.98   4
   5   0   6 3099.52 760.992   4
  -5   0  -6 4084.03 810.876   3
   5   0   7 3054.78 852.920   4
   5   0   8 285.148 495.026   4
  -5   1  10 3799.59 946.885   6
  -5   1   9 5406.61 1067.38   6
  -5   1   8 8535.26 1210.51   6
   5   1  -7 13555.6 1922.61   7
  -5   1   7 15838.0 1538.38   6
  -5   1   6 27517.1 1940.92   6
   5   1  -6 22895.7 2206.39   7
  -5   1   5 29185.7 1940.62   6
   5   1  -5 28519.5 2158.15   7
  -5   1   5 29936.0 1716.25   3
  -5   1   4 50010.9 2566.92   6
   5   1  -4 51835.9 2704.48   7
  -5   1   4 52458.6 2448.61   3
  -5   1   3 59170.2 2722.32   6
  -5   1   3 64171.2 2754.63   3
   5   1  -3 58158.0 2733.43   7
  -5   1   2 61025.1 2574.24   3
  -5   1   2 47573.6 1746.12   4
  -5   1   2 61355.9 2442.80   6
   5   1  -2 60849.0 2459.61   7
  -5   1   1 64756.5 2898.26   3
  -5   1   1 67582.4 2615.02   6
   5   1  -1 66729.2 2737.38   7
   5   1   0 74391.0 2964.72   4
  -5   1   0 76303.1 3253.77   3
  -5   1   0 72759.6 2625.33   6
   5   1   0 78583.0 3041.30   7
   5   1   1 54731.8 2431.48   7
   5   1   1 54210.4 2481.23   4
  -5   1  -1 53644.2 2641.80   3
   5   1   2 39041.2 2126.10   4
  -5   1  -2 39163.9 2211.93   3
   5   1   3 36060.0 2172.92   4
  -5   1  -3 37838.1 2220.70   3
   5   1   4 23989.8 1804.52   4
  -5   1  -4 22383.3 1714.65   3
   5   1   5 12424.6 1408.05   4
  -5   1  -5 14162.4 1394.28   3
   5   1   6 7956.37 1182.16   4
  -5   1  -6 9016.90 1162.76   3
   5   1   7 5210.09 1069.84   4
   5   1   8 2083.44 795.422   4
  -5   2  10 2018.28 748.038   6
  -5   2   9 1943.36 766.496   6
   5   2  -8 2261.30 1012.14   7
  -5   2   8 4885.46 961.011   6
   5   2  -7 3649.39 1052.49   7
  -5   2   7 4652.13 893.834   6
   5   2  -6 7444.63 1242.46   7
  -5   2   6 6545.08 967.083   6
  -5   2   5 13713.7 1310.82   6
   5   2  -5 15348.8 1512.41   7
  -5   2   5 16400.0 1296.16   3
  -5   2   4 8790.58 976.647   6
   5   2  -4 10944.9 1120.12   7
  -5   2   4 9985.83 984.739   3
  -5   2   3 15666.3 1215.50   6
   5   2  -3 18167.8 1330.56   7
  -5   2   3 15574.6 1235.54   3
  -5   2   2 21226.5 1447.31   3
  -5   2   2 22043.3 1343.23   6
   5   2  -2 20586.6 1361.62   7
  -5   2   1 21122.4 1446.09   3
  -5   2   1 20371.7 1173.62   6
   5   2  -1 21319.2 1359.97   7
  -5   2   0 15781.9 1239.70   3
  -5   2   0 14791.3 858.688   6
   5   2   0 16772.6 1187.39   7
   5   2   0 14614.9 1125.98   4
   5   2   1 17699.3 1259.94   7
   5   2   1 19019.6 1291.81   4
  -5   2  -1 18876.3 1375.52   3
  -5   2  -1 14681.5 733.424   6
   5   2   2 14877.3 1234.60   7
   5   2   2 16855.0 1327.66   4
  -5   2  -2 18416.6 1401.06   3
  -5   2  -3 9797.99 1052.07   3
   5   2   3 8604.83 1025.21   4
   5   2   4 9135.83 1138.01   4
  -5   2  -4 8172.46 1001.69   3
   5   2   5 5667.10 983.978   4
  -5   2  -5 5255.73 832.119   3
   5   2   6 4104.03 893.306   4
  -5   2  -6 3587.42 710.791   3
   5   2   7 2784.69 867.401   4
  -5   3   9 5258.63 1083.41   6
   5   3  -9 2368.94 1130.73   7
   5   3  -8 5584.71 1422.41   7
  -5   3   8 6350.19 1113.02   6
   5   3  -7 11036.9 1699.84   7
  -5   3   7 10801.2 1311.28   6
  -5   3   6 15051.3 1505.62   6
   5   3  -6 17590.2 1839.99   7
  -5   3   5 15292.7 1398.20   6
   5   3  -5 15184.0 1526.80   7
  -5   3   4 27094.9 1814.16   6
  -5   3   4 27501.0 1817.11   3
   5   3  -4 29273.2 1966.04   7
  -5   3   3 28280.0 1751.05   6
  -5   3   3 29507.9 1862.21   3
   5   3  -3 29558.2 1863.86   7
  -5   3   2 27964.4 1781.02   3
  -5   3   2 27930.4 1609.88   6
   5   3  -2 26891.4 1699.36   7
  -5   3   1 31286.0 1888.44   3
  -5   3   1 28773.3 1563.40   6
   5   3  -1 31786.2 1846.51   7
  -5   3   0 37277.4 2135.21   3
  -5   3   0 36689.3 1704.45   6
   5   3   0 37579.9 2103.01   7
   5   3   1 23839.0 1649.09   4
  -5   3  -1 28832.3 1825.74   3
   5   3   1 26947.9 1741.91   7
  -5   3  -1 26205.1 1235.40   6
   5   3   2 21229.5 1563.76   4
   5   3   2 20090.5 1548.69   7
  -5   3  -2 23232.6 1660.52   3
   5   3   3 26127.0 1859.32   4
  -5   3  -3 24375.0 1759.53   3
   5   3   4 15898.0 1511.44   4
  -5   3  -4 13490.7 1313.17   3
   5   3   5 12600.3 1452.15   4
  -5   3  -5 9843.54 1167.29   3
   5   3   6 5157.47 1039.40   4
   5   3   7 4625.52 1048.53   4
   5   4  -9 82.5768 694.856   7
  -5   4   9 1459.11 615.973   6
   5   4  -8 1650.83 943.855   7
  -5   4   8 3904.60 891.978   6
   5   4  -7 2368.87 858.996   7
  -5   4   7 2661.63 737.470   6
   5   4  -6 4262.13 962.616   7
  -5   4   6 5612.26 933.593   6
   5   4  -5 9551.33 1247.74   7
  -5   4   5 10436.5 1189.13   6
   5   4  -4 6914.40 991.571   7
  -5   4   4 7065.80 908.344   6
   5   4  -3 9687.21 1075.15   7
  -5   4   3 10545.3 1050.64   6
  -5   4   3 9286.67 840.666   5
  -5   4   3 11035.1 1159.51   3
  -5   4   2 12941.3 1109.58   6
  -5   4   2 14846.8 1145.70   5
  -5   4   2 13977.3 1285.31   3
   5   4  -2 14032.9 1261.30   7
  -5   4   1 11578.0 977.800   6
  -5   4   1 13030.0 1133.03   5
  -5   4   1 12400.8 1180.60   3
   5   4  -1 12312.5 1181.98   7
  -5   4   0 11166.7 888.092   6
   5   4   0 11186.9 1129.54   7
  -5   4   0 8751.97 984.962   5
  -5   4   0 10470.7 1109.52   3
   5   4   1 13324.6 1291.31   7
  -5   4  -1 13461.2 1265.56   3
   5   4   2 11528.6 1193.06   4
  -5   4  -2 12676.6 1259.64   3
   5   4   2 10896.5 1217.71   7
   5   4   3 6483.52 976.166   7
   5   4   3 7471.24 1019.25   4
  -5   4  -3 7508.56 995.123   3
   5   4   4 6629.07 1028.31   4
  -5   4  -4 7066.45 965.691   3
   5   4   5 6402.93 1067.51   4
  -5   4  -5 4384.64 793.800   3
   5   4   6 3368.13 865.291   4
   5   4   7 2477.96 839.997   4
   5   5  -8 7418.86 1611.71   7
  -5   5   8 8429.27 1325.75   6
   5   5  -7 13455.9 1882.72   7
  -5   5   7 11184.9 1429.50   6
  -5   5   6 20585.8 1844.32   6
   5   5  -6 18337.6 1974.49   7
  -5   5   5 24092.9 1930.97   6
   5   5  -5 26231.3 2143.16   7
  -5   5   4 40937.0 2502.84   6
   5   5  -4 44139.7 2708.58   7
  -5   5   3 47485.0 2574.71   6
  -5   5   3 42822.8 2258.75   5
   5   5  -3 47945.2 2709.18   7
  -5   5   2 53336.9 2632.09   6
  -5   5   2 48523.9 2505.18   5
  -5   5   2 49182.4 2776.68   3
   5   5  -2 46558.8 2717.73   7
  -5   5   1 54280.4 2609.90   6
  -5   5   1 49565.0 2684.81   5
  -5   5   1 55470.4 2949.30   3
   5   5  -1 52768.4 2849.60   7
  -5   5   0 55950.1 2653.34   6
  -5   5   0 55279.3 2957.87   5
  -5   5   0 58464.0 3082.11   3
   5   5   0 60429.7 3113.22   7
   5   5   1 43531.4 2584.99   7
  -5   5  -1 38542.4 2456.90   5
  -5   5  -1 40826.3 2469.45   3
   5   5   2 35784.8 2414.92   7
  -5   5  -2 34194.5 2341.48   5
  -5   5  -2 30046.8 2131.03   3
   5   5   3 24536.3 2048.57   7
  -5   5  -3 26516.5 1968.67   3
   5   5   3 23916.6 1959.39   4
   5   5   4 17297.7 1681.57   4
   5   5   4 16107.6 1715.93   7
  -5   5  -4 16000.0 1528.20   3
   5   5   5 11933.5 1469.73   4
   5   5   6 5715.89 1136.20   4
   5   5   7 3362.08 900.005   2
   5   6  -8 3328.14 1257.28   7
  -5   6   8 2081.06 796.585   6
   5   6  -7 3481.67 1105.03   7
  -5   6   7 3043.43 849.455   6
   5   6  -6 3571.02 985.816   7
  -5   6   6 5489.20 1048.75   6
   5   6  -5 8997.64 1319.44   7
  -5   6   5 9977.91 1308.67   6
   5   6  -4 7590.94 1136.30   7
  -5   6   4 5896.00 952.736   6
   5   6  -3 11002.2 1297.34   7
  -5   6   3 10639.6 1199.75   6
  -5   6   3 9188.20 1000.73   5
  -5   6   2 15475.6 1369.83   6
  -5   6   2 12119.2 1217.14   5
   5   6  -2 13829.7 1411.17   7
  -5   6   1 11394.2 1142.59   6
  -5   6   1 14059.6 1330.90   5
  -5   6   1 10874.7 1275.87   3
   5   6  -1 12536.8 1359.61   7
   5   6   0 11301.8 1298.12   7
  -5   6   0 10544.3 1053.34   6
  -5   6   0 11832.7 1310.25   3
  -5   6   0 8044.79 1080.00   5
   5   6   1 12112.1 1364.94   7
  -5   6  -1 10450.7 1265.47   3
  -5   6  -1 10582.8 1281.02   5
   5   6   2 12149.3 1418.35   7
  -5   6  -2 11964.4 1352.34   3
  -5   6  -2 9844.70 1302.09   5
   5   6   3 5463.90 1025.48   7
  -5   6  -3 6260.90 1008.83   3
  -5   6  -3 6270.87 1087.66   5
   5   6   4 5749.82 1112.13   7
  -5   6  -4 5382.41 949.644   3
   5   6   5 3231.62 910.426   7
   5   6   5 4179.19 943.404   4
   5   6   6 1153.82 615.367   7
   5   6   6 2871.56 819.052   4
   5   7  -7 5962.80 1393.82   7
  -5   7   7 7325.46 1293.13   6
   5   7  -6 6574.52 1261.99   7
  -5   7   6 10789.3 1455.74   6
   5   7  -5 13122.1 1643.73   7
  -5   7   5 11257.0 1428.10   6
  -5   7   4 16223.6 1644.08   6
   5   7  -4 15537.7 1708.33   7
  -5   7   3 17094.5 1630.58   6
  -5   7   3 16109.9 1448.46   5
   5   7  -3 17950.5 1742.37   7
  -5   7   2 16274.1 1529.28   6
  -5   7   2 16434.4 1497.10   5
   5   7  -2 15639.7 1586.10   7
  -5   7   1 21770.8 1717.09   6
  -5   7   1 16374.7 1581.50   5
   5   7  -1 18873.0 1749.23   7
  -5   7   0 20941.8 1849.22   5
   5   7   0 21215.8 1922.80   7
  -5   7  -1 14251.7 1606.29   5
   5   7   1 17428.2 1735.35   7
   5   7   2 14422.8 1667.54   7
  -5   7  -2 10437.6 1411.27   5
   5   7   3 13451.4 1650.04   7
  -5   7  -3 12423.7 1598.57   5
   5   7   4 6928.41 1241.02   7
   5   7   5 6686.42 1305.22   7
  -5   8   6 1991.46 796.916   6
   5   8  -5 3705.16 1044.22   7
  -5   8   5 3738.07 941.427   6
   5   8  -4 4304.87 1012.93   7
  -5   8   4 5336.14 994.080   6
   5   8  -3 5054.36 997.392   7
  -5   8   3 5622.06 1026.58   6
  -5   8   3 4844.64 846.516   5
   5   8  -2 8922.48 1276.14   7
  -5   8   2 8846.45 1213.59   6
  -5   8   2 8863.73 1166.81   5
   5   8  -1 6671.29 1084.41   7
  -5   8   1 8670.06 1173.69   6
  -5   8   1 8458.25 1197.65   5
   5   8   0 5208.68 1035.25   7
  -5   8   0 5205.38 978.514   5
   5   8   1 6104.63 1121.85   7
  -5   8  -1 7254.83 1179.02   5
   5   8   2 5550.07 1111.66   7
  -5   8  -2 4536.94 1096.96   5
   5   8   3 5042.70 1082.17   7
  -5   8  -3 3083.44 891.170   5
   5   9  -4 13494.8 1735.18   7
  -5   9   4 13194.1 1640.37   6
   5   9  -4 12859.7 1540.71   5
   5   9  -3 13858.0 1702.67   7
  -5   9   3 12667.0 1574.63   6
   5   9  -2 11628.6 1488.35   2
   5   9  -2 14269.6 1673.44   7
  -5   9   2 12638.6 1516.14   6
  -5   9   2 12844.7 1490.71   5
   5   9  -1 13157.0 1605.35   2
   5   9  -1 15847.1 1766.19   7
  -5   9   1 12499.6 1527.37   5
   5   9   0 16464.6 1835.66   2
   5   9   0 16770.1 1852.47   7
  -5   9   0 15549.6 1778.74   5
   5   9   1 13420.5 1700.01   7
  -5   9  -1 14028.6 1752.50   5
  -5   9  -2 10106.2 1531.49   5
  -5  10   2 2693.85 716.509   5
   6  -8  -4 11604.5 1571.83   1
   6  -8  -3 16926.8 1845.78   1
   6  -8  -2 13783.3 1653.92   1
   6  -7  -5 4989.23 1060.45   1
   6  -7  -4 11754.8 1472.42   1
   6  -7  -3 5700.27 1045.38   1
   6  -7  -2 8865.29 1204.87   1
   6  -6  -5 15794.2 1695.05   1
   6  -6  -4 19077.2 1787.32   1
   6  -6  -3 27423.9 2104.50   1
   6  -6  -2 23838.6 1901.15   1
   6  -6   5 6648.48 1159.21   4
   6  -5  -5 5136.48 964.745   1
   6  -5  -4 6436.53 984.938   1
   6  -5  -3 9655.47 1150.97   1
   6  -5  -2 12836.8 1265.49   1
   6  -5   3 8162.48 1113.60   4
   6  -5   4 7628.37 1159.96   4
   6  -5   5 5128.31 1036.71   4
   6  -5   6 2516.65 825.757   4
   6  -4  -4 28917.7 2038.94   1
   6  -4  -3 31194.9 2017.17   1
   6  -4  -2 31088.0 1928.02   1
   6  -4  -1 30560.0 1842.23   1
   6  -4   1 20861.8 1439.16   4
   6  -4   2 22595.6 1671.33   4
   6  -4   3 17436.5 1619.91   4
   6  -4   4 10196.6 1292.75   4
   6  -4   5 7296.05 1189.29   4
   6  -4   6 2647.73 798.570   4
  -6  -3   4 11658.8 1057.01   3
   6  -3  -3 8667.82 951.068   1
   6  -3  -2 13495.9 1115.19   1
   6  -3  -1 12994.2 1028.88   1
   6  -3   0 6952.28 702.261   1
   6  -3   0 5845.93 598.510   4
   6  -3   1 9289.53 897.781   4
   6  -3   2 4654.08 717.350   4
   6  -3   3 3796.20 764.502   4
   6  -3   4 4887.86 904.928   4
   6  -3   5 2128.79 664.192   4
   6  -3   6 2210.35 743.947   4
   6  -3   7 1073.08 628.110   4
  -6  -2   9 5369.22 1146.29   6
  -6  -2   5 21484.2 1392.43   3
  -6  -2   4 23788.4 1532.51   3
  -6  -2   3 33565.0 1957.93   3
  -6  -2   2 35236.2 2051.63   3
   6  -2  -1 28129.6 1272.20   4
   6  -2  -1 34043.8 1617.95   1
   6  -2   0 42022.0 1919.61   4
   6  -2   0 44101.5 1881.66   1
   6  -2   1 24913.4 1515.86   4
   6  -2   2 22156.8 1581.47   4
   6  -2   3 20822.0 1664.50   4
   6  -2   4 13496.2 1426.75   4
   6  -2   5 9945.54 1358.22   4
   6  -2   6 6121.68 1104.60   4
   6  -2   7 3756.35 1008.94   4
  -6  -1   9 2165.63 817.224   6
  -6  -1   8 3117.48 880.976   6
  -6  -1   7 3694.01 827.663   6
  -6  -1   5 8089.27 837.567   3
   6  -1  -5 5942.27 1052.25   7
   6  -1  -4 8251.32 1071.65   7
  -6  -1   4 11917.2 1024.29   3
  -6  -1   3 12609.4 1095.11   3
   6  -1  -3 11835.1 1077.02   7
  -6  -1   2 17594.8 1348.27   3
   6  -1  -2 15034.6 1028.44   7
   6  -1  -1 15581.9 921.635   4
  -6  -1   1 18527.4 1421.70   3
   6  -1  -1 18643.5 998.396   7
   6  -1   0 11672.2 877.675   4
  -6  -1   0 11584.6 1157.24   3
   6  -1   0 10226.8 694.322   7
   6  -1   1 16548.7 1217.84   4
   6  -1   1 17856.8 1034.38   7
   6  -1   2 11508.3 884.008   7
   6  -1   2 12727.4 1151.57   4
   6  -1   3 9391.40 1086.00   4
   6  -1   4 7888.94 1086.41   4
   6  -1   5 2462.01 751.443   4
  -6  -1  -6 4983.71 983.028   3
   6  -1   6 2994.44 827.027   4
   6  -1   7 1247.37 675.182   4
  -6  -1  -7 644.663 478.343   3
  -6   0   9 5423.97 1067.64   6
  -6   0   8 9508.34 1330.74   6
  -6   0   7 17657.9 1696.02   6
   6   0  -6 16781.4 1941.51   7
  -6   0   6 23008.8 1849.12   6
  -6   0   5 33213.8 2152.05   6
   6   0  -5 30114.0 2337.35   7
  -6   0   5 30913.7 1828.27   3
  -6   0   4 43477.2 2248.62   3
  -6   0   4 40031.1 2314.97   6
   6   0  -4 42699.6 2494.82   7
  -6   0   3 49615.5 2491.76   3
  -6   0   3 50737.1 2513.91   6
   6   0  -3 51939.0 2494.80   7
  -6   0   2 59449.2 2791.66   3
  -6   0   2 53358.9 2539.81   6
   6   0  -2 60114.5 2544.71   7
  -6   0   1 44895.0 2390.71   3
  -6   0   1 45842.0 2039.69   6
   6   0  -1 43000.1 1982.95   7
   6   0   0 66647.0 2719.84   4
  -6   0   0 64925.4 3130.42   3
  -6   0   0 64055.4 2409.86   6
   6   0   0 61553.2 2603.37   7
   6   0   1 34599.4 1749.59   7
   6   0   1 30587.2 1818.43   4
  -6   0  -1 35474.8 2174.03   3
   6   0   2 30203.9 1718.44   7
   6   0   2 32115.0 1955.40   4
  -6   0  -2 33196.8 2156.90   3
   6   0   3 27777.3 1940.65   4
  -6   0  -3 28750.9 2072.08   3
   6   0   4 16340.8 1561.89   4
  -6   0  -4 16480.5 1619.27   3
   6   0   5 11859.6 1416.05   4
  -6   0  -5 11804.8 1429.67   3
   6   0   6 6793.56 1150.64   4
  -6   0  -6 6454.59 1107.71   3
   6   0   7 4194.24 1025.60   4
  -6   1   9 2423.55 781.676   6
  -6   1   8 2589.95 805.744   6
   6   1  -7 2506.50 950.976   7
  -6   1   7 3939.31 853.489   6
   6   1  -6 5008.53 1042.43   7
  -6   1   6 5596.33 772.811   3
  -6   1   6 5085.22 914.105   6
   6   1  -5 7255.55 1095.30   7
  -6   1   5 7095.79 1001.69   6
  -6   1   5 9595.86 992.320   3
  -6   1   4 11012.4 1058.46   3
  -6   1   4 10667.3 1099.62   6
   6   1  -4 13178.2 1244.51   7
  -6   1   3 11373.9 1079.76   3
  -6   1   3 11611.4 1050.11   6
   6   1  -3 11789.7 1066.24   7
  -6   1   2 14640.9 1253.37   3
  -6   1   2 15665.7 1135.88   6
   6   1  -2 16422.3 1184.43   7
  -6   1   1 21179.2 1529.80   3
  -6   1   1 19339.1 1172.12   6
   6   1  -1 20274.8 1302.35   7
   6   1   0 10720.4 920.983   4
  -6   1   0 13642.6 1227.96   3
  -6   1   0 10545.5 686.613   6
   6   1   0 10911.6 936.484   7
   6   1   1 19679.0 1360.72   7
   6   1   1 17478.9 1315.78   4
  -6   1  -1 20479.2 1567.54   3
   6   1   2 12757.3 1120.76   7
   6   1   2 12155.4 1170.90   4
  -6   1  -2 13494.6 1313.92   3
   6   1   3 7307.17 1001.79   4
  -6   1  -3 9299.09 1129.43   3
   6   1   4 8191.09 1135.03   4
  -6   1  -4 8983.77 1155.08   3
   6   1   5 4138.21 907.459   4
  -6   1  -5 6683.71 1062.29   3
   6   1   6 3762.37 976.529   4
  -6   1  -6 3530.67 805.559   3
   6   1   7 2079.45 800.094   4
  -6   2   9 4306.28 1001.02   6
   6   2  -8 5239.85 1359.44   7
  -6   2   8 6985.08 1149.08   6
   6   2  -7 10942.2 1728.48   7
  -6   2   7 10378.6 1316.53   6
   6   2  -6 14377.7 1728.42   7
  -6   2   6 13991.2 1434.86   6
  -6   2   6 15442.7 1391.24   3
  -6   2   5 20892.9 1656.66   6
   6   2  -5 17980.6 1691.47   7
  -6   2   5 21306.1 1589.03   3
  -6   2   4 26861.0 1831.98   6
   6   2  -4 29807.4 1997.80   7
  -6   2   4 27533.9 1833.17   3
  -6   2   3 36397.7 2144.25   3
  -6   2   3 34877.1 2017.65   6
   6   2  -3 37687.0 2145.20   7
  -6   2   2 35382.6 2101.65   3
  -6   2   2 33967.9 1834.12   6
   6   2  -2 34193.9 1943.12   7
  -6   2   1 32832.4 2036.25   3
  -6   2   1 32511.7 1634.14   6
   6   2  -1 32839.0 1876.73   7
  -6   2   0 42167.3 2423.60   3
  -6   2   0 43006.8 1813.90   6
   6   2   0 45383.3 2278.91   4
   6   2   0 46845.8 2354.39   7
   6   2   1 26919.0 1770.04   7
   6   2   1 29595.0 1803.18   4
  -6   2  -1 25523.7 1846.28   3
   6   2   2 25687.7 1782.40   7
   6   2   2 25060.5 1775.34   4
  -6   2  -2 24671.1 1828.66   3
   6   2   3 22842.7 1720.84   7
   6   2   3 21188.8 1747.64   4
  -6   2  -3 20668.9 1732.29   3
   6   2   4 13431.4 1468.14   4
  -6   2  -4 12195.3 1340.62   3
   6   2   5 9586.69 1336.70   4
  -6   2  -5 10623.0 1305.47   3
   6   2   6 4483.70 1028.59   4
  -6   2  -6 4189.58 865.161   3
   6   2   7 3731.35 952.568   4
   6   3  -9 2439.81 1182.08   7
  -6   3   9 3122.00 870.955   6
   6   3  -8 1673.49 952.629   7
  -6   3   8 4909.99 1023.26   6
   6   3  -7 5218.90 1216.47   7
  -6   3   7 4815.80 953.667   6
   6   3  -6 8003.08 1289.37   7
  -6   3   6 6942.03 1056.45   6
   6   3  -5 7031.08 1109.40   7
  -6   3   5 9361.50 1099.18   3
  -6   3   5 8526.24 1082.85   6
   6   3  -4 9269.53 1123.06   7
  -6   3   4 10697.7 1138.89   6
  -6   3   4 10583.5 1131.66   3
  -6   3   3 11382.8 1093.66   6
   6   3  -3 11865.1 1190.09   7
  -6   3   3 10655.4 1135.78   3
  -6   3   2 13050.9 1072.26   6
   6   3  -2 12188.9 1164.37   7
  -6   3   2 11754.9 1191.33   3
  -6   3   1 12844.4 1256.09   3
  -6   3   1 12663.5 977.171   6
   6   3  -1 12333.3 1139.02   7
   6   3   0 7059.77 888.775   7
  -6   3   0 5393.97 560.745   6
  -6   3   0 6234.17 898.273   3
   6   3   1 9696.09 1111.16   7
  -6   3  -1 10859.1 1194.49   3
   6   3   1 10927.2 1119.51   4
   6   3   2 6384.65 918.319   7
   6   3   2 5621.25 855.842   4
  -6   3  -2 6052.28 927.414   3
   6   3   3 4938.12 893.507   7
   6   3   3 4821.82 838.655   4
  -6   3  -3 4156.49 788.243   3
   6   3   4 3801.18 848.191   4
  -6   3  -4 4088.94 807.850   3
   6   3   5 2608.04 855.627   4
  -6   3  -5 1726.90 586.462   3
   6   3   6 1576.58 748.712   4
   6   4  -8 4079.79 1266.98   7
  -6   4   8 8266.18 1305.80   6
   6   4  -7 14970.4 1967.29   7
  -6   4   7 11254.1 1428.79   6
   6   4  -6 14288.3 1731.07   7
  -6   4   6 17080.4 1667.29   6
  -6   4   5 24739.7 1915.05   6
   6   4  -5 23776.3 2055.75   7
  -6   4   4 29024.7 1984.37   6
  -6   4   4 29835.6 2079.40   3
   6   4  -4 26664.3 2067.02   7
   6   4  -3 31775.2 2153.23   7
  -6   4   3 32761.6 2032.76   6
  -6   4   3 33413.3 2208.17   3
  -6   4   2 29645.7 1849.03   6
  -6   4   2 36510.9 2261.13   3
   6   4  -2 33720.4 2124.07   7
  -6   4   1 29893.9 1742.01   6
  -6   4   1 32464.6 2155.34   3
   6   4  -1 33681.9 2122.10   7
   6   4   0 41459.8 2497.01   7
  -6   4   0 40911.2 2505.94   3
  -6   4  -1 24417.8 1888.80   3
   6   4   1 24962.7 1893.34   7
   6   4   2 25731.1 1982.59   7
  -6   4  -2 24017.5 1898.85   3
   6   4   2 21913.8 1818.78   4
   6   4   3 18581.7 1704.71   4
   6   4   3 18315.6 1739.46   7
  -6   4  -3 17443.9 1634.90   3
   6   4   4 9635.18 1336.09   7
   6   4   4 12264.9 1439.27   4
  -6   4  -4 12485.3 1411.03   3
   6   4   5 8593.38 1327.10   7
   6   4   5 8113.10 1272.58   4
  -6   4  -5 6505.37 1046.30   3
   6   4   6 4335.14 1017.77   4
   6   5  -8 709.978 608.673   7
  -6   5   8 1887.12 820.640   6
   6   5  -7 3935.76 1109.45   7
  -6   5   7 2816.38 799.844   6
   6   5  -6 3766.62 965.859   7
  -6   5   6 3756.12 870.546   6
   6   5  -5 4887.26 998.265   7
  -6   5   5 5086.22 911.471   6
   6   5  -4 9128.18 1211.60   7
  -6   5   4 7636.06 1035.47   6
   6   5  -3 6981.91 1037.12   7
  -6   5   3 9300.38 1184.94   3
  -6   5   3 8476.80 1036.07   6
  -6   5   3 7271.79 863.439   5
   6   5  -2 11893.0 1286.10   7
  -6   5   2 10425.1 1090.34   6
  -6   5   2 10931.3 1277.61   3
  -6   5   2 9828.19 1076.90   5
  -6   5   1 13623.9 1167.51   6
  -6   5   1 12422.5 1268.81   5
  -6   5   1 14092.9 1440.82   3
   6   5  -1 14153.3 1387.18   7
   6   5   0 10416.9 1239.81   7
  -6   5   0 9684.43 1211.26   3
  -6   5  -1 16722.0 1587.79   3
   6   5   1 14434.4 1495.73   7
   6   5   2 12703.1 1464.35   7
  -6   5  -2 12522.2 1396.93   3
   6   5   3 8386.39 1239.43   7
  -6   5  -3 9313.93 1233.04   3
   6   5   3 8240.35 1195.23   4
   6   5   4 8078.22 1291.21   7
   6   5   4 6678.06 1120.37   4
  -6   5  -4 6599.12 1070.29   3
   6   5   5 2422.17 885.152   7
   6   5   5 4715.24 1020.34   4
   6   5   6 3588.93 991.949   7
   6   6  -7 8903.85 1600.65   7
  -6   6   7 10889.5 1492.56   6
   6   6  -6 12033.3 1681.19   7
  -6   6   6 13191.5 1598.53   6
  -6   6   5 17300.0 1724.75   6
   6   6  -5 16252.9 1816.62   7
  -6   6   4 21712.1 1853.60   6
   6   6  -4 21369.1 1977.70   7
  -6   6   3 27525.9 2031.65   6
   6   6  -3 29812.1 2244.69   7
  -6   6   2 25365.3 1861.47   6
  -6   6   2 24067.5 1824.56   5
  -6   6   2 28275.6 2179.98   3
   6   6  -2 24983.8 2016.11   7
  -6   6   1 25703.5 1784.61   6
  -6   6   1 24703.9 1914.55   5
  -6   6   1 24013.8 2016.19   3
   6   6  -1 22311.3 1913.43   7
  -6   6   0 31211.5 2272.44   5
  -6   6   0 33030.3 2390.03   3
   6   6   0 29578.9 2296.64   7
  -6   6  -1 19815.4 1877.83   5
  -6   6  -1 21156.9 1893.09   3
   6   6   1 21083.6 1933.31   7
   6   6   2 18607.7 1878.09   7
  -6   6  -2 17692.1 1757.43   3
   6   6   3 14554.0 1726.32   7
  -6   6  -3 12830.6 1510.97   3
   6   6   4 9415.99 1431.69   7
  -6   6  -4 8929.17 1293.20   3
   6   6   5 4509.16 1115.43   7
   6   6   5 7413.51 1262.13   4
   6   7  -6 3949.34 1083.51   7
  -6   7   6 5247.46 1051.42   6
   6   7  -5 7950.84 1324.15   7
  -6   7   5 4326.48 956.952   6
   6   7  -4 4856.93 1009.93   7
  -6   7   4 6456.75 1074.33   6
   6   7  -3 5562.99 1073.43   7
  -6   7   3 6838.16 1044.46   6
   6   7  -2 8829.91 1239.12   7
  -6   7   2 9124.08 1138.01   6
  -6   7   2 8672.00 1128.19   5
   6   7  -1 7588.62 1200.71   7
  -6   7   1 7627.27 1036.46   6
  -6   7   1 6786.93 1060.18   5
   6   7   0 4944.76 1016.93   7
  -6   7   0 4904.37 1019.50   3
  -6   7   0 5541.14 1000.38   5
   6   7   1 8100.43 1244.89   7
  -6   7  -1 7078.48 1183.86   3
  -6   7  -1 7243.17 1178.22   5
   6   7   2 5593.10 1111.57   7
  -6   7  -2 5384.57 1033.64   3
   6   7   3 3222.46 922.082   7
  -6   7  -3 3324.30 927.473   3
   6   7   4 2279.80 880.755   7
  -6   8   5 6832.00 1216.93   6
   6   8  -4 10260.8 1496.18   7
  -6   8   4 10269.6 1382.59   6
   6   8  -3 11594.4 1570.49   7
  -6   8   3 12332.6 1475.47   6
   6   8  -2 13984.6 1656.89   7
  -6   8   2 14626.0 1551.55   6
  -6   8   2 11663.6 1385.43   5
   6   8  -1 10439.7 1452.43   7
  -6   8   1 10556.3 1378.47   5
   6   8   0 16091.3 1784.82   7
  -6   8   0 15556.9 1731.63   5
   6   8   1 10901.2 1511.67   7
  -6   8  -1 10050.9 1469.61   5
   6   8   2 10385.7 1553.92   7
  -6   8  -2 9522.28 1464.92   5
  -6   9   3 4301.54 991.929   6
  -6   9   2 3788.20 881.287   6
  -6   9   1 2404.54 774.027   5
  -6   9   0 1864.33 701.956   5
   7  -8  -2 4192.45 947.817   1
   7  -8  -1 3018.33 814.294   1
   7  -7  -5 11708.4 1604.77   1
   7  -7  -4 16242.2 1806.73   1
   7  -7  -3 17135.4 1784.63   1
   7  -7  -2 19184.4 1845.65   1
   7  -7  -1 18393.4 1759.84   1
   7  -6  -5 4708.64 1021.12   1
   7  -6  -4 6457.76 1090.73   1
   7  -6  -3 5987.00 1003.47   1
   7  -6  -2 7597.16 1095.21   1
   7  -6  -1 7683.24 1064.67   1
   7  -5  -4 13130.1 1467.82   1
   7  -5  -3 17675.2 1615.42   1
   7  -5  -2 16967.9 1519.39   1
   7  -5  -1 16993.8 1465.48   1
  -7  -4   4 7591.07 946.590   3
   7  -4  -3 8109.36 1014.74   1
   7  -4  -2 12790.0 1211.89   1
   7  -4   4 4162.87 907.783   4
   7  -4   5 3301.91 917.943   4
   7  -4   6 1660.92 738.274   4
  -7  -3   4 30447.1 1961.47   3
  -7  -3   3 36227.4 2236.48   3
   7  -3  -2 35192.2 2010.26   1
   7  -3   3 12691.4 1361.78   4
   7  -3   4 12481.6 1454.65   4
   7  -3   5 6255.57 1110.45   4
   7  -3   6 4150.84 983.920   4
  -7  -2   8 3699.26 959.983   6
  -7  -2   5 6538.46 822.035   3
  -7  -2   4 8396.70 952.845   3
  -7  -2   3 7488.10 942.547   3
  -7  -2   2 10682.6 1159.09   3
  -7  -2   1 11166.6 1211.85   3
   7  -2   1 8508.67 885.461   4
   7  -2   2 5183.75 795.538   4
   7  -2   3 6804.89 993.679   4
   7  -2   4 3406.21 801.078   4
   7  -2   5 3371.57 888.878   4
  -7  -2  -6 1906.13 767.415   3
   7  -2   6 1621.89 663.727   4
  -7  -1   9 4457.87 1046.53   6
  -7  -1   8 6432.83 1200.31   6
  -7  -1   7 10158.9 1361.75   6
  -7  -1   6 11822.9 1390.16   6
  -7  -1   5 22666.3 1617.56   3
  -7  -1   4 24296.8 1696.34   3
  -7  -1   3 31408.0 2001.27   3
  -7  -1   2 25756.5 1815.67   3
  -7  -1   1 32189.9 2133.52   3
   7  -1   0 30220.4 1664.26   4
  -7  -1   0 32754.2 2184.66   3
   7  -1   1 20428.8 1471.76   4
  -7  -1  -1 24957.1 1930.59   3
   7  -1   2 18429.8 1505.38   4
  -7  -1  -2 21945.3 1880.41   3
   7  -1   3 15271.3 1487.04   4
  -7  -1  -3 16265.2 1671.13   3
   7  -1   4 10907.0 1348.66   4
  -7  -1  -4 12603.3 1545.63   3
   7  -1   5 5642.63 1060.39   4
  -7  -1  -5 5774.54 1166.25   3
   7  -1   6 5404.36 1105.44   4
  -7  -1  -6 4997.51 1128.04   3
  -7   0   9 122.848 587.237   6
  -7   0   8 2565.34 815.990   6
  -7   0   7 1527.61 632.352   6
   7   0  -6 5117.53 1124.31   7
  -7   0   6 4838.10 900.660   6
   7   0  -5 6313.41 1098.22   7
  -7   0   5 7844.04 942.033   3
  -7   0   5 8109.87 1057.68   6
   7   0  -4 8541.85 1082.48   7
  -7   0   4 8106.62 1001.34   6
  -7   0   4 8720.69 1010.82   3
   7   0  -3 8614.87 953.492   7
  -7   0   3 11072.9 1132.83   3
  -7   0   3 10187.7 1026.35   6
  -7   0   2 14278.2 1319.63   3
  -7   0   2 15212.3 1176.34   6
   7   0  -2 15607.0 1152.07   7
  -7   0   1 17984.9 1516.05   3
  -7   0   1 16018.0 1116.19   6
   7   0  -1 17880.4 1166.01   7
   7   0   0 11065.6 974.544   4
  -7   0   0 12859.5 1323.73   3
   7   0   0 10948.2 891.386   7
   7   0   1 14828.7 1232.89   4
  -7   0  -1 16005.7 1537.62   3
   7   0   2 11566.3 1199.00   4
  -7   0  -2 11996.4 1351.22   3
   7   0   3 8195.96 1116.63   4
  -7   0  -3 12034.0 1425.57   3
   7   0   4 5884.96 1044.35   4
  -7   0  -4 4730.31 1010.34   3
   7   0   5 3786.01 891.171   4
  -7   0  -5 4660.15 993.591   3
   7   0   6 2372.43 837.269   4
  -7   0  -6 2274.05 807.398   3
  -7   1   9 4371.51 1033.08   6
  -7   1   8 6102.12 1124.62   6
   7   1  -8 4829.96 1394.56   7
   7   1  -7 9113.86 1625.65   7
  -7   1   7 11566.7 1398.13   6
   7   1  -6 14711.8 1802.22   7
  -7   1   6 15641.0 1578.69   6
  -7   1   6 13340.4 1324.77   3
  -7   1   5 19697.0 1667.00   6
   7   1  -5 18123.0 1772.07   7
  -7   1   5 18462.6 1530.78   3
  -7   1   4 21395.8 1653.48   3
  -7   1   4 21523.2 1646.10   6
   7   1  -4 22077.9 1741.09   7
  -7   1   3 31855.2 2060.78   3
  -7   1   3 32041.0 1936.34   6
   7   1  -3 30014.1 1918.03   7
  -7   1   2 29585.4 1981.14   3
  -7   1   2 28088.9 1671.38   6
   7   1  -2 27719.7 1719.41   7
  -7   1   1 29571.0 2033.33   3
   7   1  -1 30143.5 1748.68   7
   7   1   0 30056.3 1841.71   4
  -7   1   0 36313.1 2283.91   3
   7   1   0 35709.6 1928.67   7
   7   1   1 20014.6 1510.85   4
  -7   1  -1 21776.3 1780.37   3
   7   1   1 21217.1 1482.91   7
   7   1   2 21471.1 1582.62   7
   7   1   2 21331.1 1691.77   4
  -7   1  -2 20256.3 1768.48   3
   7   1   3 15212.9 1392.71   7
   7   1   3 16602.5 1578.73   4
  -7   1  -3 15599.8 1591.87   3
   7   1   4 10158.9 1222.20   7
   7   1   4 11305.1 1410.29   4
  -7   1  -4 13944.6 1539.30   3
   7   1   5 7037.97 1199.27   4
  -7   1  -5 5098.53 1033.53   3
   7   1   6 3568.15 970.860   4
  -7   1  -6 4736.66 996.774   3
   7   2  -8 1774.06 979.826   7
  -7   2   8 3137.36 849.859   6
   7   2  -7 3204.34 1053.20   7
  -7   2   7 3163.82 822.706   6
   7   2  -6 7449.61 1272.63   7
  -7   2   6 6062.23 949.935   3
  -7   2   6 6478.21 1022.27   6
   7   2  -5 7397.50 1143.16   7
  -7   2   5 7380.57 1016.89   3
  -7   2   5 6482.32 980.779   6
   7   2  -4 9478.41 1141.39   7
  -7   2   4 10714.9 1179.21   3
  -7   2   4 9975.06 1107.69   6
   7   2  -3 8030.38 968.343   7
  -7   2   3 7256.55 877.397   6
  -7   2   3 7294.64 988.777   3
  -7   2   2 12281.1 1262.37   3
  -7   2   2 9016.21 901.769   6
   7   2  -2 10896.5 1071.14   7
   7   2  -1 9022.13 965.336   7
  -7   2   1 10845.7 1197.77   3
   7   2   0 7126.38 873.478   7
  -7   2   0 6538.10 967.336   3
   7   2   1 9271.92 1030.87   7
   7   2   1 7787.44 954.055   4
  -7   2  -1 7607.76 1064.17   3
   7   2   2 5134.13 834.058   7
   7   2   2 6613.69 947.438   4
  -7   2  -2 6726.56 1027.73   3
   7   2   3 4545.82 818.464   7
   7   2   3 5396.43 968.799   4
  -7   2  -3 4587.35 896.684   3
   7   2   4 2988.97 747.677   7
   7   2   4 4056.56 891.932   4
  -7   2  -4 1917.45 709.811   3
   7   2   5 4109.27 974.202   4
  -7   2  -5 3123.00 859.680   3
   7   2   6 800.856 551.562   4
   7   3  -8 5598.69 1472.23   7
  -7   3   8 8910.55 1321.27   6
   7   3  -7 16353.1 2106.30   7
  -7   3   7 15048.0 1668.48   6
  -7   3   6 16804.5 1664.33   6
   7   3  -6 18845.2 2009.49   7
  -7   3   5 20071.5 1748.52   6
  -7   3   5 25344.5 1941.97   3
   7   3  -5 23191.8 2013.46   7
  -7   3   4 27656.6 1959.60   6
   7   3  -4 29380.0 2149.52   7
  -7   3   4 29246.6 2095.35   3
  -7   3   3 40795.3 2274.15   6
   7   3  -3 37513.0 2360.55   7
  -7   3   3 35259.7 2363.28   3
  -7   3   2 33826.6 1941.13   6
   7   3  -2 33852.2 2162.34   7
  -7   3   2 36300.1 2343.05   3
  -7   3   1 35937.2 2341.44   3
   7   3  -1 32160.5 2085.28   7
  -7   3   0 39753.3 2540.93   3
   7   3   0 39981.1 2397.07   7
  -7   3  -1 29924.2 2201.07   3
   7   3   1 26752.1 1978.95   7
   7   3   2 20231.7 1767.67   7
   7   3   2 23155.4 1852.49   4
  -7   3  -2 22790.6 1929.46   3
   7   3   3 16996.5 1672.57   7
   7   3   3 17021.4 1681.54   4
  -7   3  -3 19192.2 1812.70   3
   7   3   4 10104.5 1364.92   7
   7   3   4 10595.0 1407.45   4
  -7   3  -4 11090.3 1405.63   3
   7   3   5 3908.67 937.816   7
   7   3   5 5240.60 1072.24   4
  -7   3  -5 5740.41 1030.89   3
   7   3   6 4771.79 1079.91   7
   7   4  -8 1382.90 934.797   7
  -7   4   8 2396.29 806.547   6
   7   4  -7 3109.02 1020.66   7
  -7   4   7 1898.48 715.808   6
   7   4  -6 4411.46 1043.77   7
  -7   4   6 6193.50 1031.74   6
   7   4  -5 5288.45 1054.08   7
  -7   4   5 6894.16 1083.00   3
  -7   4   5 6902.46 1029.00   6
   7   4  -4 8335.89 1160.59   7
  -7   4   4 7876.72 1116.55   3
  -7   4   4 7880.16 1054.19   6
   7   4  -3 8865.36 1154.92   7
  -7   4   3 9600.12 1204.55   3
  -7   4   3 7287.19 948.707   6
  -7   4   2 9587.14 1007.72   6
  -7   4   2 10973.7 1292.57   3
   7   4  -2 11824.3 1262.13   7
  -7   4   1 12102.9 1385.40   3
   7   4  -1 13757.3 1382.11   7
   7   4   0 8547.73 1109.64   7
  -7   4   0 9155.50 1201.24   3
   7   4   1 10038.7 1231.25   7
  -7   4  -1 9720.53 1271.04   3
   7   4   2 8697.06 1203.31   7
  -7   4  -2 8720.70 1238.23   3
   7   4   3 5432.20 1024.70   7
   7   4   3 6352.80 1075.49   4
  -7   4  -3 7197.75 1139.25   3
   7   4   4 4076.78 953.315   7
   7   4   4 3460.64 862.128   4
  -7   4  -4 3932.64 902.459   3
   7   4   5 2738.73 891.768   7
   7   4   5 4139.54 970.384   4
  -7   4  -5 3316.82 809.366   3
   7   5  -7 6975.60 1493.03   7
  -7   5   7 5770.01 1140.59   6
   7   5  -6 9501.21 1494.03   7
  -7   5   6 8923.91 1287.34   6
   7   5  -5 11312.2 1500.89   7
  -7   5   5 9974.20 1296.79   6
  -7   5   4 16166.2 1537.58   6
  -7   5   4 14449.9 1580.26   3
   7   5  -4 15425.6 1677.85   7
  -7   5   3 17734.7 1532.99   6
  -7   5   3 17389.0 1723.28   3
   7   5  -3 14583.3 1584.45   7
  -7   5   2 15132.4 1348.01   6
  -7   5   2 17241.3 1719.86   3
   7   5  -2 15895.3 1584.40   7
  -7   5   1 17694.5 1729.38   3
   7   5  -1 15675.5 1590.45   7
  -7   5   0 17278.3 1727.03   3
   7   5   0 20004.1 1789.96   7
  -7   5  -1 12700.2 1490.03   3
   7   5   1 14076.1 1562.53   7
   7   5   2 12341.3 1521.54   7
  -7   5  -2 8949.45 1285.89   3
   7   5   3 10675.2 1468.43   7
  -7   5  -3 9192.38 1329.97   3
   7   5   4 5783.79 1195.68   7
   7   5   4 7561.84 1351.29   4
  -7   5  -4 7365.05 1201.25   3
   7   5   5 3398.69 978.181   7
   7   6  -6 4244.92 1073.91   7
  -7   6   6 3570.78 888.870   6
   7   6  -5 3630.22 958.544   7
  -7   6   5 3660.76 905.698   6
   7   6  -4 7391.72 1207.04   7
  -7   6   4 6175.74 1027.21   6
   7   6  -3 6295.19 1078.75   7
  -7   6   3 5618.28 921.216   6
  -7   6   3 5952.83 1085.80   3
   7   6  -2 6535.68 1121.88   7
  -7   6   2 9357.61 1323.53   3
   7   6  -1 8874.34 1245.72   7
  -7   6   1 6798.70 1137.52   3
   7   6   0 6886.23 1132.97   7
  -7   6   0 5322.71 1074.20   3
   7   6   1 6335.31 1156.89   7
  -7   6  -1 6637.12 1141.05   3
   7   6   2 8816.30 1338.46   7
  -7   6  -2 7512.89 1246.96   3
   7   6   3 3468.44 934.735   7
  -7   6  -3 3094.66 790.735   3
   7   6   4 2422.72 843.865   7
  -7   6  -4 3075.80 894.690   3
   7   7  -5 12446.0 1715.94   7
  -7   7   5 14190.1 1657.05   6
   7   7  -4 16640.1 1898.70   7
  -7   7   4 13085.5 1554.23   6
  -7   7   3 17630.5 1724.96   6
   7   7  -3 20339.0 2036.74   7
   7   7  -2 18502.7 1883.36   7
   7   7  -1 15317.2 1777.28   7
  -7   7   1 21193.3 2051.44   3
  -7   7   0 19523.5 2007.95   3
   7   7   0 19734.4 1977.19   7
   7   7   1 14909.7 1764.61   7
  -7   7  -1 16281.0 1865.85   3
   7   7   2 11990.3 1659.11   7
  -7   7  -2 8131.80 1318.58   3
  -7   7  -3 8735.22 1352.51   3
  -7   8   4 4291.75 980.893   6
   7   8  -2 5705.16 1161.99   7
   7   8  -1 4709.36 1041.66   7
  -7   8   1 3998.64 911.209   5
   8  -6  -4 10647.9 1420.15   1
  -8  -4   3 19074.9 1709.62   3
  -8  -3   4 6887.78 957.969   3
  -8  -3   3 7743.17 1062.30   3
  -8  -3   2 8835.40 1181.52   3
  -8  -3   1 9716.40 1301.16   3
  -8  -2   8 5768.63 1166.71   6
  -8  -2   7 14306.6 1681.90   6
  -8  -2   4 25363.5 1886.77   3
  -8  -2   3 32579.5 2222.81   3
  -8  -2   2 30022.9 2194.39   3
  -8  -2   1 27794.2 2139.16   3
  -8  -2   0 31116.7 2344.23   3
  -8  -2  -1 23550.4 2077.31   3
  -8  -2  -2 15667.1 1745.73   3
  -8  -2  -3 13772.7 1720.90   3
  -8  -2  -4 8999.21 1438.39   3
   8  -2   5 2820.82 847.728   4
  -8  -2  -5 4786.43 1150.54   3
  -8  -1   8 1948.13 802.375   6
  -8  -1   7 2140.91 755.355   6
  -8  -1   6 4639.86 956.334   6
  -8  -1   5 5145.63 920.832   6
  -8  -1   5 6468.21 921.293   3
  -8  -1   4 6359.64 935.181   6
  -8  -1   4 7224.76 980.410   3
  -8  -1   3 7190.24 927.256   6
  -8  -1   3 6262.52 934.444   3
  -8  -1   2 8762.42 1138.45   3
  -8  -1   1 8122.96 1112.81   3
  -8  -1   0 8620.48 1204.95   3
  -8  -1  -1 6526.60 1113.30   3
  -8  -1  -2 8481.05 1302.35   3
   8  -1   3 3203.60 759.713   4
  -8  -1  -3 3931.36 940.364   3
   8  -1   4 2817.26 807.294   4
  -8  -1  -4 3675.70 1033.34   3
   8  -1   5 3697.58 934.196   4
  -8  -1  -5 1860.97 832.270   3
  -8   0   8 3504.17 941.066   6
  -8   0   7 7413.39 1198.40   6
  -8   0   6 7541.22 1134.06   6
  -8   0   5 9892.13 1152.73   3
  -8   0   5 10229.5 1233.91   6
  -8   0   4 12908.0 1353.39   3
  -8   0   4 13575.2 1336.25   6
  -8   0   3 16845.0 1550.61   3
  -8   0   3 16899.6 1404.84   6
  -8   0   2 17599.9 1603.31   3
  -8   0   1 17219.3 1611.62   3
  -8   0   0 17106.2 1663.65   3
  -8   0  -1 14088.7 1555.36   3
   8   0   2 12171.8 1285.62   4
  -8   0  -2 11505.1 1448.48   3
   8   0   3 11450.4 1355.79   4
  -8   0  -3 9938.91 1422.00   3
   8   0   4 6286.41 1125.01   4
  -8   0  -4 9386.78 1425.77   3
   8   0   5 3505.46 967.157   4
  -8   0  -5 3285.99 947.920   3
  -8   1   8 1409.51 624.395   6
   8   1  -7 2092.93 821.080   7
  -8   1   7 2338.28 740.327   6
   8   1  -6 4955.28 1119.99   7
  -8   1   6 4530.29 905.783   6
   8   1  -5 5666.50 1028.89   7
  -8   1   5 6694.14 1007.86   3
  -8   1   5 7072.48 1069.91   6
   8   1  -4 7137.80 1009.26   7
  -8   1   4 6296.34 929.010   6
  -8   1   4 7428.59 1020.08   3
   8   1  -3 7156.98 918.497   7
  -8   1   3 6802.39 874.026   6
  -8   1   3 7329.67 1071.94   3
  -8   1   2 7869.14 1085.20   3
  -8   1   1 7838.62 1115.01   3
  -8   1   0 7076.00 1078.57   3
   8   1   1 7094.21 940.911   4
  -8   1  -1 7572.52 1116.01   3
   8   1   2 6629.07 990.564   4
  -8   1  -2 6305.55 1096.40   3
   8   1   3 4471.15 893.860   4
  -8   1  -3 3647.11 915.997   3
   8   1   4 2753.28 748.979   4
  -8   1  -4 2526.90 836.669   3
   8   1   5 4187.79 1024.56   4
  -8   1  -5 2761.49 829.893   3
   8   2  -8 6071.08 1553.79   7
  -8   2   8 6518.31 1175.69   6
   8   2  -7 12690.5 1936.92   7
  -8   2   7 14334.0 1629.73   6
   8   2  -6 12707.1 1740.70   7
  -8   2   6 14267.8 1548.33   6
  -8   2   6 14901.8 1535.34   3
  -8   2   5 22463.0 1867.21   6
   8   2  -5 21886.4 2016.75   7
  -8   2   5 21907.2 1844.63   3
  -8   2   4 26554.6 1943.56   6
   8   2  -4 26672.5 2069.33   7
  -8   2   4 29836.3 2168.34   3
  -8   2   3 32347.3 2290.08   3
  -8   2   3 31987.8 2017.34   6
   8   2  -3 30029.9 2094.55   7
  -8   2   2 31678.7 2288.48   3
   8   2  -2 31506.5 2039.18   7
  -8   2   1 31101.9 2293.83   3
   8   2  -1 30278.0 1961.80   7
  -8   2   0 28548.2 2207.97   3
   8   2   0 27823.1 1889.21   7
  -8   2  -1 23148.7 2000.32   3
   8   2   1 21914.0 1725.05   7
   8   2   1 23910.0 1821.38   4
   8   2   2 18127.2 1669.62   4
  -8   2  -2 16391.4 1728.09   3
   8   2   3 11312.8 1419.53   4
  -8   2  -3 15399.7 1689.65   3
   8   2   4 8236.88 1287.44   4
  -8   2  -4 9467.29 1433.67   3
   8   2   5 4795.35 1096.94   4
  -8   2  -5 4647.52 1044.49   3
   8   3  -8 2410.26 1040.99   7
   8   3  -7 1630.30 831.563   7
  -8   3   7 1389.31 641.344   6
   8   3  -6 5407.92 1138.89   7
  -8   3   6 4563.28 976.415   3
  -8   3   6 4110.87 875.257   6
   8   3  -5 4667.98 975.256   7
  -8   3   5 5065.13 955.960   3
  -8   3   5 5774.40 967.583   6
   8   3  -4 6039.03 1013.23   7
  -8   3   4 6940.37 1088.20   3
  -8   3   4 6676.59 969.610   6
   8   3  -3 7424.37 1043.15   7
  -8   3   3 6210.56 859.910   6
  -8   3   3 7611.51 1109.73   3
   8   3  -2 10475.5 1182.44   7
  -8   3   2 9836.51 1281.68   3
   8   3  -1 10173.6 1158.33   7
  -8   3   1 10281.8 1296.08   3
   8   3   0 8463.61 1091.03   7
  -8   3   0 8552.39 1209.72   3
   8   3   1 8865.34 1150.98   7
  -8   3  -1 8590.43 1241.88   3
   8   3   2 7380.23 1115.54   7
   8   3   2 6758.46 1083.78   4
  -8   3  -2 7532.89 1231.13   3
   8   3   3 5497.04 1023.84   7
   8   3   3 4480.05 1011.35   4
  -8   3  -3 6872.83 1188.85   3
   8   3   4 3755.11 926.822   4
  -8   3  -4 4963.47 1047.36   3
  -8   3  -5 4262.64 1000.25   3
   8   4  -7 7709.24 1526.99   7
  -8   4   7 6022.05 1136.50   6
   8   4  -6 9344.41 1473.95   7
  -8   4   6 8271.10 1225.19   6
   8   4  -5 12963.6 1633.00   7
  -8   4   5 13249.3 1571.30   3
  -8   4   5 12780.3 1431.69   6
  -8   4   4 14486.7 1458.86   6
  -8   4   4 16014.6 1709.17   3
   8   4  -4 16732.5 1716.11   7
   8   4  -3 19221.3 1774.00   7
  -8   4   3 17166.0 1742.25   3
   8   4  -2 18318.5 1707.50   7
  -8   4   2 19008.4 1830.77   3
   8   4  -1 16467.3 1599.73   7
  -8   4   1 19293.3 1845.95   3
   8   4   0 19730.6 1739.30   7
  -8   4   0 17594.2 1797.87   3
  -8   4  -1 12008.8 1539.28   3
   8   4   1 15992.0 1639.55   7
   8   4   2 10550.7 1398.57   7
  -8   4  -2 13294.0 1630.18   3
   8   4   3 5928.92 1100.35   7
  -8   4  -3 7215.36 1249.30   3
   8   4   3 9120.99 1352.49   4
   8   4   4 6002.55 1175.00   7
   8   4   4 5659.98 1145.36   4
  -8   4  -4 5845.68 1127.96   3
   8   5  -6 4084.26 1123.06   7
  -8   5   6 3959.20 919.866   6
   8   5  -5 5966.18 1159.00   7
  -8   5   5 5460.53 998.172   6
   8   5  -4 5061.14 1035.85   7
  -8   5   4 5205.75 1036.38   3
  -8   5   4 6157.33 973.145   6
   8   5  -3 4898.78 967.712   7
  -8   5   3 5821.65 1062.59   3
   8   5  -2 6622.02 1077.78   7
  -8   5   2 5883.89 1064.68   3
   8   5  -1 5267.31 946.042   7
  -8   5   1 7527.83 1189.43   3
   8   5   0 4380.75 959.050   7
  -8   5   0 5192.92 1051.29   3
   8   5   1 4528.19 922.225   7
  -8   5  -1 5129.08 1045.94   3
   8   5   2 5619.99 1092.43   7
  -8   5  -2 4310.02 965.475   3
   8   5   3 2493.98 859.965   7
  -8   5  -3 3206.64 851.050   3
  -8   5  -4 1042.11 623.476   3
  -8   6   6 6388.42 1162.82   6
   8   6  -5 7571.18 1332.83   7
  -8   6   5 7520.11 1185.68   6
   8   6  -4 8710.51 1341.87   7
   8   6  -3 14282.5 1683.54   7
  -8   6   3 11121.1 1556.45   3
   8   6  -2 11283.4 1480.97   7
  -8   6   2 13807.1 1673.55   3
   8   6  -1 13884.9 1613.52   7
  -8   6   1 13228.9 1714.43   3
   8   6   0 13008.2 1608.71   7
  -8   6   0 11881.5 1604.78   3
   8   6   1 12615.7 1609.00   7
  -8   6  -1 10707.4 1533.49   3
   8   6   2 7193.49 1299.38   7
  -8   6  -2 8967.65 1422.00   3
   8   7  -2 5185.09 1091.59   7
   8   7  -1 4707.38 1008.75   7
   8   7   0 4254.25 975.737   7
  -9  -5   3 12409.7 1511.48   3
  -9  -5   2 12317.6 1584.16   3
  -9  -4   3 4660.46 940.339   3
  -9  -4   2 5606.49 1046.65   3
  -9  -4   1 3864.66 915.999   3
  -9  -3   4 11973.3 1381.32   3
  -9  -3   3 15619.5 1634.98   3
  -9  -3   2 14170.7 1614.49   3
  -9  -3   1 16566.8 1785.02   3
  -9  -3   0 13813.5 1683.62   3
  -9  -3  -1 12524.9 1662.70   3
  -9  -3  -2 8637.33 1461.32   3
  -9  -2   7 538.875 574.506   6
  -9  -2   6 3438.39 878.521   6
  -9  -2   5 3713.82 852.425   6
  -9  -2   4 4531.27 835.923   6
  -9  -2   4 4947.39 919.737   3
  -9  -2   3 5332.65 961.917   3
  -9  -2   2 7764.36 1181.09   3
  -9  -2   1 7773.76 1224.12   3
  -9  -2   0 11218.9 1524.99   3
  -9  -2  -1 8265.41 1311.27   3
  -9  -2  -2 6181.52 1215.74   3
  -9  -2  -3 2780.73 920.489   3
  -9  -1   7 7272.27 1235.65   6
  -9  -1   6 8740.17 1260.51   6
  -9  -1   5 14149.8 1537.61   6
  -9  -1   4 15965.5 1602.97   3
  -9  -1   3 17211.2 1686.50   3
  -9  -1   2 19676.7 1830.87   3
  -9  -1   1 18385.8 1814.22   3
  -9  -1   0 16139.3 1740.02   3
  -9  -1  -1 14263.4 1706.59   3
  -9  -1  -2 11015.9 1532.96   3
  -9  -1  -3 10116.7 1552.99   3
  -9   0   7 1780.79 697.737   6
  -9   0   6 3059.41 810.816   6
  -9   0   5 4772.74 879.095   3
  -9   0   5 4815.10 894.004   6
  -9   0   4 4849.86 910.525   3
  -9   0   3 5934.81 1014.50   3
  -9   0   2 7206.09 1102.07   3
  -9   0   1 4135.30 907.272   3
  -9   0   0 3749.82 886.254   3
  -9   0  -1 2892.55 899.966   3
  -9   0  -2 2913.68 884.549   3
  -9   0  -3 2052.62 863.774   3
  -9   1   7 8578.75 1292.86   6
  -9   1   6 8621.14 1275.44   6
  -9   1   5 11023.3 1367.06   3
  -9   1   5 12376.8 1411.60   6
  -9   1   4 17423.5 1722.76   3
  -9   1   3 17742.9 1768.78   3
  -9   1   2 16824.0 1729.45   3
  -9   1   1 19255.2 1864.60   3
  -9   1   0 14313.1 1652.11   3
  -9   1  -1 15933.0 1772.16   3
  -9   1  -2 10289.6 1486.59   3
  -9   1  -3 7715.05 1333.09   3
   9   1   4 5595.27 1110.17   4
  -9   2   7 1573.80 727.091   6
  -9   2   6 2331.44 753.107   6
  -9   2   5 4147.19 895.592   3
  -9   2   5 3754.22 814.318   6
  -9   2   4 5135.83 959.126   3
  -9   2   3 8121.94 1244.30   3
  -9   2   2 7040.66 1289.38   3
  -9   2   1 7556.23 1218.50   3
  -9   2   0 8323.28 1270.36   3
  -9   2  -1 7096.29 1214.67   3
   9   2   2 5673.98 992.287   4
  -9   2  -2 8049.92 1328.51   3
   9   2   3 3449.95 861.180   4
  -9   2  -3 5286.97 1132.33   3
   9   2   4 2661.97 809.763   4
   9   3  -7 5821.13 1330.17   7
  -9   3   7 9817.29 1402.62   6
   9   3  -6 6711.02 1298.24   7
  -9   3   6 9941.23 1362.18   3
  -9   3   6 7537.95 1195.65   6
   9   3  -5 10164.6 1438.75   7
  -9   3   5 11029.0 1448.84   3
  -9   3   5 9176.18 1215.19   6
  -9   3   4 14579.9 1661.86   3
   9   3  -4 16343.1 1708.50   7
   9   3  -3 16144.2 1611.12   7
  -9   3   3 15710.4 1715.91   3
  -9   3   2 13856.6 1637.39   3
   9   3  -2 14583.9 1492.49   7
  -9   3   1 16054.9 1795.66   3
  -9   3   0 14012.2 1652.13   3
  -9   3  -1 14310.3 1741.61   3
  -9   3  -2 9452.05 1456.27   3
   9   3   3 7086.49 1678.85   4
   9   4  -6 2961.99 979.518   7
  -9   4   6 2951.91 843.654   6
   9   4  -5 3125.12 899.597   7
  -9   4   5 3526.14 904.471   3
   9   4  -4 4661.90 949.675   7
  -9   4   4 4560.91 1028.38   3
   9   4  -3 4147.97 876.355   7
  -9   4   3 3850.87 945.337   3
   9   4  -2 7482.72 1114.05   7
  -9   4   2 5343.86 1084.55   3
   9   4  -1 3515.40 799.543   7
  -9   4   1 5836.13 1124.37   3
   9   4   0 3937.45 836.995   7
  -9   4   0 3592.92 911.941   3
   9   4   1 4547.52 890.705   7
  -9   4  -1 4015.61 1012.63   3
  -9   4  -2 3148.86 923.176   3
   9   5  -5 6538.17 1251.77   7
  -9   5   5 8653.91 1364.48   3
   9   5  -4 12927.7 1649.21   7
  -9   5   4 11089.9 1560.67   3
   9   5  -3 13101.4 1618.85   7
  -9   5   3 14772.1 1769.83   3
   9   5  -2 13480.2 1593.52   7
  -9   5   2 13692.1 1688.52   3
   9   5  -1 12937.9 1548.31   7
  -9   5   1 14581.6 1759.26   3
   9   5   0 11124.8 1433.76   7
  -9   5   0 9807.49 1470.68   3
   9   5   1 10338.2 1431.98   7
   9   5   2 6453.65 1205.00   7
   9   6  -2 5481.92 1091.34   7
   9   6  -1 2282.79 758.636   7
 -10  -4   3 10123.2 1420.73   3
 -10  -4   2 8428.37 1351.35   3
 -10  -3   3 4093.90 937.327   3
 -10  -3   2 3871.57 888.645   3
 -10  -3   1 3332.66 934.788   3
 -10  -2   4 9298.53 1331.06   3
 -10  -2   3 11425.0 1482.20   3
 -10  -2   2 8748.86 1321.06   3
 -10  -2   1 8715.26 1370.29   3
 -10  -2   0 7751.83 1350.07   3
 -10  -1   4 3766.14 865.151   3
 -10  -1   3 3008.16 815.368   3
 -10  -1   2 5745.73 1087.72   3
 -10  -1   1 3945.11 941.144   3
 -10  -1   0 6046.34 1184.00   3
 -10   0   4 17883.3 1852.70   3
 -10   0   3 20739.3 2032.24   3
 -10   0   2 17141.6 1830.48   3
 -10   0   1 19350.7 2019.41   3
 -10   0   0 15172.8 1805.60   3
 -10   1   5 4681.39 1027.11   3
 -10   1   4 3628.61 986.880   3
 -10   1   3 4722.63 967.639   3
 -10   1   2 8094.49 1333.14   3
 -10   1   1 4637.68 1024.94   3
 -10   1   0 5831.47 1138.42   3
 -10   2   5 6429.48 1166.72   3
 -10   2   4 8343.62 1294.87   3
 -10   2   3 10177.4 1453.67   3
 -10   2   2 9904.14 1449.76   3
 -10   2   1 10067.5 1526.85   3
 -10   2   0 6579.05 1227.99   3
 -10   3   5 4713.51 1022.77   3
 -10   3   4 3752.47 940.986   3
 -10   3   3 4647.95 1070.44   3
 -10   3   2 5573.58 1132.53   3
   0   0   0    0.00    0.00   0
TITL ja1232 in P2
REM P2 (#3 in standard setting)
CELL 0.71073   7.278202   7.561281   7.481988  90.0000 101.4939  90.0000
ZERR    1.00   0.000271   0.000201   0.000449   0.0000   0.0049   0.0000
LATT -1
SYMM -x, y,-z
SFAC C H N O Cl
UNIT 52.00 20.00 12.00 6.00 2.00
TREF
HKLF 4
END
;
_shelx_hkl_checksum              31492
loop_
_space_group_symop_operation_xyz
'x, y, z'
'-x, y, -z'
'-x, -y, -z'
'x, -y, z'
loop_
_atom_site_label
_atom_site_type_symbol
_atom_site_fract_x
_atom_site_fract_y
_atom_site_fract_z
_atom_site_U_iso_or_equiv
_atom_site_adp_type
_atom_site_occupancy
_atom_site_site_symmetry_order
_atom_site_calc_flag
_atom_site_refinement_flags_posn
_atom_site_refinement_flags_adp
_atom_site_refinement_flags_occupancy
Pt Pt 0.0000 0.0000 0.0000 0.01908(14) Uani 1 4 d S T P
Fe Fe 0.5000 0.5000 0.0000 0.0214(3) Uani 1 4 d S T P
N1 N 0.5046(12) 0.5000 0.2915(12) 0.0370(17) Uani 1 2 d S T P
N2 N 0.2903(7) 0.2994(7) -0.0281(9) 0.0320(11) Uani 1 1 d . . .
C1 C 0.343(2) 0.5000 0.377(2) 0.064(3) Uani 1 2 d S T P
H1 H 0.2266 0.5000 0.2989 0.076 Uiso 1 2 calc R U P
C2 C 0.658(2) 0.5000 0.442(2) 0.067(4) Uani 1 2 d S T P
C3 C 0.1847(7) 0.1876(7) -0.0190(9) 0.0266(11) Uani 1 1 d . . .
F F 0.848(6) 0.5000 0.403(4) 0.138 Uani 0.5 2 d S T P
O O 0.356(7) 0.065(5) 0.455(5) 0.048(11) Uani 0.125 1 d . . P
loop_
_atom_site_aniso_label
_atom_site_aniso_U_11
_atom_site_aniso_U_22
_atom_site_aniso_U_33
_atom_site_aniso_U_23
_atom_site_aniso_U_13
_atom_site_aniso_U_12
Pt 0.01285(18) 0.00846(17) 0.0367(2) 0.000 0.00677(13) 0.000
Fe 0.0151(6) 0.0098(6) 0.0425(8) 0.000 0.0129(6) 0.000
N1 0.038(4) 0.021(3) 0.053(5) 0.000 0.011(3) 0.000
N2 0.022(2) 0.0145(19) 0.063(3) -0.001(2) 0.016(2) -0.0014(17)
C1 0.063(8) 0.057(8) 0.073(8) 0.000 0.020(7) 0.000
C2 0.047(7) 0.074(10) 0.078(9) 0.000 0.012(6) 0.000
C3 0.016(2) 0.011(2) 0.053(3) 0.000(2) 0.008(2) -0.0001(17)
F 0.192 0.132 0.088 0.000 0.028 0.000
O 0.08(3) 0.021(14) 0.033(17) -0.006(13) -0.008(18) -0.022(18)
loop_
_atom_type_symbol
_atom_type_description
_atom_type_scat_dispersion_real
_atom_type_scat_dispersion_imag
_atom_type_scat_source
C C 0.0033 0.0016 'International Tables Vol C Tables 4.2.6.8 and 6.1.1.4'
H H 0.0000 0.0000 'International Tables Vol C Tables 4.2.6.8 and 6.1.1.4'
N N 0.0061 0.0033 'International Tables Vol C Tables 4.2.6.8 and 6.1.1.4'
F F 0.0171 0.0103 'International Tables Vol C Tables 4.2.6.8 and 6.1.1.4'
Fe Fe 0.3463 0.8444 'International Tables Vol C Tables 4.2.6.8 and 6.1.1.4'
Pt Pt -1.7033 8.3905 'International Tables Vol C Tables 4.2.6.8 and 6.1.1.4'
O O 0.0106 0.0060 'International Tables Vol C Tables 4.2.6.8 and 6.1.1.4'
loop_
_geom_angle_atom_site_label_1
_geom_angle_atom_site_label_2
_geom_angle_atom_site_label_3
_geom_angle
_geom_angle_site_symmetry_1
_geom_angle_site_symmetry_3
C3 Pt C3 88.4(3) 3 4
C3 Pt C3 91.6(3) 3 2
C3 Pt C3 180.0(2) 4 2
C3 Pt C3 180.0 3 .
C3 Pt C3 91.6(3) 4 .
C3 Pt C3 88.4(3) 2 .
N1 Fe N1 180.0 . 3_665
N2 Fe N1 88.1(2) . .
N2 Fe N1 91.9(2) 3_665 .
N2 Fe N1 88.1(2) 4_565 .
N2 Fe N1 91.9(2) 2_655 .
N2 Fe N1 91.9(2) . 3_665
N2 Fe N1 88.1(2) 3_665 3_665
N2 Fe N1 91.9(2) 4_565 3_665
N2 Fe N1 88.1(2) 2_655 3_665
N2 Fe N2 180.0 . 3_665
N2 Fe N2 90.7(3) . 4_565
N2 Fe N2 89.3(3) 3_665 4_565
N2 Fe N2 89.3(3) . 2_655
N2 Fe N2 90.7(3) 3_665 2_655
N2 Fe N2 180.0 4_565 2_655
C2 N1 C1 103.3(11) . .
C2 N1 Fe 130.3(8) . .
C1 N1 Fe 126.4(9) . .
C3 N2 Fe 171.0(6) . .
N2 C3 Pt 178.6(6) . .
C2 C1 N1 127.7(14) 3_666 .
C1 C2 N1 128.9(14) 3_666 .
C1 C2 F 113.0(17) 3_666 .
N1 C2 F 118.0(17) . .
O O O 89.999(9) 4 2_656
loop_
_geom_bond_atom_site_label_1
_geom_bond_atom_site_label_2
_geom_bond_distance
_geom_bond_site_symmetry_2
Pt C3 1.978(5) 3
Pt C3 1.978(5) 4
Pt C3 1.978(5) 2
Pt C3 1.978(5) .
Fe N1 2.175(9) .
Fe N1 2.175(9) 3_665
Fe N2 2.133(5) .
Fe N2 2.133(5) 3_665
Fe N2 2.133(5) 4_565
Fe N2 2.133(5) 2_655
N1 C2 1.420(18) .
N1 C1 1.446(18) .
N2 C3 1.154(8) .
C1 C2 1.36(2) 3_666
C2 C1 1.36(2) 3_666
C2 F 1.47(4) .
O O 0.99(8) 4
O O 2.07(10) 2_656
