#------------------------------------------------------------------------------
#$Date: 2019-11-24 06:02:49 +0200 (Sun, 24 Nov 2019) $
#$Revision: 236893 $
#$URL: file:///home/coder/svn-repositories/cod/cif/4/34/98/4349856.cif $
#------------------------------------------------------------------------------
#
# This file is available in the Crystallography Open Database (COD),
# http://www.crystallography.net/
#
# All data on this site have been placed in the public domain by the
# contributors.
#
data_4349856
loop_
_publ_author_name
'Gorelova, Liudmila A.'
'Pakhomova, Anna S.'
'Aprilis, Georgios'
'Dubrovinsky, Leonid S.'
'Krivovichev, Sergey V.'
_publ_section_title
;
 Pentacoordinated silicon in the high-pressure modification of datolite,
 CaBSiO4(OH)
;
_journal_issue                   7
_journal_name_full               'Inorganic Chemistry Frontiers'
_journal_page_first              1653
_journal_paper_doi               10.1039/C8QI00257F
_journal_volume                  5
_journal_year                    2018
_chemical_formula_sum            'B Ca H O5 Si'
_chemical_formula_weight         159.99
_space_group_crystal_system      monoclinic
_space_group_IT_number           14
_space_group_name_Hall           '-P 2ybc'
_space_group_name_H-M_alt        'P 1 21/c 1'
_atom_sites_solution_hydrogens   difmap
_audit_creation_method           SHELXL-2014/7
_audit_update_record
;
2018-03-21 deposited with the CCDC.
2018-05-04 downloaded from the CCDC.
;
_cell_angle_alpha                90
_cell_angle_beta                 90.230(4)
_cell_angle_gamma                90
_cell_formula_units_Z            4
_cell_length_a                   4.8347(10)
_cell_length_b                   7.6083(17)
_cell_length_c                   9.629(2)
_cell_measurement_reflns_used    1516
_cell_measurement_temperature    298(2)
_cell_measurement_theta_max      35.709
_cell_measurement_theta_min      3.413
_cell_volume                     354.19(13)
_computing_structure_refinement  'SHELXL-2014/7 (Sheldrick, 2014)'
_diffrn_ambient_temperature      298(2)
_diffrn_measured_fraction_theta_full 0.989
_diffrn_measured_fraction_theta_max 0.924
_diffrn_measurement_device_type  'Bruker APEX DUO CCD'
_diffrn_radiation_type           MoK\a
_diffrn_radiation_wavelength     0.71073
_diffrn_reflns_av_R_equivalents  0.1044
_diffrn_reflns_av_unetI/netI     0.0620
_diffrn_reflns_Laue_measured_fraction_full 0.989
_diffrn_reflns_Laue_measured_fraction_max 0.924
_diffrn_reflns_limit_h_max       6
_diffrn_reflns_limit_h_min       -7
_diffrn_reflns_limit_k_max       12
_diffrn_reflns_limit_k_min       -11
_diffrn_reflns_limit_l_max       8
_diffrn_reflns_limit_l_min       -15
_diffrn_reflns_number            3886
_diffrn_reflns_point_group_measured_fraction_full 0.989
_diffrn_reflns_point_group_measured_fraction_max 0.924
_diffrn_reflns_theta_full        25.242
_diffrn_reflns_theta_max         35.709
_diffrn_reflns_theta_min         3.413
_exptl_absorpt_coefficient_mu    1.999
_exptl_crystal_colour            colorless
_exptl_crystal_density_diffrn    3.000
_exptl_crystal_density_meas      ?
_exptl_crystal_density_method    none
_exptl_crystal_description       isosymmetric
_exptl_crystal_F_000             320
_exptl_crystal_size_max          0.010
_exptl_crystal_size_mid          0.010
_exptl_crystal_size_min          0.005
_refine_diff_density_max         1.081
_refine_diff_density_min         -1.075
_refine_diff_density_rms         0.183
_refine_ls_extinction_coef       0.055(14)
_refine_ls_extinction_expression Fc^*^=kFc[1+0.001xFc^2^\l^3^/sin(2\q)]^-1/4^
_refine_ls_extinction_method     'SHELXL-2014/7 (Sheldrick 2014'
_refine_ls_goodness_of_fit_ref   1.487
_refine_ls_hydrogen_treatment    refall
_refine_ls_matrix_type           full
_refine_ls_number_parameters     78
_refine_ls_number_reflns         1516
_refine_ls_number_restraints     1
_refine_ls_restrained_S_all      1.486
_refine_ls_R_factor_all          0.0410
_refine_ls_R_factor_gt           0.0397
_refine_ls_shift/su_max          0.000
_refine_ls_shift/su_mean         0.000
_refine_ls_structure_factor_coef Fsqd
_refine_ls_weighting_details
'w=1/[\s^2^(Fo^2^)+(0.0701P)^2^] where P=(Fo^2^+2Fc^2^)/3'
_refine_ls_weighting_scheme      calc
_refine_ls_wR_factor_gt          0.1278
_refine_ls_wR_factor_ref         0.1378
_reflns_Friedel_coverage         0.000
_reflns_number_gt                1474
_reflns_number_total             1516
_reflns_threshold_expression     'I > 2\s(I)'
_cod_data_source_file            c8qi00257f2.cif
_cod_data_source_block           shelx_CCDC10
_cod_depositor_comments
;
The following automatic conversions were performed:

data item '_exptl_crystal_density_meas' value 'none' was changed to
'?' -- the value is perceived as not measured.

Automatic conversion script
Id: cif_fix_values 6909 2019-04-08 15:41:33Z antanas 
;
_cod_original_cell_volume        354.17(13)
_cod_original_sg_symbol_H-M      'P 21/c'
_cod_database_code               4349856
_shelx_shelxl_version_number     2014/7
_shelx_space_group_comment
;
The symmetry employed for this shelxl refinement is uniquely defined
by the following loop, which should always be used as a source of
symmetry information in preference to the above space-group names.
They are only intended as comments.
;
_shelx_res_file
;

    shelx.res created by SHELXL-2014/7


TITL mo_datolite_0m in P2(1)/c
CELL 0.71073   4.8347   7.6083   9.6285  90.000  90.230  90.000
ZERR    4.00   0.0010   0.0017   0.0021   0.000   0.004   0.000
LATT  1
SYMM -X, 0.5+Y, 0.5-Z
SFAC O Si B Ca H
UNIT 20.00 4.00 4.00 4.00 4.00

L.S. 20
ACTA
BOND $H
HTAB
DFIX 0.90 0.02 H O5
TEMP 25.0
FMAP 2
PLAN 250
REM TWIN 1 0 0 0 1 0 0 0 -1
WGHT    0.070100
EXTI    0.054833
FVAR       0.57993
CA1   4    0.008457    0.606231    0.163908    11.00000    0.00572    0.01009 =
         0.01062    0.00008   -0.00110    0.00040
SI1   2    0.468999    0.266141    0.084341    11.00000    0.00416    0.00723 =
         0.00846   -0.00022   -0.00131    0.00056
B1    3    0.567213    0.089074   -0.158722    11.00000    0.00275    0.00910 =
         0.00788   -0.00020   -0.00040   -0.00017
O1    1    0.240188    0.400853    0.037335    11.00000    0.00755    0.00924 =
         0.01281   -0.00060   -0.00312    0.00277
O2    1    0.669947    0.199076   -0.042671    11.00000    0.00574    0.01006 =
         0.00943   -0.00207   -0.00010   -0.00118
O3    1    0.675374    0.334637    0.210280    11.00000    0.00606    0.01161 =
         0.00870   -0.00137   -0.00202   -0.00045
O4    1    0.315702    0.087927    0.145817    11.00000    0.00689    0.00787 =
         0.01348    0.00087    0.00201    0.00071
O5    1    0.258426    0.086392   -0.163640    11.00000    0.00452    0.01294 =
         0.01252    0.00017   -0.00135   -0.00042
H     5    0.188109    0.050419   -0.082016    11.00000    0.02288

HKLF 4

REM  mo_datolite_0m in P2(1)/c
REM R1 =  0.0397 for    1474 Fo > 4sig(Fo)  and  0.0410 for all    1516 data
REM     78 parameters refined using      1 restraints

END

WGHT      0.0740      0.3259

REM Instructions for potential hydrogen bonds
EQIV $1 -x+1, -y, -z
HTAB O5 O2_$1
HTAB O5 O4

REM Highest difference peak  1.081,  deepest hole -1.075,  1-sigma level  0.183
Q1    1  -0.0193  0.5651  0.1059  11.00000  0.05    1.08
Q2    1  -0.1970  0.6009  0.1197  11.00000  0.05    0.95
Q3    1   0.0214  0.6385  0.2248  11.00000  0.05    0.95
Q4    1  -0.0100  0.6457  0.1034  11.00000  0.05    0.89
Q5    1   0.0218  0.5737  0.2255  11.00000  0.05    0.85
Q6    1   0.2020  0.5926  0.2070  11.00000  0.05    0.85
Q7    1   0.4991  0.3123  0.1440  11.00000  0.05    0.85
Q8    1   0.6551  0.2951  0.1429  11.00000  0.05    0.84
Q9    1   0.4547  0.2308  0.0229  11.00000  0.05    0.80
Q10   1  -0.1223  0.5655  0.1672  11.00000  0.05    0.75
Q11   1   0.6126  0.1417 -0.0972  11.00000  0.05    0.71
Q12   1   0.3061  0.3142  0.0724  11.00000  0.05    0.70
Q13   1  -0.1119  0.6566  0.1715  11.00000  0.05    0.67
Q14   1   0.1377  0.6510  0.1586  11.00000  0.05    0.65
Q15   1   0.2217  0.3511 -0.0243  11.00000  0.05    0.61
Q16   1   0.2181  0.4499 -0.0075  11.00000  0.05    0.60
Q17   1   0.8349  0.3838  0.2033  11.00000  0.05    0.57
Q18   1   0.4363  0.3203  0.0313  11.00000  0.05    0.56
Q19   1   0.2828  0.6030  0.1352  11.00000  0.05    0.56
Q20   1   0.3222  0.2322  0.0809  11.00000  0.05    0.55
Q21   1   0.2603  0.4454  0.0633  11.00000  0.05    0.53
Q22   1   0.2840  0.4060  0.1150  11.00000  0.05    0.53
Q23   1   0.4904  0.2318  0.1455  11.00000  0.05    0.52
Q24   1   0.2890  0.1006  0.1957  11.00000  0.05    0.50
Q25   1   0.4291  0.4033  0.0569  11.00000  0.05    0.50
Q26   1   0.4416  0.1144  0.1755  11.00000  0.05    0.48
Q27   1   0.0210  0.1014  0.1756  11.00000  0.05    0.48
Q28   1   0.4560  0.0774 -0.1556  11.00000  0.05    0.47
Q29   1   0.1212  0.1040  0.1230  11.00000  0.05    0.46
Q30   1   0.6871  0.2243  0.2596  11.00000  0.05    0.45
Q31   1   0.6773  0.1839  0.0173  11.00000  0.05    0.45
Q32   1   0.2143  0.0601 -0.2147  11.00000  0.05    0.44
Q33   1   0.5845  0.0987 -0.2189  11.00000  0.05    0.44
Q34   1   0.1837  0.1351  0.1560  11.00000  0.05    0.44
Q35   1   0.2050  0.4927  0.0883  11.00000  0.05    0.43
Q36   1  -0.0615  0.4518  0.2452  11.00000  0.05    0.42
Q37   1   0.1593  0.0546  0.1589  11.00000  0.05    0.42
Q38   1   0.7046  0.4115  0.1457  11.00000  0.05    0.42
Q39   1   0.5341  0.2492 -0.0668  11.00000  0.05    0.41
Q40   1  -0.0027  0.7492  0.1582  11.00000  0.05    0.41
Q41   1   0.9555  0.2255 -0.0790  11.00000  0.05    0.41
Q42   1   0.3026  0.1330  0.1135  11.00000  0.05    0.40
Q43   1   0.5285  0.1093  0.1179  11.00000  0.05    0.39
Q44   1  -0.0990  0.7675  0.1183  11.00000  0.05    0.38
Q45   1   0.6875  0.3164  0.2684  11.00000  0.05    0.38
Q46   1   0.8077  0.2903  0.2265  11.00000  0.05    0.38
Q47   1   0.0545  0.7496  0.1999  11.00000  0.05    0.37
Q48   1   0.6447  0.2470 -0.1009  11.00000  0.05    0.37
Q49   1  -0.2573  0.5937  0.1957  11.00000  0.05    0.36
Q50   1   0.1551  0.3536  0.0255  11.00000  0.05    0.36
Q51   1   0.1992  0.1403 -0.1980  11.00000  0.05    0.34
Q52   1   0.7983  0.2565 -0.0533  11.00000  0.05    0.34
Q53   1  -0.0030  0.0853 -0.1156  11.00000  0.05    0.34
Q54   1   0.8172  0.2570 -0.1343  11.00000  0.05    0.34
Q55   1  -0.0436  0.4583  0.1238  11.00000  0.05    0.34
Q56   1   0.3009  0.1744  0.1939  11.00000  0.05    0.33
Q57   1   0.2606  0.0210 -0.1072  11.00000  0.05    0.33
Q58   1   0.2076  0.2564  0.1201  11.00000  0.05    0.33
Q59   1   0.4312  0.2701  0.2430  11.00000  0.05    0.33
Q60   1   0.0448  0.0231  0.0006  11.00000  0.05    0.33
Q61   1   0.2970  0.4513 -0.0602  11.00000  0.05    0.31
Q62   1   0.0236  0.4667  0.1861  11.00000  0.05    0.31
Q63   1   0.3686  0.0291 -0.1997  11.00000  0.05    0.31
Q64   1   0.2184  0.2153 -0.0656  11.00000  0.05    0.31
Q65   1   0.5150  0.0877  0.2295  11.00000  0.05    0.30
Q66   1   0.2680 -0.0725 -0.2193  11.00000  0.05    0.30
Q67   1   0.2685  0.0278  0.1118  11.00000  0.05    0.30
Q68   1   0.8823  0.0840 -0.1836  11.00000  0.05    0.30
Q69   1   0.8296  0.4455  0.1794  11.00000  0.05    0.29
Q70   1   0.5484  0.3883  0.2118  11.00000  0.05    0.29
Q71   1   0.0444  0.0986 -0.1965  11.00000  0.05    0.29
Q72   1  -0.0951  0.4291  0.1225  11.00000  0.05    0.29
Q73   1   0.0462  0.4125 -0.0068  11.00000  0.05    0.28
Q74   1   0.1244  0.0525 -0.1636  11.00000  0.05    0.28
Q75   1   0.3490  0.0236  0.1958  11.00000  0.05    0.28
Q76   1   0.3885  0.0447 -0.2318  11.00000  0.05    0.28
Q77   1   0.8872  0.1696 -0.0026  11.00000  0.05    0.28
Q78   1  -0.0613  0.7544  0.2393  11.00000  0.05    0.28
Q79   1   0.7318  0.1368 -0.0008  11.00000  0.05    0.27
Q80   1   0.5938  0.3126  0.0710  11.00000  0.05    0.27
Q81   1   0.5385  0.4268  0.0051  11.00000  0.05    0.27
Q82   1   0.1579  0.2436  0.2046  11.00000  0.05    0.27
Q83   1   0.0290  0.4253  0.0841  11.00000  0.05    0.27
Q84   1   0.2867  0.2292 -0.1426  11.00000  0.05    0.26
Q85   1   0.5788  0.1548 -0.0240  11.00000  0.05    0.26
Q86   1   0.5182  0.3992  0.1395  11.00000  0.05    0.26
Q87   1  -0.2517  0.5014  0.1198  11.00000  0.05    0.26
Q88   1   0.7896  0.0688 -0.1192  11.00000  0.05    0.26
Q89   1   0.3842  0.3882 -0.0364  11.00000  0.05    0.26
Q90   1   0.1552  0.2468 -0.1993  11.00000  0.05    0.25
Q91   1   0.1145  0.0665 -0.2782  11.00000  0.05    0.25
Q92   1   0.0701  0.2938 -0.0417  11.00000  0.05    0.25
Q93   1   0.8588  0.1225 -0.0761  11.00000  0.05    0.25
Q94   1   0.3847 -0.0336 -0.0449  11.00000  0.05    0.24
Q95   1   0.2211  0.0274  0.2556  11.00000  0.05    0.24
Q96   1   0.0039  0.2338  0.0236  11.00000  0.05    0.24
Q97   1   0.4122  0.1373 -0.2209  11.00000  0.05    0.24
Q98   1   0.2377  0.2084  0.2344  11.00000  0.05    0.24
Q99   1   0.8498  0.4071  0.1020  11.00000  0.05    0.24
Q100  1   0.1509  0.0691  0.0604  11.00000  0.05    0.24
Q101  1   0.9175  0.2825  0.1795  11.00000  0.05    0.23
Q102  1   0.6283  0.1313  0.2809  11.00000  0.05    0.23
Q103  1   0.4360  0.0216  0.1186  11.00000  0.05    0.23
Q104  1  -0.0577  0.0062 -0.1327  11.00000  0.05    0.23
Q105  1  -0.0489  0.0704 -0.0235  11.00000  0.05    0.22
Q106  1   0.2803  0.5137  0.1979  11.00000  0.05    0.22
Q107  1   0.4183  0.1138  0.0407  11.00000  0.05    0.22
Q108  1   0.4880  0.0247 -0.0062  11.00000  0.05    0.22
Q109  1   0.2728  0.0752  0.0034  11.00000  0.05    0.21
Q110  1   0.0870 -0.0860 -0.0254  11.00000  0.05    0.20
Q111  1   0.3438  0.5205 -0.0320  11.00000  0.05    0.20
Q112  1   0.6908  0.4699  0.2216  11.00000  0.05    0.20
Q113  1   0.2568 -0.1443 -0.1391  11.00000  0.05    0.20
Q114  1   0.2090  0.1530  0.0448  11.00000  0.05    0.20
Q115  1   0.3997  0.2575 -0.0650  11.00000  0.05    0.19
Q116  1  -0.1431  0.6669  0.2417  11.00000  0.05    0.19
Q117  1   0.3392  0.5667  0.0639  11.00000  0.05    0.19
Q118  1   0.0101  0.1682 -0.1584  11.00000  0.05    0.19
Q119  1   0.1295  0.2241 -0.0052  11.00000  0.05    0.19
Q120  1   0.9869  0.3769  0.1649  11.00000  0.05    0.18
Q121  1   0.6735  0.3639 -0.0020  11.00000  0.05    0.18
Q122  1   0.2600 -0.0640 -0.1651  11.00000  0.05    0.18
Q123  1   0.2707  0.1156 -0.0955  11.00000  0.05    0.18
Q124  1   0.1004  0.2938  0.1796  11.00000  0.05    0.18
Q125  1   0.2100  0.5716 -0.0206  11.00000  0.05    0.18
Q126  1   0.3370  0.0432  0.0439  11.00000  0.05    0.17
Q127  1   0.1944 -0.0229  0.0417  11.00000  0.05    0.17
Q128  1   0.0541  0.2061  0.1412  11.00000  0.05    0.16
Q129  1   0.8490  0.1731 -0.1167  11.00000  0.05    0.15
Q130  1   0.6618  0.3243 -0.0174  11.00000  0.05    0.15
Q131  1   0.7401  0.3137  0.0606  11.00000  0.05    0.15
Q132  1   0.6374  0.3322 -0.0665  11.00000  0.05    0.15
Q133  1   0.0823  0.1565 -0.2333  11.00000  0.05    0.14
Q134  1   0.6012  0.1705  0.1736  11.00000  0.05    0.13
Q135  1   0.0160  0.3067  0.1081  11.00000  0.05    0.12
Q136  1   0.5959  0.0428 -0.0838  11.00000  0.05    0.12
Q137  1   0.5408  0.4834  0.1005  11.00000  0.05    0.12
Q138  1   0.0330  0.0069 -0.2035  11.00000  0.05    0.12
Q139  1   0.8795  0.2436 -0.0030  11.00000  0.05    0.12
Q140  1   0.5321  0.2264  0.2942  11.00000  0.05    0.11
Q141  1   0.6425  0.5453  0.1385  11.00000  0.05    0.11
Q142  1  -0.0429  0.3343  0.0337  11.00000  0.05    0.11
Q143  1   0.0443  0.7008  0.2987  11.00000  0.05    0.11
Q144  1   0.1312 -0.0604 -0.1418  11.00000  0.05    0.09
Q145  1   0.0971  0.5650  0.0617  11.00000  0.05    0.09
Q146  1   0.7869  0.3365  0.1278  11.00000  0.05    0.08
Q147  1   0.3559  0.1594 -0.0446  11.00000  0.05    0.08
Q148  1   0.4599  0.4246 -0.0949  11.00000  0.05    0.08
Q149  1   0.2142 -0.0919 -0.0801  11.00000  0.05    0.08
Q150  1   0.0853  0.1588 -0.0636  11.00000  0.05    0.08
Q151  1   0.9238  0.2438  0.0798  11.00000  0.05    0.03
Q152  1   0.2858  0.3006  0.1574  11.00000  0.05    0.02
Q153  1   0.3352  0.2983  0.1822  11.00000  0.05    0.01
Q154  1   0.4377  0.0698  0.3141  11.00000  0.05    0.01
;
_shelx_res_checksum              98130
_shelx_hkl_file
;
   0   0  -1    0.19    0.02
   0   0  -1    0.09    0.02
   0   0  -1    0.25    0.02
   0   0   1    0.44    0.03
   0   0  -2   30.17    0.33
   0   0  -2   32.27    0.34
   0   0  -2   28.06    0.30
   0   0   2   37.32    0.36
   0   0  -3    0.28    0.05
   0   0  -3    0.03    0.03
   0   0  -3    0.20    0.05
   0   0   3    1.26    0.09
   0   0  -4  795.18    3.62
   0   0  -4  930.78    2.65
   0   0  -4  788.53    3.71
   0   0   4  961.97    3.25
   0   0  -5    0.25    0.07
   0   0   5    0.15    0.05
   0   0  -6  605.84    2.65
   0   0  -6  513.95    2.19
   0   0   6  728.35    2.76
   0   0  -7    0.06    0.06
   0   0  -7    0.04    0.07
   0   0   7    0.14    0.07
   0   0  -8  431.99    2.67
   0   0  -8  365.87    2.11
   0   0  -9    0.41    0.13
   0   0  -9    0.12    0.09
   0   0 -10  236.42    2.28
   0   0 -10  185.47    1.64
   0   0 -11    0.31    0.14
   0   0 -11    0.14    0.10
   0   0 -12  349.42    3.13
   0   0 -12  252.67    2.00
   0   0 -13    0.14    0.15
   0   1   0    0.41    0.03
   0   1   0    0.47    0.03
   0  -1  -1   55.12    0.39
   0  -1  -1   63.82    0.42
   0   1  -1   58.29    0.24
   0   1  -1   63.93    0.24
   0   1   1   50.17    0.38
   0  -1  -2    1.67    0.09
   0  -1  -2    1.85    0.10
   0   1  -2    1.78    0.07
   0   1  -2    2.10    0.08
   0   1   2    1.76    0.10
   0  -1  -3    9.70    0.25
   0  -1  -3   19.50    0.35
   0   1  -3   10.93    0.23
   0   1  -3   11.09    0.24
   0   1  -3    5.60    0.13
   0   1   3    8.86    0.24
   0  -1  -4  524.45    2.08
   0  -1  -4  539.56    2.05
   0   1  -4  550.92    2.67
   0   1  -4  646.07    2.11
   0   1  -4  327.86    1.19
   0   1   4  563.38    2.16
   0  -1  -5  139.39    1.20
   0  -1  -5  124.88    1.09
   0   1  -5  138.04    1.10
   0   1  -5  152.95    1.17
   0   1  -5   91.24    0.72
   0   1   5  147.51    1.22
   0  -1  -6    9.45    0.35
   0  -1  -6    8.80    0.33
   0   1  -6    9.78    0.33
   0   1  -6   10.85    0.35
   0   1  -6    7.27    0.23
   0   1   6    9.94    0.35
   0  -1  -7   34.26    0.72
   0  -1  -7   33.34    0.66
   0   1  -7   33.36    0.67
   0   1  -7   37.15    0.71
   0   1  -7   25.16    0.46
   0   1   7   40.25    0.75
   0  -1  -8  934.60    4.02
   0  -1  -8  857.24    3.52
   0   1  -8  933.54    3.85
   0   1  -8  692.01    2.54
   0  -1  -9   18.37    0.61
   0  -1  -9   15.51    0.51
   0   1  -9   18.96    0.60
   0   1  -9   12.67    0.37
   0  -1 -10    6.69    0.41
   0  -1 -10    6.64    0.37
   0   1 -10    6.73    0.40
   0   1 -10    4.92    0.25
   0  -1 -11   15.15    0.64
   0  -1 -11   13.48    0.52
   0   1 -11   15.15    0.62
   0   1 -11   10.34    0.35
   0  -1 -12    5.81    0.44
   0  -1 -12    5.04    0.35
   0   1 -12    6.23    0.45
   0  -1 -13    0.27    0.15
   0   1 -13    0.11    0.14
   0   1 -14    1.70    0.32
   0   2   0  117.96    0.58
   0   2   0  149.89    0.60
   0  -2  -1    5.47    0.15
   0  -2  -1    9.99    0.20
   0   2  -1    7.89    0.13
   0   2  -1    7.68    0.10
   0   2   1    6.73    0.17
   0   2   1    4.99    0.15
   0  -2  -2  373.95    1.42
   0  -2  -2  442.32    1.93
   0   2  -2  389.19    1.34
   0   2  -2  445.53    1.54
   0   2   2  384.37    1.48
   0   2   2  348.62    1.44
   0  -2  -3   31.90    0.48
   0  -2  -3   35.19    0.51
   0   2  -3   30.21    0.35
   0   2  -3   37.15    0.40
   0   2   3   31.39    0.50
   0  -2  -4   59.51    0.74
   0  -2  -4   68.83    0.79
   0   2  -4   61.26    0.61
   0   2  -4   73.74    0.68
   0   2   4   65.93    0.80
   0  -2  -5 1280.36    4.08
   0  -2  -5 1343.57    7.26
   0   2  -5 1340.75    6.14
   0   2  -5 1525.10    6.40
   0   2   5 1390.04    4.90
   0  -2  -6  841.91    3.35
   0  -2  -6  866.37    3.33
   0   2  -6  829.84    2.94
   0   2  -6 1014.78    3.28
   0   2   6  951.22    3.59
   0  -2  -7    2.59    0.22
   0  -2  -7    2.11    0.21
   0   2  -7    2.01    0.19
   0   2  -7    2.68    0.21
   0   2   7    2.40    0.21
   0  -2  -8   58.71    1.03
   0  -2  -8   55.70    0.96
   0   2  -8   57.52    0.94
   0  -2  -9   16.44    0.59
   0  -2  -9   15.28    0.54
   0   2  -9   17.27    0.57
   0  -2 -10  134.70    1.78
   0  -2 -10  124.25    1.58
   0   2 -10  141.60    1.72
   0  -2 -11  155.44    1.83
   0   2 -11  178.13    2.06
   0  -2 -12    0.54    0.19
   0   2 -12    0.36    0.16
   0  -2 -13   33.34    0.91
   0   2 -13   41.70    1.13
   0  -2 -14    9.13    0.51
   0   2 -14   10.26    0.62
   0   2 -15    1.64    0.33
   0  -3   0    0.09    0.04
   0   3   0    0.02    0.02
   0  -3  -1   82.61    0.67
   0   3  -1   60.91    0.46
   0   3  -1   68.92    0.43
   0   3   1   54.03    0.56
   0   3   1   67.07    0.60
   0   3   1   52.54    0.55
   0  -3  -2 1180.44    4.29
   0  -3  -2 1413.83    6.17
   0   3  -2 1204.21    4.16
   0   3  -2 1327.60    4.37
   0   3   2 1401.41    6.26
   0   3   2 1100.58    5.58
   0  -3  -3  443.75    1.90
   0  -3  -3  487.42    2.06
   0   3  -3  443.02    1.38
   0   3  -3  528.91    1.88
   0   3   3  409.46    1.94
   0  -3  -4  494.17    2.23
   0  -3  -4  580.84    2.48
   0   3  -4  489.91    1.71
   0   3  -4  610.62    1.92
   0   3   4  473.05    2.30
   0  -3  -5   39.47    0.69
   0  -3  -5   39.85    0.71
   0   3  -5   37.90    0.55
   0   3  -5   46.89    0.62
   0   3   5   37.06    0.70
   0  -3  -6   98.26    1.18
   0  -3  -6  104.19    1.23
   0   3  -6   98.61    1.00
   0   3  -6  124.10    1.13
   0   3   6  107.57    1.28
   0  -3  -7   19.38    0.57
   0  -3  -7   21.44    0.60
   0   3  -7   20.65    0.52
   0   3  -7   27.17    0.59
   0   3   7   22.82    0.63
   0  -3  -8    0.12    0.10
   0  -3  -8    0.20    0.12
   0   3  -8    1.05    0.17
   0  -3  -9    0.13    0.12
   0   3  -9    0.90    0.17
   0  -3 -10  701.08    3.95
   0   3 -10  745.51    3.90
   0  -3 -11   26.96    0.82
   0   3 -11   28.94    0.83
   0  -3 -12    2.23    0.32
   0   3 -12    2.35    0.32
   0  -3 -13   31.33    0.94
   0   3 -13   35.67    1.04
   0  -3 -14  348.91    3.12
   0   3 -14  424.64    3.71
   0  -3 -15    2.08    0.34
   0   3 -15    3.17    0.43
   0  -4   0 1237.57    4.83
   0   4   0  879.40    4.11
   0   4   0 1054.52    3.95
   0  -4  -1  484.78    1.83
   0   4  -1  325.33    1.28
   0   4  -1  417.95    1.32
   0   4   1  321.03    1.54
   0   4   1  404.42    1.66
   0   4   1  305.39    1.51
   0  -4  -2  726.17    2.75
   0   4  -2  565.36    1.77
   0   4  -2  658.94    2.16
   0   4   2  651.17    2.34
   0   4   2  504.56    2.14
   0  -4  -3   45.58    0.69
   0   4  -3   39.53    0.46
   0   4  -3   46.13    0.46
   0   4   3   34.16    0.61
   0  -4  -4   42.64    0.69
   0  -4  -4   50.25    0.78
   0   4  -4   46.72    0.55
   0   4  -4   56.73    0.59
   0   4   4   41.76    0.73
   0  -4  -5    1.38    0.16
   0  -4  -5    1.49    0.20
   0   4  -5    4.18    0.20
   0   4  -5    1.61    0.14
   0   4   5    1.39    0.16
   0  -4  -6 1569.34    5.04
   0   4  -6 1454.14    6.26
   0   4  -6 1846.92    4.55
   0   4   6 1444.27    5.46
   0  -4  -7    2.82    0.26
   0   4  -7    3.43    0.23
   0   4  -7    3.46    0.23
   0   4   7    2.80    0.25
   0  -4  -8    2.15    0.24
   0   4  -8    2.29    0.21
   0   4   8    2.38    0.25
   0  -4  -9   13.11    0.56
   0   4  -9   12.31    0.48
   0  -4 -10  276.60    2.61
   0   4 -10  281.95    2.38
   0  -4 -11    4.22    0.38
   0   4 -11    5.16    0.38
   0  -4 -12    5.07    0.42
   0   4 -12    6.93    0.45
   0  -4 -13    2.03    0.34
   0   4 -13    2.96    0.34
   0  -4 -14   14.72    0.71
   0   4 -14   16.58    0.75
   0  -5   0    0.17    0.06
   0   5   0    0.04    0.04
   0   5   0    0.44    0.07
   0  -5  -1   95.04    0.91
   0   5  -1   64.40    0.66
   0   5  -1   82.66    0.69
   0   5   1   61.35    0.75
   0   5   1   81.88    0.83
   0   5   1   57.50    0.73
   0  -5  -2  180.27    1.36
   0   5  -2  122.81    0.88
   0   5  -2  165.49    0.93
   0   5   2  158.64    1.26
   0   5   2  121.71    1.15
   0  -5  -3   54.67    0.81
   0   5  -3   46.04    0.55
   0   5  -3   55.22    0.55
   0   5   3   53.78    0.80
   0   5   3   39.55    0.71
   0  -5  -4  241.04    1.83
   0   5  -4  214.76    1.25
   0   5  -4  263.17    1.32
   0   5   4  191.34    1.67
   0  -5  -5  187.66    1.73
   0   5  -5  164.57    1.20
   0   5  -5  204.78    1.30
   0   5   5  150.66    1.58
   0  -5  -6   37.95    0.83
   0   5  -6   34.55    0.61
   0   5  -6   42.54    0.66
   0   5   6   32.17    0.78
   0  -5  -7   49.57    1.00
   0   5  -7   44.51    0.75
   0   5  -7   56.71    0.83
   0   5   7   45.39    0.98
   0  -5  -8   15.58    0.61
   0   5  -8   15.06    0.48
   0   5   8   16.45    0.63
   0  -5  -9  169.59    2.05
   0   5  -9  165.88    1.69
   0  -5 -10   74.38    1.42
   0   5 -10   71.58    1.20
   0  -5 -11   12.74    0.63
   0   5 -11   12.32    0.55
   0  -5 -12    0.33    0.20
   0   5 -12    0.26    0.15
   0  -5 -13   32.61    1.05
   0   5 -13   35.42    1.01
   0  -5 -14   38.47    1.16
   0   5 -14   45.48    1.19
   0  -6   0 1624.93    4.75
   0   6   0 1166.68    4.91
   0   6   0 1514.40    3.64
   0  -6  -1  371.47    1.96
   0  -6   1  398.47    1.77
   0   6  -1  250.87    1.45
   0   6  -1  335.79    1.59
   0   6   1  331.97    1.83
   0   6   1  230.23    1.59
   0  -6  -2    6.81    0.30
   0   6  -2    3.60    0.18
   0   6  -2    5.38    0.20
   0   6   2    4.94    0.26
   0   6   2    4.09    0.24
   0  -6  -3  151.99    1.45
   0   6  -3  110.56    0.92
   0   6  -3  151.70    1.02
   0   6   3  107.92    1.25
   0  -6  -4  607.51    3.09
   0   6  -4  476.33    1.98
   0   6  -4  626.02    2.18
   0   6   4  463.17    2.76
   0  -6  -5   35.82    0.80
   0   6  -5   31.16    0.54
   0   6  -5   39.44    0.60
   0   6   5   29.60    0.75
   0  -6  -6  131.34    1.62
   0   6  -6  120.21    1.15
   0   6  -6  155.87    1.28
   0   6   6  115.67    1.55
   0  -6  -7   41.90    0.97
   0   6  -7   37.08    0.69
   0   6   7   34.84    0.90
   0  -6  -8   41.58    1.02
   0   6  -8   36.42    0.74
   0   6   8   39.20    1.00
   0  -6  -9   10.31    0.55
   0   6  -9   10.92    0.45
   0  -6 -10  120.02    1.88
   0   6 -10  118.25    1.52
   0  -6 -11  102.82    1.81
   0   6 -11  108.32    1.55
   0  -6 -12  334.07    3.35
   0   6 -12  335.95    2.87
   0  -6 -13   35.97    1.15
   0   6 -13   41.04    1.07
   0   7   0    0.09    0.06
   0   7   0    0.09    0.06
   0   7   0    0.31    0.09
   0  -7  -1    0.20    0.10
   0   7  -1    0.21    0.07
   0   7  -1    0.62    0.10
   0   7   1    0.49    0.11
   0  -7  -2   42.48    0.78
   0   7  -2   29.78    0.53
   0   7  -2   40.25    0.59
   0   7   2   27.78    0.64
   0  -7  -3   83.36    1.15
   0   7  -3   58.27    0.72
   0   7  -3   86.98    0.86
   0   7   3   57.95    0.98
   0  -7  -4 1138.93    4.50
   0   7  -4  801.90    2.72
   0   7  -4 1212.02    3.29
   0   7   4  854.98    3.99
   0  -7  -5  120.00    1.55
   0   7  -5   91.74    0.96
   0   7  -5  129.30    1.13
   0   7   5   92.52    1.38
   0  -7  -6    9.96    0.49
   0   7  -6    8.04    0.31
   0   7   6    7.72    0.43
   0  -7  -7   77.09    1.38
   0   7  -7   64.28    0.91
   0   7   7   65.36    1.29
   0  -7  -8  174.16    2.16
   0   7  -8  159.24    1.53
   0   7   8  164.59    2.14
   0  -7  -9   22.48    0.82
   0   7  -9   19.74    0.59
   0  -7 -10   53.62    1.31
   0   7 -10   51.88    1.00
   0  -7 -11   50.44    1.32
   0   7 -11   49.48    1.03
   0  -7 -12   11.19    0.67
   0   7 -12   10.76    0.53
   0   8   0   69.63    0.97
   0   8  -1   30.36    0.61
   0   8   1   28.43    0.66
   0  -8  -2    0.60    0.15
   0   8  -2    0.31    0.08
   0   8   2    0.29    0.10
   0  -8  -3  204.79    1.91
   0   8  -3  136.17    1.18
   0   8   3  142.20    1.63
   0  -8  -4   85.33    1.31
   0   8  -4   57.65    0.77
   0   8   4   60.80    1.12
   0  -8  -5  289.70    2.52
   0   8  -5  195.13    1.43
   0   8   5  215.18    2.22
   0  -8  -6    1.23    0.24
   0   8  -6    1.00    0.14
   0   8   6    1.13    0.22
   0  -8  -7   21.27    0.77
   0   8  -7   17.51    0.48
   0   8   7   18.70    0.73
   0  -8  -8   17.00    0.72
   0   8  -8   13.25    0.44
   0   8   8   15.28    0.69
   0  -8  -9   13.55    0.68
   0   8  -9   11.60    0.44
   0  -8 -10    1.67    0.34
   0   8 -10    1.40    0.21
   0  -8 -11    4.75    0.46
   0   8 -11    4.81    0.34
   0   9   0   -0.02    0.06
   0   9  -1  121.80    1.30
   0   9   1  136.38    1.52
   0   9  -2   98.20    1.11
   0   9   2   96.48    1.35
   0   9  -3   36.66    0.66
   0   9   3   38.67    0.90
   0  -9  -4    0.86    0.21
   0   9  -4    0.49    0.10
   0   9   4    0.21    0.12
   0  -9  -5   16.11    0.65
   0   9  -5   11.25    0.36
   0   9   5   12.79    0.58
   0  -9  -6    4.12    0.38
   0   9  -6    3.05    0.20
   0   9   6    2.91    0.31
   0  -9  -7    6.40    0.47
   0   9  -7    4.68    0.25
   0   9   7    5.03    0.41
   0  -9  -8    1.17    0.28
   0   9  -8    1.00    0.15
   0  -9  -9  120.32    2.02
   0   9  -9   93.72    1.17
   0  -9 -10   74.65    1.65
   0   9 -10   63.15    1.01
   0  10   0  207.79    1.90
   0  10  -1    8.72    0.38
   0  10   1   10.07    0.45
   0  10  -2    6.78    0.32
   0  10   2    8.22    0.43
   0  10  -3   69.78    0.95
   0  10  -3   56.65    0.86
   0  10   3   68.28    1.26
   0  10  -4   24.08    0.54
   0  10   4   24.13    0.79
   0  10  -5   37.82    0.66
   0  10   5   42.45    1.08
   0 -10  -6  375.90    3.29
   0  10  -6  285.51    1.78
   0  10   6  312.35    3.04
   0 -10  -7   84.59    1.63
   0  10  -7   65.14    0.86
   0  10   7   77.03    1.58
   0 -10  -8   10.60    0.64
   0  10  -8    7.47    0.31
   0 -10  -9   21.72    0.91
   0  11   0    0.21    0.10
   0  11  -1   25.76    0.67
   0  11   1   25.30    0.73
   0  11  -2  117.37    1.36
   0  11   2  128.07    1.71
   0  11  -3    3.46    0.24
   0  11   3    4.43    0.35
   0  11  -4   18.59    0.50
   0  11   4   21.87    0.78
   0  11  -5   49.94    0.76
   0  11  -5   43.06    0.72
   0  11   5   53.43    1.26
   0  11  -6    2.32    0.18
   0  11   6    3.21    0.35
   0  11   7    2.62    0.38
   0  12   0   55.30    1.07
   0  12  -1   82.27    1.24
   0  12   1   84.80    1.38
   0  12  -2    7.53    0.37
   0  12   2    7.76    0.45
   0  12   3   13.67    0.62
   1   0 -13    0.15    0.13
   1   0 -12    8.56    0.54
   1   0 -12    6.13    0.37
   1   0 -11    0.19    0.14
   1   0 -11    0.32    0.14
   1   0 -10   80.34    1.39
   1   0 -10   64.48    1.05
   1   0  -9    0.00    0.09
   1   0  -9    0.00    0.08
   1   0  -8  193.57    1.89
   1   0  -8  142.41    1.42
  -1   0   7    0.23    0.09
   1   0  -7    0.15    0.09
   1   0  -7    0.04    0.08
  -1   0   6 1504.45    5.56
   1   0  -6 1202.01    4.52
   1   0  -6 1076.21    5.33
  -1   0   5    0.39    0.09
   1   0  -5    0.14    0.07
   1   0  -5    0.07    0.05
  -1   0   4  833.71    2.74
   1   0  -4  617.21    2.48
   1   0  -4  556.86    2.13
  -1   0   3    0.18    0.05
   1   0  -3    0.15    0.06
   1   0  -3    0.23    0.06
  -1   0   2   74.98    0.67
   1   0  -2   46.16    0.50
  -1   0   1    0.27    0.05
   1   0  -1    0.15    0.04
   1   0  -1    0.08    0.03
  -1   0   0  334.39    1.80
   1   0   0  230.53    0.99
  -1   0  -1    1.34    0.08
  -1   0  -1    0.08    0.03
  -1   0  -1    0.26    0.04
   1   0   1    0.12    0.03
  -1   0  -2 1360.11    5.88
  -1   0  -2 1269.81    5.20
  -1   0  -2 1478.86    5.81
   1   0   2 1177.00    5.10
  -1   0  -3    0.32    0.06
  -1   0  -3    1.39    0.10
  -1   0  -3    0.43    0.06
   1   0   3    0.34    0.06
  -1   0  -4 1153.94    5.06
  -1   0  -4 1064.75    4.21
  -1   0  -4 1220.99    6.05
  -1   0  -5    1.57    0.13
  -1   0  -5    0.10    0.05
  -1   0  -5    0.22    0.07
  -1   0  -6  997.49    5.28
  -1   0  -6  910.25    3.23
  -1   0  -6  900.18    3.87
  -1   0  -7    0.86    0.14
  -1   0  -7    0.03    0.07
  -1   0  -8  129.34    1.44
  -1   0  -8  118.03    1.14
  -1   0  -9    0.09    0.08
  -1   0  -9    0.08    0.09
  -1   0 -10  229.38    2.21
  -1   0 -10  193.18    1.56
  -1   0 -11    0.53    0.17
  -1   0 -11    0.12    0.10
  -1   0 -12   28.65    0.90
  -1   0 -13    0.02    0.12
  -1   0 -14   53.02    1.35
   1  -1 -14  119.00    1.66
   1  -1 -13  118.89    1.65
   1   1 -13  159.02    2.28
   1  -1 -12   20.28    0.68
   1   1 -12   27.60    0.92
   1  -1 -11    0.06    0.12
   1   1 -11    0.89    0.22
   1  -1 -10  309.82    2.74
   1  -1 -10  242.20    2.16
   1   1 -10  303.42    2.67
   1  -1  -9  298.10    2.53
   1  -1  -9  231.95    2.02
   1   1  -9  299.72    2.50
   1   1  -9  200.32    1.61
   1  -1  -8   17.45    0.59
   1  -1  -8   14.42    0.49
   1   1  -8   18.37    0.59
   1   1  -8   12.31    0.39
  -1   1   7  609.07    3.06
   1  -1  -7  484.40    2.83
   1  -1  -7  433.47    2.48
   1   1  -7  497.30    2.81
   1   1  -7  320.59    1.86
  -1  -1   6    0.59    0.11
  -1   1   6    0.34    0.10
   1  -1  -6    0.58    0.13
   1  -1  -6    0.34    0.10
   1   1  -6    0.57    0.12
   1   1  -6    0.19    0.07
  -1  -1   5  218.74    1.45
  -1   1   5  213.98    1.58
   1  -1  -5  187.78    1.51
   1  -1  -5  157.91    1.30
   1   1  -5  171.17    1.42
  -1  -1   4  488.68    2.00
  -1   1   4  462.18    2.13
   1  -1  -4  380.81    1.97
   1  -1  -4  368.27    1.83
   1   1  -4  420.07    2.04
   1   1  -4  485.06    2.12
  -1  -1   3  687.13    2.36
  -1   1   3  664.98    3.02
   1  -1  -3  543.96    2.13
   1  -1  -3  521.92    1.96
   1   1  -3  522.42    2.09
   1   1  -3  645.69    2.21
  -1  -1   2 1889.44    7.88
  -1   1   2 2110.63    9.17
   1  -1  -2 1460.70    6.11
   1   1  -2 1499.44    6.41
   1   1  -2 1927.20    7.86
  -1  -1   1  371.63    1.33
  -1   1   1  301.21    1.26
  -1   1   1  373.20    1.61
   1  -1  -1  328.08    1.28
   1  -1  -1  255.88    1.03
   1   1  -1  323.51    1.40
  -1  -1   0    4.66    0.15
  -1   1   0    4.58    0.14
  -1   1   0    6.26    0.15
  -1   1   0    4.44    0.10
  -1   1   0    6.10    0.12
   1  -1   0    3.56    0.10
   1   1   0    4.10    0.16
  -1  -1  -1  575.63    2.51
  -1  -1  -1  703.99    3.47
  -1   1  -1  552.20    2.52
  -1   1  -1  685.48    2.85
   1   1   1  512.75    2.30
  -1  -1  -2  978.95    4.33
  -1  -1  -2 1201.05    6.07
  -1   1  -2 1051.33    4.18
  -1   1  -2  829.82    3.28
   1   1   2 1219.83    6.28
   1   1   2  847.63    4.50
  -1  -1  -3 1331.50    6.78
  -1  -1  -3 1388.98    6.69
  -1   1  -3 1312.88    5.46
  -1   1  -3 1177.08    4.98
   1   1   3 1178.78    6.07
  -1  -1  -4   65.05    0.74
  -1  -1  -4   77.79    0.79
  -1   1  -4   67.22    0.64
  -1   1  -4   61.91    0.63
  -1   1  -4   52.49    0.38
   1   1   4   62.71    0.74
  -1  -1  -5   33.61    0.59
  -1  -1  -5   34.18    0.57
  -1   1  -5   33.17    0.52
  -1   1  -5   31.17    0.51
  -1   1  -5   25.86    0.33
   1   1   5   31.36    0.57
  -1  -1  -6   39.68    0.70
  -1  -1  -6   43.21    0.69
  -1   1  -6   39.41    0.63
  -1   1  -6   39.13    0.64
  -1   1  -6   31.42    0.41
   1   1   6   40.99    0.70
  -1  -1  -7  110.84    1.27
  -1  -1  -7  110.11    1.17
  -1   1  -7  113.38    1.19
  -1   1  -7  114.32    1.20
  -1   1  -7   86.65    0.73
  -1  -1  -8   81.16    1.18
  -1  -1  -8   82.67    1.07
  -1   1  -8   84.00    1.12
  -1   1  -8   64.01    0.67
  -1  -1  -9  322.24    2.51
  -1  -1  -9  306.33    2.15
  -1   1  -9  312.50    2.34
  -1   1  -9  230.23    1.31
  -1  -1 -10  176.08    1.98
  -1  -1 -10  157.82    1.60
  -1   1 -10  175.02    1.89
  -1  -1 -11    7.81    0.46
  -1  -1 -11    6.46    0.36
  -1   1 -11    7.48    0.44
  -1  -1 -12   50.80    1.21
  -1  -1 -12   43.97    0.90
  -1   1 -12   51.54    1.18
  -1  -1 -13    5.86    0.36
  -1   1 -13    7.56    0.50
  -1   1 -14  167.55    2.35
  -1   1 -15   51.15    1.37
   1  -2 -15    1.84    0.30
   1  -2 -14    0.16    0.17
   1   2 -14    0.16    0.18
   1  -2 -13    5.38    0.41
   1   2 -13    6.46    0.49
   1  -2 -12   46.91    1.08
   1   2 -12   57.98    1.31
   1  -2 -11  206.25    2.18
   1   2 -11  265.09    2.64
   1  -2 -10   68.59    1.22
   1   2 -10   79.19    1.37
   1  -2  -9    6.06    0.40
   1  -2  -9    4.86    0.34
   1   2  -9    5.44    0.36
   1  -2  -8   93.35    1.35
   1  -2  -8   90.24    1.26
   1   2  -8   98.39    1.34
  -1   2   7  185.59    1.76
   1  -2  -7  154.20    1.62
   1  -2  -7  152.74    1.55
   1   2  -7  152.55    1.56
  -1   2   6  252.78    1.93
   1  -2  -6  218.75    1.80
   1  -2  -6  195.73    1.64
   1   2  -6  228.95    1.77
   1   2  -6  284.43    1.93
  -1   2   5  615.83    2.79
   1  -2  -5  468.95    2.43
   1  -2  -5  508.97    2.45
   1   2  -5  512.71    2.46
   1   2  -5  645.44    2.68
  -1   2   4  313.99    1.83
   1  -2  -4  260.60    1.66
   1  -2  -4  277.84    1.66
   1   2  -4  281.10    1.69
   1   2  -4  358.81    1.83
  -1   2   3 1671.17    7.55
   1  -2  -3 1383.77    6.46
   1  -2  -3 1632.95    7.93
   1   2  -3 1665.42    8.77
   1   2  -3 1828.67    8.44
  -1   2   2   56.31    0.64
  -1   2   2   55.32    0.62
   1  -2  -2   52.47    0.60
   1  -2  -2   52.58    0.57
   1   2  -2   50.86    0.63
   1   2  -2   63.32    0.64
  -1  -2   1 1624.43    5.82
  -1   2   1 1605.85    6.91
  -1   2   1 1748.94    6.93
   1  -2  -1 1666.45    6.19
   1   2  -1 1377.66    6.09
   1   2  -1 1815.07    7.41
  -1  -2   0 1078.32    4.70
  -1   2   0 1006.81    3.95
  -1   2   0 1128.65    4.18
   1  -2   0 1198.33    3.69
   1   2   0  837.56    4.52
   1   2   0 1092.61    5.04
  -1  -2  -1 1036.27    4.36
  -1  -2  -1 1258.50    5.58
   1   2   1  814.06    4.19
  -1  -2  -2  178.67    1.09
  -1  -2  -2  224.42    1.30
   1   2   2  178.76    1.18
  -1  -2  -3 1177.31    6.37
  -1  -2  -3 1267.39    5.87
  -1   2  -3 1219.99    4.22
  -1   2  -3 1149.82    3.86
   1   2   3  954.70    3.46
  -1  -2  -4   10.02    0.31
  -1  -2  -4   11.69    0.35
  -1   2  -4   10.50    0.23
  -1   2  -4   10.15    0.23
   1   2   4    9.03    0.31
  -1  -2  -5  171.14    1.40
  -1  -2  -5  177.75    1.43
  -1   2  -5  171.20    1.08
  -1   2  -5  168.98    1.10
   1   2   5  159.14    1.38
  -1  -2  -6  146.12    1.40
  -1  -2  -6  150.04    1.40
  -1   2  -6  147.72    1.16
  -1   2  -6  150.44    1.18
   1   2   6  137.41    1.37
  -1  -2  -7  459.32    2.68
  -1  -2  -7  516.22    2.74
  -1   2  -7  498.65    2.39
  -1   2  -7  509.65    2.43
   1   2   7  483.95    2.74
  -1  -2  -8   75.62    1.17
  -1  -2  -8   76.86    1.12
  -1   2  -8   75.50    1.03
  -1  -2  -9    1.13    0.20
  -1  -2  -9    0.81    0.18
  -1   2  -9    1.62    0.19
  -1  -2 -10    0.82    0.19
  -1  -2 -10    0.72    0.18
  -1   2 -10    1.71    0.24
  -1  -2 -11  125.81    1.82
  -1  -2 -11  117.51    1.56
  -1   2 -11  133.78    1.74
  -1  -2 -12   83.13    1.35
  -1   2 -12   97.32    1.58
  -1  -2 -13  212.29    2.17
  -1   2 -13  234.76    2.60
  -1  -2 -14    5.35    0.40
  -1   2 -14    6.19    0.48
  -1   2 -15   53.04    1.37
   1  -3 -15   23.62    0.87
   1   3 -15   32.50    1.13
   1  -3 -14    2.82    0.39
   1   3 -14    2.67    0.40
   1  -3 -13   16.38    0.71
   1   3 -13   20.28    0.83
   1  -3 -12   41.57    1.07
   1   3 -12   52.29    1.24
   1  -3 -11   21.48    0.75
   1   3 -11   25.84    0.84
   1  -3 -10   73.07    1.31
   1   3 -10   80.60    1.38
   1  -3  -9   74.25    1.26
   1   3  -9   83.01    1.32
  -1   3   8  652.98    3.65
   1  -3  -8  487.97    3.06
   1   3  -8  547.03    3.16
  -1   3   7   63.73    1.08
   1  -3  -7   57.20    1.01
   1  -3  -7   57.17    0.99
   1   3  -7   58.23    0.97
  -1   3   6  132.26    1.45
   1  -3  -6  112.12    1.31
   1  -3  -6  118.71    1.34
   1   3  -6  122.46    1.31
   1   3  -6  149.11    1.41
  -1   3   5    0.68    0.13
   1  -3  -5    0.63    0.13
   1  -3  -5    1.55    0.17
   1   3  -5    0.47    0.11
   1   3  -5    0.67    0.12
  -1   3   4  980.13    3.40
   1  -3  -4  858.55    3.08
   1  -3  -4 1040.64    5.72
   1   3  -4  922.28    3.14
   1   3  -4 1129.66    3.30
  -1   3   3    5.82    0.25
  -1   3   3    5.29    0.23
   1  -3  -3    4.64    0.22
   1  -3  -3    4.68    0.22
   1   3  -3    4.54    0.22
   1   3  -3    5.72    0.23
  -1   3   2  220.15    1.33
  -1   3   2  206.69    1.26
   1  -3  -2  234.00    1.27
   1   3  -2  204.14    1.33
   1   3  -2  241.57    1.31
  -1   3   1   33.12    0.45
  -1   3   1   29.59    0.41
   1  -3  -1   36.78    0.42
   1   3  -1   28.55    0.49
   1   3  -1   34.18    0.48
  -1   3   0 1012.29    3.78
  -1   3   0  995.92    3.75
   1  -3   0 1248.06    3.86
   1   3   0  728.97    3.17
   1   3   0 1175.82    4.72
  -1  -3  -1  255.41    1.28
  -1  -3  -1  341.80    1.69
   1   3   1  231.94    1.42
   1   3   1  296.81    1.47
  -1  -3  -2    2.51    0.15
  -1  -3  -2    2.99    0.18
   1   3   2    2.02    0.15
  -1  -3  -3   94.24    0.93
  -1  -3  -3  114.85    1.10
   1   3   3   81.78    0.94
  -1  -3  -4  728.60    2.80
  -1  -3  -4  907.73    4.01
  -1   3  -4  770.86    2.81
  -1   3  -4  832.30    2.55
   1   3   4  714.14    2.96
  -1  -3  -5  123.98    1.25
  -1  -3  -5  137.66    1.36
  -1   3  -5  121.85    0.84
  -1   3  -5  131.06    0.90
   1   3   5  114.74    1.26
  -1  -3  -6  167.81    1.59
  -1   3  -6  147.83    1.10
  -1   3  -6  155.08    1.14
   1   3   6  140.31    1.48
  -1  -3  -7  175.90    1.72
  -1  -3  -7  185.38    1.76
  -1   3  -7  175.80    1.36
  -1   3  -7  191.35    1.43
   1   3   7  182.64    1.79
  -1  -3  -8  609.01    3.41
  -1  -3  -8  617.36    3.38
  -1   3  -8  615.08    2.85
  -1  -3  -9   99.33    1.47
  -1  -3  -9  101.80    1.44
  -1   3  -9  102.14    1.27
  -1  -3 -10  104.40    1.52
  -1   3 -10  104.91    1.40
  -1  -3 -11    2.96    0.31
  -1   3 -11    3.55    0.31
  -1  -3 -12    3.18    0.34
  -1   3 -12    1.57    0.26
  -1  -3 -13   10.50    0.55
  -1   3 -13   11.56    0.59
  -1  -3 -14    9.60    0.55
  -1   3 -14   10.71    0.60
  -1   3 -15   21.15    0.87
   1  -4 -14    3.45    0.40
   1   4 -14    3.39    0.41
   1  -4 -13    4.62    0.43
   1   4 -13    5.82    0.47
   1  -4 -12  219.78    2.55
   1   4 -12  262.06    2.75
   1  -4 -11   34.57    0.99
   1   4 -11   41.58    1.05
   1  -4 -10    1.90    0.30
   1   4 -10    2.08    0.29
   1  -4  -9  135.48    1.77
   1   4  -9  150.17    1.77
  -1   4   8   12.10    0.53
   1  -4  -8   11.77    0.51
   1   4  -8   12.48    0.50
  -1   4   7    0.99    0.18
   1  -4  -7    0.82    0.18
   1   4  -7    1.09    0.18
  -1   4   6    1.06    0.17
   1  -4  -6    5.61    0.32
   1   4  -6    0.85    0.15
   1   4  -6    0.94    0.15
  -1   4   5  133.01    1.42
   1  -4  -5  135.62    1.39
   1   4  -5  134.57    1.32
   1   4  -5  160.48    1.38
  -1   4   4  164.57    1.47
   1  -4  -4  175.25    1.46
   1   4  -4  156.72    1.34
   1   4  -4  198.96    1.42
  -1   4   3    2.16    0.17
  -1   4   3    1.74    0.15
   1  -4  -3    2.72    0.18
   1   4  -3    2.11    0.17
   1   4  -3    4.71    0.22
  -1   4   2    5.58    0.24
  -1   4   2    5.15    0.22
   1  -4  -2    6.18    0.23
   1   4  -2    4.90    0.23
   1   4  -2    6.80    0.24
  -1   4   1   55.25    0.63
  -1   4   1   49.34    0.58
   1  -4  -1   61.12    0.60
   1   4  -1   45.20    0.66
   1   4  -1   57.75    0.67
  -1  -4   0 1478.24    5.95
  -1   4   0 1171.25    4.49
  -1   4   0 1010.59    4.00
   1  -4   0 1308.43    4.21
   1   4   0  926.96    5.16
   1   4   0 1304.05    5.29
  -1  -4  -1  191.53    1.39
  -1   4  -1  148.95    0.65
  -1   4  -1  118.86    0.55
   1   4   1  115.43    1.09
   1   4   1  166.88    1.21
  -1  -4  -2    6.67    0.25
  -1  -4  -2    7.72    0.30
   1   4   2    6.08    0.27
  -1  -4  -3  170.75    1.31
  -1  -4  -3  217.10    1.63
   1   4   3  151.41    1.38
  -1  -4  -4  363.89    2.07
  -1  -4  -4  419.19    2.39
   1   4   4  316.41    2.11
  -1  -4  -5  422.41    2.40
  -1  -4  -5  486.19    2.73
  -1   4  -5  426.99    1.46
  -1   4  -5  484.07    1.60
   1   4   5  391.78    2.49
  -1  -4  -6    5.89    0.32
  -1  -4  -6    6.45    0.35
  -1   4  -6    5.93    0.22
  -1   4  -6    6.84    0.24
   1   4   6    6.02    0.34
  -1  -4  -7  242.81    2.14
  -1   4  -7  229.23    1.50
  -1   4  -7  247.59    1.56
   1   4   7  217.22    2.06
  -1  -4  -8  331.51    2.62
  -1   4  -8  318.67    1.99
  -1  -4  -9    5.71    0.39
  -1   4  -9    5.27    0.30
  -1  -4 -10   26.67    0.82
  -1   4 -10   24.90    0.68
  -1  -4 -11   44.77    1.10
  -1   4 -11   45.49    0.98
  -1  -4 -12  278.86    2.79
  -1   4 -12  295.76    2.65
  -1  -4 -13   45.30    1.16
  -1   4 -13   48.95    1.15
  -1  -4 -14    1.79    0.33
  -1   4 -14    2.22    0.33
   1   5 -14   31.84    1.06
   1  -5 -13  166.54    2.37
   1   5 -13  194.08    2.46
   1  -5 -12    1.00    0.26
   1   5 -12    1.29    0.26
   1  -5 -11  103.73    1.76
   1   5 -11  112.19    1.71
   1  -5 -10   11.39    0.58
   1   5 -10   13.63    0.59
   1  -5  -9  122.70    1.76
   1   5  -9  130.04    1.66
  -1   5   8  166.92    1.99
   1  -5  -8  157.03    1.89
   1   5  -8  157.41    1.73
  -1   5   7  375.31    2.83
   1  -5  -7  350.40    2.67
   1   5  -7  355.40    2.45
  -1   5   6    3.56    0.28
   1  -5  -6    3.95    0.29
   1   5  -6    3.55    0.26
  -1   5   5  171.05    1.69
   1  -5  -5  181.97    1.69
   1   5  -5  169.15    1.52
   1   5  -5  209.41    1.62
  -1   5   4  218.04    1.78
   1  -5  -4  248.40    1.83
   1   5  -4  228.67    1.68
   1   5  -4  277.72    1.75
  -1   5   3  747.70    3.02
  -1   5   3  629.00    2.79
   1  -5  -3  766.77    2.95
   1   5  -3  601.30    2.64
   1   5  -3  830.68    2.88
  -1   5   2    4.51    0.23
  -1   5   2    5.08    0.24
   1  -5  -2    5.51    0.24
   1   5  -2    4.05    0.22
   1   5  -2    5.67    0.24
  -1   5   1  635.11    2.28
  -1   5   1  548.54    2.12
   1  -5  -1  729.88    2.29
   1   5  -1  445.39    2.22
   1   5  -1  715.70    2.58
  -1  -5   0  286.85    1.78
  -1   5   0  224.50    1.18
  -1   5   0  187.97    1.07
   1  -5   0  261.74    1.15
   1   5   0  176.65    1.42
   1   5   0  238.39    1.52
  -1  -5  -1  241.69    1.69
  -1   5  -1  191.90    0.90
  -1   5  -1  150.04    0.79
   1   5   1  161.91    1.40
   1   5   1  215.23    1.50
  -1  -5  -2  171.18    1.48
   1   5   2  106.14    1.19
   1   5   2  160.76    1.37
   1   5   2  110.07    1.21
  -1  -5  -3 1226.57    5.49
   1   5   3  796.12    3.41
  -1  -5  -4  401.45    2.51
   1   5   4  288.39    2.16
  -1  -5  -5   58.70    1.01
  -1   5  -5   51.49    0.49
  -1   5  -5   62.21    0.54
   1   5   5   47.06    0.92
  -1  -5  -6    7.62    0.40
  -1   5  -6    6.73    0.22
  -1   5  -6    7.86    0.24
   1   5   6    6.00    0.36
  -1  -5  -7   14.46    0.57
  -1   5  -7   12.51    0.35
  -1   5  -7   14.32    0.37
   1   5   7   12.21    0.53
  -1  -5  -8   75.94    1.33
  -1   5  -8   67.79    0.90
  -1  -5  -9  304.60    2.77
  -1   5  -9  278.91    2.01
  -1  -5 -10   42.76    1.09
  -1   5 -10   40.66    0.84
  -1  -5 -11   24.85    0.87
  -1   5 -11   23.74    0.70
  -1  -5 -12    2.10    0.35
  -1   5 -12    2.39    0.28
  -1   5 -13  155.98    2.00
  -1  -5 -14    0.55    0.26
   1  -6 -13   11.81    0.69
   1   6 -13   14.35    0.70
   1  -6 -12   17.49    0.79
   1   6 -12   18.79    0.76
   1  -6 -11   39.40    1.14
   1   6 -11   39.44    1.02
   1  -6 -10    2.98    0.35
   1   6 -10    4.17    0.35
   1  -6  -9   63.38    1.32
   1   6  -9   62.74    1.16
  -1   6   8    5.87    0.41
   1  -6  -8    5.81    0.41
   1   6  -8    5.55    0.35
  -1   6   7  138.34    1.79
   1  -6  -7  142.03    1.77
   1   6  -7  131.64    1.52
  -1   6   6  353.56    2.71
   1  -6  -6  386.58    2.76
   1   6  -6  360.74    2.39
  -1   6   5  266.62    2.22
   1  -6  -5  293.37    2.26
   1   6  -5  259.98    1.94
  -1   6   4   23.77    0.62
   1  -6  -4   29.91    0.68
   1   6  -4   24.23    0.58
   1   6  -4   30.05    0.61
  -1   6   3   61.28    0.93
   1  -6  -3   71.78    0.97
   1   6  -3   53.76    0.83
   1   6  -3   77.04    0.94
  -1   6   2   10.82    0.36
  -1   6   2    9.09    0.33
   1  -6  -2   12.42    0.38
   1   6  -2    9.07    0.35
   1   6  -2   12.29    0.38
  -1   6   1   18.92    0.43
  -1   6   1   16.10    0.40
   1  -6  -1   20.77    0.43
   1   6  -1   13.92    0.43
   1   6  -1   21.38    0.49
  -1  -6   0    1.93    0.19
  -1   6   0    1.54    0.12
  -1   6   0    1.32    0.12
   1  -6   0    2.17    0.15
   1   6   0    1.58    0.17
   1   6   0    2.34    0.19
  -1  -6  -1  181.26    1.57
  -1   6  -1  149.39    0.92
  -1   6  -1  117.83    0.83
   1   6   1  124.03    1.32
  -1  -6  -2  412.16    2.47
  -1   6  -2  295.88    1.10
  -1   6  -2  348.23    1.17
   1   6   2  251.17    1.95
   1   6   2  240.70    1.91
  -1  -6  -3  127.22    1.44
   1   6   3   85.09    1.19
  -1  -6  -4   23.08    0.65
   1   6   4   17.13    0.56
  -1  -6  -5  362.18    2.66
   1   6   5  277.87    2.36
  -1  -6  -6  172.31    1.92
  -1   6  -6  155.95    1.02
  -1   6  -6  187.29    1.09
   1   6   6  145.60    1.79
  -1  -6  -7  109.76    1.61
  -1   6  -7   97.48    0.93
  -1   6  -7  112.66    0.97
   1   6   7   96.48    1.53
  -1  -6  -8    1.22    0.24
  -1   6  -8    1.22    0.15
  -1  -6  -9   14.32    0.65
  -1   6  -9   13.50    0.44
  -1  -6 -10   85.87    1.60
  -1   6 -10   78.46    1.14
  -1  -6 -11   48.02    1.24
  -1   6 -11   46.07    0.94
  -1  -6 -12    0.49    0.23
  -1   6 -12    2.31    0.30
  -1  -6 -13   18.77    0.84
  -1   6 -13   18.87    0.69
   1  -7 -12   23.07    0.94
   1   7 -12   25.77    0.86
   1  -7 -11   21.51    0.88
   1   7 -11   23.92    0.80
   1  -7 -10  227.07    2.68
   1   7 -10  236.96    2.35
   1  -7  -9   54.32    1.27
   1   7  -9   53.36    1.08
  -1   7   8   14.37    0.65
   1  -7  -8   14.65    0.64
   1   7  -8   14.08    0.54
  -1   7   7   49.37    1.12
   1  -7  -7   49.62    1.10
   1   7  -7   47.02    0.92
  -1   7   6    2.12    0.25
   1  -7  -6    1.99    0.28
   1   7  -6    1.79    0.20
  -1   7   5   81.01    1.29
   1  -7  -5   93.48    1.34
   1   7  -5   78.70    1.10
  -1   7   4    0.26    0.10
   1  -7  -4    0.51    0.14
   1   7  -4    0.80    0.14
  -1   7   3   29.45    0.69
   1  -7  -3   36.33    0.74
   1   7  -3   26.74    0.62
  -1   7   2  529.79    2.69
   1  -7  -2  688.92    2.94
   1   7  -2  456.17    2.53
  -1  -7   1    0.66    0.15
  -1   7   1    0.35    0.09
   1   7  -1    0.47    0.11
  -1  -7   0  348.64    2.26
  -1   7   0  282.42    1.61
  -1   7   0  221.06    1.45
   1   7   0  224.90    1.84
  -1  -7  -1   32.56    0.72
  -1   7  -1   28.95    0.46
  -1   7  -1   22.53    0.42
   1   7   1   22.91    0.61
  -1  -7  -2  456.43    2.77
  -1   7  -2  395.72    1.50
  -1   7  -2  281.54    1.30
   1   7   2  274.92    2.18
  -1  -7  -3    1.89    0.23
  -1   7  -3    1.33    0.09
   1   7   3    1.19    0.19
  -1  -7  -4   16.25    0.58
   1   7   4   13.32    0.53
  -1  -7  -5   70.74    1.25
   1   7   5   52.22    1.08
  -1  -7  -6   15.76    0.63
   1   7   6   11.43    0.54
  -1  -7  -7   59.12    1.24
  -1   7  -7   47.43    0.63
  -1   7  -7   56.78    0.66
   1   7   7   45.77    1.11
  -1  -7  -8   84.85    1.54
  -1   7  -8   73.77    0.88
  -1  -7  -9    1.83    0.31
  -1   7  -9    1.70    0.18
  -1  -7 -10  114.25    1.93
  -1   7 -10  103.46    1.26
  -1  -7 -11   46.30    1.28
  -1   7 -11   43.53    0.88
  -1  -7 -12    6.02    0.52
  -1   7 -12    6.71    0.39
   1  -8 -11  187.85    2.61
   1   8 -11  177.28    2.09
   1  -8 -10   92.31    1.77
   1   8 -10   88.30    1.42
   1  -8  -9    1.62    0.33
   1   8  -9    1.40    0.23
  -1   8   8   13.80    0.66
   1  -8  -8   13.66    0.65
   1   8  -8   12.20    0.51
  -1   8   7    4.75    0.38
   1  -8  -7    4.80    0.40
   1   8  -7    3.73    0.29
  -1   8   6  212.67    2.30
   1  -8  -6  241.76    2.39
   1   8  -6  184.32    1.77
  -1   8   5   22.91    0.72
   1  -8  -5   29.05    0.80
   1   8  -5   20.93    0.59
  -1   8   4    5.29    0.34
   1  -8  -4    6.75    0.38
   1   8  -4    5.18    0.30
  -1   8   3  285.80    2.25
   1   8  -3  261.26    2.00
  -1   8   2   30.49    0.69
   1   8  -2   29.32    0.68
  -1   8   1  279.97    1.94
   1   8  -1  275.22    2.10
  -1   8   0   15.96    0.43
   1   8   0   16.71    0.54
  -1  -8  -1  130.99    1.52
  -1   8  -1  116.12    1.03
  -1   8  -1   88.34    0.92
   1   8   1   94.98    1.31
   1   8   1   75.07    1.17
  -1  -8  -2   94.80    1.35
  -1   8  -2   88.10    0.81
  -1   8  -2   63.30    0.70
   1   8   2   57.89    1.06
  -1  -8  -3    5.55    0.37
  -1   8  -3    5.96    0.20
  -1   8  -3    3.57    0.16
   1   8   3    3.90    0.30
  -1  -8  -4    6.02    0.40
   1   8   4    3.18    0.29
  -1  -8  -5   98.18    1.54
   1   8   5   71.04    1.33
  -1  -8  -6  236.09    2.48
   1   8   6  188.85    2.25
  -1  -8  -7  224.81    2.52
  -1   8  -7  231.98    1.25
   1   8   7  189.20    2.34
  -1  -8  -8    5.18    0.44
  -1   8  -8    4.39    0.21
  -1  -8  -9   32.83    1.05
  -1   8  -9   28.14    0.57
  -1  -8 -10   40.74    1.20
  -1   8 -10   35.71    0.70
  -1  -8 -11  104.75    1.97
  -1   8 -11   88.62    1.17
   1  -9 -10    0.58    0.26
   1   9 -10    0.46    0.16
   1  -9  -9  134.20    2.12
   1   9  -9  113.11    1.52
  -1   9   8   37.62    1.11
   1  -9  -8   40.90    1.14
   1   9  -8   32.14    0.79
  -1   9   7  160.99    2.18
   1  -9  -7  177.07    2.24
   1   9  -7  133.98    1.56
  -1   9   6    9.62    0.52
   1  -9  -6   10.87    0.56
   1   9  -6    8.40    0.40
  -1   9   5  223.88    2.34
   1   9  -5  194.43    1.81
  -1   9   4  103.13    1.51
   1   9  -4   96.48    1.27
  -1   9   3  167.50    1.82
   1   9  -3  155.29    1.61
  -1   9   2   39.66    0.84
   1   9  -2   37.64    0.81
  -1   9   1   24.83    0.62
   1   9  -1   25.47    0.68
  -1   9   0   10.68    0.38
   1   9   0   10.68    0.47
   1   9   0    8.41    0.41
  -1   9  -1    5.67    0.26
   1   9   1    5.81    0.35
  -1   9  -2    0.60    0.10
   1   9   2    0.53    0.15
  -1  -9  -3  241.18    2.35
  -1   9  -3  231.46    1.35
  -1   9  -3  156.50    1.09
   1   9   3  156.66    1.91
  -1  -9  -4   29.98    0.87
   1   9   4   18.15    0.68
  -1  -9  -5  106.62    1.69
   1   9   5   78.56    1.46
  -1  -9  -6   53.08    1.24
   1   9   6   41.19    1.10
  -1  -9  -7   97.72    1.74
   1   9   7   78.23    1.57
  -1  -9  -8   12.15    0.66
  -1  -9  -9   80.57    1.69
  -1  -9 -10   16.71    0.82
  -1   9 -10   13.93    0.38
   1 -10  -9   17.56    0.83
  -1  10   8    0.33    0.18
   1 -10  -8    0.01    0.20
   1  10  -8    0.06    0.10
  -1  10   7    3.13    0.35
   1  10  -7    2.63    0.25
  -1  10   6   72.98    1.46
   1  10  -6   62.72    1.05
  -1  10   5    0.09    0.11
   1  10  -5    0.67    0.15
  -1  10   4   19.33    0.69
   1  10  -4   18.39    0.58
  -1  10   3   10.34    0.48
   1  10  -3   10.59    0.45
  -1  10   2    0.31    0.12
   1  10  -2    0.63    0.15
  -1  10   1   69.82    1.10
   1  10  -1   69.33    1.17
   1  10  -1   54.05    1.03
  -1  10   0  126.75    1.38
   1  10   0  101.35    1.45
  -1  10  -1    6.92    0.31
   1  10   1    5.71    0.37
  -1  10  -2   50.76    0.75
   1  10   2   46.96    1.06
  -1  10  -3  135.82    1.10
   1  10   3  121.13    1.76
   1  10   4   53.16    1.21
  -1 -10  -5    2.09    0.34
   1  10   5    1.66    0.28
  -1 -10  -6    1.63    0.32
   1  10   6    1.56    0.28
  -1 -10  -7    0.42    0.22
  -1 -10  -8   96.34    1.85
  -1  11   7    9.78    0.59
  -1  11   6    9.69    0.57
   1  11  -6    8.74    0.41
  -1  11   5    2.91    0.32
   1  11  -5    2.72    0.25
  -1  11   4   58.40    1.23
   1  11  -4   52.82    0.99
  -1  11   3   57.81    1.17
   1  11  -3   53.68    1.01
  -1  11   2    4.32    0.32
   1  11  -2    4.17    0.32
   1  11  -2    2.88    0.26
  -1  11   1   64.32    1.10
   1  11  -1   50.47    1.04
  -1  11   0    1.14    0.18
   1  11   0    1.08    0.20
  -1  11  -1  140.50    1.42
   1  11   1  113.75    1.66
  -1  11  -2   32.75    0.64
   1  11   2   27.78    0.85
  -1  11  -3   41.47    0.64
   1  11   3   36.04    1.00
   1  11   4  129.17    1.95
   1  11   5   15.23    0.71
   1  11   6    4.44    0.42
  -1 -11  -7    3.97    0.45
  -1  12   1   43.41    0.94
   1  12  -1   35.06    0.90
  -1  12   0   36.80    0.81
   1  12   0   30.31    0.86
  -1  12  -1   13.40    0.46
   1  12   1   11.08    0.55
   1  12   2    3.24    0.33
   2   0 -11    0.00    0.10
   2   0 -10   31.71    0.94
   2   0 -10   21.48    0.66
   2   0  -9    0.29    0.14
   2   0  -9    0.83    0.18
   2   0  -8  164.34    1.89
   2   0  -8  125.79    1.46
   2   0  -7    2.55    0.26
   2   0  -7    0.17    0.09
  -2   0   6   14.62    0.48
   2   0  -6   12.90    0.49
   2   0  -6    9.59    0.37
  -2   0   5    0.13    0.08
   2   0  -5    0.29    0.10
   2   0  -5    0.08    0.07
  -2   0   4 1804.02    7.35
   2   0  -4 1760.58    9.18
   2   0  -4  960.03    4.56
  -2   0   3    0.16    0.07
   2   0  -3    0.08    0.06
   2   0  -3    0.01    0.04
  -2   0   2  687.04    2.58
   2   0  -2  492.67    2.31
   2   0  -2  412.42    1.90
  -2   0   1    0.21    0.06
   2   0  -1    0.33    0.08
  -2   0   0   41.78    0.58
   2   0   0   32.31    0.52
  -2   0  -1    0.21    0.06
  -2   0  -1    0.06    0.04
  -2   0  -1    1.65    0.12
   2   0   1    0.11    0.04
  -2   0  -2   32.10    0.52
  -2   0  -2   44.36    0.60
  -2   0  -2   48.58    0.57
   2   0   2   36.48    0.53
  -2   0  -3    0.16    0.06
  -2   0  -3    0.15    0.05
  -2   0  -3    0.64    0.09
  -2   0  -4   86.67    0.93
  -2   0  -4   86.74    0.92
  -2   0  -4   92.72    0.82
  -2   0  -5    0.13    0.06
  -2   0  -5    0.04    0.04
  -2   0  -5    0.06    0.06
  -2   0  -6   29.64    0.63
  -2   0  -6   33.24    0.65
  -2   0  -6   32.52    0.54
  -2   0  -7    0.45    0.11
  -2   0  -7    0.35    0.10
  -2   0  -8   11.37    0.45
  -2   0  -8    9.69    0.33
  -2   0  -9    0.06    0.08
  -2   0  -9    0.18    0.10
  -2   0 -10    2.12    0.24
  -2   0 -10    1.37    0.17
  -2   0 -11    0.00    0.09
  -2   0 -12  539.06    3.89
  -2   0 -13    0.08    0.13
  -2   0 -14   16.35    0.77
   2  -1 -14    2.15    0.31
   2  -1 -13   55.47    1.19
   2  -1 -12   94.82    1.52
   2   1 -12  133.67    2.09
   2  -1 -11   13.47    0.58
   2   1 -11   16.75    0.73
   2  -1 -10    5.67    0.38
   2   1 -10    7.66    0.48
   2  -1  -9  137.16    1.82
   2  -1  -9   88.33    1.33
   2   1  -9  131.18    1.78
   2  -1  -8  304.42    2.57
   2  -1  -8  218.37    2.00
   2   1  -8  277.22    2.46
  -2   1   7  441.89    2.82
   2  -1  -7  382.11    2.72
   2  -1  -7  279.41    2.15
   2   1  -7  332.71    2.55
  -2  -1   6   26.92    0.63
  -2   1   6   28.93    0.69
   2  -1  -6   24.45    0.66
   2  -1  -6   17.54    0.52
   2   1  -6   24.26    0.66
  -2  -1   5    3.47    0.23
  -2   1   5    4.84    0.28
   2  -1  -5    2.81    0.23
   2  -1  -5    2.24    0.19
   2   1  -5    8.10    0.37
  -2  -1   4  308.24    1.90
  -2   1   4  299.25    1.95
   2  -1  -4  270.85    1.92
   2  -1  -4  211.47    1.57
   2   1  -4  246.61    1.87
  -2  -1   3 1355.18    4.33
  -2   1   3 1351.62    7.08
   2  -1  -3 1036.73    3.50
   2  -1  -3  764.87    2.79
   2   1  -3 1264.89    6.66
  -2  -1   2    6.76    0.26
  -2   1   2    7.07    0.27
   2  -1  -2    5.96    0.26
   2  -1  -2    5.27    0.22
   2   1  -2    5.40    0.26
  -2  -1   1 1039.91    5.75
  -2   1   1  823.18    2.78
  -2   1   1  992.04    4.71
   2  -1  -1  689.94    2.43
   2  -1  -1  571.65    2.09
   2   1  -1  695.84    2.71
  -2  -1   0   50.44    0.66
  -2   1   0   46.89    0.62
  -2   1   0   52.83    0.64
  -2   1   0   57.63    0.58
   2   1   0   43.09    0.65
  -2  -1  -1    6.65    0.24
  -2  -1  -1    6.27    0.24
  -2   1  -1    3.78    0.18
  -2   1  -1    5.82    0.21
  -2   1  -1    5.46    0.16
   2   1   1    4.55    0.22
  -2  -1  -2   14.22    0.36
  -2  -1  -2   15.87    0.38
  -2   1  -2   11.46    0.29
  -2   1  -2   15.65    0.34
  -2   1  -2   16.91    0.25
   2   1   2   12.08    0.34
  -2  -1  -3 1375.72    6.88
  -2  -1  -3 1566.95    8.37
  -2   1  -3 1244.09    5.36
  -2   1  -3 1403.79    7.04
  -2   1  -3 1331.50    4.19
   2   1   3 1047.58    3.48
  -2  -1  -4 1819.31    9.62
  -2  -1  -4 1957.89    8.18
  -2   1  -4 1711.94    6.66
  -2   1  -4 1837.13    8.91
  -2   1  -4 1663.89    5.11
   2   1   4 1461.96    5.60
  -2  -1  -5   64.46    0.89
  -2  -1  -5   69.07    0.86
  -2   1  -5   61.41    0.78
  -2   1  -5   67.63    0.82
  -2   1  -5   57.32    0.47
   2   1   5   58.67    0.83
  -2  -1  -6   12.43    0.42
  -2  -1  -6    4.41    0.25
  -2   1  -6    4.54    0.25
  -2   1  -6    4.80    0.24
  -2   1  -6    3.98    0.23
  -2   1  -6    3.63    0.14
  -2  -1  -7   76.07    1.11
  -2  -1  -7   78.46    1.00
  -2   1  -7   76.78    1.02
  -2   1  -7   62.58    0.54
  -2  -1  -8  429.10    2.80
  -2  -1  -8  430.42    2.43
  -2   1  -8  426.59    2.60
  -2   1  -8  334.77    1.24
  -2  -1  -9  332.11    2.62
  -2  -1  -9  316.55    2.16
  -2   1  -9  332.76    2.47
  -2  -1 -10   45.76    1.04
  -2  -1 -10   42.42    0.82
  -2   1 -10   50.90    1.04
  -2  -1 -11   55.93    1.22
  -2  -1 -11   51.11    0.91
  -2   1 -11   52.57    1.12
  -2  -1 -12   31.83    0.97
  -2   1 -12   32.10    0.94
  -2   1 -13  124.84    1.94
  -2   1 -14    2.63    0.38
  -2   1 -15   82.65    1.73
   2  -2 -15    9.19    0.56
   2  -2 -14    3.29    0.37
   2  -2 -13   44.13    1.13
   2   2 -13   58.98    1.46
   2  -2 -12   23.97    0.82
   2   2 -12   32.86    1.05
   2  -2 -11   75.75    1.39
   2   2 -11   96.42    1.70
   2  -2 -10   62.19    1.21
   2   2 -10   87.81    1.54
   2  -2  -9   79.37    1.31
   2   2  -9  104.74    1.60
   2  -2  -8    1.01    0.20
   2   2  -8    0.85    0.18
  -2   2   7  656.90    3.54
   2  -2  -7  518.06    3.17
   2  -2  -7  464.45    2.88
   2   2  -7  569.29    3.38
  -2   2   6  386.35    2.57
   2  -2  -6  329.88    2.39
   2  -2  -6  265.65    2.06
   2   2  -6  318.89    2.40
  -2  -2   5   61.34    0.86
  -2   2   5   60.00    0.96
   2  -2  -5   50.38    0.88
   2  -2  -5   44.99    0.80
   2   2  -5   52.99    0.94
  -2  -2   4  767.37    2.91
  -2   2   4  708.94    3.08
   2  -2  -4  573.99    2.77
   2  -2  -4  545.95    2.58
   2   2  -4  593.58    2.97
  -2  -2   3   71.48    0.85
  -2   2   3   68.25    0.89
   2  -2  -3   63.49    0.86
   2  -2  -3   50.24    0.73
  -2  -2   2   57.66    0.74
  -2   2   2   51.19    0.75
  -2   2   2   54.30    0.74
   2  -2  -2   42.72    0.62
  -2  -2   1  956.10    4.73
  -2   2   1  781.04    2.69
  -2   2   1  965.12    5.11
   2  -2  -1  705.01    3.10
   2   2  -1  686.52    2.84
  -2  -2   0  216.96    1.39
  -2   2   0  197.06    1.23
  -2   2   0  244.03    1.34
  -2   2   0  215.71    0.74
  -2   2   0  252.47    0.85
   2  -2   0  163.31    1.00
   2   2   0  174.90    1.40
  -2  -2  -1 1083.26    4.76
  -2  -2  -1 1260.40    6.52
  -2   2  -1  884.98    2.56
  -2   2  -1 1237.34    5.41
   2  -2   1  888.71    3.78
   2   2   1  845.95    3.05
  -2  -2  -2  246.25    1.55
  -2  -2  -2  279.93    1.74
  -2   2  -2  193.10    1.06
  -2   2  -2  271.74    1.29
  -2  -2  -3   72.85    0.89
  -2  -2  -3   84.36    0.98
  -2   2  -3   63.94    0.63
  -2   2  -3   80.38    0.72
   2   2   3   58.85    0.84
   2   2   3   53.71    0.80
  -2  -2  -4   22.41    0.52
  -2  -2  -4   25.99    0.57
  -2   2  -4   20.69    0.39
  -2   2  -4   24.74    0.43
   2   2   4   18.80    0.49
  -2  -2  -5  193.97    1.62
  -2  -2  -5  207.30    1.65
  -2   2  -5  178.98    1.23
  -2   2  -5  202.23    1.32
  -2   2  -5  158.55    1.15
   2   2   5  173.43    1.55
  -2  -2  -6  132.40    1.42
  -2  -2  -6  151.29    1.47
  -2   2  -6  136.12    1.18
  -2   2  -6  116.98    1.09
   2   2   6  122.36    1.36
  -2  -2  -7  601.74    3.22
  -2  -2  -7  695.62    3.28
  -2   2  -7  629.62    2.79
  -2  -2  -8   18.01    0.60
  -2  -2  -8   20.07    0.59
  -2   2  -8   18.13    0.52
  -2  -2  -9    0.74    0.17
  -2  -2  -9    0.36    0.14
  -2   2  -9    0.60    0.14
  -2  -2 -10    7.21    0.44
  -2  -2 -10    8.37    0.42
  -2   2 -10    6.65    0.38
  -2  -2 -11   29.75    0.91
  -2  -2 -11   27.98    0.76
  -2   2 -11   29.73    0.83
  -2  -2 -12   70.29    1.21
  -2   2 -12   75.28    1.39
  -2  -2 -13   53.00    1.06
  -2   2 -13   65.03    1.37
  -2   2 -14   17.26    0.76
   2  -3 -14  139.80    2.11
   2   3 -14  189.53    2.68
   2  -3 -13    2.77    0.34
   2   3 -13    4.18    0.45
   2  -3 -12    1.37    0.28
   2   3 -12    1.91    0.33
   2  -3 -11   32.68    0.96
   2   3 -11   48.08    1.21
   2  -3 -10   37.09    0.98
   2   3 -10   46.23    1.13
   2  -3  -9   41.51    0.99
   2   3  -9   51.53    1.14
  -2   3   8   60.02    1.16
   2  -3  -8   43.90    0.97
   2   3  -8   50.94    1.08
  -2   3   7  115.28    1.53
   2  -3  -7   85.36    1.28
   2   3  -7  101.61    1.45
  -2   3   6   43.25    0.89
   2  -3  -6   34.54    0.77
   2   3  -6   41.11    0.88
  -2   3   5    0.08    0.08
   2  -3  -5    0.77    0.15
   2   3  -5    0.59    0.14
  -2   3   4   18.87    0.52
   2  -3  -4   16.33    0.48
   2  -3  -4   16.30    0.47
   2   3  -4   17.17    0.53
   2   3  -4   20.63    0.54
  -2   3   3   96.74    1.12
  -2   3   3   95.57    1.08
   2  -3  -3   81.47    0.95
   2   3  -3   79.12    1.07
  -2  -3   2 1753.38    5.16
  -2   3   2 1777.27    7.73
  -2   3   2 1829.56    8.30
   2  -3  -2 1620.33    7.18
   2   3  -2 1374.77    5.11
  -2  -3   1  425.43    1.98
  -2   3   1  418.62    1.98
  -2   3   1  448.52    1.97
  -2   3   1  444.56    1.03
   2  -3  -1  379.47    1.67
   2   3  -1  288.66    1.94
  -2  -3   0   14.61    0.37
  -2  -3   0   18.20    0.48
  -2   3   0   14.82    0.34
  -2   3   0   15.68    0.34
   2  -3   0   13.19    0.28
   2   3   0   11.28    0.39
  -2  -3  -1    2.20    0.16
  -2  -3  -1    0.12    0.08
  -2   3  -1    0.90    0.10
  -2   3  -1    0.35    0.07
   2  -3   1    0.25    0.05
   2   3   1    0.18    0.07
  -2  -3  -2 1292.27    3.71
  -2  -3  -2 1639.47    7.84
  -2   3  -2 1074.20    4.06
  -2   3  -2 1549.53    5.88
   2  -3   2 1187.56    3.76
   2   3   2 1350.58    6.96
  -2  -3  -3   17.35    0.45
  -2  -3  -3   21.28    0.54
  -2   3  -3   16.32    0.28
  -2   3  -3   22.10    0.34
   2   3   3   16.82    0.49
   2   3   3   14.34    0.45
  -2  -3  -4   19.27    0.51
  -2  -3  -4   22.88    0.58
  -2   3  -4   17.94    0.32
  -2   3  -4   21.34    0.36
   2   3   4   16.03    0.49
  -2  -3  -5   50.33    0.86
  -2  -3  -5   62.38    0.98
  -2   3  -5   48.43    0.59
  -2   3  -5   55.42    0.63
  -2   3  -5   42.01    0.54
   2   3   5   46.72    0.87
  -2  -3  -6  103.72    1.31
  -2  -3  -6  114.86    1.38
  -2   3  -6  107.86    0.98
  -2   3  -6   91.72    0.90
   2   3   6   97.45    1.30
  -2  -3  -7    2.76    0.25
  -2  -3  -7    3.81    0.29
  -2   3  -7    3.37    0.20
  -2   3  -7    3.00    0.20
  -2  -3  -8  143.15    1.67
  -2   3  -8  123.89    1.29
  -2  -3  -9  112.95    1.54
  -2   3  -9  103.59    1.28
  -2  -3 -10  292.44    2.55
  -2   3 -10  287.82    2.31
  -2  -3 -11    2.14    0.30
  -2   3 -11    2.58    0.26
  -2  -3 -12   45.19    1.06
  -2   3 -12   46.40    1.07
  -2  -3 -13   54.77    1.18
  -2   3 -13   59.03    1.28
  -2  -3 -14  119.84    1.72
  -2   3 -14  138.27    2.05
   2  -4 -14   10.60    0.64
   2   4 -14   12.20    0.73
   2  -4 -13   44.75    1.23
   2   4 -13   58.29    1.45
   2  -4 -12   31.14    1.00
   2   4 -12   41.60    1.18
   2  -4 -11   78.48    1.52
   2   4 -11   95.68    1.70
   2  -4 -10  134.88    1.91
   2   4 -10  162.82    2.12
   2  -4  -9   38.22    0.98
   2   4  -9   45.70    1.09
  -2   4   8   26.91    0.81
   2  -4  -8   21.06    0.70
   2   4  -8   24.87    0.77
  -2   4   7   43.41    0.97
   2  -4  -7   38.94    0.90
   2   4  -7   40.62    0.94
  -2   4   6  922.68    4.22
   2  -4  -6  738.64    3.65
   2   4  -6  785.68    3.90
  -2   4   5  122.95    1.45
   2  -4  -5  103.93    1.29
   2   4  -5  108.32    1.39
  -2   4   4    2.31    0.21
   2  -4  -4    1.70    0.19
   2   4  -4    2.45    0.23
  -2   4   3  215.06    1.70
  -2   4   3  204.74    1.63
   2  -4  -3  195.13    1.51
   2   4  -3  168.05    1.62
   2   4  -3  220.32    1.71
  -2   4   2  131.32    1.24
  -2   4   2  134.22    1.22
  -2   4   2  145.31    0.69
   2  -4  -2  133.84    1.14
   2   4  -2  109.01    1.27
   2   4  -2  152.82    1.37
  -2   4   1  305.72    1.72
  -2   4   1  332.10    1.74
   2  -4  -1  304.79    1.53
   2   4  -1  245.29    1.88
   2   4  -1  340.23    2.01
  -2  -4   0   48.15    0.69
  -2  -4   0   63.05    0.94
  -2   4   0   47.89    0.62
  -2   4   0   51.61    0.62
   2  -4   0   49.95    0.54
   2   4   0   40.84    0.77
  -2  -4  -1    1.22    0.13
  -2  -4  -1    0.25    0.10
  -2   4  -1    1.69    0.12
  -2   4  -1    0.72    0.08
   2  -4   1    0.34    0.06
   2   4   1    0.22    0.08
  -2  -4  -2  455.98    2.28
  -2  -4  -2  584.07    2.92
  -2   4  -2  405.38    1.35
  -2   4  -2  571.42    1.62
   2   4   2  392.14    2.42
  -2  -4  -3    3.88    0.23
  -2  -4  -3    3.78    0.26
  -2   4  -3    2.67    0.11
  -2   4  -3    3.41    0.13
   2   4   3    2.07    0.21
   2   4   3    2.97    0.23
  -2  -4  -4   65.81    0.96
  -2  -4  -4   83.48    1.17
  -2   4  -4   65.03    0.53
  -2   4  -4   83.11    0.62
  -2  -4  -5    1.25    0.18
  -2  -4  -5    1.72    0.21
  -2   4  -5    0.14    0.05
  -2   4  -5    1.76    0.11
  -2   4  -5    0.33    0.06
   2   4   5    0.10    0.07
  -2  -4  -6  358.34    2.61
  -2   4  -6  331.95    1.59
  -2   4  -6  277.10    1.43
   2   4   6  286.66    2.37
  -2  -4  -7   14.84    0.57
  -2   4  -7   12.60    0.36
  -2   4  -7   11.45    0.34
  -2  -4  -8   36.74    0.91
  -2   4  -8   32.45    0.63
  -2  -4  -9    0.00    0.12
  -2   4  -9    0.12    0.08
  -2  -4 -10   62.34    1.26
  -2   4 -10   58.57    1.01
  -2  -4 -11   34.95    0.98
  -2   4 -11   30.06    0.79
  -2  -4 -12   11.91    0.61
  -2   4 -12   12.78    0.56
  -2  -4 -13   95.93    1.67
  -2   4 -13   97.98    1.60
  -2  -4 -14   27.03    0.91
  -2   4 -14   27.49    0.90
   2   5 -13  146.17    2.26
   2  -5 -12    1.79    0.34
   2   5 -12    0.08    0.15
   2  -5 -11    5.82    0.47
   2   5 -11    6.45    0.48
   2  -5 -10   19.10    0.76
   2   5 -10   23.69    0.83
   2  -5  -9  113.44    1.74
   2   5  -9  131.90    1.85
  -2   5   8  102.38    1.62
   2  -5  -8   85.62    1.44
   2   5  -8   93.29    1.49
  -2   5   7  256.35    2.43
   2  -5  -7  199.62    2.08
   2   5  -7  242.36    2.30
  -2   5   6    4.55    0.32
   2  -5  -6    4.00    0.31
   2   5  -6    4.48    0.33
  -2   5   5    7.48    0.38
   2  -5  -5    7.20    0.37
   2   5  -5    8.77    0.42
  -2   5   4    9.57    0.40
   2  -5  -4    9.58    0.39
   2   5  -4    9.43    0.42
  -2   5   3  842.05    3.44
   2  -5  -3  848.94    3.28
   2   5  -3  725.57    3.49
  -2   5   2  218.76    1.64
  -2   5   2  217.31    1.61
   2  -5  -2  206.84    1.47
   2   5  -2  159.69    1.61
  -2   5   1   18.47    0.45
  -2   5   1   18.30    0.43
   2  -5  -1   19.38    0.41
   2   5  -1   15.15    0.50
  -2  -5   0  146.29    1.51
  -2   5   0  111.27    0.96
  -2   5   0  115.88    0.96
   2  -5   0  120.24    0.87
   2   5   0   89.45    1.19
  -2  -5  -1   35.21    0.76
  -2   5  -1   27.57    0.43
  -2   5  -1   29.64    0.43
   2   5   1   24.05    0.63
  -2  -5  -2  344.75    2.39
  -2   5  -2  273.65    1.12
  -2   5  -2  338.58    1.22
   2   5   2  251.20    2.06
  -2  -5  -3 1414.43    5.56
   2   5   3  961.20    4.14
   2   5   3  888.66    3.98
  -2  -5  -4   26.96    0.72
   2   5   4   15.86    0.56
  -2  -5  -5  538.76    3.27
  -2   5  -5  403.38    1.31
  -2   5  -5  469.66    1.44
  -2   5  -5  352.89    1.21
   2   5   5  384.40    2.80
  -2  -5  -6   49.93    1.04
  -2   5  -6   43.66    0.53
  -2   5  -6   35.98    0.47
   2   5   6   38.15    0.92
  -2  -5  -7  363.51    2.89
  -2   5  -7  321.49    1.65
  -2   5  -7  286.31    1.51
  -2  -5  -8   33.58    0.92
  -2   5  -8   30.03    0.58
  -2  -5  -9  144.51    1.95
  -2   5  -9  125.50    1.30
  -2  -5 -10  142.11    2.00
  -2   5 -10  120.94    1.40
  -2  -5 -11   81.53    1.56
  -2   5 -11   75.75    1.20
  -2  -5 -12    0.31    0.20
  -2   5 -12    0.68    0.17
  -2  -5 -13   44.46    1.21
  -2   5 -13   42.86    1.03
   2   6 -13   39.51    1.19
   2  -6 -12  146.06    2.27
   2   6 -12  170.17    2.35
   2  -6 -11   88.95    1.72
   2   6 -11  109.93    1.83
   2  -6 -10   19.73    0.80
   2   6 -10   22.35    0.82
   2  -6  -9   18.56    0.75
   2   6  -9   18.55    0.72
  -2   6   8   12.95    0.61
   2  -6  -8   11.78    0.57
   2   6  -8   14.02    0.60
  -2   6   7    4.72    0.36
   2  -6  -7    4.62    0.36
   2   6  -7    4.57    0.36
  -2   6   6    8.43    0.44
   2  -6  -6    7.96    0.43
   2   6  -6    7.65    0.42
  -2   6   5   90.93    1.35
   2  -6  -5   85.99    1.26
   2   6  -5   83.61    1.29
  -2   6   4   18.37    0.57
   2  -6  -4   20.46    0.58
   2   6  -4   15.74    0.56
  -2   6   3  135.53    1.44
   2  -6  -3  140.03    1.39
   2   6  -3  105.79    1.38
  -2   6   2  149.14    1.40
   2  -6  -2  161.21    1.37
   2   6  -2  115.99    1.43
  -2  -6   1  616.45    3.24
  -2   6   1  470.18    2.28
  -2   6   1  455.17    2.24
   2   6  -1  387.58    2.60
  -2  -6   0  310.07    2.32
  -2   6   0  250.47    1.50
  -2   6   0  250.29    1.49
   2   6   0  212.18    1.94
  -2  -6  -1   92.73    1.29
  -2   6  -1   73.06    0.71
  -2   6  -1   83.33    0.76
   2   6   1   59.45    1.04
  -2  -6  -2   35.68    0.82
  -2   6  -2   28.49    0.38
  -2   6  -2   32.62    0.40
   2   6   2   23.11    0.67
  -2  -6  -3   12.03    0.50
   2   6   3    9.26    0.45
   2   6   3    7.37    0.39
  -2  -6  -4  133.02    1.67
   2   6   4   86.84    1.36
  -2  -6  -5   29.06    0.81
   2   6   5   22.19    0.72
  -2  -6  -6   31.50    0.87
   2   6   6   16.08    0.64
  -2  -6  -7   97.20    1.58
  -2   6  -7   83.02    0.77
  -2   6  -7   73.62    0.69
  -2  -6  -8  125.58    1.86
  -2   6  -8  113.66    1.04
  -2  -6  -9    7.94    0.51
  -2   6  -9    6.71    0.30
  -2  -6 -10    6.84    0.50
  -2   6 -10    6.42    0.32
  -2  -6 -11   58.21    1.39
  -2   6 -11   53.58    0.96
  -2  -6 -12   67.64    1.53
  -2   6 -12   62.06    1.11
   2  -7 -12    4.30    0.46
   2   7 -12    5.26    0.48
   2  -7 -11    1.40    0.33
   2   7 -11    1.36    0.27
   2  -7 -10    4.56    0.44
   2   7 -10    5.41    0.44
   2  -7  -9   16.22    0.72
   2   7  -9   18.74    0.73
  -2   7   8  656.79    4.36
   2  -7  -8  558.66    3.92
   2   7  -8  583.02    3.80
  -2   7   7   -0.04    0.09
   2  -7  -7   -0.06    0.13
   2   7  -7    0.44    0.15
  -2   7   6    4.26    0.34
   2  -7  -6    4.32    0.35
   2   7  -6    3.94    0.33
  -2   7   5   42.86    0.96
   2  -7  -5   43.43    0.94
   2   7  -5   35.56    0.87
  -2   7   4  156.36    1.73
   2  -7  -4  158.64    1.67
   2   7  -4  131.26    1.62
  -2   7   3   16.94    0.54
   2  -7  -3   17.07    0.52
   2   7  -3   14.24    0.54
  -2   7   2   82.03    1.09
   2   7  -2   65.41    1.12
  -2  -7   1  135.25    1.60
  -2   7   1  102.81    1.13
   2   7  -1   81.94    1.26
  -2  -7   0  150.82    1.70
  -2   7   0  119.69    1.09
  -2   7   0  117.68    1.09
   2   7   0  102.02    1.41
  -2  -7  -1  115.21    1.51
  -2   7  -1   93.87    0.85
  -2   7  -1   95.09    0.87
   2   7   1   73.45    1.22
  -2  -7  -2   93.62    1.40
  -2   7  -2   79.09    0.66
  -2   7  -2   83.27    0.70
   2   7   2   70.89    1.23
  -2  -7  -3   57.58    1.13
   2   7   3   34.32    0.88
  -2  -7  -4  250.69    2.41
   2   7   4  172.11    2.01
  -2  -7  -5    4.43    0.36
   2   7   5    2.98    0.30
  -2  -7  -6    2.70    0.30
   2   7   6    1.48    0.25
  -2  -7  -7   65.87    1.37
  -2  -7  -8  439.63    3.63
  -2   7  -8  373.68    1.58
  -2   7  -8  331.82    1.48
  -2  -7  -9   63.19    1.43
  -2   7  -9   53.24    0.74
  -2  -7 -10    1.58    0.33
  -2   7 -10    2.12    0.20
  -2  -7 -11   22.85    0.92
  -2   7 -11   20.76    0.57
   2  -8 -11   41.72    1.26
   2  -8 -10    0.52    0.25
   2   8 -10    1.38    0.27
   2  -8  -9   65.02    1.45
   2   8  -9   71.82    1.39
  -2   8   8    1.16    0.25
   2  -8  -8    0.87    0.25
   2   8  -8    0.63    0.18
  -2   8   7  392.73    3.33
   2  -8  -7  399.57    3.27
   2   8  -7  323.10    2.77
  -2   8   6    9.20    0.50
   2  -8  -6    9.51    0.52
   2   8  -6    7.76    0.45
  -2   8   5   85.21    1.41
   2  -8  -5   83.34    1.35
   2   8  -5   71.20    1.25
  -2   8   4   67.25    1.18
   2   8  -4   56.15    1.10
  -2   8   3    4.31    0.30
   2   8  -3    3.83    0.31
  -2   8   2    1.27    0.18
   2   8  -2    1.61    0.24
  -2  -8   1    0.19    0.14
  -2   8   1    0.36    0.10
   2   8  -1    0.10    0.09
  -2  -8   0  432.86    3.03
  -2   8   0  337.77    1.98
   2   8   0  306.06    2.56
  -2  -8  -1   96.17    1.46
  -2   8  -1   81.46    0.84
  -2   8  -1   81.10    0.87
   2   8   1   68.90    1.24
  -2  -8  -2    2.47    0.28
  -2   8  -2    1.98    0.13
  -2   8  -2    2.94    0.16
   2   8   2    1.59    0.25
   2   8   2    1.21    0.21
  -2  -8  -3   23.96    0.78
   2   8   3   16.03    0.63
  -2  -8  -4   67.50    1.32
   2   8   4   44.60    1.08
  -2  -8  -5   56.30    1.25
   2   8   5   39.78    1.05
  -2  -8  -6    2.69    0.37
   2   8   6    2.28    0.33
  -2  -8  -7  106.62    1.82
  -2  -8  -8  146.58    2.19
  -2  -8  -9   65.78    1.52
  -2  -8 -10   13.52    0.73
  -2   8 -11   12.55    0.39
   2  -9 -10   10.33    0.67
   2  -9  -9    9.73    0.62
   2   9  -9    9.28    0.53
  -2   9   8    6.78    0.50
   2  -9  -8    6.14    0.49
   2   9  -8    5.97    0.43
  -2   9   7   12.43    0.63
   2  -9  -7   11.81    0.62
   2   9  -7   10.51    0.53
  -2   9   6   18.57    0.73
   2   9  -6   17.36    0.65
  -2   9   5    9.81    0.51
   2   9  -5    8.69    0.47
  -2   9   4    9.86    0.48
   2   9  -4    8.01    0.45
  -2   9   3  217.34    2.09
   2   9  -3  184.95    2.02
  -2   9   2  149.42    1.63
   2   9  -2  132.72    1.72
  -2   9   1   90.72    1.18
   2   9  -1   81.60    1.37
  -2   9   0   12.37    0.41
   2   9   0   10.94    0.53
  -2  -9  -1  183.70    2.11
  -2   9  -1  151.66    1.27
   2   9   1  128.60    1.77
   2   9   1  104.11    1.59
  -2  -9  -2   29.72    0.88
  -2   9  -2   26.59    0.47
   2   9   2   19.01    0.70
  -2  -9  -3  280.30    2.72
   2   9   3  174.37    2.16
  -2  -9  -4    0.69    0.22
   2   9   4    0.85    0.21
  -2  -9  -5   12.15    0.63
   2   9   5    7.78    0.50
  -2  -9  -6    0.75    0.25
  -2  -9  -7    9.59    0.60
  -2  -9  -8    7.54    0.56
  -2  -9  -9  152.21    2.38
  -2  10   8   18.70    0.82
  -2  10   7   49.86    1.26
   2  10  -7   41.03    1.01
  -2  10   6   83.75    1.57
   2  10  -6   73.39    1.32
  -2  10   5   44.57    1.10
   2  10  -5   36.83    0.94
  -2  10   4    6.70    0.42
   2  10  -4    5.47    0.39
  -2  10   3    4.61    0.34
   2  10  -3    4.15    0.35
  -2  10   2  149.47    1.70
   2  10  -2  136.35    1.80
  -2  10   1   14.85    0.51
   2  10  -1   14.19    0.61
  -2  10   0    3.89    0.26
   2  10   0    1.51    0.25
   2  10   0    1.17    0.22
  -2  10  -1    7.10    0.30
   2  10   1    4.50    0.36
  -2  10  -2   81.46    0.87
   2  10   2   54.54    1.23
  -2 -10  -3   63.02    1.36
   2  10   3   39.46    1.08
  -2 -10  -4   35.56    1.06
   2  10   4   23.82    0.86
  -2 -10  -5   81.50    1.63
   2  10   5   59.14    1.39
  -2 -10  -6  186.64    2.51
  -2 -10  -7    5.38    0.49
  -2 -10  -8    3.32    0.46
  -2  11   5   22.12    0.80
   2  11  -5   18.09    0.68
  -2  11   4   18.50    0.70
   2  11  -4   15.80    0.64
  -2  11   3   23.93    0.75
   2  11  -3   20.95    0.73
  -2  11   2  191.43    1.99
   2  11  -2  159.95    2.00
  -2  11   1    6.30    0.36
   2  11  -1    6.17    0.45
   2  11  -1    4.30    0.36
  -2  11   0    1.36    0.19
   2  11   0    1.15    0.23
  -2  11  -1   65.63    0.92
   2  11   1   43.45    1.11
   2  11   2   18.84    0.76
   2  11   3   97.13    1.74
   2  11   4   12.54    0.66
  -2 -11  -5   53.41    1.37
   2  11   5   40.26    1.19
  -2 -11  -6    0.28    0.23
   3   0  -9    0.08    0.10
   3   0  -8   37.58    0.87
   3   0  -7    0.89    0.20
   3   0  -7    0.59    0.15
  -3   0   6  856.29    4.03
   3   0  -6  693.95    3.85
   3   0  -6  583.70    3.18
  -3   0   5    0.10    0.09
   3   0  -5    0.32    0.13
   3   0  -5    0.08    0.08
  -3   0   4  192.24    1.77
   3   0  -4  174.56    1.77
  -3   0   3    0.09    0.07
   3   0  -3    0.54    0.14
  -3   0   2   27.61    0.63
   3   0  -2   22.06    0.58
  -3   0   1    4.04    0.25
   3   0  -1    0.22    0.08
  -3   0   0 1267.85    4.02
  -3   0   0 1386.85    7.54
   3   0   0  888.04    3.34
  -3   0  -1    0.10    0.07
  -3   0  -1    0.51    0.11
   3   0   1    8.92    0.34
  -3   0  -2 1576.29    8.01
  -3   0  -2 1649.61    6.58
   3   0   2 1192.71    3.66
  -3   0  -3    0.00    0.05
  -3   0  -3    0.08    0.06
  -3   0  -3    0.11    0.07
  -3   0  -4   26.03    0.60
  -3   0  -4   27.30    0.51
  -3   0  -5    0.63    0.13
  -3   0  -5    0.30    0.10
  -3   0  -6 1387.92    6.54
  -3   0  -6 1473.80    3.77
  -3   0  -7    0.15    0.08
  -3   0  -7    0.67    0.12
  -3   0  -8    0.23    0.10
  -3   0  -8    0.41    0.11
  -3   0  -9    0.36    0.13
  -3   0 -10    9.73    0.50
  -3   0 -11    0.66    0.19
  -3   0 -12    1.06    0.23
  -3   0 -14  130.08    2.15
   3  -1 -12    4.49    0.38
   3  -1 -11   28.57    0.87
   3  -1 -10   21.57    0.74
   3  -1  -9   86.91    1.42
   3   1  -9  117.08    1.83
   3  -1  -8   10.24    0.48
   3   1  -8   16.17    0.67
   3  -1  -7    8.11    0.42
   3   1  -7   11.61    0.55
  -3   1   6  225.02    2.11
   3  -1  -6  141.44    1.61
   3   1  -6  198.03    2.09
  -3  -1   5  120.21    1.43
  -3   1   5  115.56    1.45
   3  -1  -5   95.35    1.35
   3  -1  -5   72.93    1.11
   3   1  -5  105.25    1.47
  -3  -1   4  171.21    1.64
  -3   1   4  168.32    1.68
   3  -1  -4  139.46    1.55
   3  -1  -4  100.61    1.24
  -3  -1   3  480.96    2.67
  -3   1   3  479.19    2.71
   3  -1  -3  387.76    2.45
   3   1  -3  381.54    2.57
  -3  -1   2  800.45    3.35
  -3   1   2  820.41    3.41
   3  -1  -2  574.05    2.83
   3  -1  -2  439.90    2.37
   3   1  -2  621.94    3.16
  -3  -1   1   11.99    0.41
  -3   1   1   12.74    0.42
   3  -1  -1    9.00    0.35
   3   1  -1    9.71    0.39
  -3  -1   0   19.96    0.52
  -3  -1   0   22.92    0.56
  -3   1   0   17.51    0.48
  -3   1   0   20.04    0.50
  -3   1   0   21.47    0.45
   3   1   0   15.50    0.48
  -3  -1  -1   65.29    0.92
  -3  -1  -1   67.88    0.93
  -3   1  -1   49.60    0.78
  -3   1  -1   65.01    0.88
  -3   1  -1   64.50    0.71
   3   1   1   52.00    0.84
  -3  -1  -2  360.99    2.18
  -3  -1  -2  397.67    2.21
  -3   1  -2  265.55    1.76
  -3   1  -2  383.50    2.12
  -3   1  -2  371.12    1.56
   3   1   2  248.96    1.82
  -3  -1  -3  199.55    1.65
  -3  -1  -3  211.62    1.60
  -3   1  -3  150.61    1.33
  -3   1  -3  217.89    1.61
  -3   1  -3  196.15    1.06
   3   1   3  157.46    1.45
  -3  -1  -4  188.19    1.66
  -3  -1  -4  216.28    1.63
  -3   1  -4  159.89    1.40
  -3   1  -4  203.97    1.60
  -3   1  -4  189.66    0.99
  -3  -1  -5  106.10    1.29
  -3  -1  -5  112.75    1.20
  -3   1  -5  104.91    1.19
  -3   1  -5   97.27    0.67
  -3  -1  -6  255.86    2.10
  -3  -1  -6  281.14    1.92
  -3   1  -6  262.41    1.97
  -3  -1  -7  101.22    1.38
  -3  -1  -7  116.67    1.27
  -3   1  -7  102.13    1.29
  -3  -1  -8   45.01    0.97
  -3  -1  -8   47.62    0.83
  -3   1  -8   45.31    0.91
  -3  -1  -9   17.95    0.65
  -3  -1  -9   14.80    0.48
  -3   1  -9   16.86    0.60
  -3  -1 -10  494.89    3.56
  -3  -1 -10  431.08    2.52
  -3   1 -10  466.32    3.27
  -3  -1 -11   12.52    0.61
  -3   1 -11   13.16    0.59
  -3  -1 -12    1.72    0.29
  -3   1 -12    1.87    0.30
  -3   1 -13   46.65    1.21
  -3   1 -14   45.48    1.25
   3  -2 -14    2.78    0.39
   3  -2 -13  161.90    2.23
   3  -2 -12   97.61    1.70
   3  -2 -11  139.21    1.98
   3  -2 -10   11.62    0.57
   3   2 -10   14.82    0.71
   3  -2  -9    6.92    0.44
   3   2  -9   10.04    0.57
   3  -2  -8   25.21    0.77
   3   2  -8   34.37    0.97
  -3   2   7  176.61    1.99
   3  -2  -7  103.07    1.47
   3   2  -7  153.04    1.94
  -3   2   6   50.25    1.02
   3  -2  -6   31.62    0.78
   3   2  -6   42.72    0.99
  -3   2   5  768.87    3.80
   3  -2  -5  494.98    2.93
   3   2  -5  633.33    3.66
  -3  -2   4  887.87    3.68
  -3   2   4  861.92    3.84
   3  -2  -4  547.72    2.93
   3   2  -4  718.66    3.76
  -3  -2   3   29.36    0.66
  -3   2   3   29.82    0.69
   3  -2  -3   20.13    0.54
   3   2  -3   23.68    0.67
  -3  -2   2   17.30    0.50
  -3   2   2   14.85    0.49
  -3   2   2   21.01    0.55
   3  -2  -2   11.22    0.39
   3   2  -2   13.68    0.50
  -3  -2   1  380.85    2.27
  -3   2   1  343.77    2.17
  -3   2   1  390.11    2.26
   3   2  -1  280.93    2.15
  -3  -2   0  181.21    1.56
  -3  -2   0  197.69    1.72
  -3   2   0  148.30    1.36
  -3   2   0  176.50    1.46
  -3   2   0  181.78    1.06
   3  -2   0  105.40    1.06
   3   2   0  138.52    1.48
  -3  -2  -1  378.76    2.26
  -3  -2  -1  437.79    2.53
  -3   2  -1  312.20    1.89
  -3   2  -1  404.65    2.15
  -3   2  -1  386.67    1.18
   3   2   1  300.76    2.15
  -3  -2  -2   34.19    0.69
  -3  -2  -2   38.14    0.75
  -3   2  -2   28.16    0.56
  -3   2  -2   38.80    0.66
  -3  -2  -3  480.54    2.65
  -3  -2  -3  532.73    2.79
  -3   2  -3  371.43    1.98
  -3   2  -3  516.95    2.39
   3   2   3  401.84    2.49
  -3  -2  -4   14.31    0.48
  -3  -2  -4   18.99    0.54
  -3   2  -4   13.16    0.39
  -3   2  -4   17.56    0.45
   3   2   4   12.16    0.46
   3   2   4   11.94    0.44
  -3  -2  -5  492.68    2.88
  -3  -2  -5  570.19    2.97
  -3   2  -5  446.61    2.29
  -3   2  -5  522.11    2.53
  -3  -2  -6   14.18    0.52
  -3  -2  -6   13.73    0.48
  -3   2  -6   12.24    0.41
  -3  -2  -7   49.07    1.00
  -3  -2  -7   51.90    0.94
  -3   2  -7   48.10    0.85
  -3  -2  -8  106.63    1.54
  -3  -2  -8  108.18    1.39
  -3   2  -8  101.15    1.31
  -3  -2  -9   27.95    0.83
  -3  -2  -9   28.90    0.74
  -3   2  -9   26.91    0.72
  -3  -2 -10    1.71    0.28
  -3  -2 -10    2.74    0.28
  -3   2 -10    1.37    0.22
  -3  -2 -11  333.43    2.54
  -3   2 -11  340.99    2.87
  -3   2 -12  188.87    2.25
  -3   2 -13   18.24    0.75
  -3   2 -14   14.34    0.70
   3  -3 -13   11.02    0.64
   3  -3 -12   38.25    1.11
   3  -3 -11    0.11    0.15
   3   3 -11    0.17    0.16
   3  -3 -10    2.96    0.33
   3   3 -10    3.86    0.41
   3  -3  -9    8.34    0.49
   3   3  -9   11.49    0.61
   3  -3  -8  350.30    2.89
   3   3  -8  427.97    3.41
  -3   3   7    5.19    0.37
   3  -3  -7    2.99    0.29
   3   3  -7    4.21    0.37
  -3   3   6   23.42    0.72
   3  -3  -6   17.33    0.60
   3   3  -6   22.91    0.75
  -3   3   5  120.51    1.53
   3  -3  -5   76.71    1.18
   3   3  -5  105.74    1.53
  -3   3   4  226.09    2.00
   3  -3  -4  158.82    1.60
   3   3  -4  194.52    2.01
  -3   3   3  254.24    2.02
   3  -3  -3  172.03    1.58
   3   3  -3  188.61    1.92
  -3  -3   2   31.17    0.66
  -3   3   2   29.53    0.68
  -3   3   2   31.59    0.68
   3  -3  -2   22.04    0.54
   3   3  -2   23.79    0.68
  -3  -3   1    1.17    0.16
  -3   3   1    0.82    0.15
  -3   3   1    1.32    0.16
  -3   3   1    1.14    0.10
   3  -3  -1    0.74    0.13
   3   3  -1    0.86    0.17
  -3  -3   0 1034.83    3.77
  -3  -3   0 1196.57    4.48
  -3   3   0  893.33    3.29
  -3   3   0 1058.60    4.92
   3  -3   0  751.54    2.78
   3   3   0  756.41    3.63
  -3  -3  -1   42.46    0.78
  -3  -3  -1   47.86    0.90
  -3   3  -1   35.75    0.63
  -3   3  -1   43.85    0.70
   3  -3   1   30.22    0.54
   3   3   1   37.48    0.81
  -3  -3  -2    1.87    0.19
  -3  -3  -2    2.15    0.21
  -3   3  -2    1.73    0.16
  -3   3  -2    2.44    0.18
   3   3   2    3.28    0.27
  -3  -3  -3  295.27    2.14
  -3  -3  -3  341.38    2.40
  -3   3  -3  234.51    1.50
  -3   3  -3  331.89    1.83
   3   3   3  241.88    2.06
  -3  -3  -4 1031.26    4.13
  -3  -3  -4 1237.84    4.65
  -3   3  -4  859.24    2.90
  -3   3  -4 1158.44    5.21
   3   3   4  725.77    3.63
   3   3   4  774.90    3.75
  -3  -3  -5  103.74    1.36
  -3  -3  -5  126.29    1.51
  -3   3  -5   93.44    0.99
  -3   3  -5  118.92    1.14
  -3  -3  -6   17.48    0.59
  -3  -3  -6   20.80    0.64
  -3   3  -6   18.32    0.47
  -3  -3  -7   18.80    0.64
  -3  -3  -7   20.42    0.65
  -3   3  -7   19.39    0.52
  -3  -3  -8  105.21    1.57
  -3  -3  -8  116.38    1.56
  -3   3  -8  101.22    1.25
  -3  -3  -9    9.00    0.47
  -3   3  -9    4.48    0.29
  -3  -3 -10   84.80    1.40
  -3   3 -10   82.52    1.29
  -3  -3 -11    4.68    0.38
  -3   3 -11    4.55    0.34
  -3  -3 -12   52.63    1.13
  -3   3 -12   53.92    1.17
  -3   3 -13    8.03    0.50
   3  -4 -13    0.56    0.25
   3   4 -12  158.51    2.42
   3  -4 -11    5.44    0.46
   3   4 -11   11.57    0.67
   3  -4 -10   10.28    0.57
   3   4 -10   11.18    0.63
   3  -4  -9   11.35    0.58
   3   4  -9   14.37    0.69
  -3   4   8    0.67    0.19
   3  -4  -8    0.39    0.17
   3   4  -8    0.96    0.23
  -3   4   7  415.68    3.19
   3  -4  -7  306.86    2.65
   3   4  -7  338.27    2.97
  -3   4   6   11.18    0.51
   3  -4  -6    8.10    0.43
   3   4  -6   10.37    0.53
  -3   4   5   20.37    0.65
   3  -4  -5   15.76    0.56
   3   4  -5   16.55    0.64
  -3   4   4 1057.64    4.41
   3  -4  -4  807.74    3.68
   3   4  -4  871.90    4.36
  -3   4   3  131.13    1.47
   3  -4  -3  101.30    1.23
   3   4  -3   98.91    1.44
  -3   4   2  113.52    1.30
   3  -4  -2   94.69    1.12
   3   4  -2   90.61    1.35
  -3   4   1  185.80    1.59
  -3   4   1  206.03    1.65
   3  -4  -1  163.12    1.37
  -3  -4   0 1328.90    4.97
  -3   4   0 1011.04    3.50
  -3   4   0 1225.04    3.83
   3  -4   0  921.49    3.05
   3   4   0  883.84    4.11
  -3  -4  -1  366.27    2.60
  -3   4  -1  277.44    1.72
  -3   4  -1  335.24    1.89
   3  -4   1  239.92    1.46
   3   4   1  226.55    2.08
  -3  -4  -2   41.95    0.89
  -3   4  -2   31.44    0.55
  -3   4  -2   40.46    0.63
   3   4   2   31.59    0.79
  -3  -4  -3   57.46    1.05
  -3   4  -3   42.09    0.61
  -3   4  -3   60.08    0.75
   3   4   3   39.22    0.89
  -3  -4  -4    2.61    0.27
  -3   4  -4    2.06    0.16
  -3   4  -4    2.61    0.17
   3   4   4    6.20    0.38
   3   4   4    8.20    0.42
  -3  -4  -5   87.08    1.34
  -3   4  -5   62.52    0.76
  -3   4  -5   81.69    0.89
  -3  -4  -6   89.00    1.39
  -3   4  -6   67.12    0.83
  -3   4  -6   79.95    0.92
  -3  -4  -7   33.48    0.88
  -3   4  -7   29.96    0.61
  -3  -4  -8  216.84    2.28
  -3   4  -8  195.44    1.65
  -3  -4  -9  114.62    1.70
  -3   4  -9  104.60    1.30
  -3  -4 -10    0.57    0.20
  -3   4 -10    0.43    0.13
  -3  -4 -11    3.28    0.36
  -3   4 -11    3.21    0.28
  -3  -4 -12  270.48    2.74
  -3   4 -12  252.01    2.43
  -3  -4 -13   20.96    0.79
  -3   4 -13   20.27    0.74
   3   5 -13    8.67    0.65
   3  -5 -12   12.69    0.70
   3   5 -12   17.86    0.85
   3  -5 -11   49.84    1.30
   3   5 -11   61.88    1.48
   3  -5 -10    1.37    0.30
   3   5 -10    1.31    0.28
   3  -5  -9  176.97    2.26
   3   5  -9  222.60    2.61
  -3   5   8  233.76    2.56
   3  -5  -8  155.78    2.03
   3   5  -8  204.53    2.43
  -3   5   7    5.98    0.42
   3  -5  -7    4.00    0.35
   3   5  -7    5.01    0.41
  -3   5   6   14.70    0.60
   3  -5  -6   10.75    0.50
   3   5  -6   12.81    0.59
  -3   5   5    4.04    0.31
   3  -5  -5    2.86    0.27
   3   5  -5    3.66    0.34
  -3   5   4   34.89    0.83
   3  -5  -4   29.92    0.73
   3   5  -4   29.47    0.84
  -3   5   3  254.73    2.10
   3  -5  -3  205.90    1.79
   3   5  -3  174.29    1.97
  -3   5   2  121.38    1.37
   3  -5  -2  102.29    1.18
   3   5  -2   99.92    1.47
  -3  -5   1  101.17    1.44
  -3   5   1   85.90    1.08
   3  -5  -1   69.46    0.91
   3   5  -1   57.66    1.11
  -3  -5   0    8.62    0.44
  -3   5   0    6.99    0.31
  -3   5   0    7.68    0.32
   3   5   0    7.67    0.42
  -3  -5  -1  542.20    3.33
  -3   5  -1  417.94    2.10
  -3   5  -1  500.45    2.31
   3   5   1  377.43    2.81
  -3  -5  -2   32.81    0.84
  -3   5  -2    1.96    0.16
  -3   5  -2    3.04    0.19
   3   5   2    1.56    0.23
  -3  -5  -3    8.53    0.45
  -3   5  -3    7.73    0.26
  -3   5  -3    9.07    0.29
   3   5   3    8.53    0.45
  -3  -5  -4  110.05    1.57
  -3   5  -4   75.55    0.77
  -3   5  -4  107.52    0.93
   3   5   4   80.41    1.36
   3   5   4   70.26    1.27
  -3  -5  -5   24.97    0.77
  -3   5  -5   17.73    0.38
  -3   5  -5   24.89    0.46
  -3  -5  -6  155.86    1.95
  -3   5  -6  121.13    1.03
  -3   5  -6  147.09    1.15
  -3  -5  -7   51.85    1.16
  -3   5  -7   51.36    0.73
  -3  -5  -8  134.05    1.90
  -3   5  -8  113.76    1.18
  -3  -5  -9  198.14    2.36
  -3   5  -9  175.71    1.59
  -3  -5 -10   36.39    1.05
  -3   5 -10   32.72    0.74
  -3  -5 -11   23.37    0.87
  -3   5 -11   21.98    0.66
  -3  -5 -12    3.06    0.41
  -3   5 -12    3.04    0.29
  -3  -5 -13   57.63    1.37
   3  -6 -12   13.06    0.73
   3   6 -12   18.77    0.87
   3  -6 -11   47.24    1.30
   3   6 -11   54.83    1.40
   3  -6 -10  333.25    3.30
   3   6 -10  389.17    3.59
   3  -6  -9   73.58    1.50
   3   6  -9   79.55    1.59
  -3   6   8    7.39    0.49
   3  -6  -8    6.06    0.44
   3   6  -8    6.98    0.49
  -3   6   7  288.60    2.80
   3  -6  -7  240.25    2.48
   3   6  -7  269.69    2.74
  -3   6   6  225.90    2.37
   3  -6  -6  188.23    2.09
   3   6  -6  214.94    2.39
  -3   6   5   55.07    1.12
   3  -6  -5   48.46    1.01
   3   6  -5   46.11    1.09
  -3   6   4  122.20    1.58
   3  -6  -4  100.39    1.37
   3   6  -4   99.33    1.56
  -3   6   3    8.64    0.41
   3  -6  -3    8.14    0.39
   3   6  -3    5.61    0.39
  -3   6   2    1.33    0.19
   3   6  -2    1.07    0.21
  -3  -6   1   15.35    0.60
  -3   6   1   12.00    0.42
   3   6  -1    8.98    0.48
  -3  -6   0    1.12    0.22
  -3   6   0    0.95    0.15
   3   6   0    0.80    0.18
  -3  -6  -1  276.86    2.50
  -3   6  -1  209.82    1.49
  -3   6  -1  261.75    1.68
   3   6   1  168.47    1.97
  -3  -6  -2  355.97    2.86
  -3   6  -2  282.59    1.59
  -3   6  -2  350.79    1.80
   3   6   2  220.03    2.27
  -3  -6  -3    1.40    0.25
  -3   6  -3    0.86    0.11
  -3   6  -3    0.99    0.12
   3   6   3    0.87    0.20
  -3  -6  -4   22.01    0.75
  -3   6  -4   16.22    0.34
  -3   6  -4   22.16    0.40
   3   6   4   19.10    0.71
   3   6   4   12.86    0.58
  -3  -6  -5  140.50    1.91
  -3   6  -5  100.50    0.82
  -3   6  -5  137.24    0.95
  -3  -6  -6  539.74    3.82
  -3   6  -6  372.99    1.65
  -3   6  -6  488.87    1.88
  -3  -6  -7  142.10    2.01
  -3   6  -7  125.94    1.04
  -3  -6  -8   11.78    0.62
  -3   6  -8   11.12    0.35
  -3  -6  -9   53.50    1.30
  -3   6  -9   46.43    0.76
  -3  -6 -10    4.25    0.42
  -3   6 -10    3.69    0.25
  -3  -6 -11   20.95    0.86
  -3   6 -11   18.57    0.57
  -3  -6 -12   45.12    1.27
   3  -7 -11    1.90    0.36
   3   7 -11    3.00    0.43
   3  -7 -10   14.86    0.75
   3   7 -10   16.81    0.78
   3  -7  -9    7.32    0.53
   3   7  -9    8.64    0.57
  -3   7   8    2.25    0.33
   3  -7  -8    2.03    0.33
   3   7  -8    1.68    0.30
  -3   7   7    1.20    0.25
   3  -7  -7    1.08    0.26
   3   7  -7    0.55    0.19
  -3   7   6   92.41    1.56
   3  -7  -6   83.33    1.44
   3   7  -6   73.89    1.44
  -3   7   5   49.15    1.09
   3  -7  -5   43.70    0.99
   3   7  -5   42.30    1.07
  -3   7   4   71.55    1.25
   3  -7  -4   62.05    1.12
   3   7  -4   57.66    1.23
  -3   7   3   22.89    0.67
   3   7  -3   19.43    0.71
  -3  -7   2  527.75    3.57
  -3   7   2  399.51    2.62
   3   7  -2  323.83    2.82
  -3  -7   1  188.93    2.14
  -3   7   1  152.16    1.52
   3   7  -1  126.30    1.76
  -3  -7   0   59.92    1.21
  -3   7   0   50.67    0.82
   3   7   0   38.85    0.99
  -3  -7  -1   82.05    1.43
  -3   7  -1   76.98    0.93
   3   7   1   51.39    1.14
  -3  -7  -2  244.08    2.48
  -3   7  -2  193.02    1.29
  -3   7  -2  232.42    1.47
   3   7   2  156.27    2.00
  -3  -7  -3    5.62    0.42
  -3   7  -3    4.84    0.20
  -3   7  -3    6.83    0.24
   3   7   3    3.78    0.36
   3   7   3    3.41    0.32
  -3  -7  -4   66.03    1.35
   3   7   4   44.10    1.11
  -3  -7  -5    0.53    0.19
  -3  -7  -6  147.66    2.10
  -3  -7  -7  123.10    1.96
  -3  -7  -8    0.18    0.19
  -3  -7  -9   19.57    0.83
  -3   7  -9   16.47    0.41
  -3  -7 -10  315.22    3.34
  -3   7 -10  279.59    1.81
  -3  -7 -11    0.74    0.27
  -3   7 -11    0.41    0.12
   3  -8 -10   34.04    1.13
   3   8 -10   35.50    1.11
   3  -8  -9   16.87    0.78
   3   8  -9   17.65    0.79
  -3   8   8    4.77    0.43
   3  -8  -8    4.01    0.41
   3   8  -8    3.68    0.41
  -3   8   7   35.42    1.04
   3  -8  -7   30.33    0.95
   3   8  -7   30.97    0.98
  -3   8   6  105.88    1.72
   3  -8  -6   99.01    1.61
   3   8  -6   85.28    1.56
  -3   8   5  185.68    2.17
   3   8  -5  140.49    1.97
  -3   8   4    0.07    0.11
   3   8  -4    0.46    0.16
  -3  -8   3    6.42    0.46
  -3   8   3    4.68    0.33
   3   8  -3    4.28    0.39
  -3  -8   2   25.24    0.83
  -3   8   2   19.86    0.61
   3   8  -2   15.90    0.67
  -3  -8   1  529.61    3.71
  -3   8   1  433.49    2.64
   3   8  -1  315.49    2.88
  -3  -8   0   18.94    0.73
  -3   8   0   14.22    0.46
   3   8   0   12.47    0.61
  -3  -8  -1  261.93    2.65
  -3   8  -1  228.19    1.64
   3   8   1  201.05    2.33
  -3  -8  -2  134.39    1.93
  -3   8  -2  130.66    1.11
   3   8   2   98.56    1.66
  -3  -8  -3  149.47    2.07
   3   8   3  111.84    1.80
   3   8   3   88.68    1.60
  -3  -8  -4   37.90    1.07
   3   8   4   22.99    0.84
  -3  -8  -5   38.45    1.10
  -3  -8  -6  163.46    2.30
  -3  -8  -7   15.89    0.76
  -3  -8  -8   13.72    0.72
  -3  -8  -9    1.00    0.29
   3  -9  -9  160.75    2.37
  -3   9   8   57.26    1.40
   3   9  -8   47.20    1.22
  -3   9   7   88.91    1.68
   3   9  -7   70.77    1.47
  -3   9   6    3.40    0.35
   3   9  -6    3.23    0.40
  -3   9   5   29.47    0.90
   3   9  -5   25.82    0.88
  -3   9   4    4.51    0.36
   3   9  -4    3.70    0.38
  -3   9   3   49.13    1.04
   3   9  -3   41.62    1.09
  -3   9   2    7.13    0.39
   3   9  -2    5.61    0.44
  -3  -9   1    1.16    0.27
  -3   9   1    0.20    0.11
   3   9  -1    0.17    0.12
  -3  -9   0  153.49    2.09
  -3   9   0  127.93    1.38
   3   9   0   98.36    1.68
  -3  -9  -1   13.25    0.65
  -3   9  -1   11.37    0.39
   3   9   1    9.07    0.55
  -3  -9  -2    3.96    0.39
  -3   9  -2    4.35    0.23
   3   9   2    4.01    0.41
   3   9   2    2.44    0.30
  -3  -9  -3  176.38    2.34
   3   9   3  109.17    1.85
  -3  -9  -4   50.50    1.29
   3   9   4   32.76    1.04
  -3  -9  -5   68.79    1.53
  -3  -9  -6   58.58    1.44
  -3  -9  -7  253.16    3.04
  -3  -9  -8   12.00    0.71
  -3  10   7   17.75    0.78
  -3  10   6   18.60    0.77
   3  10  -6   14.36    0.69
  -3  10   5    7.34    0.48
   3  10  -5    6.27    0.49
  -3  10   4  229.91    2.42
   3  10  -4  192.78    2.37
  -3  10   3   67.38    1.25
   3  10  -3   59.10    1.32
  -3  10   2    0.39    0.14
   3  10  -2    0.28    0.16
  -3  10   1   59.58    1.04
   3  10  -1   49.99    1.23
  -3  10   0  255.93    1.99
   3  10   0  218.74    2.58
  -3 -10  -1   42.16    1.16
  -3  10  -1   38.86    0.71
   3  10   1   32.87    1.04
   3  10   1   23.59    0.87
  -3 -10  -2    0.86    0.27
  -3  10  -2    0.61    0.11
   3  10   2    0.28    0.16
  -3 -10  -3    2.06    0.37
   3  10   3    1.43    0.28
  -3 -10  -4    1.51    0.34
  -3 -10  -5   40.53    1.22
  -3 -10  -6  109.80    2.03
   3  11  -3   61.78    1.38
  -3  11   2   46.96    1.01
   3  11  -2   38.95    1.11
  -3  11   1    0.53    0.15
   3  11  -1    0.32    0.17
  -3  11   0   13.15    0.47
   3  11   0   10.95    0.64
   3  11   0    8.66    0.54
  -3  11  -1   80.21    1.00
   3  11   1   50.90    1.30
   3  11   2   62.18    1.46
  -3 -11  -3    0.20    0.23
   3  11   3    0.11    0.15
  -3 -11  -4   79.23    1.71
  -4   0   5    0.41    0.15
  -4   0   4  452.32    3.07
  -4   0   3    0.25    0.11
  -4   0   2   47.06    0.95
  -4   0   1    0.17    0.10
  -4   0   1    0.66    0.16
  -4   0   0 1508.26    6.27
  -4   0   0 1493.35    5.96
  -4   0  -1    0.05    0.07
  -4   0  -1    0.11    0.10
  -4   0  -2   10.31    0.43
  -4   0  -2   11.11    0.39
  -4   0  -3    0.02    0.07
  -4   0  -3    0.53    0.12
  -4   0  -4  179.98    1.82
  -4   0  -4  179.41    1.44
  -4   0  -5    0.19    0.09
  -4   0  -5    0.02    0.08
  -4   0  -6  206.39    2.05
  -4   0  -6  217.21    1.51
  -4   0  -7    0.36    0.13
  -4   0  -7    0.11    0.09
  -4   0  -8  500.49    3.43
  -4   0  -9    0.07    0.10
  -4   0 -10  135.23    1.94
  -4   0 -11    0.11    0.13
  -4   0 -12  353.55    3.39
  -4   0 -13    0.10    0.15
  -4   1   5    2.48    0.28
  -4   1   4  787.92    4.09
  -4  -1   3   87.76    1.32
  -4   1   3   90.30    1.35
   4   1  -3   69.76    1.24
  -4  -1   2   23.99    0.68
  -4   1   2   24.80    0.70
  -4  -1   1  112.95    1.44
  -4  -1   1  120.52    1.48
  -4   1   1  106.01    1.39
  -4   1   1  112.25    1.25
  -4  -1   0  373.43    2.60
  -4  -1   0  403.18    2.63
  -4   1   0  389.18    2.61
  -4   1   0  396.80    2.20
  -4  -1  -1  202.75    1.91
  -4  -1  -1  212.12    1.86
  -4   1  -1  212.98    1.91
  -4   1  -1  208.28    1.49
  -4  -1  -2   78.87    1.20
  -4  -1  -2   78.79    1.12
  -4   1  -2   79.79    1.16
  -4   1  -2   76.86    0.85
  -4  -1  -3   20.04    0.62
  -4  -1  -3   21.51    0.58
  -4   1  -3   21.76    0.62
  -4   1  -3   19.08    0.40
  -4  -1  -4  503.58    3.11
  -4  -1  -4  544.50    2.86
  -4   1  -4  522.27    3.01
  -4   1  -4  515.83    1.85
  -4  -1  -5   89.03    1.34
  -4  -1  -5   96.52    1.20
  -4   1  -5   93.20    1.30
  -4  -1  -6  196.75    2.06
  -4  -1  -6  214.73    1.78
  -4   1  -6  204.94    1.98
  -4  -1  -7    8.47    0.45
  -4  -1  -7    8.90    0.38
  -4   1  -7    8.92    0.44
  -4  -1  -8   20.84    0.73
  -4  -1  -8   21.12    0.57
  -4   1  -8   22.46    0.71
  -4  -1  -9   82.72    1.49
  -4  -1  -9   83.83    1.10
  -4   1  -9   81.10    1.40
  -4  -1 -10    3.35    0.34
  -4   1 -10    3.19    0.31
  -4  -1 -11   25.65    0.91
  -4   1 -11   23.09    0.82
  -4   1 -12    5.07    0.43
  -4   1 -13    4.36    0.42
   4  -2 -11   41.50    1.15
   4  -2 -10   74.92    1.50
   4  -2  -9    9.06    0.53
   4  -2  -8   58.73    1.25
   4  -2  -7    9.35    0.50
  -4   2   6  132.83    1.82
   4  -2  -6   68.52    1.26
   4   2  -6  108.22    1.73
  -4   2   5  361.46    2.89
   4  -2  -5  174.64    1.93
   4   2  -5  291.70    2.75
  -4   2   4   43.38    0.98
   4  -2  -4   28.67    0.76
   4   2  -4   36.11    0.95
  -4   2   3  150.69    1.75
   4  -2  -3   77.55    1.20
   4   2  -3  101.19    1.54
  -4  -2   2   15.81    0.56
  -4   2   2   15.09    0.55
   4   2  -2   10.03    0.50
  -4  -2   1   10.66    0.46
  -4  -2   1   12.64    0.52
  -4   2   1   10.01    0.44
  -4   2   1   10.70    0.36
   4   2  -1    8.59    0.45
  -4  -2   0    2.72    0.25
  -4  -2   0    1.77    0.25
  -4   2   0    1.60    0.19
  -4   2   0    1.43    0.15
   4   2   0    0.93    0.18
  -4  -2  -1  413.70    2.76
  -4  -2  -1  447.10    2.89
  -4   2  -1  427.81    2.67
  -4   2  -1  408.67    1.59
  -4  -2  -2  233.61    2.09
  -4  -2  -2  240.15    2.10
  -4   2  -2  237.04    1.96
  -4  -2  -3  422.83    2.86
  -4  -2  -3  430.74    2.79
  -4   2  -3  446.56    2.69
  -4  -2  -4    1.31    0.21
  -4  -2  -4    2.25    0.24
  -4   2  -4    1.69    0.19
  -4  -2  -5   98.61    1.45
  -4  -2  -5  109.27    1.41
  -4   2  -5   99.60    1.30
  -4  -2  -6  261.77    2.43
  -4  -2  -6  273.89    2.24
  -4   2  -6  257.59    2.14
  -4  -2  -7  102.66    1.58
  -4  -2  -7  110.18    1.44
  -4   2  -7  104.85    1.42
  -4  -2  -8  104.26    1.65
  -4  -2  -8  111.41    1.45
  -4   2  -8  102.97    1.46
  -4  -2  -9    8.06    0.50
  -4  -2  -9    8.71    0.44
  -4   2  -9    8.00    0.44
  -4  -2 -10    6.64    0.39
  -4   2 -10    6.94    0.43
  -4   2 -11   60.64    1.28
  -4   2 -12   11.65    0.60
  -4   2 -13   97.31    1.75
   4  -3 -12    0.90    0.26
   4  -3 -11    1.96    0.33
   4  -3 -10  216.82    2.60
   4  -3  -9   16.15    0.71
   4  -3  -8   13.30    0.63
   4   3  -8   17.41    0.78
  -4   3   7    1.28    0.24
   4  -3  -7    0.52    0.18
   4   3  -7    0.39    0.17
  -4   3   6   93.80    1.55
   4  -3  -6   52.45    1.12
   4   3  -6   76.59    1.49
  -4   3   5   65.13    1.25
   4  -3  -5   42.55    0.97
   4   3  -5   56.78    1.25
  -4   3   4  418.75    3.04
   4  -3  -4  243.43    2.22
   4   3  -4  342.24    2.97
  -4   3   3   39.17    0.91
   4  -3  -3   25.32    0.70
   4   3  -3   32.88    0.91
  -4   3   2  954.95    4.29
  -4   3   2 1013.27    3.18
   4  -3  -2  510.53    2.98
   4   3  -2  628.97    3.85
  -4  -3   1   16.48    0.62
  -4   3   1   11.95    0.48
  -4   3   1   12.30    0.30
   4  -3  -1    6.86    0.35
   4   3  -1    9.94    0.50
  -4  -3   0  353.02    2.75
  -4   3   0  307.49    2.29
   4   3   0  215.98    2.19
  -4  -3  -1  230.68    2.09
  -4  -3  -1  269.63    2.38
  -4   3  -1  252.72    2.03
   4   3   1  165.74    1.91
  -4  -3  -2  455.72    2.97
  -4  -3  -2  498.86    3.21
  -4   3  -2  489.95    2.78
  -4  -3  -3    4.80    0.33
  -4  -3  -3    3.43    0.30
  -4   3  -3    3.95    0.26
  -4  -3  -4    4.77    0.34
  -4  -3  -4    5.17    0.36
  -4   3  -4    5.83    0.31
  -4  -3  -5   47.07    1.03
  -4  -3  -5   57.92    1.11
  -4   3  -5   52.82    0.92
  -4  -3  -6    0.97    0.21
  -4   3  -6    0.37    0.12
  -4  -3  -7   11.92    0.53
  -4   3  -7   11.63    0.46
  -4  -3  -8   58.97    1.16
  -4   3  -8   53.68    1.01
  -4  -3  -9   81.27    1.38
  -4   3  -9   73.46    1.24
  -4  -3 -10  231.93    2.32
  -4   3 -10  218.45    2.23
  -4  -3 -11   26.03    0.80
  -4   3 -11   27.22    0.83
  -4   3 -12   49.01    1.16
   4  -4 -12    8.53    0.59
   4  -4 -11    0.15    0.18
   4  -4 -10  235.11    2.77
   4  -4  -9   14.40    0.69
   4   4  -9   22.38    0.91
   4  -4  -8   27.97    0.91
   4   4  -8   36.05    1.11
  -4   4   7  159.66    2.13
   4  -4  -7  103.67    1.66
   4   4  -7  137.67    2.08
  -4   4   6  306.88    2.84
   4  -4  -6  205.39    2.25
   4   4  -6  253.04    2.75
  -4   4   5   63.29    1.25
   4  -4  -5   46.34    1.03
   4   4  -5   54.36    1.26
  -4   4   4    4.21    0.34
   4  -4  -4    2.91    0.27
   4   4  -4    3.23    0.34
  -4   4   3   16.54    0.60
  -4   4   3   19.02    0.42
   4  -4  -3   11.89    0.49
   4   4  -3   14.18    0.63
  -4   4   2    0.68    0.16
   4  -4  -2    0.17    0.12
   4   4  -2    0.60    0.18
  -4  -4   1    6.58    0.42
  -4   4   1    5.73    0.34
   4  -4  -1    3.73    0.28
   4   4  -1    3.80    0.35
  -4  -4   0  166.20    1.97
  -4   4   0  156.47    1.63
   4  -4   0  100.40    1.23
   4   4   0  126.22    1.75
  -4  -4  -1   79.06    1.36
  -4   4  -1   77.81    1.12
   4   4   1   61.90    1.22
  -4  -4  -2  304.96    2.65
  -4   4  -2  294.27    2.11
  -4  -4  -3    0.66    0.19
  -4   4  -3    0.52    0.12
  -4  -4  -4   64.40    1.24
  -4   4  -4   66.25    0.98
  -4  -4  -5   16.77    0.65
  -4   4  -5   15.57    0.48
  -4  -4  -6  769.59    4.36
  -4   4  -6  715.52    3.29
  -4  -4  -7   58.04    1.22
  -4   4  -7   52.62    0.92
  -4  -4  -8    0.46    0.19
  -4   4  -8    2.00    0.21
  -4  -4  -9  155.58    2.04
  -4   4  -9  144.10    1.66
  -4  -4 -10   40.80    1.07
  -4   4 -10   35.81    0.87
  -4  -4 -11   97.21    1.64
  -4   4 -11   89.42    1.43
  -4  -4 -12   16.36    0.71
  -4   4 -12   16.06    0.65
   4  -5 -11    8.79    0.60
   4  -5 -10    1.23    0.29
   4   5 -10    1.43    0.32
   4  -5  -9  116.54    1.93
   4   5  -9  137.83    2.23
   4  -5  -8   27.01    0.91
   4   5  -8   30.00    1.03
  -4   5   7  181.35    2.31
   4  -5  -7  133.12    1.92
   4   5  -7  162.59    2.30
  -4   5   6   74.96    1.44
   4  -5  -6   50.87    1.15
   4   5  -6   68.83    1.47
  -4   5   5  151.66    1.96
   4  -5  -5  108.72    1.60
   4   5  -5  122.11    1.91
  -4   5   4    0.96    0.20
   4  -5  -4    1.00    0.21
   4   5  -4    1.12    0.25
  -4   5   3   44.49    0.99
   4  -5  -3   33.69    0.82
   4   5  -3   34.99    1.00
  -4   5   2  280.33    2.36
   4  -5  -2  197.33    1.88
   4   5  -2  206.88    2.36
  -4  -5   1  191.96    2.22
  -4   5   1  158.39    1.71
   4   5  -1  133.59    1.88
  -4  -5   0    0.18    0.14
  -4   5   0    0.05    0.09
   4   5   0    0.06    0.09
  -4  -5  -1    7.99    0.48
  -4   5  -1    6.71    0.34
   4   5   1    5.65    0.43
  -4  -5  -2    0.60    0.19
  -4   5  -2    0.45    0.12
  -4  -5  -3  218.47    2.37
  -4   5  -3  220.95    1.75
  -4  -5  -4   64.41    1.31
  -4   5  -4   60.85    0.90
  -4  -5  -5   57.57    1.25
  -4   5  -5   52.19    0.83
  -4  -5  -6  101.75    1.68
  -4   5  -6   98.10    1.15
  -4  -5  -7   21.50    0.80
  -4   5  -7   20.49    0.55
  -4  -5  -8    9.76    0.56
  -4   5  -8    7.94    0.36
  -4  -5  -9   36.62    1.06
  -4   5  -9   36.98    0.80
  -4  -5 -10   51.25    1.27
  -4   5 -10   44.18    0.91
  -4  -5 -11    5.61    0.48
  -4   5 -11    3.81    0.31
  -4  -5 -12   25.20    0.91
   4   6 -11   17.20    0.87
   4  -6 -10    0.67    0.26
   4   6 -10    0.51    0.23
   4  -6  -9    0.78    0.25
   4   6  -9    0.50    0.22
  -4   6   8   30.84    1.02
   4  -6  -8   21.38    0.83
   4   6  -8   29.26    1.04
  -4   6   7    3.06    0.34
   4  -6  -7    1.74    0.30
   4   6  -7    3.77    0.43
  -4   6   6   33.57    0.99
   4  -6  -6   25.45    0.84
   4   6  -6   28.04    0.97
  -4   6   5  234.84    2.48
   4  -6  -5  163.76    2.00
   4   6  -5  173.65    2.32
  -4   6   4  300.02    2.70
   4  -6  -4  212.92    2.18
   4   6  -4  247.92    2.73
  -4   6   3   15.39    0.60
   4   6  -3   12.57    0.64
  -4  -6   2   14.37    0.66
  -4   6   2   11.08    0.49
   4   6  -2    7.95    0.52
  -4  -6   1   89.17    1.58
  -4   6   1   72.27    1.17
   4   6  -1   62.24    1.34
  -4  -6   0  702.29    4.39
  -4   6   0  593.72    3.19
   4   6   0  476.19    3.65
  -4  -6  -1  198.48    2.34
  -4   6  -1  174.54    1.65
   4   6   1  142.51    2.01
  -4  -6  -2    5.63    0.43
  -4   6  -2    5.29    0.29
  -4  -6  -3    4.73    0.40
  -4   6  -3    2.99    0.22
  -4  -6  -4    9.87    0.56
  -4   6  -4    9.11    0.34
  -4  -6  -5   18.22    0.76
  -4   6  -5   16.63    0.45
  -4  -6  -6   32.73    1.01
  -4   6  -6   28.93    0.58
  -4  -6  -7   43.91    1.19
  -4   6  -7   39.61    0.70
  -4  -6  -8   74.69    1.57
  -4   6  -8   66.55    0.94
  -4  -6  -9   76.99    1.61
  -4   6  -9   65.30    0.97
  -4  -6 -10   94.06    1.80
  -4   6 -10   80.65    1.14
   4  -7 -10   68.97    1.60
   4   7 -10   85.77    1.83
   4  -7  -9    0.17    0.19
   4   7  -9    0.13    0.17
  -4   7   8  252.35    2.93
   4  -7  -8  196.35    2.51
   4   7  -8  232.75    2.88
  -4   7   7   10.81    0.61
   4  -7  -7    8.27    0.54
   4   7  -7    8.32    0.59
  -4   7   6    2.01    0.31
   4  -7  -6    1.81    0.32
   4   7  -6    1.74    0.32
  -4   7   5   42.73    1.09
   4   7  -5   37.05    1.11
  -4   7   4  202.50    2.26
   4   7  -4  176.25    2.36
  -4  -7   3   36.14    1.06
  -4   7   3   28.32    0.82
   4   7  -3   23.97    0.88
  -4  -7   2   11.67    0.62
  -4   7   2   10.55    0.49
   4   7  -2    8.93    0.56
  -4  -7   1   24.61    0.87
  -4   7   1   19.39    0.62
   4   7  -1   15.55    0.72
  -4  -7   0    0.16    0.17
  -4   7   0    1.19    0.19
   4   7   0    0.70    0.20
  -4  -7  -1   61.98    1.37
  -4   7  -1   56.20    0.94
   4   7   1   47.85    1.22
  -4  -7  -2  148.20    2.12
  -4   7  -2  147.44    1.43
  -4  -7  -3  133.71    2.03
  -4   7  -3  134.91    1.28
  -4  -7  -4  434.81    3.70
  -4   7  -4  418.45    2.11
  -4  -7  -5    0.14    0.18
  -4   7  -5    0.37    0.09
  -4  -7  -6   88.19    1.72
  -4   7  -6   79.45    0.85
  -4  -7  -7   44.79    1.26
  -4   7  -7   37.71    0.60
  -4  -7  -8  150.89    2.31
  -4   7  -8  127.37    1.13
  -4  -7  -9    0.22    0.23
  -4   7  -9    0.32    0.10
   4  -8  -9   50.77    1.36
   4   8  -9   59.76    1.51
  -4   8   8    8.67    0.58
   4  -8  -8    5.96    0.50
   4   8  -8    6.15    0.54
  -4   8   7    0.14    0.16
   4   8  -7    0.38    0.20
  -4   8   6    1.54    0.28
   4   8  -6    0.76    0.24
  -4   8   5   28.10    0.90
   4   8  -5   25.13    0.94
  -4  -8   4  201.47    2.56
  -4   8   4  158.71    2.03
   4   8  -4  142.06    2.16
  -4  -8   3    3.57    0.40
  -4   8   3    2.24    0.27
   4   8  -3    2.30    0.36
  -4  -8   2   11.42    0.64
  -4   8   2    9.69    0.48
   4   8  -2    7.11    0.53
  -4  -8   1   23.04    0.87
  -4   8   1   19.01    0.62
   4   8  -1   16.96    0.77
  -4  -8   0  196.24    2.50
  -4   8   0  161.85    1.69
   4   8   0  129.84    2.05
  -4  -8  -1  114.38    1.92
  -4   8  -1   96.53    1.22
   4   8   1   77.60    1.59
  -4  -8  -2   16.58    0.76
  -4   8  -2   15.26    0.46
  -4  -8  -3  143.53    2.19
  -4   8  -3  138.89    1.24
  -4  -8  -4   17.91    0.81
  -4   8  -4   17.27    0.40
  -4  -8  -5  239.39    2.90
  -4  -8  -6   11.31    0.67
  -4  -8  -7  102.45    1.96
  -4  -8  -8   31.05    1.11
  -4   9   7   21.29    0.87
   4   9  -7   16.47    0.81
  -4   9   6    6.57    0.48
   4   9  -6    5.95    0.52
  -4   9   5    5.36    0.42
   4   9  -5    5.24    0.50
  -4   9   4  109.69    1.72
   4   9  -4   92.91    1.79
  -4  -9   3  327.47    3.32
  -4   9   3  257.37    2.52
   4   9  -3  216.06    2.70
  -4  -9   2   20.21    0.85
  -4   9   2   16.29    0.62
   4   9  -2   12.62    0.70
  -4  -9   1  222.81    2.74
  -4   9   1  191.32    1.96
   4   9  -1  156.24    2.30
  -4  -9   0   46.78    1.27
  -4   9   0   39.05    0.84
   4   9   0   29.73    1.03
  -4  -9  -1  117.34    2.01
  -4   9  -1  102.97    1.25
   4   9   1   72.38    1.59
  -4  -9  -2   91.19    1.79
  -4   9  -2   84.01    1.03
  -4  -9  -3    4.11    0.45
  -4   9  -3    4.95    0.24
  -4  -9  -4    8.57    0.61
  -4  -9  -5   41.78    1.27
  -4  -9  -6   18.41    0.87
   4  10  -4    4.03    0.47
  -4  10   3   46.86    1.09
   4  10  -3   41.17    1.23
  -4  10   2    0.25    0.14
   4  10  -2    0.33    0.18
  -4 -10   1    0.34    0.24
  -4  10   1    0.31    0.13
   4  10  -1   -0.04    0.13
  -4 -10   0  112.45    2.01
  -4  10   0  100.34    1.33
   4  10   0   85.71    1.76
  -4 -10  -1   20.62    0.89
  -4  10  -1   19.02    0.54
  -4 -10  -2  144.61    2.32
  -4  10  -2  129.80    1.19
  -4 -10  -3    0.41    0.25
  -4 -10  -4   22.91    0.97
  -5   0   3    0.03    0.11
  -5   0   2    8.29    0.47
  -5   0   2    6.92    0.41
  -5   0   1    0.72    0.19
  -5   0   1    0.15    0.13
  -5   0   0    3.02    0.29
  -5   0   0    2.99    0.27
  -5   0  -1    0.03    0.09
  -5   0  -1    0.21    0.13
  -5   0  -2  401.00    3.04
  -5   0  -2  395.27    2.47
  -5   0  -3    0.04    0.09
  -5   0  -3    0.14    0.10
  -5   0  -4   99.16    1.54
  -5   0  -4   98.19    1.14
  -5   0  -5    0.16    0.11
  -5   0  -5    0.12    0.10
  -5   0  -6  228.62    2.41
  -5   0  -7    0.15    0.12
  -5   0  -8   27.27    0.89
  -5   0  -9    0.09    0.12
  -5   0 -10   14.90    0.70
  -5   0 -11    0.07    0.14
  -5   0 -12   48.37    1.33
  -5   1   4   56.80    1.23
  -5   1   3   84.98    1.47
  -5  -1   2  730.87    4.12
  -5   1   2  723.68    4.20
  -5   1   2  741.97    3.68
  -5  -1   1  347.72    2.88
  -5  -1   1  354.50    2.79
  -5   1   1  336.20    2.82
  -5   1   1  340.72    2.37
  -5  -1   0  284.69    2.59
  -5  -1   0  300.47    2.50
  -5   1   0  296.09    2.62
  -5   1   0  283.22    2.04
  -5  -1  -1    0.29    0.14
  -5  -1  -1    0.18    0.13
  -5   1  -1    0.47    0.14
  -5   1  -1    5.94    0.30
  -5  -1  -2   66.29    1.26
  -5  -1  -2   64.95    1.11
  -5   1  -2   64.63    1.21
  -5   1  -2   66.66    0.86
  -5  -1  -3  254.38    2.47
  -5  -1  -3  246.52    2.11
  -5   1  -3  238.91    2.32
  -5   1  -3  237.20    1.48
  -5  -1  -4   78.61    1.40
  -5  -1  -4   77.51    1.17
  -5   1  -4   79.48    1.35
  -5  -1  -5   22.86    0.77
  -5  -1  -5   23.47    0.64
  -5   1  -5   22.64    0.74
  -5  -1  -6   67.07    1.34
  -5  -1  -6   66.90    1.04
  -5   1  -6   66.23    1.27
  -5  -1  -7    8.85    0.51
  -5  -1  -7    8.94    0.40
  -5   1  -7    8.73    0.49
  -5  -1  -8   32.28    0.99
  -5   1  -8   32.12    0.94
  -5  -1  -9  157.61    2.23
  -5   1  -9  158.27    2.12
  -5  -1 -10  127.10    2.06
  -5   1 -10  138.01    2.04
  -5   1 -11    3.79    0.39
  -5   1 -12    3.58    0.39
  -5   2   5   75.16    1.46
  -5   2   4   31.40    0.93
  -5   2   3    7.43    0.46
  -5   2   3    6.98    0.38
  -5  -2   2   34.93    0.96
  -5   2   2   31.42    0.89
  -5   2   2   33.16    0.72
  -5  -2   1  277.26    2.59
  -5   2   1  263.74    2.50
  -5   2   1  260.12    1.82
  -5  -2   0  201.34    2.17
  -5   2   0  185.24    2.06
  -5   2   0  177.20    1.35
  -5  -2  -1  130.49    1.77
  -5  -2  -1  133.11    1.74
  -5   2  -1  130.38    1.71
  -5  -2  -2  120.47    1.71
  -5  -2  -2  125.16    1.66
  -5   2  -2  125.01    1.66
  -5  -2  -3   19.47    0.71
  -5  -2  -3   19.29    0.66
  -5   2  -3   20.47    0.68
  -5  -2  -4    1.11    0.21
  -5  -2  -4    0.91    0.21
  -5   2  -4    1.01    0.19
  -5  -2  -5   46.00    1.11
  -5  -2  -5   49.06    1.02
  -5   2  -5   43.70    0.99
  -5  -2  -6   37.76    1.03
  -5  -2  -6   39.87    0.91
  -5   2  -6   39.81    0.96
  -5  -2  -7  183.11    1.91
  -5   2  -7  175.10    2.05
  -5  -2  -8  221.40    2.07
  -5   2  -8  204.47    2.27
  -5   2  -9   45.43    1.11
  -5   2 -10   22.09    0.80
  -5   2 -11   16.51    0.72
   5  -3 -10    0.25    0.17
   5  -3  -9   57.14    1.39
   5  -3  -8  228.38    2.68
   5  -3  -7   51.97    1.25
  -5   3   6    9.63    0.57
   5  -3  -6    2.98    0.32
  -5   3   5   33.77    1.00
   5  -3  -5   25.87    0.84
  -5   3   4   91.33    1.58
  -5   3   3    1.19    0.23
  -5   3   3    1.68    0.21
  -5  -3   2  104.07    1.69
  -5   3   2   92.97    1.52
  -5   3   2   94.32    1.01
  -5  -3   1  122.33    1.80
  -5   3   1  115.07    1.65
  -5  -3   0  154.08    1.99
  -5   3   0  144.66    1.81
  -5  -3  -1   13.95    0.61
  -5   3  -1   14.01    0.57
  -5  -3  -2  168.18    2.04
  -5   3  -2  162.60    1.87
  -5  -3  -3   36.32    0.95
  -5   3  -3   34.47    0.86
  -5  -3  -4  695.60    4.10
  -5   3  -4  683.34    3.79
  -5  -3  -5    2.91    0.31
  -5   3  -5    2.89    0.27
  -5  -3  -6   72.45    1.33
  -5   3  -6   68.13    1.22
  -5  -3  -7   11.57    0.56
  -5   3  -7   10.41    0.50
  -5  -3  -8  196.62    2.17
  -5   3  -8  171.50    2.01
  -5  -3  -9   39.04    0.97
  -5   3  -9   38.31    0.98
  -5   3 -10    5.38    0.40
  -5   3 -11    2.01    0.30
   5  -4 -10    0.06    0.17
   5  -4  -9    2.81    0.40
   5  -4  -8    2.38    0.36
   5  -4  -7   23.59    0.86
  -5   4   6  111.56    1.86
   5  -4  -6   66.21    1.39
  -5   4   5   37.28    1.06
   5  -4  -5   23.07    0.80
  -5   4   4  241.44    2.58
   5  -4  -4  139.22    1.89
  -5   4   3   10.05    0.53
   5  -4  -3    6.63    0.42
  -5  -4   2   16.33    0.71
  -5   4   2   14.09    0.61
  -5  -4   1    0.51    0.20
  -5   4   1    0.18    0.12
  -5  -4   0  346.07    3.12
  -5   4   0  312.57    2.65
  -5  -4  -1    4.15    0.38
  -5   4  -1    3.77    0.31
  -5  -4  -2   11.53    0.58
  -5   4  -2   11.56    0.50
  -5  -4  -3  112.65    1.76
  -5   4  -3  108.53    1.48
  -5  -4  -4    2.58    0.32
  -5   4  -4    3.03    0.27
  -5  -4  -5   65.88    1.35
  -5   4  -5   62.12    1.12
  -5  -4  -6    1.18    0.26
  -5   4  -6    0.88    0.18
  -5  -4  -7    1.02    0.25
  -5   4  -7    0.66    0.16
  -5  -4  -8  238.82    2.57
  -5   4  -8  207.98    2.12
  -5  -4  -9    6.70    0.48
  -5   4  -9    6.39    0.40
  -5  -4 -10   94.69    1.62
  -5   4 -10   87.14    1.46
   5  -5 -10    0.45    0.22
   5  -5  -9   11.27    0.66
   5  -5  -8   17.84    0.80
   5  -5  -7   85.65    1.65
  -5   5   6   63.17    1.42
   5  -5  -6   44.18    1.16
  -5   5   5   13.86    0.66
   5  -5  -5    8.97    0.53
  -5   5   4    7.12    0.48
   5  -5  -4    4.09    0.37
  -5  -5   3  429.05    3.71
  -5   5   3  367.37    3.12
   5  -5  -3  205.27    2.24
  -5  -5   2   69.28    1.48
  -5   5   2   59.13    1.22
  -5  -5   1  179.90    2.36
  -5   5   1  151.39    1.89
  -5  -5   0   50.17    1.24
  -5   5   0   45.24    1.01
  -5  -5  -1   76.43    1.53
  -5   5  -1   75.99    1.27
  -5  -5  -2    7.84    0.52
  -5   5  -2    8.40    0.43
  -5  -5  -3  200.97    2.46
  -5   5  -3  203.50    1.99
  -5  -5  -4  170.21    2.27
  -5   5  -4  167.65    1.78
  -5  -5  -5  106.36    1.81
  -5   5  -5   97.42    1.34
  -5  -5  -6    8.79    0.55
  -5   5  -6    8.40    0.41
  -5  -5  -7    0.65    0.24
  -5   5  -7    0.30    0.13
  -5  -5  -8    0.08    0.18
  -5   5  -8    0.09    0.10
  -5  -5  -9  199.26    2.50
  -5   5  -9  178.13    1.91
  -5  -5 -10    8.00    0.55
   5  -6  -9    1.12    0.30
   5  -6  -8    9.26    0.60
  -5   6   7   49.56    1.32
   5  -6  -7   34.87    1.08
  -5   6   6  118.72    1.97
   5  -6  -6   82.50    1.59
  -5   6   5   51.28    1.26
   5  -6  -5   40.09    1.08
  -5   6   4  128.62    1.92
  -5  -6   3    0.51    0.22
  -5   6   3    0.22    0.15
  -5  -6   2    0.37    0.21
  -5   6   2    1.47    0.25
  -5  -6   1   22.73    0.89
  -5   6   1   21.18    0.72
  -5  -6   0   31.75    1.04
  -5   6   0   29.20    0.81
  -5  -6  -1   50.34    1.29
  -5   6  -1   46.64    0.99
  -5  -6  -2  157.85    2.27
  -5   6  -2  147.34    1.70
  -5  -6  -3  100.65    1.82
  -5   6  -3   95.22    1.32
  -5  -6  -4   70.33    1.53
  -5   6  -4   66.88    1.08
  -5  -6  -5  220.95    2.72
  -5   6  -5  205.38    1.85
  -5  -6  -6   76.61    1.62
  -5   6  -6   67.10    1.05
  -5  -6  -7   21.16    0.87
  -5   6  -7   18.05    0.55
  -5  -6  -8   11.21    0.66
  -5   6  -8    9.00    0.40
  -5  -6  -9    2.86    0.43
   5  -7  -8   53.57    1.39
  -5   7   7   14.52    0.74
   5  -7  -7    9.67    0.61
  -5   7   6  127.85    2.06
  -5   7   5   46.46    1.21
  -5  -7   4   53.84    1.42
  -5   7   4   45.22    1.16
  -5  -7   3   39.38    1.21
  -5   7   3   33.03    0.96
  -5  -7   2  562.88    4.46
  -5   7   2  470.86    3.46
  -5  -7   1   16.19    0.79
  -5   7   1   14.97    0.61
  -5  -7   0    1.37    0.32
  -5   7   0    1.63    0.25
  -5  -7  -1   13.42    0.71
  -5   7  -1   11.19    0.49
  -5  -7  -2   72.18    1.60
  -5   7  -2   72.34    1.17
  -5  -7  -3  101.94    1.90
  -5   7  -3   98.03    1.30
  -5  -7  -4   36.85    1.16
  -5   7  -4   31.59    0.71
  -5  -7  -5    0.98    0.29
  -5   7  -5    0.85    0.15
  -5  -7  -6   12.99    0.73
  -5   7  -6   12.14    0.42
  -5  -7  -7    3.40    0.42
  -5   7  -7    2.36    0.21
  -5   8   7    6.02    0.50
  -5   8   6   87.66    1.73
  -5  -8   5  115.25    2.12
  -5   8   5   88.28    1.68
  -5  -8   4   11.21    0.70
  -5   8   4    8.57    0.53
  -5  -8   3   75.11    1.69
  -5   8   3   57.95    1.27
  -5  -8   2   14.98    0.78
  -5   8   2   11.97    0.57
  -5  -8   1  107.91    2.01
  -5   8   1   89.79    1.46
  -5  -8   0   58.54    1.49
  -5   8   0   51.65    1.06
  -5  -8  -1    2.20    0.39
  -5   8  -1    1.59    0.23
  -5  -8  -2  129.98    2.21
  -5   8  -2  124.02    1.48
  -5  -8  -3    0.25    0.23
  -5   8  -3    0.37    0.12
  -5  -8  -4   29.96    1.09
  -5   8  -4   27.69    0.62
  -5  -8  -5    4.90    0.50
  -5   8  -5    4.02    0.24
  -5   8  -6   56.01    0.76
  -5  -9   4    5.51    0.54
  -5  -9   3    8.31    0.63
  -5   9   3    7.58    0.49
  -5  -9   2   17.38    0.86
  -5   9   2   14.24    0.62
  -5  -9   1   66.14    1.62
  -5   9   1   56.93    1.16
  -5  -9   0    1.98    0.39
  -5   9   0    1.77    0.25
  -5  -9  -1    0.40    0.25
  -5   9  -1    0.22    0.13
  -5  -9  -2    0.27    0.24
  -5   9  -2    0.20    0.12
  -5  -9  -3  338.18    3.68
  -5   9  -3  310.22    2.02
  -6   0   4  304.76    2.86
  -6   0   3    0.27    0.18
  -6   0   2  143.38    1.84
  -6   0   1    0.06    0.15
  -6   0   0  348.54    3.20
  -6   0   0  344.20    2.63
  -6   0  -1    0.06    0.12
  -6   0  -1    0.03    0.12
  -6   0  -2    0.62    0.19
  -6   0  -2    1.79    0.25
  -6   0  -3    0.19    0.14
  -6   0  -3    0.13    0.12
  -6   0  -4   15.11    0.69
  -6   0  -5    0.16    0.14
  -6   0  -6    1.25    0.26
  -6   0  -7    0.08    0.13
  -6   0  -8  151.32    2.25
  -6   0  -9    0.19    0.16
  -6   0 -10   26.38    0.99
  -6   1   4   64.47    1.26
  -6  -1   3  308.26    2.93
  -6   1   3  299.66    2.57
  -6  -1   2    4.45    0.39
  -6   1   2    4.32    0.40
  -6   1   2    4.48    0.35
  -6  -1   1   86.17    1.48
  -6   1   1   85.79    1.60
  -6   1   1   83.50    1.23
  -6  -1   0  129.88    1.76
  -6   1   0  131.20    1.96
  -6   1   0  125.00    1.41
  -6  -1  -1    1.69    0.27
  -6   1  -1    1.58    0.28
  -6  -1  -2   15.96    0.60
  -6   1  -2   16.62    0.71
  -6  -1  -3  299.19    3.00
  -6  -1  -3  292.16    2.41
  -6   1  -3  298.59    2.92
  -6  -1  -4   64.89    1.42
  -6  -1  -4   67.23    1.13
  -6   1  -4   64.17    1.37
  -6  -1  -5   93.46    1.72
  -6   1  -5   94.28    1.67
  -6  -1  -6    7.30    0.51
  -6   1  -6    7.29    0.49
  -6   1  -7    1.60    0.29
  -6   1  -8   67.80    1.48
  -6   1  -9  105.81    1.88
  -6   1 -10    1.47    0.30
  -6   2   4   39.13    0.91
  -6  -2   3   46.36    1.20
  -6   2   3   44.91    1.20
  -6   2   3   44.52    0.91
  -6  -2   2   11.87    0.62
  -6   2   2   12.81    0.64
  -6   2   2   11.82    0.46
  -6  -2   1  166.23    2.16
  -6   2   1  163.41    2.20
  -6  -2   0   62.68    1.31
  -6   2   0   60.29    1.32
  -6  -2  -1  262.89    2.60
  -6   2  -1  255.60    2.69
  -6  -2  -2  150.09    1.93
  -6   2  -2  152.59    2.07
  -6  -2  -3    0.94    0.24
  -6   2  -3    0.61    0.19
  -6  -2  -4   98.68    1.51
  -6   2  -4   94.59    1.63
  -6  -2  -5  324.89    2.68
  -6   2  -5  320.49    3.00
  -6  -2  -6   17.56    0.63
  -6   2  -6   17.45    0.72
  -6   2  -7  173.45    2.26
  -6   2  -8   64.91    1.41
  -6   2  -9   13.29    0.66
  -6  -3   4    0.44    0.24
  -6   3   4    1.30    0.28
  -6  -3   3  179.60    2.43
  -6   3   3  173.17    2.33
  -6  -3   2  188.23    2.44
  -6   3   2  194.12    2.43
  -6  -3   1    9.47    0.57
  -6   3   1   10.08    0.57
  -6  -3   0   18.94    0.77
  -6   3   0   18.11    0.73
  -6  -3  -1    0.29    0.19
  -6   3  -1    0.46    0.18
  -6  -3  -2    9.42    0.54
  -6   3  -2    0.82    0.21
  -6  -3  -3   55.94    1.25
  -6   3  -3   55.38    1.23
  -6  -3  -4    0.52    0.22
  -6   3  -4    0.18    0.13
  -6  -3  -5   25.62    0.84
  -6   3  -5   26.23    0.85
  -6  -3  -6  178.15    2.14
  -6   3  -6  165.69    2.12
  -6  -3  -7   13.34    0.61
  -6   3  -7   10.81    0.57
  -6   3  -8   17.53    0.72
  -6   3  -9    6.73    0.47
  -6   4   5   71.49    1.57
  -6  -4   4    0.27    0.22
  -6   4   4    0.48    0.20
  -6  -4   3   38.72    1.18
  -6   4   3   36.01    1.08
  -6  -4   2    0.35    0.22
  -6   4   2    1.32    0.27
  -6  -4   1  367.49    3.49
  -6   4   1  323.91    3.07
  -6  -4   0   23.00    0.89
  -6   4   0   21.54    0.79
  -6  -4  -1  126.26    2.01
  -6   4  -1  120.94    1.82
  -6  -4  -2  375.99    3.42
  -6   4  -2  378.04    3.17
  -6  -4  -3    8.69    0.56
  -6   4  -3    6.85    0.44
  -6  -4  -4   84.37    1.61
  -6   4  -4   82.94    1.46
  -6  -4  -5    0.14    0.19
  -6   4  -5    0.35    0.15
  -6  -4  -6   77.99    1.53
  -6   4  -6   68.02    1.32
  -6  -4  -7  143.31    2.04
  -6   4  -7  127.90    1.82
  -6  -4  -8    6.33    0.49
  -6   4  -8    5.43    0.40
  -6  -5   5   10.14    0.68
  -6   5   5    8.89    0.59
  -6  -5   4    6.20    0.54
  -6   5   4    5.51    0.46
  -6  -5   3   65.11    1.56
  -6   5   3   56.06    1.34
  -6  -5   2   85.57    1.77
  -6   5   2   74.52    1.51
  -6  -5   1  169.25    2.45
  -6   5   1  151.40    2.10
  -6  -5   0   70.18    1.57
  -6   5   0   70.76    1.41
  -6  -5  -1    1.42    0.31
  -6   5  -1    1.33    0.25
  -6  -5  -2    6.90    0.53
  -6   5  -2    6.12    0.42
  -6  -5  -3  352.88    3.45
  -6   5  -3  345.98    2.94
  -6  -5  -4   13.26    0.70
  -6   5  -4   11.95    0.55
  -6  -5  -5   87.14    1.71
  -6   5  -5   77.67    1.36
  -6  -5  -6    8.73    0.59
  -6   5  -6    7.61    0.44
  -6  -5  -7   49.19    1.28
  -6   5  -7   41.68    1.00
   6  -6  -7   13.44    0.73
  -6   6   6    9.28    0.62
   6  -6  -6    8.35    0.57
  -6  -6   5   74.67    1.75
  -6   6   5   63.46    1.50
  -6  -6   4  159.56    2.52
  -6   6   4  135.92    2.13
  -6  -6   3   87.89    1.86
  -6   6   3   76.59    1.56
  -6  -6   2   50.00    1.40
  -6   6   2   43.69    1.16
  -6  -6   1  196.83    2.73
  -6   6   1  188.83    2.33
  -6  -6   0    2.68    0.42
  -6   6   0    2.49    0.31
  -6  -6  -1   48.61    1.36
  -6   6  -1   49.29    1.14
  -6  -6  -2   17.24    0.82
  -6   6  -2   17.29    0.67
  -6  -6  -3    3.75    0.43
  -6   6  -3    3.27    0.31
  -6  -6  -4   10.51    0.66
  -6   6  -4   10.20    0.50
  -6  -6  -5    0.42    0.24
  -6   6  -5    0.44    0.15
  -6  -6  -6    0.42    0.25
  -6   7   5   26.30    0.98
  -6  -7   4   14.41    0.82
  -6   7   4   12.07    0.66
  -6  -7   3   51.26    1.46
  -6   7   3   41.72    1.16
  -6  -7   2   30.49    1.13
  -6   7   2   26.23    0.90
  -6  -7   1    5.98    0.55
  -6   7   1    4.78    0.40
  -6  -7   0   95.60    1.95
  -6   7   0   89.33    1.55
  -6  -7  -1    1.11    0.32
  -6   7  -1    1.12    0.23
  -6  -7  -2   19.47    0.90
  -6   7  -2   18.96    0.68
  -6  -7  -3   -0.02    0.20
  -6   7  -3    0.23    0.13
  -7   0   6  110.54    1.88
  -7   0   5    0.19    0.21
  -7   0   4   60.51    1.32
  -7   0   3    0.31    0.20
  -7   0   2   37.52    0.98
  -7   0   1    0.05    0.17
  -7   1   7    0.23    0.23
  -7  -1   6  121.82    2.06
  -7   1   6  123.33    1.87
  -7  -1   5    3.29    0.44
  -7   1   5    2.85    0.35
  -7  -1   4  161.36    2.25
  -7   1   4  158.10    1.96
  -7  -1   3   47.28    1.21
  -7  -1   2  183.23    2.28
  -7  -1   1    1.83    0.32
  -7  -1   0    3.21    0.35
  -7  -1  -1   24.27    0.78
  -7   1  -1   26.68    0.98
  -7   1  -2   19.79    0.85
  -7   1  -3   21.35    0.88
  -7   1  -4    0.05    0.15
  -7   1  -5   13.70    0.72
  -7   1  -6   78.93    1.68
  -7   1  -7   27.68    1.02
  -7  -2   6    0.21    0.24
  -7  -2   5  108.17    1.97
  -7  -2   4  254.48    2.95
  -7  -2   3   43.75    1.22
  -7  -2   2   27.71    0.96
  -7  -2   1   41.48    1.14
  -7   2   1   39.85    1.20
  -7  -2   0   51.34    1.23
  -7   2   0   46.29    1.28
  -7  -2  -1  113.05    1.77
  -7   2  -1  107.37    1.92
  -7  -2  -2   12.64    0.61
  -7   2  -2   11.12    0.64
  -7  -2  -3    7.16    0.46
  -7   2  -3    7.42    0.53
  -7   2  -4   83.20    1.68
  -7   2  -5    0.80    0.23
  -7   2  -6   18.96    0.82
  -7  -3   5    4.14    0.48
  -7  -3   4   32.72    1.12
  -7  -3   3    2.23    0.39
  -7  -3   2   82.04    1.70
  -7   3   2   74.14    1.64
  -7  -3   1    0.89    0.28
  -7   3   1    0.99    0.26
  -7  -3   0  170.28    2.35
  -7   3   0  159.06    2.34
  -7  -3  -1    9.21    0.58
  -7   3  -1    9.04    0.58
  -7  -3  -2  151.13    2.14
  -7   3  -2  151.96    2.25
  -7  -3  -3   35.88    1.04
  -7   3  -3   35.40    1.09
  -7  -3  -4  204.53    2.39
  -7   3  -4  195.32    2.52
  -7  -3  -5   27.14    0.87
  -7   3  -5   26.21    0.94
  -7  -4   4  383.34    3.87
  -7  -4   3   15.16    0.80
  -7   4   3   14.13    0.75
  -7  -4   2   45.91    1.33
  -7   4   2   41.68    1.23
  -7  -4   1   26.87    1.01
  -7   4   1   26.22    0.97
  -7  -4   0  160.73    2.39
  -7   4   0  152.96    2.27
  -7  -4  -1   72.95    1.60
  -7   4  -1   68.15    1.50
  -7  -4  -2   12.70    0.69
  -7   4  -2   11.47    0.63
  -7  -4  -3    7.84    0.56
  -7   4  -3    7.88    0.53
  -7  -4  -4   13.52    0.70
  -7   4  -4   13.23    0.66
  -7  -4  -5   47.41    1.23
  -7   5   4    0.38    0.22
  -7   5   3  162.18    2.43
  -7   5   2    0.22    0.19
  -7  -5   1    0.78    0.29
  -7   5   1    0.67    0.24
  -7  -5   0   87.83    1.84
  -7   5   0   81.20    1.64
  -7  -5  -1   11.94    0.71
  -7   5  -1   11.36    0.63
  -7  -5  -2    0.70    0.28
  -7   5  -2    1.20    0.26
   0   0   0    0.00    0.00
;
_shelx_hkl_checksum              66036
loop_
_space_group_symop_operation_xyz
'x, y, z'
'-x, y+1/2, -z+1/2'
'-x, -y, -z'
'x, -y-1/2, z-1/2'
loop_
_atom_site_label
_atom_site_type_symbol
_atom_site_fract_x
_atom_site_fract_y
_atom_site_fract_z
_atom_site_U_iso_or_equiv
_atom_site_adp_type
_atom_site_occupancy
_atom_site_site_symmetry_order
_atom_site_calc_flag
_atom_site_refinement_flags_posn
Ca1 Ca 0.00846(5) 0.60623(3) 0.16391(3) 0.00881(15) Uani 1 1 d .
Si1 Si 0.46900(7) 0.26614(5) 0.08434(4) 0.00662(16) Uani 1 1 d .
B1 B 0.5672(3) 0.08907(18) -0.15872(15) 0.0066(3) Uani 1 1 d .
O1 O 0.2402(2) 0.40085(13) 0.03734(12) 0.0099(2) Uani 1 1 d .
O2 O 0.6699(2) 0.19908(13) -0.04267(10) 0.0084(2) Uani 1 1 d .
O3 O 0.6754(2) 0.33464(14) 0.21028(10) 0.0088(2) Uani 1 1 d .
O4 O 0.3157(2) 0.08793(13) 0.14582(11) 0.0094(2) Uani 1 1 d .
O5 O 0.2584(2) 0.08639(14) -0.16364(12) 0.0100(2) Uani 1 1 d D
H H 0.188(6) 0.050(4) -0.082(2) 0.023(7) Uiso 1 1 d D
loop_
_atom_site_aniso_label
_atom_site_aniso_U_11
_atom_site_aniso_U_22
_atom_site_aniso_U_33
_atom_site_aniso_U_23
_atom_site_aniso_U_13
_atom_site_aniso_U_12
Ca1 0.0057(2) 0.0101(2) 0.0106(2) 0.00008(6) -0.00110(12) 0.00040(6)
Si1 0.0042(2) 0.0072(2) 0.0085(2) -0.00022(10) -0.00131(15) 0.00056(10)
B1 0.0028(6) 0.0091(5) 0.0079(5) -0.0002(4) -0.0004(4) -0.0002(4)
O1 0.0076(4) 0.0092(5) 0.0128(4) -0.0006(3) -0.0031(3) 0.0028(3)
O2 0.0057(4) 0.0101(4) 0.0094(4) -0.0021(3) -0.0001(3) -0.0012(3)
O3 0.0061(4) 0.0116(4) 0.0087(4) -0.0014(3) -0.0020(3) -0.0004(3)
O4 0.0069(4) 0.0079(4) 0.0135(5) 0.0009(3) 0.0020(4) 0.0007(3)
O5 0.0045(4) 0.0129(4) 0.0125(5) 0.0002(3) -0.0013(3) -0.0004(3)
loop_
_atom_type_symbol
_atom_type_description
_atom_type_scat_dispersion_real
_atom_type_scat_dispersion_imag
_atom_type_scat_source
O O 0.0106 0.0060 'International Tables Vol C Tables 4.2.6.8 and 6.1.1.4'
Si Si 0.0817 0.0704 'International Tables Vol C Tables 4.2.6.8 and 6.1.1.4'
B B 0.0013 0.0007 'International Tables Vol C Tables 4.2.6.8 and 6.1.1.4'
Ca Ca 0.2262 0.3064 'International Tables Vol C Tables 4.2.6.8 and 6.1.1.4'
H H 0.0000 0.0000 'International Tables Vol C Tables 4.2.6.8 and 6.1.1.4'
loop_
_geom_angle_atom_site_label_1
_geom_angle_atom_site_label_2
_geom_angle_atom_site_label_3
_geom_angle
_geom_angle_site_symmetry_1
_geom_angle_site_symmetry_3
O1 Ca1 O1 77.74(4) 3_565 .
O1 Ca1 O4 107.56(4) 3_565 2
O1 Ca1 O4 133.37(4) . 2
O1 Ca1 O2 86.71(4) 3_565 3_665
O1 Ca1 O2 81.10(4) . 3_665
O4 Ca1 O2 144.16(4) 2 3_665
O1 Ca1 O5 142.87(4) 3_565 4_566
O1 Ca1 O5 73.62(4) . 4_566
O4 Ca1 O5 77.17(4) 2 4_566
O2 Ca1 O5 111.25(4) 3_665 4_566
O1 Ca1 O3 135.82(4) 3_565 2_655
O1 Ca1 O3 114.62(4) . 2_655
O4 Ca1 O3 93.83(4) 2 2_655
O2 Ca1 O3 56.37(3) 3_665 2_655
O5 Ca1 O3 78.63(4) 4_566 2_655
O1 Ca1 O3 78.84(4) 3_565 1_455
O1 Ca1 O3 81.74(4) . 1_455
O4 Ca1 O3 55.50(3) 2 1_455
O2 Ca1 O3 159.55(3) 3_665 1_455
O5 Ca1 O3 74.13(3) 4_566 1_455
O3 Ca1 O3 142.536(18) 2_655 1_455
O1 Ca1 O5 76.50(3) 3_565 3_565
O1 Ca1 O5 146.97(4) . 3_565
O4 Ca1 O5 74.74(4) 2 3_565
O2 Ca1 O5 77.14(4) 3_665 3_565
O5 Ca1 O5 137.76(2) 4_566 3_565
O3 Ca1 O5 72.51(3) 2_655 3_565
O3 Ca1 O5 112.81(4) 1_455 3_565
O1 Ca1 B1 110.59(4) 3_565 3_665
O1 Ca1 B1 100.23(4) . 3_665
O4 Ca1 B1 119.11(4) 2 3_665
O2 Ca1 B1 27.97(4) 3_665 3_665
O5 Ca1 B1 97.47(4) 4_566 3_665
O3 Ca1 B1 28.59(4) 2_655 3_665
O3 Ca1 B1 170.57(3) 1_455 3_665
O5 Ca1 B1 70.40(4) 3_565 3_665
O1 Ca1 B1 95.44(4) 3_565 4_466
O1 Ca1 B1 107.78(4) . 4_466
O4 Ca1 B1 27.18(4) 2 4_466
O2 Ca1 B1 171.11(4) 3_665 4_466
O5 Ca1 B1 71.88(4) 4_566 4_466
O3 Ca1 B1 117.67(4) 2_655 4_466
O3 Ca1 B1 28.43(3) 1_455 4_466
O5 Ca1 B1 94.95(4) 3_565 4_466
B1 Ca1 B1 145.21(3) 3_665 4_466
O1 Ca1 Si1 21.41(3) 3_565 3_565
O1 Ca1 Si1 98.70(3) . 3_565
O4 Ca1 Si1 96.14(3) 2 3_565
O2 Ca1 Si1 85.64(3) 3_665 3_565
O5 Ca1 Si1 159.48(3) 4_566 3_565
O3 Ca1 Si1 121.50(3) 2_655 3_565
O3 Ca1 Si1 86.05(2) 1_455 3_565
O5 Ca1 Si1 55.38(2) 3_565 3_565
B1 Ca1 Si1 102.67(3) 3_665 3_565
B1 Ca1 Si1 93.22(3) 4_466 3_565
O1 Ca1 Si1 97.49(3) 3_565 .
O1 Ca1 Si1 20.21(3) . .
O4 Ca1 Si1 122.52(3) 2 .
O2 Ca1 Si1 86.40(3) 3_665 .
O5 Ca1 Si1 53.88(3) 4_566 .
O3 Ca1 Si1 102.82(3) 2_655 .
O3 Ca1 Si1 81.28(3) 1_455 .
O5 Ca1 Si1 162.69(3) 3_565 .
B1 Ca1 Si1 97.34(3) 3_665 .
B1 Ca1 Si1 101.83(3) 4_466 .
Si1 Ca1 Si1 118.689(14) 3_565 .
O1 Si1 O2 113.87(6) . .
O1 Si1 O3 115.32(6) . .
O2 Si1 O3 106.66(5) . .
O1 Si1 O4 108.73(6) . .
O2 Si1 O4 106.15(6) . .
O3 Si1 O4 105.42(6) . .
O1 Si1 Ca1 31.89(4) . 3_565
O2 Si1 Ca1 88.16(4) . 3_565
O3 Si1 Ca1 145.00(4) . 3_565
O4 Si1 Ca1 100.29(4) . 3_565
O1 Si1 Ca1 30.03(4) . .
O2 Si1 Ca1 140.32(4) . .
O3 Si1 Ca1 89.37(4) . .
O4 Si1 Ca1 103.95(4) . .
Ca1 Si1 Ca1 61.311(14) 3_565 .
O1 Si1 Ca1 87.79(5) . 2_545
O2 Si1 Ca1 141.67(4) . 2_545
O3 Si1 Ca1 89.96(4) . 2_545
O4 Si1 Ca1 35.52(4) . 2_545
Ca1 Si1 Ca1 97.675(19) 3_565 2_545
Ca1 Si1 Ca1 71.913(14) . 2_545
O1 Si1 Ca1 97.31(5) . 3_665
O2 Si1 Ca1 34.56(4) . 3_665
O3 Si1 Ca1 88.80(4) . 3_665
O4 Si1 Ca1 140.42(4) . 3_665
Ca1 Si1 Ca1 86.208(18) 3_565 3_665
Ca1 Si1 Ca1 113.123(16) . 3_665
Ca1 Si1 Ca1 174.795(13) 2_545 3_665
O4 B1 O2 109.09(10) 3_655 .
O4 B1 O3 107.09(11) 3_655 4_565
O2 B1 O3 107.57(10) . 4_565
O4 B1 O5 112.07(11) 3_655 .
O2 B1 O5 111.34(11) . .
O3 B1 O5 109.49(10) 4_565 .
O4 B1 Ca1 115.69(8) 3_655 3_665
O2 B1 Ca1 50.84(6) . 3_665
O3 B1 Ca1 57.19(6) 4_565 3_665
O5 B1 Ca1 132.22(8) . 3_665
O4 B1 Ca1 48.95(6) 3_655 4_665
O2 B1 Ca1 117.07(8) . 4_665
O3 B1 Ca1 58.45(6) 4_565 4_665
O5 B1 Ca1 131.51(9) . 4_665
Ca1 B1 Ca1 83.86(4) 3_665 4_665
Si1 O1 Ca1 126.70(6) . 3_565
Si1 O1 Ca1 129.75(7) . .
Ca1 O1 Ca1 102.26(4) 3_565 .
B1 O2 Si1 122.61(9) . .
B1 O2 Ca1 101.19(8) . 3_665
Si1 O2 Ca1 123.01(5) . 3_665
B1 O3 Si1 122.21(8) 4_566 .
B1 O3 Ca1 94.22(7) 4_566 2_645
Si1 O3 Ca1 118.80(5) . 2_645
B1 O3 Ca1 93.12(7) 4_566 1_655
Si1 O3 Ca1 119.11(5) . 1_655
Ca1 O3 Ca1 103.97(4) 2_645 1_655
B1 O4 Si1 127.54(9) 3_655 .
B1 O4 Ca1 103.87(8) 3_655 2_545
Si1 O4 Ca1 121.05(6) . 2_545
B1 O5 Ca1 120.37(8) . 4_565
B1 O5 Ca1 118.09(8) . 3_565
Ca1 O5 Ca1 106.15(4) 4_565 3_565
B1 O5 H 111(2) . .
Ca1 O5 H 103(2) 4_565 .
Ca1 O5 H 95(2) 3_565 .
loop_
_geom_bond_atom_site_label_1
_geom_bond_atom_site_label_2
_geom_bond_distance
_geom_bond_site_symmetry_2
Ca1 O1 2.2768(12) 3_565
Ca1 O1 2.2788(11) .
Ca1 O4 2.4198(12) 2
Ca1 O2 2.4472(11) 3_665
Ca1 O5 2.5198(11) 4_566
Ca1 O3 2.6094(11) 2_655
Ca1 O3 2.6586(11) 1_455
Ca1 O5 2.6709(12) 3_565
Ca1 B1 3.0961(15) 3_665
Ca1 B1 3.1152(15) 4_466
Ca1 Si1 3.4555(7) 3_565
Ca1 Si1 3.5005(7) .
Si1 O1 1.5732(11) .
Si1 O2 1.6460(11) .
Si1 O3 1.6516(10) .
Si1 O4 1.6558(11) .
Si1 Ca1 3.4555(7) 3_565
Si1 Ca1 3.5678(7) 2_545
Si1 Ca1 3.6176(7) 3_665
B1 O4 1.4659(17) 3_655
B1 O2 1.4803(17) .
B1 O3 1.4854(18) 4_565
B1 O5 1.4936(19) .
B1 Ca1 3.0962(15) 3_665
B1 Ca1 3.1152(15) 4_665
O1 Ca1 2.2768(12) 3_565
O2 Ca1 2.4472(11) 3_665
O3 B1 1.4854(18) 4_566
O3 Ca1 2.6094(11) 2_645
O3 Ca1 2.6586(11) 1_655
O4 B1 1.4659(17) 3_655
O4 Ca1 2.4197(12) 2_545
O5 Ca1 2.5198(11) 4_565
O5 Ca1 2.6709(12) 3_565
O5 H 0.900(18) .
