#------------------------------------------------------------------------------
#$Date: 2019-11-23 20:46:47 +0200 (Sat, 23 Nov 2019) $
#$Revision: 234919 $
#$URL: file:///home/coder/svn-repositories/cod/cif/4/34/96/4349615.cif $
#------------------------------------------------------------------------------
#
# This file is available in the Crystallography Open Database (COD),
# http://www.crystallography.net/
#
# All data on this site have been placed in the public domain by the
# contributors.
#
data_4349615
loop_
_publ_author_name
'Lovitt, June I.'
'Hawes, Chris S.'
'Lynes, Amy D.'
'Haffner, Benjamin'
'M\"obius, Matthias E.'
'Gunnlaugsson, Thorfinnur'
_publ_section_title
;
 Coordination chemistry of N-picolyl-1,8-naphthalimides: colourful low
 molecular weight metallo-gelators and unique chelation behaviours
;
_journal_issue                   2
_journal_name_full               'Inorganic Chemistry Frontiers'
_journal_page_first              296
_journal_paper_doi               10.1039/C6QI00498A
_journal_volume                  4
_journal_year                    2017
_chemical_formula_moiety         'C18 H12 Cl2 N2 O2 Zn'
_chemical_formula_sum            'C18 H12 Cl2 N2 O2 Zn'
_chemical_formula_weight         424.57
_space_group_crystal_system      triclinic
_space_group_IT_number           2
_space_group_name_Hall           '-P 1'
_space_group_name_H-M_alt        'P -1'
_atom_sites_solution_hydrogens   geom
_atom_sites_solution_primary     direct
_audit_creation_date             2016-09-13
_audit_creation_method
;
Olex2 1.2
(compiled 2016.09.09 svn.r3337 for OlexSys, GUI svn.r5227)
;
_audit_update_record
;
2016-10-26 deposited with the CCDC.
2016-12-09 downloaded from the CCDC.
;
_cell_angle_alpha                94.9430(10)
_cell_angle_beta                 102.0330(10)
_cell_angle_gamma                113.9780(10)
_cell_formula_units_Z            2
_cell_length_a                   7.3139(2)
_cell_length_b                   8.5996(3)
_cell_length_c                   14.4546(5)
_cell_measurement_reflns_used    4082
_cell_measurement_temperature    100(2)
_cell_measurement_theta_max      28.328
_cell_measurement_theta_min      2.77
_cell_volume                     797.44(5)
_computing_cell_refinement       'SAINT V8.35A (2016)'
_computing_data_reduction        'SAINT V8.35A (2016)'
_computing_molecular_graphics    'Olex2 (Dolomanov et al., 2009)'
_computing_publication_material  'Olex2 (Dolomanov et al., 2009)'
_computing_structure_refinement  'ShelXL (Sheldrick, 2015)'
_computing_structure_solution    'XT (Sheldrick, 2015)'
_diffrn_ambient_temperature      100.0
_diffrn_detector_area_resol_mean 8
_diffrn_measured_fraction_theta_full 0.998
_diffrn_measured_fraction_theta_max 0.996
_diffrn_measurement_device_type  'Bruker APEX-II CCD'
_diffrn_measurement_method       '\w and \f scans'
_diffrn_radiation_monochromator  graphite
_diffrn_radiation_type           MoK\a
_diffrn_radiation_wavelength     0.71073
_diffrn_reflns_av_R_equivalents  0.0141
_diffrn_reflns_av_unetI/netI     0.0229
_diffrn_reflns_Laue_measured_fraction_full 0.998
_diffrn_reflns_Laue_measured_fraction_max 0.996
_diffrn_reflns_limit_h_max       9
_diffrn_reflns_limit_h_min       -9
_diffrn_reflns_limit_k_max       4
_diffrn_reflns_limit_k_min       -11
_diffrn_reflns_limit_l_max       18
_diffrn_reflns_limit_l_min       -19
_diffrn_reflns_number            6138
_diffrn_reflns_point_group_measured_fraction_full 0.998
_diffrn_reflns_point_group_measured_fraction_max 0.996
_diffrn_reflns_theta_full        26.000
_diffrn_reflns_theta_max         28.347
_diffrn_reflns_theta_min         2.641
_diffrn_source                   'sealed tube'
_diffrn_standards_number         0
_exptl_absorpt_coefficient_mu    1.890
_exptl_absorpt_correction_T_max  0.7457
_exptl_absorpt_correction_T_min  0.6124
_exptl_absorpt_correction_type   multi-scan
_exptl_absorpt_process_details
;
SADABS-2014/5 (Bruker,2014/5) was used for absorption correction.
wR2(int) was 0.0487 before and 0.0216 after correction.
The Ratio of minimum to maximum transmission is 0.8212.
The \l/2 correction factor is 0.00150.
;
_exptl_crystal_colour            colourless
_exptl_crystal_colour_primary    colourless
_exptl_crystal_density_diffrn    1.768
_exptl_crystal_description       block
_exptl_crystal_F_000             428
_exptl_crystal_size_max          0.31
_exptl_crystal_size_mid          0.11
_exptl_crystal_size_min          0.05
_refine_diff_density_max         0.430
_refine_diff_density_min         -0.353
_refine_diff_density_rms         0.061
_refine_ls_extinction_method     none
_refine_ls_goodness_of_fit_ref   1.063
_refine_ls_hydrogen_treatment    constr
_refine_ls_matrix_type           full
_refine_ls_number_parameters     226
_refine_ls_number_reflns         3975
_refine_ls_number_restraints     0
_refine_ls_restrained_S_all      1.063
_refine_ls_R_factor_all          0.0250
_refine_ls_R_factor_gt           0.0214
_refine_ls_shift/su_max          0.001
_refine_ls_shift/su_mean         0.000
_refine_ls_structure_factor_coef Fsqd
_refine_ls_weighting_details
'w=1/[\s^2^(Fo^2^)+(0.0220P)^2^+0.4650P] where P=(Fo^2^+2Fc^2^)/3'
_refine_ls_weighting_scheme      calc
_refine_ls_wR_factor_gt          0.0530
_refine_ls_wR_factor_ref         0.0546
_reflns_Friedel_coverage         0.000
_reflns_number_gt                3633
_reflns_number_total             3975
_reflns_threshold_expression     'I > 2\s(I)'
_cod_data_source_file            c6qi00498a2.cif
_cod_data_source_block           5
_cod_database_code               4349615
_shelx_space_group_comment
;
The symmetry employed for this shelxl refinement is uniquely defined
by the following loop, which should always be used as a source of
symmetry information in preference to the above space-group names.
They are only intended as comments.
;
_shelx_estimated_absorpt_t_max   0.911
_shelx_estimated_absorpt_t_min   0.592
_olex2_refinement_description
;
1. Fixed Uiso
 At 1.2 times of:
  All C(H) groups, All C(H,H) groups
2.a Secondary CH2 refined with riding coordinates:
 C6(H6A,H6B)
2.b Aromatic/amide H refined with riding coordinates:
 C1(H1), C2(H2), C3(H3), C4(H4), C9(H9), C10(H10), C11(H11), C13(H13),
 C14(H14), C15(H15)
;
_shelx_res_file
;
    mo_csh177_0m.res created by SHELXL-2014/7

TITL mo_csh177_0m_a.res in P-1
REM Old TITL mo_CSH177_0m in P-1 #2
REM SHELXT solution in P-1
REM R1 0.053, Rweak 0.007, Alpha 0.028, Orientation as input
REM Formula found by SHELXT: C18 N2 O2 Cl2 Zn
CELL 0.71073 7.3139 8.5996 14.4546 94.943 102.033 113.978
ZERR 2 0.0002 0.0003 0.0005 0.001 0.001 0.001
LATT 1
SFAC C H Cl N O Zn
UNIT 36 24 4 4 4 2

L.S. 4
PLAN  20
SIZE 0.05 0.11 0.31
TEMP -173.15
BOND $H
LIST 4
MORE -1
CONF
fmap 2
acta 52
OMIT -2 -3 1
OMIT 2 -1 7
REM <olex2.extras>
REM <HklSrc "%.\\mo_CSH177_0m.hkl">
REM </olex2.extras>

WGHT    0.022000    0.465000
FVAR       0.81419
ZN1   6    0.508921    0.115307    0.158071    11.00000    0.01423    0.01002 =
         0.01323    0.00234    0.00497    0.00554
CL1   3    0.751761    0.090709    0.099353    11.00000    0.01716    0.02154 =
         0.01846    0.00179    0.00723    0.00988
CL2   3    0.217955   -0.098577    0.166525    11.00000    0.01783    0.01117 =
         0.01413    0.00202    0.00664    0.00365
O1    5    0.663257    0.224242    0.303684    11.00000    0.01952    0.01212 =
         0.01276    0.00073    0.00261    0.00740
O2    5    0.814759    0.797930    0.352382    11.00000    0.02264    0.01219 =
         0.01729    0.00430    0.00522    0.00618
N1    4    0.440172    0.316085    0.123978    11.00000    0.01357    0.01184 =
         0.01075    0.00215    0.00495    0.00523
N2    4    0.756461    0.514715    0.330182    11.00000    0.01161    0.01127 =
         0.01034    0.00264    0.00305    0.00416
C1    1    0.256599    0.277373    0.061244    11.00000    0.01351    0.01450 =
         0.01301    0.00044    0.00387    0.00524
AFIX  43
H1    2    0.161957    0.158978    0.037186    11.00000   -1.20000
AFIX   0
C2    1    0.200654    0.404398    0.030442    11.00000    0.01596    0.02055 =
         0.01322    0.00192    0.00361    0.01034
AFIX  43
H2    2    0.069809    0.373284   -0.013709    11.00000   -1.20000
AFIX   0
C3    1    0.338907    0.577436    0.065181    11.00000    0.02158    0.01745 =
         0.01390    0.00402    0.00648    0.01337
AFIX  43
H3    2    0.305621    0.666586    0.043928    11.00000   -1.20000
AFIX   0
C4    1    0.527096    0.618423    0.131635    11.00000    0.01770    0.01211 =
         0.01261    0.00227    0.00548    0.00649
AFIX  43
H4    2    0.622771    0.735996    0.157514    11.00000   -1.20000
AFIX   0
C5    1    0.572964    0.485128    0.159543    11.00000    0.01333    0.01234 =
         0.00990    0.00264    0.00562    0.00536
C6    1    0.776393    0.523701    0.230565    11.00000    0.01260    0.01303 =
         0.01073    0.00297    0.00438    0.00453
AFIX  23
H6A   2    0.827712    0.439450    0.210504    11.00000   -1.20000
H6B   2    0.880244    0.641051    0.229504    11.00000   -1.20000
AFIX   0
C7    1    0.709586    0.358603    0.360628    11.00000    0.00886    0.01166 =
         0.01403    0.00232    0.00211    0.00421
C8    1    0.718091    0.357522    0.463045    11.00000    0.00847    0.01176 =
         0.01194    0.00182    0.00212    0.00318
C9    1    0.693850    0.208331    0.498715    11.00000    0.01128    0.01162 =
         0.01548    0.00230    0.00151    0.00293
AFIX  43
H9    2    0.674794    0.107804    0.457351    11.00000   -1.20000
AFIX   0
C10   1    0.697367    0.205180    0.596263    11.00000    0.01353    0.01577 =
         0.01637    0.00662    0.00247    0.00483
AFIX  43
H10   2    0.679951    0.102274    0.620499    11.00000   -1.20000
AFIX   0
C11   1    0.725959    0.350715    0.656654    11.00000    0.01149    0.02017 =
         0.01299    0.00517    0.00301    0.00519
AFIX  43
H11   2    0.724333    0.346086    0.721920    11.00000   -1.20000
AFIX   0
C12   1    0.757703    0.506963    0.623172    11.00000    0.00825    0.01736 =
         0.01328    0.00214    0.00271    0.00504
C13   1    0.800921    0.662914    0.684412    11.00000    0.01429    0.02179 =
         0.01307    0.00068    0.00436    0.00756
AFIX  43
H13   2    0.806184    0.663589    0.750679    11.00000   -1.20000
AFIX   0
C14   1    0.835230    0.812814    0.649216    11.00000    0.01623    0.01667 =
         0.01760   -0.00304    0.00424    0.00706
AFIX  43
H14   2    0.865720    0.916433    0.691314    11.00000   -1.20000
AFIX   0
C15   1    0.825333    0.813318    0.550910    11.00000    0.01408    0.01370 =
         0.01827    0.00164    0.00464    0.00614
AFIX  43
H15   2    0.846456    0.916894    0.526822    11.00000   -1.20000
AFIX   0
C16   1    0.785239    0.664744    0.489292    11.00000    0.00859    0.01254 =
         0.01292    0.00132    0.00197    0.00370
C17   1    0.786478    0.669932    0.387613    11.00000    0.00991    0.01083 =
         0.01420    0.00110    0.00238    0.00296
C18   1    0.752582    0.509650    0.524316    11.00000    0.00733    0.01284 =
         0.01270    0.00149    0.00231    0.00358
HKLF 4

REM  mo_csh177_0m_a.res in P-1
REM R1 =  0.0214 for    3633 Fo > 4sig(Fo)  and  0.0250 for all    3975 data
REM    226 parameters refined using      0 restraints

END

WGHT      0.0221      0.4723

REM Highest difference peak  0.430,  deepest hole -0.353,  1-sigma level  0.061
Q1    1   0.2335  0.3460  0.0452  11.00000  0.05    0.43
Q2    1   0.7137  0.3646  0.4147  11.00000  0.05    0.43
Q3    1   0.7983  0.6765  0.4424  11.00000  0.05    0.40
Q4    1   0.7872  0.5830  0.5103  11.00000  0.05    0.40
Q5    1   0.7193  0.4325  0.4904  11.00000  0.05    0.37
Q6    1   0.7529  0.5037  0.5707  11.00000  0.05    0.37
Q7    1   0.7779  0.5845  0.6506  11.00000  0.05    0.36
Q8    1   0.7638  0.5206  0.2824  11.00000  0.05    0.36
Q9    1   0.2647  0.4853  0.0550  11.00000  0.05    0.35
Q10   1   0.8195  0.7372  0.5256  11.00000  0.05    0.35
Q11   1   0.5407  0.5445  0.1388  11.00000  0.05    0.35
Q12   1   0.4420  0.5968  0.0988  11.00000  0.05    0.34
Q13   1   0.8160  0.8052  0.5979  11.00000  0.05    0.34
Q14   1   0.6909  0.2863  0.4763  11.00000  0.05    0.34
Q15   1   0.7398  0.4329  0.6403  11.00000  0.05    0.33
Q16   1   0.8315  0.7389  0.6646  11.00000  0.05    0.31
Q17   1   0.7089  0.2113  0.5515  11.00000  0.05    0.31
Q18   1   0.6760  0.5062  0.1895  11.00000  0.05    0.31
Q19   1   0.7436  0.4418  0.3479  11.00000  0.05    0.29
Q20   1   0.6853  0.2704  0.6158  11.00000  0.05    0.29
;
_shelx_res_checksum              48958
_shelx_hkl_file
;
  -1   0   0 3681.33   69.09
  -1   0   0 3890.11   70.29
   1   0   0 3639.34   72.69
   1   0   0 3748.43   69.29
  -2   0   0 9999.00  182.08
  -2   0   0 9686.73  180.48
   2   0   0 9856.11  181.08
  -3   0   0 3491.95   63.69
  -3   0   0 3467.25   63.49
   3   0   0 3497.35   64.49
  -4   0   0 6425.56  121.69
   4   0   0 6203.38  116.09
  -5   0   0   66.09    4.20
   5   0   0   71.89    3.70
  -6   0   0   22.30    3.00
   6   0   0   30.30    3.20
  -7   0   0  536.15   13.50
   7   0   0  543.45   13.10
  -8   0   0  140.29    6.70
   8   0   0  122.49    6.60
   8  -1   0  173.08    7.40
  -8   1   0  187.58    7.70
   7  -1   0  170.08    6.40
  -7   1   0  165.38    6.80
   6  -1   0 1211.98   24.00
  -6   1   0 1170.78   24.30
   5  -1   0  594.64   12.90
  -5   1   0  610.34   13.20
   4  -1   0  681.63   14.10
  -4   1   0  715.43   14.50
  -4   1   0  691.43   13.50
   3  -1   0  164.38    4.30
  -3   1   0  160.28    4.40
  -3   1   0  161.28    4.60
  -3   1   0  155.88    3.70
   2  -1   0 8128.79  147.39
   2  -1   0 7692.53  157.18
   2  -1   0 7846.41  147.39
  -2   1   0 8123.69  147.69
  -2   1   0 7961.80  144.39
  -2   1   0 7820.42  146.49
   1  -1   0  563.44   10.20
   1  -1   0  541.25   10.40
  -1   1   0  565.04   10.40
   0  -1   0   63.29    1.60
   0   1   0   66.19    1.60
  -1  -1   0    4.20    0.90
  -1  -1   0    4.00    1.00
   1   1   0    3.80    1.00
  -2  -1   0  179.28    4.20
  -2  -1   0  192.68    4.70
   2   1   0  186.98    4.40
  -3  -1   0 1659.53   31.10
   3   1   0 1631.24   30.80
  -4  -1   0 2187.38   41.40
   4   1   0 2210.38   41.10
  -5  -1   0   39.20    3.40
   5   1   0   32.90    3.00
  -6  -1   0   12.00    2.80
   6   1   0   15.10    3.00
  -7  -1   0  247.38    8.40
   7   1   0  263.57    8.30
  -8  -1   0   57.69    4.80
   9  -2   0    8.40    3.70
   8  -2   0 1798.62   36.00
   7  -2   0   68.19    4.70
  -7   2   0   71.39    5.00
   6  -2   0  955.70   19.50
  -6   2   0  924.01   19.60
   5  -2   0  906.81   18.40
  -5   2   0  940.91   18.70
  -5   2   0  891.21   17.30
   4  -2   0 3140.79   58.09
  -4   2   0 3217.38   58.19
  -4   2   0 3105.99   57.69
   3  -2   0  169.38    3.70
   3  -2   0  174.98    4.50
  -3   2   0  169.98    3.70
   2  -2   0    0.00    1.10
   2  -2   0    0.20    0.70
   2  -2   0   -0.60    0.90
  -2   2   0   -0.90    0.70
   1  -2   0 2969.60   56.39
   0  -2   0   26.90    1.50
   0   2   0   24.90    1.50
  -1  -2   0 1572.84   29.10
  -1  -2   0 1582.24   29.00
   1   2   0 1539.65   29.00
   1   2   0 1606.74   28.90
  -2  -2   0   10.40    1.40
  -2  -2   0    8.00    1.50
   2   2   0   10.80    1.50
  -3  -2   0  668.63   13.70
   3   2   0  652.23   13.40
  -4  -2   0   46.20    3.60
   4   2   0   50.09    3.20
  -5  -2   0  951.90   20.00
   5   2   0  943.81   19.50
  -6  -2   0   23.30    3.50
   6   2   0   25.80    3.30
  -7  -2   0   81.19    5.70
   9  -3   0   47.60    4.90
   8  -3   0   25.30    3.80
   7  -3   0  367.56    9.90
   6  -3   0  226.68    6.70
   5  -3   0  322.27    7.90
  -5   3   0  307.47    6.40
   4  -3   0   33.00    2.50
   4  -3   0   33.40    1.60
  -4   3   0   32.00    1.50
   3  -3   0 2339.87   44.30
   3  -3   0 2454.95   44.10
  -3   3   0 2356.16   43.40
   2  -3   0   22.60    1.70
   0  -3   0 1707.83   31.70
   0   3   0 1617.54   30.70
  -1  -3   0 2322.87   41.90
  -1  -3   0 2231.18   41.80
  -2  -3   0    4.90    1.50
  -2  -3   0    7.10    1.60
   2   3   0    6.40    1.30
  -3  -3   0    3.10    1.80
   3   3   0    4.20    1.50
  -4  -3   0  652.33   14.30
   4   3   0  650.53   13.70
  -5  -3   0  470.45   11.70
   5   3   0  472.05   11.00
  -6  -3   0   36.70    4.00
  -7  -3   0   17.10    3.80
   9  -4   0   13.60    3.80
   8  -4   0  192.78    7.40
   7  -4   0  882.01   19.00
   6  -4   0  713.53   15.70
   5  -4   0   95.19    4.10
   5  -4   0   95.39    2.70
  -5   4   0   91.79    2.60
   4  -4   0  700.23   13.70
   4  -4   0  712.93   14.70
   3  -4   0 5490.35  105.49
   3  -4   0 5673.43  106.99
   2  -4   0 2496.65   47.80
   1  -4   0   76.09    2.80
   0  -4   0 2458.05   45.80
  -1  -4   0 1869.61   34.90
  -2  -4   0    2.30    1.60
  -3  -4   0  231.98    6.70
  -4  -4   0 1598.94   31.20
   4   4   0 1544.45   30.10
  -5  -4   0  406.96   10.80
  -6  -4   0   81.69    5.90
   9  -5   0    6.00    3.50
   8  -5   0  600.84   14.80
   7  -5   0  368.56   10.00
   6  -5   0   94.79    4.60
   6  -5   0   97.29    2.80
   5  -5   0  200.08    6.10
   5  -5   0  194.48    4.90
   4  -5   0 2618.94   48.80
   4  -5   0 2692.83   49.70
   3  -5   0  923.21   18.10
   2  -5   0   34.80    2.60
   1  -5   0  551.04   11.90
   1  -5   0  546.45   11.30
   0  -5   0 2322.77   43.00
  -1  -5   0  721.73   14.70
  -2  -5   0    2.50    1.90
  -3  -5   0  996.90   20.70
  -4  -5   0 2082.59   40.60
  -5  -5   0   55.59    4.50
   9  -6   0   21.10    3.70
   8  -6   0  616.14   15.10
   7  -6   0  785.62   17.80
   6  -6   0    2.10    2.30
   6  -6   0    2.20    1.90
   5  -6   0  172.88    4.90
   5  -6   0  163.88    5.70
   4  -6   0 1742.83   33.10
   4  -6   0 1689.93   32.50
   3  -6   0  156.58    4.80
   2  -6   0   81.99    3.90
   2  -6   0   82.69    3.30
   1  -6   0   68.69    3.00
   1  -6   0   66.99    4.00
   0  -6   0   29.60    2.30
  -1  -6   0  103.99    4.20
  -2  -6   0  301.37    8.20
  -3  -6   0   30.80    3.40
  -4  -6   0  161.48    6.80
  -5  -6   0   19.90    4.20
  -5  -6   0   22.40    3.90
   9  -7   0   21.70    4.30
   8  -7   0  185.28    7.90
   7  -7   0   37.50    4.10
   6  -7   0  713.43   16.10
   5  -7   0   82.59    3.80
   5  -7   0   82.59    4.70
   4  -7   0 1372.56   26.90
   4  -7   0 1327.57   26.40
   3  -7   0  672.03   14.60
   2  -7   0 2447.06   45.20
   2  -7   0 2385.16   46.00
   1  -7   0  700.33   14.50
   1  -7   0  688.63   15.70
   0  -7   0  893.31   19.70
   0  -7   0  907.21   18.30
  -1  -7   0 1211.78   24.20
  -2  -7   0  533.35   12.60
  -3  -7   0   96.39    6.10
  -3  -7   0  101.29    5.60
  -4  -7   0   28.80    4.60
  -4  -7   0   27.10    3.80
   9  -8   0   23.50    4.50
   8  -8   0  478.25   13.00
   7  -8   0  263.87    8.70
   6  -8   0   39.20    3.80
   5  -8   0   67.99    4.40
   5  -8   0   60.59    3.90
   4  -8   0 1175.58   24.20
   4  -8   0 1213.78   24.40
   3  -8   0  752.12   16.50
   3  -8   0  733.93   15.70
   2  -8   0   76.89    4.90
   2  -8   0   79.09    3.90
   1  -8   0    6.10    2.80
   1  -8   0    4.50    2.00
   0  -8   0  319.77    8.40
   0  -8   0  324.77   10.10
  -1  -8   0 1267.57   25.80
  -1  -8   0 1296.67   27.70
  -2  -8   0  315.57   10.70
  -2  -8   0  309.17    9.10
  -3  -8   0    1.60    3.70
   8  -9   0   46.10    4.60
   7  -9   0 1196.08   25.80
   6  -9   0  773.22   17.80
   5  -9   0    7.20    2.50
   5  -9   0    6.80    3.00
   4  -9   0  633.74   14.40
   4  -9   0  595.84   13.80
   4  -9   0  611.84   14.40
   3  -9   0  993.10   21.50
   3  -9   0  989.60   20.40
   2  -9   0   22.70    2.70
   2  -9   0   26.60    3.70
   1  -9   0   58.29    5.00
   1  -9   0   59.59    3.90
   0  -9   0  705.73   17.60
  -1  -9   0  428.26   13.00
  -2  -9   0   15.00    4.30
   7 -10   0  480.25   13.40
   6 -10   0   73.89    5.70
   5 -10   0   38.60    4.20
   5 -10   0   36.00    3.60
   5 -10   0   39.40    3.90
   4 -10   0  244.18    8.20
   4 -10   0  256.07    8.50
   3 -10   0  438.46   12.20
   2 -10   0    3.00    3.40
   1 -10   0  122.79    6.80
   0 -10   0  792.72   19.80
   6 -11   0   23.40    4.10
   5 -11   0    6.70    3.20
   4 -11   0  123.89    6.50
   4 -11   0  137.09    6.80
   3 -11   0   37.70    4.50
   3 -11   0   34.50    3.80
   2 -11   0   89.79    6.70
   2 -11   1    9.40    3.70
   3 -11   1   30.80    3.60
   4 -11   1  584.74   14.30
   4 -11   1  569.34   14.80
   5 -11   1  140.79    6.80
   6 -11   1   19.00    3.60
   0 -10   1  479.95   14.20
   1 -10   1  386.96   11.70
   2 -10   1  129.29    7.90
   2 -10   1  130.09    6.80
   3 -10   1  264.67    9.00
   3 -10   1  266.57    8.20
   3 -10   1  266.97    8.00
   4 -10   1  560.94   13.80
   4 -10   1  559.64   13.60
   4 -10   1  542.85   13.20
   5 -10   1   66.59    5.10
   5 -10   1   73.19    7.10
   6 -10   1   16.60    3.30
   7 -10   1  614.04   15.70
  -2  -9   1   32.60    5.00
  -1  -9   1  266.17    9.80
  -1  -9   1  229.68    8.20
   0  -9   1  116.39    5.40
   0  -9   1  117.69    6.40
   1  -9   1    2.00    2.20
   1  -9   1    4.40    2.80
   2  -9   1  159.68    6.80
   2  -9   1  160.88    5.70
   3  -9   1  401.66   10.90
   3  -9   1  414.96   10.40
   3  -9   1  416.26   10.30
   4  -9   1  214.88    7.10
   4  -9   1  210.78    6.90
   4  -9   1  207.38    6.90
   5  -9   1   82.89    5.30
   5  -9   1   85.19    4.60
   6  -9   1   62.99    4.90
   7  -9   1  125.69    6.70
   8  -9   1   54.09    4.80
  -3  -8   1   85.79    5.90
  -3  -8   1  101.19    6.60
  -2  -8   1   59.79    4.40
  -1  -8   1   72.89    4.50
   0  -8   1   68.49    4.90
   0  -8   1   65.39    3.90
   1  -8   1  598.94   13.30
   1  -8   1  603.34   14.40
   2  -8   1    4.00    2.00
   2  -8   1    2.80    2.30
   3  -8   1  619.24   14.30
   3  -8   1  642.44   14.10
   3  -8   1  636.94   14.00
   4  -8   1  351.66    9.20
   4  -8   1  334.57    8.80
   5  -8   1 1028.30   20.70
   5  -8   1 1012.30   21.50
   6  -8   1  104.59    5.40
   7  -8   1  101.99    6.20
   8  -8   1  382.46   11.30
  -4  -7   1   49.40    4.70
  -3  -7   1   42.10    4.00
  -2  -7   1  335.97    9.20
  -1  -7   1  247.58    7.20
   0  -7   1   72.19    3.70
   1  -7   1   17.30    2.20
   2  -7   1  764.82   16.70
   2  -7   1  798.42   16.30
   3  -7   1  164.38    5.50
   3  -7   1  161.08    5.40
   4  -7   1  142.59    5.50
   4  -7   1  147.39    4.90
   5  -7   1  583.24   12.30
   5  -7   1  566.54   13.30
   6  -7   1  101.39    5.10
   7  -7   1   98.49    5.40
   8  -7   1  503.95   13.30
   9  -7   1  157.28    7.80
  -5  -6   1    9.30    3.30
  -4  -6   1  934.91   20.50
  -3  -6   1 1200.88   24.70
  -2  -6   1   21.80    2.80
  -1  -6   1   66.99    3.60
   0  -6   1 3078.59   56.99
   1  -6   1 1742.23   33.10
   2  -6   1   46.80    3.10
   2  -6   1   44.60    3.00
   3  -6   1  655.83   13.70
   3  -6   1  660.63   13.90
   4  -6   1 2138.19   39.90
   5  -6   1  775.62   15.40
   5  -6   1  785.62   16.70
   6  -6   1   39.20    3.70
   7  -6   1  366.26   10.40
   8  -6   1  886.21   20.10
   9  -6   1   37.00    4.30
  -6  -5   1  459.35   12.90
  -5  -5   1  285.57    9.10
  -4  -5   1  133.69    6.00
  -3  -5   1  543.65   12.60
  -2  -5   1  285.77    7.40
  -1  -5   1  483.15   10.60
   0  -5   1 2315.17   43.00
   1  -5   1  721.03   14.50
   2  -5   1    7.60    1.50
   3  -5   1  917.41   18.20
   3  -5   1  912.21   17.80
   4  -5   1 1663.53   31.40
   4  -5   1 1727.83   32.50
   5  -5   1   26.00    1.70
   5  -5   1   19.80    2.50
   6  -5   1    5.80    2.70
   7  -5   1  183.38    6.70
   8  -5   1  188.18    7.60
   9  -5   1    3.10    3.50
  -6  -4   1  147.89    7.10
  -5  -4   1   87.79    5.40
   4   4  -1   44.30    2.90
  -4  -4   1   47.00    3.70
  -3  -4   1   63.19    3.90
  -2  -4   1    1.60    1.50
  -2  -4   1    3.70    1.80
  -1  -4   1    1.90    1.10
  -1  -4   1    4.50    1.50
   0  -4   1  709.43   14.00
   1  -4   1  191.48    4.90
   2  -4   1   14.80    1.60
   2  -4   1   14.00    1.50
   3  -4   1  760.22   14.60
   3  -4   1  763.52   15.30
   4  -4   1  433.56    8.40
   4  -4   1  420.36    9.60
   5  -4   1  327.17    8.30
   6  -4   1    9.20    2.40
   7  -4   1  373.56   10.00
   8  -4   1    2.20    3.00
   9  -4   1  169.98    7.80
  -7  -3   1    0.40    3.20
  -6  -3   1   10.70    3.00
   5   3  -1   11.90    2.30
  -5  -3   1   15.60    2.80
   4   3  -1    1.10    1.60
  -4  -3   1   -0.20    2.20
   3   3  -1  356.56    7.80
  -3  -3   1  359.16    8.70
   2   3  -1    6.10    1.10
  -2  -3   1    6.00    1.20
  -2  -3   1    6.40    1.60
  -1  -3   1  658.43   12.90
  -1  -3   1  686.23   13.40
   0   3  -1  231.18    6.60
   0  -3   1  186.78    4.80
   2  -3   1 1898.21   35.90
   2  -3   1 1995.90   37.60
   3  -3   1    4.40    1.40
   3  -3   1    6.30    0.80
   4  -3   1  243.38    6.30
   5  -3   1 1603.44   30.90
   6  -3   1  110.09    5.00
   7  -3   1  102.79    5.10
   8  -3   1  392.26   11.10
   9  -3   1  513.55   13.90
  -7  -2   1   72.69    5.70
   6   2  -1  491.45   11.80
  -6  -2   1  512.75   12.80
   5   2  -1  308.87    8.10
  -5  -2   1  319.37    8.60
   4   2  -1  171.38    5.00
  -4  -2   1  165.28    5.40
   3   2  -1 1139.89   21.60
  -3  -2   1 1170.48   22.20
  -3  -2   1 1084.99   21.30
   2   2  -1  875.81   16.20
  -2  -2   1  838.92   16.70
  -2  -2   1  856.11   16.10
   1   2  -1  151.48    4.40
  -1  -2   1  148.89    3.50
  -1  -2   1  156.58    3.80
   0   2  -1 4801.12   90.89
   0  -2   1 4878.01   90.89
   1  -2   1 5285.37   98.69
   2  -2   1  174.78    3.50
   2  -2   1  176.88    4.40
  -3   2  -1  152.18    3.00
   3  -2   1  154.08    4.20
  -4   2  -1  891.51   16.30
   4  -2   1  869.91   17.50
  -5   2  -1 1440.76   26.50
   5  -2   1 1433.06   27.90
   6  -2   1  806.22   17.20
   7  -2   1  202.28    6.90
   8  -2   1  205.08    7.90
   9  -2   1  313.67   10.40
  -8  -1   1  143.29    7.30
   7   1  -1  183.08    6.70
  -7  -1   1  188.08    7.30
   6   1  -1  583.34   13.20
  -6  -1   1  584.04   13.90
   5   1  -1  536.15   11.90
  -5  -1   1  551.34   12.60
   4   1  -1  271.77    6.50
  -4  -1   1  263.77    7.10
   3   1  -1 1434.76   26.30
  -3  -1   1 1392.86   26.80
  -3  -1   1 1392.86   26.10
   2   1  -1 1635.34   30.20
  -2  -1   1 1654.53   30.40
  -2  -1   1 1604.34   29.80
   1   1  -1  247.88    5.30
   1   1  -1  260.47    5.00
  -1  -1   1  251.07    4.90
  -1  -1   1  252.27    5.40
   0   1  -1 5655.93  102.49
   0  -1   1 5437.96  131.89
   1  -1   1 3359.36   62.89
  -2   1  -1 2314.67   44.10
  -2   1  -1 2438.26   44.10
   2  -1   1 2506.55   46.60
  -3   1  -1  261.67    5.40
  -3   1  -1  264.87    6.30
   3  -1   1  274.77    6.30
  -4   1  -1 7336.87  134.19
  -4   1  -1 6967.80  131.39
   4  -1   1 7248.88  135.29
  -5   1  -1  512.15   11.70
   5  -1   1  525.45   11.70
  -6   1  -1  519.95   12.60
   6  -1   1  530.65   12.30
  -7   1  -1  128.79    6.20
   7  -1   1  137.39    6.10
   8  -1   1 1066.49   23.20
   8   0  -1  284.67    9.20
  -8   0   1  290.07    9.70
   7   0  -1  281.17    8.40
  -7   0   1  275.37    8.90
   6   0  -1   97.39    4.70
  -6   0   1  103.49    5.30
   5   0  -1  219.88    6.10
  -5   0   1  214.08    6.40
   4   0  -1  315.67    7.20
  -4   0   1  313.47    7.80
   3   0  -1 1120.19   20.80
  -3   0   1 1083.59   20.70
  -3   0   1 1108.69   21.30
  -3   0   1 1097.29   21.10
   2   0  -1 5779.22  106.89
  -2   0   1 5736.93  106.19
  -2   0   1 5820.92  107.49
  -2   0   1 5714.03  107.39
   1   0  -1 2107.29   40.00
   1   0  -1 2153.88   40.50
   1   0  -1 2155.88   39.40
  -1   0   1 2075.69   39.70
  -1   0   1 2123.79   40.20
  -1   0   1 2114.99   39.30
  -1   0  -1 1544.25   29.70
  -1   0  -1 1537.25   28.90
   1   0   1 1574.74   29.50
   1   0   1 1559.74   30.00
  -2   0  -1 1258.07   23.60
  -2   0  -1 1287.27   23.70
   2   0   1 1259.07   23.60
  -3   0  -1  333.67    7.50
   3   0   1  317.67    7.30
  -4   0  -1  435.46    9.90
   4   0   1  436.46    9.80
  -5   0  -1    1.60    2.20
   5   0   1    2.60    2.10
  -6   0  -1   81.19    5.00
   6   0   1   94.99    4.90
  -7   0  -1  142.69    6.60
   7   0   1  132.79    6.30
  -8   0  -1   73.29    5.80
   8   0   1   59.19    5.20
  -9   1   1   44.80    4.70
   8  -1  -1  352.36   10.00
  -8   1   1  350.96   10.50
   7  -1  -1   80.69    4.80
  -7   1   1   83.19    4.90
   6  -1  -1  935.01   19.10
  -6   1   1  917.01   19.50
   5  -1  -1  102.29    4.00
  -5   1   1  106.99    4.30
   4  -1  -1 2878.91   54.19
  -4   1   1 2940.01   53.79
   3  -1  -1    4.50    1.30
  -3   1   1    2.90    1.40
  -3   1   1    3.80    1.20
  -3   1   1    3.60    1.00
   2  -1  -1 7053.59  128.79
   2  -1  -1 7086.99  129.79
  -2   1   1 6946.10  129.99
  -2   1   1 6875.01  128.79
   1  -1  -1 1054.79   19.50
   1  -1  -1 1086.59   20.40
  -1   1   1 1048.40   19.50
  -1   1   1 1048.90   19.40
   0  -1  -1  118.69    2.90
   0  -1  -1  120.59    2.40
   0  -1  -1  116.29    2.80
   0   1   1  117.79    2.40
  -1  -1  -1  358.56    7.10
  -1  -1  -1  347.67    7.30
   1   1   1  353.46    7.30
   1   1   1  351.26    7.10
  -2  -1  -1  657.43   12.90
  -2  -1  -1  657.93   13.00
   2   1   1  664.33   13.10
  -3  -1  -1   16.00    2.00
   3   1   1   15.50    2.00
  -4  -1  -1   96.69    4.00
   4   1   1   89.79    4.00
  -5  -1  -1  122.69    5.40
   5   1   1  135.29    5.30
  -6  -1  -1  174.98    6.70
   6   1   1  176.98    6.70
  -7  -1  -1   29.30    3.70
   7   1   1   32.30    4.00
  -8  -1  -1    3.00    3.30
   9  -2  -1    7.00    3.50
   8  -2  -1 1036.40   22.00
  -8   2   1 1005.90   22.40
   7  -2  -1  195.18    6.60
  -7   2   1  187.78    6.80
   6  -2  -1   75.09    4.10
  -6   2   1   82.79    4.30
   5  -2  -1    1.40    1.70
  -5   2   1    2.40    1.70
   4  -2  -1    3.20    1.50
   4  -2  -1    5.90    1.10
  -4   2   1    9.50    1.70
  -4   2   1    4.60    1.10
   3  -2  -1 1132.09   22.70
   3  -2  -1 1182.28   22.30
   3  -2  -1 1205.68   21.90
  -3   2   1 1187.58   22.30
  -3   2   1 1179.78   21.80
   2  -2  -1 4628.64   86.09
   2  -2  -1 4700.13   86.79
  -2   2   1 4609.44   86.19
   1  -2  -1   42.60    1.80
  -1   2   1   39.10    1.90
   0  -2  -1    8.00    1.00
   0  -2  -1   11.30    0.90
   0   2   1    9.90    0.90
  -1  -2  -1 4766.22   91.09
  -1  -2  -1 4998.80   92.39
   1   2   1 4859.11   91.79
   1   2   1 5015.70   93.09
  -2  -2  -1 1504.65   27.70
  -2  -2  -1 1441.26   28.10
   2   2   1 1471.05   27.70
  -3  -2  -1   17.50    2.10
   3   2   1   16.40    2.10
  -4  -2  -1 1397.16   27.30
   4   2   1 1384.56   27.20
  -5  -2  -1 2344.07   44.60
   5   2   1 2308.17   44.30
  -6  -2  -1  169.08    6.60
   6   2   1  174.88    6.80
  -7  -2  -1    6.50    3.30
   9  -3  -1   94.39    6.10
   8  -3  -1  152.88    6.50
   7  -3  -1  405.66   10.50
   6  -3  -1  171.98    5.90
   5  -3  -1  484.45    9.80
   5  -3  -1  500.05   11.00
  -5   3   1  482.45    9.80
   4  -3  -1 2417.76   43.70
  -4   3   1 2356.66   43.60
   3  -3  -1 2648.03   50.19
   3  -3  -1 2571.84   48.10
   3  -3  -1 2659.33   48.30
  -3   3   1 2613.54   48.90
   2  -3  -1 1212.68   22.90
  -2   3   1 1230.18   22.90
   1  -3  -1  164.48    4.40
   0  -3  -1   71.59    2.30
   0  -3  -1   66.09    2.50
   0   3   1   76.39    2.30
  -1  -3  -1 1803.92   34.00
  -1  -3  -1 1850.71   33.80
  -2  -3  -1 1336.87   25.30
   2   3   1 1310.17   25.20
  -3  -3  -1   34.20    2.60
   3   3   1   36.40    2.70
  -4  -3  -1  207.28    6.60
   4   3   1  205.68    6.10
  -5  -3  -1  621.54   14.50
   5   3   1  620.14   14.00
  -6  -3  -1   66.59    5.30
   6   3   1   53.59    4.50
  -7  -3  -1    1.70    3.30
   9  -4  -1  193.18    7.80
   8  -4  -1   48.90    4.00
   7  -4  -1  686.23   15.60
   6  -4  -1 1034.70   21.20
   5  -4  -1  284.27    6.30
   5  -4  -1  287.77    7.60
   4  -4  -1 1362.26   25.70
   4  -4  -1 1367.46   26.40
   3  -4  -1 3362.86   62.29
   2  -4  -1  294.87    6.70
   1  -4  -1    7.90    1.20
   1  -4  -1    7.70    1.60
   0  -4  -1 2422.46   44.80
  -1  -4  -1 2281.67   42.20
  -2  -4  -1   11.00    1.90
  -3  -4  -1    8.80    2.20
   3   4   1    5.40    1.80
  -4  -4  -1  837.22   18.00
   4   4   1  842.12   17.40
  -5  -4  -1  153.98    6.50
   5   4   1  163.08    5.80
  -6  -4  -1  135.09    6.60
  -6  -4  -1  134.49    6.70
   9  -5  -1   76.69    5.70
   8  -5  -1   33.70    3.70
   7  -5  -1    6.80    2.60
   6  -5  -1    0.20    2.10
   6  -5  -1    4.70    1.30
   5  -5  -1   64.59    3.70
   5  -5  -1   68.59    3.00
   4  -5  -1  257.27    6.90
   4  -5  -1  266.97    6.40
   3  -5  -1   14.60    1.80
   2  -5  -1  173.68    5.20
   1  -5  -1    0.30    1.60
   1  -5  -1    2.10    1.10
   0  -5  -1  585.64   12.80
   0  -5  -1  551.14   11.50
  -1  -5  -1  144.09    4.50
  -2  -5  -1   47.40    3.30
  -3  -5  -1   24.80    2.90
  -4  -5  -1    5.40    2.70
  -5  -5  -1   16.40    3.40
  -5  -5  -1    9.90    3.40
   9  -6  -1    4.40    3.10
   8  -6  -1    3.30    3.30
   7  -6  -1  123.79    5.70
   6  -6  -1   -1.80    2.10
   6  -6  -1    3.10    1.60
   5  -6  -1  248.18    6.40
   5  -6  -1  243.48    7.30
   4  -6  -1    2.50    1.90
   4  -6  -1    4.80    1.70
   3  -6  -1  198.88    5.70
   2  -6  -1 2448.96   45.10
   2  -6  -1 2427.56   46.00
   1  -6  -1  226.28    6.70
   1  -6  -1  217.58    5.50
   0  -6  -1  485.15   10.60
   0  -6  -1  499.75   12.00
  -1  -6  -1  977.70   19.60
  -1  -6  -1  973.60   21.00
  -2  -6  -1 3342.97   64.29
  -2  -6  -1 3419.76   62.99
  -3  -6  -1   10.60    3.40
  -3  -6  -1    9.70    2.70
  -4  -6  -1  204.68    7.30
  -4  -6  -1  204.38    8.10
   9  -7  -1   60.19    5.50
   8  -7  -1  143.59    6.70
   7  -7  -1  332.97    9.70
   6  -7  -1  178.78    5.60
   6  -7  -1  173.78    6.50
   5  -7  -1  472.25   10.90
   5  -7  -1  472.05   11.40
   4  -7  -1 1232.68   24.60
   3  -7  -1  122.39    5.00
   2  -7  -1  115.09    4.00
   2  -7  -1  115.19    4.90
   1  -7  -1  230.38    7.60
   1  -7  -1  229.88    6.00
   0  -7  -1 1160.88   24.30
   0  -7  -1 1136.39   22.60
  -1  -7  -1  599.74   14.80
  -1  -7  -1  609.84   13.30
  -2  -7  -1  113.09    6.10
  -2  -7  -1  114.29    5.10
  -3  -7  -1    9.90    3.70
  -3  -7  -1    5.30    2.70
  -4  -7  -1  140.09    7.30
   9  -8  -1   99.39    6.90
   8  -8  -1    9.10    3.70
   7  -8  -1  807.92   18.60
   6  -8  -1 2556.84   48.60
   6  -8  -1 2453.15   47.80
   5  -8  -1   53.39    4.10
   5  -8  -1   51.49    4.00
   4  -8  -1   70.99    4.30
   3  -8  -1 1666.23   31.90
   3  -8  -1 1652.53   33.00
   2  -8  -1 2034.90   39.90
   2  -8  -1 2027.90   38.30
   1  -8  -1   96.59    5.30
   1  -8  -1   89.89    4.00
   0  -8  -1  200.68    6.20
   0  -8  -1  200.18    7.70
  -1  -8  -1  722.23   17.50
  -1  -8  -1  703.73   15.60
  -2  -8  -1   55.89    5.10
  -3  -8  -1   12.80    4.30
   8  -9  -1  393.86   11.90
   7  -9  -1   98.59    5.90
   6  -9  -1    9.20    3.40
   5  -9  -1    2.00    2.40
   5  -9  -1    2.50    2.90
   4  -9  -1   54.09    4.20
   4  -9  -1   51.89    3.80
   3  -9  -1  466.75   10.80
   3  -9  -1  466.55   12.10
   2  -9  -1  160.58    7.10
   2  -9  -1  152.48    6.40
   1  -9  -1   61.09    5.10
   0  -9  -1    4.70    3.60
  -1  -9  -1  178.08    8.50
   7 -10  -1    0.80    3.40
   6 -10  -1   84.29    5.50
   5 -10  -1   47.80    4.20
   5 -10  -1   39.20    3.90
   4 -10  -1    3.70    3.00
   3 -10  -1    6.00    3.10
   2 -10  -1   96.59    6.40
   1 -10  -1  115.79    7.20
   0 -10  -1    2.70    3.50
   6 -11  -1  186.78    8.00
   5 -11  -1   87.09    5.80
   5 -11  -1   89.59    5.90
   4 -11  -1   21.80    4.00
   4 -11  -1   27.10    3.90
   3 -11  -1   21.30    4.20
   2 -11  -1  582.74   16.00
   2 -11   2  149.29    7.60
   3 -11   2    5.60    3.30
   4 -11   2   26.00    3.70
   4 -11   2   28.20    3.80
   5 -11   2  352.86   10.60
   5 -11   2  359.56   12.30
   6 -11   2  106.29    6.40
   0 -10   2   92.89    6.90
   1 -10   2   35.50    4.20
   1 -10   2   37.10    3.70
   2 -10   2   25.40    3.10
   2 -10   2   26.70    3.30
   2 -10   2   22.60    3.60
   3 -10   2  177.98    6.50
   3 -10   2  170.58    6.30
   3 -10   2  176.98    7.20
   4 -10   2  134.29    6.10
   4 -10   2  137.19    6.10
   4 -10   2  133.29    6.10
   5 -10   2    4.00    2.60
   6 -10   2   10.20    3.40
   7 -10   2   14.10    3.50
  -2  -9   2   72.89    5.70
  -1  -9   2  121.99    5.80
   0  -9   2  128.19    6.50
   0  -9   2  127.19    5.50
   1  -9   2   13.10    2.60
   1  -9   2    9.80    3.00
   2  -9   2   10.90    2.80
   2  -9   2   13.60    2.60
   2  -9   2   11.90    2.40
   3  -9   2   59.59    4.10
   3  -9   2   63.19    4.50
   3  -9   2   67.69    4.50
   4  -9   2    3.90    2.40
   4  -9   2   -2.20    2.50
   4  -9   2   -0.40    2.10
   5  -9   2   63.99    4.90
   5  -9   2   59.69    5.70
   6  -9   2  198.28    7.60
   7  -9   2    5.10    3.40
   8  -9   2   -0.20    3.50
  -3  -8   2   32.40    4.10
  -2  -8   2   68.89    5.20
  -1  -8   2  303.77    8.70
   0  -8   2  521.25   12.20
   1  -8   2  480.75   11.40
   2  -8   2  381.56    9.10
   2  -8   2  367.06    9.30
   2  -8   2  359.56    9.90
   3  -8   2  379.26    9.70
   3  -8   2  378.26    9.50
   3  -8   2  382.46    9.70
   4  -8   2  700.13   14.90
   4  -8   2  680.23   15.20
   5  -8   2  842.32   18.40
   5  -8   2  836.52   17.30
   6  -8   2  300.27    9.00
   7  -8   2  119.59    6.10
   8  -8   2  219.58    8.70
  -4  -7   2  207.48    8.00
  -3  -7   2   33.20    3.80
  -2  -7   2  360.76    9.70
  -1  -7   2  599.64   13.50
   0  -7   2   84.29    4.00
   1  -7   2   29.70    2.70
   2  -7   2  450.75   10.70
   2  -7   2  447.26   10.10
   2  -7   2  452.25   10.50
   3  -7   2  654.83   13.80
   3  -7   2  627.54   13.80
   4  -7   2  464.75   10.50
   4  -7   2  484.35   11.30
   5  -7   2  466.15   11.40
   5  -7   2  457.35   10.00
   6  -7   2  198.18    7.20
   7  -7   2   73.89    5.10
   8  -7   2  313.67    9.90
   9  -7   2  353.96   11.40
  -5  -6   2  550.74   14.30
  -4  -6   2   55.09    4.60
  -3  -6   2   93.39    5.10
  -2  -6   2  704.53   15.40
  -1  -6   2  646.84   14.00
   0  -6   2  593.14   12.80
   1  -6   2  840.22   17.10
   2  -6   2  492.45   10.50
   2  -6   2  473.35   10.80
   3  -6   2  341.47    8.00
   3  -6   2  345.87    8.30
   4  -6   2  394.06    9.60
   4  -6   2  396.26    8.60
   5  -6   2   29.00    3.00
   5  -6   2   26.80    1.80
   6  -6   2   51.69    4.00
   7  -6   2   33.60    3.90
   8  -6   2  195.58    7.90
   9  -6   2    5.70    3.40
  -6  -5   2    7.00    3.60
  -5  -5   2   67.29    4.90
  -4  -5   2   16.00    3.10
  -3  -5   2   21.90    3.00
  -2  -5   2  214.78    6.40
  -1  -5   2   58.69    2.60
  -1  -5   2   72.49    3.50
   0  -5   2  146.69    4.50
   1  -5   2    0.50    1.40
   2  -5   2   29.80    2.10
   3  -5   2   26.30    2.30
   3  -5   2   27.00    2.00
   4  -5   2   19.80    2.50
   4  -5   2   21.50    1.50
   5  -5   2   14.60    2.40
   6  -5   2   17.70    2.70
   7  -5   2   25.30    3.60
   8  -5   2    2.40    2.90
   9  -5   2  123.29    7.10
  -6  -4   2   24.40    3.90
  -5  -4   2  135.79    5.90
  -4  -4   2  271.07    8.10
  -3  -4   2   28.40    2.90
  -2  -4   2  254.77    5.70
  -2  -4   2  261.57    6.80
  -1  -4   2 1049.30   20.20
  -1  -4   2 1022.60   19.50
   0  -4   2  618.54   12.60
   1  -4   2  310.27    7.10
   2  -4   2  576.94   11.70
   3  -4   2  924.61   18.40
   3  -4   2  943.01   17.50
   4  -4   2  666.63   14.30
   4  -4   2  702.93   12.60
   5  -4   2  574.84   12.80
   6  -4   2  290.97    8.10
   7  -4   2   66.69    4.90
   8  -4   2  244.38    8.30
   9  -4   2  494.85   13.70
  -7  -3   2  205.78    8.40
  -6  -3   2    5.60    3.00
   5   3  -2  116.69    4.30
  -5  -3   2  116.09    5.70
   4   3  -2  828.72   16.40
  -4  -3   2  839.02   17.70
   3   3  -2  420.46    8.30
  -3  -3   2  390.76    8.20
  -3  -3   2  394.46    9.30
  -2  -3   2  116.39    3.00
  -2  -3   2  114.79    3.80
  -1  -3   2  429.66    8.50
  -1  -3   2  442.16    9.30
   0  -3   2 1274.77   24.00
   1  -3   2 2812.22   53.89
  -2   3  -2 2583.14   49.50
   2  -3   2 2774.72   51.69
   3  -3   2 1022.10   19.80
   4  -3   2  678.73   14.10
   5  -3   2  766.32   16.10
   6  -3   2  441.76   10.90
   7  -3   2  171.18    6.80
   8  -3   2  281.77    9.30
   9  -3   2  223.48    8.90
  -7  -2   2   64.49    5.10
   6   2  -2  344.97    8.80
  -6  -2   2  342.17    9.70
   5   2  -2 1735.73   33.10
  -5  -2   2 1743.83   34.10
   4   2  -2  903.31   17.70
  -4  -2   2  909.51   18.70
   3   2  -2  214.78    5.00
  -3  -2   2  207.08    4.70
  -3  -2   2  211.98    5.70
   2   2  -2 2155.78   39.20
  -2  -2   2 2113.99   39.40
  -2  -2   2 2096.89   38.90
  -1  -2   2 3679.33   70.39
  -1  -2   2 3610.64   66.69
   0  -2   2  803.72   15.10
   0  -2   2  766.62   14.50
  -1   2  -2  946.51   17.50
   1  -2   2  925.41   17.40
   2  -2   2  783.02   15.20
   3  -2   2   12.90    1.80
   4  -2   2  136.99    4.40
  -5   2  -2  786.82   14.80
  -5   2  -2  814.82   14.80
   5  -2   2  794.32   16.70
   6  -2   2  312.27    8.70
   7  -2   2   77.19    5.20
   8  -2   2  133.49    6.80
  -8  -1   2  123.89    7.00
   7   1  -2   10.20    2.90
  -7  -1   2   10.30    3.00
   6   1  -2    5.60    2.40
  -6  -1   2   12.10    2.90
   5   1  -2  289.07    7.10
  -5  -1   2  275.57    7.70
   4   1  -2  401.96    8.60
  -4  -1   2  400.36    9.40
   3   1  -2   40.80    2.10
  -3  -1   2   43.50    2.90
  -3  -1   2   40.20    1.80
   2   1  -2  182.78    3.90
  -2  -1   2  177.18    3.80
  -2  -1   2  184.58    4.60
  -1  -1   2 1352.86   25.90
   0   1  -2  254.77    4.70
   0  -1   2  241.38    5.00
   0  -1   2  249.48    4.70
   0  -1   2  239.38    5.10
  -1   1  -2    0.80    0.60
  -1   1  -2    2.40    1.00
   1  -1   2    2.20    1.10
   1  -1   2    3.40    0.60
  -2   1  -2   66.59    1.60
   2  -1   2   73.09    2.70
   3  -1   2  357.76    8.00
  -4   1  -2  296.97    7.50
   4  -1   2  302.17    7.40
  -5   1  -2    4.90    2.30
   5  -1   2    0.40    2.10
  -6   1  -2  132.79    5.50
  -6   1  -2  139.09    4.00
   6  -1   2  131.59    5.70
   7  -1   2   30.20    3.80
   8  -1   2    2.80    3.50
   8   0  -2   51.59    6.30
  -8   0   2   49.70    4.90
   7   0  -2  163.98    6.10
  -7   0   2  179.48    7.20
   6   0  -2   59.79    3.70
  -6   0   2   61.69    4.50
   5   0  -2  129.49    4.30
  -5   0   2  134.09    4.90
   4   0  -2   10.30    1.60
  -4   0   2    8.80    1.80
   3   0  -2  232.28    5.20
  -3   0   2  228.38    5.10
  -3   0   2  236.08    5.70
   2   0  -2  923.01   17.30
   2   0  -2  916.01   16.90
   2   0  -2  902.81   17.30
  -2   0   2  927.11   17.30
  -2   0   2  886.51   17.30
   1   0  -2  600.14   11.30
   1   0  -2  600.44   11.50
  -1   0   2  596.74   11.50
  -1   0   2  613.74   11.30
   0   0  -2    9.00    1.10
   0   0  -2    8.80    1.30
   0   0   2    6.00    1.10
   0   0   2    6.20    1.20
  -1   0  -2  115.49    2.70
  -1   0  -2  115.79    3.40
   1   0   2  112.69    2.60
   1   0   2  120.39    3.30
   1   0   2  108.89    2.90
  -2   0  -2  987.70   18.80
  -2   0  -2  964.90   18.80
  -2   0  -2  991.00   18.40
   2   0   2 1008.80   18.90
  -3   0  -2  856.71   17.00
   3   0   2  865.71   17.10
  -4   0  -2   42.40    2.90
   4   0   2   38.50    2.90
  -5   0  -2  170.48    5.90
   5   0   2  163.78    5.80
  -6   0  -2  565.34   13.50
   6   0   2  585.54   13.60
  -7   0  -2  102.99    5.80
   7   0   2   74.19    5.70
   8   0   2   -5.70    3.40
  -9   1   2    5.60    3.30
   8  -1  -2  458.55   11.80
  -8   1   2  471.95   12.70
   7  -1  -2  228.08    7.10
  -7   1   2  229.48    7.60
   6  -1  -2   84.49    4.00
  -6   1   2   84.09    4.90
   5  -1  -2  340.77    8.10
  -5   1   2  350.86    8.70
   4  -1  -2 3896.61   74.59
  -4   1   2 3974.40   73.79
   3  -1  -2 1412.56   25.70
   3  -1  -2 1354.46   25.70
  -3   1   2 1337.97   25.60
  -3   1   2 1394.46   25.90
   2  -1  -2   51.19    2.20
   2  -1  -2   50.29    2.00
  -2   1   2   52.79    2.20
  -2   1   2   49.10    2.10
   1  -1  -2 1429.56   27.60
   1  -1  -2 1497.15   27.50
  -1   1   2 1490.35   27.60
  -1   1   2 1457.95   27.80
   0  -1  -2 2768.52   50.29
   0  -1  -2 2727.63   52.29
   0  -1  -2 2773.12   52.79
   0   1   2 2783.62   50.19
   0   1   2 2780.22   52.59
   0   1   2 2645.04   51.39
  -1  -1  -2 1477.75   28.50
  -1  -1  -2 1551.94   29.40
  -1  -1  -2 1550.34   28.40
   1   1   2 1543.15   28.20
   1   1   2 1540.75   29.30
  -2  -1  -2 1125.79   20.90
   2   1   2 1075.19   21.10
  -3  -1  -2  680.23   13.80
   3   1   2  669.03   14.00
  -4  -1  -2  318.87    8.00
   4   1   2  310.47    8.10
  -5  -1  -2  325.67    8.70
   5   1   2  300.97    8.50
  -6  -1  -2  443.06   11.40
  -6  -1  -2  443.76   10.60
   6   1   2  469.75   11.80
  -7  -1  -2  147.39    6.90
   7   1   2  136.69    6.80
   9  -2  -2  151.08    6.90
  -9   2   2  150.98    7.40
   8  -2  -2  439.26   11.40
  -8   2   2  433.46   11.80
   7  -2  -2  425.96   10.50
  -7   2   2  413.86   11.00
   6  -2  -2  179.78    5.80
  -6   2   2  192.18    6.20
   5  -2  -2  628.34   13.40
  -5   2   2  646.74   13.70
   4  -2  -2 1830.72   34.20
   4  -2  -2 1864.41   34.60
  -4   2   2 1837.62   34.60
   3  -2  -2  963.80   18.60
   3  -2  -2  991.80   18.60
   3  -2  -2  941.61   18.70
  -3   2   2 1000.30   18.70
  -3   2   2  981.50   18.50
   2  -2  -2  426.56    8.50
   2  -2  -2  447.66    8.90
  -2   2   2  435.96    8.80
   1  -2  -2 1103.89   20.80
   0  -2  -2 2554.04   46.80
   0  -2  -2 2424.96   45.80
   0  -2  -2 2569.84   48.50
   0   2   2 2504.85   46.60
  -1  -2  -2 3018.30   55.49
  -1  -2  -2 3022.50   57.59
  -1  -2  -2 2782.32   53.59
   1   2   2 2851.61   54.39
   1   2   2 2958.10   54.79
  -2  -2  -2  977.90   18.80
   2   2   2  968.30   19.00
  -3  -2  -2  241.78    6.30
   3   2   2  241.68    6.50
  -4  -2  -2 1025.00   20.80
   4   2   2 1026.80   20.90
  -5  -2  -2 1444.66   29.10
   5   2   2 1470.75   29.20
  -6  -2  -2  156.58    5.90
  -6  -2  -2  158.18    6.60
   6   2   2  150.28    6.40
  -7  -2  -2    5.90    3.30
   7   2   2    0.00    3.20
   9  -3  -2  121.79    6.40
   8  -3  -2  273.97    8.50
   7  -3  -2   64.99    4.50
  -7   3   2   73.99    4.90
   6  -3  -2  358.86    9.10
  -6   3   2  364.16    9.30
   5  -3  -2 1523.25   28.50
   5  -3  -2 1520.35   29.20
  -5   3   2 1506.75   29.20
   4  -3  -2  945.71   18.20
   4  -3  -2  939.51   18.60
   3  -3  -2  125.29    3.60
   3  -3  -2  121.69    3.40
   2  -3  -2  572.84   11.50
   1  -3  -2  964.30   17.90
   1  -3  -2  976.10   18.80
   0  -3  -2    4.60    1.50
   0  -3  -2    2.50    0.80
   0  -3  -2    4.60    1.30
   0   3   2    5.80    0.90
  -1  -3  -2   17.90    1.50
  -1  -3  -2   14.10    1.90
  -2  -3  -2  377.56    8.40
   2   3   2  377.56    8.60
  -3  -3  -2   -0.40    1.60
   3   3   2    2.50    1.80
  -4  -3  -2   30.80    3.10
   4   3   2   27.90    2.90
  -5  -3  -2   61.39    4.60
  -5  -3  -2   48.10    3.80
   5   3   2   63.29    4.50
  -6  -3  -2    0.40    2.70
  -6  -3  -2    1.40    2.80
   6   3   2    1.90    2.70
   9  -4  -2  108.89    6.20
   8  -4  -2  151.88    6.50
   7  -4  -2   -0.40    2.60
   6  -4  -2    8.60    2.60
   6  -4  -2   17.20    1.70
   5  -4  -2   82.69    4.10
   5  -4  -2   83.29    3.20
   4  -4  -2   28.20    2.40
   4  -4  -2   32.90    2.50
  -4   4   2   29.80    2.50
   3  -4  -2  196.08    4.80
   3  -4  -2  208.98    5.30
   2  -4  -2    8.80    1.60
   1  -4  -2  115.49    3.00
   1  -4  -2  112.09    3.90
   0  -4  -2  161.88    5.10
   0  -4  -2  156.28    3.90
   0   4   2  151.58    4.30
  -1  -4  -2    0.70    1.30
  -1  -4  -2    0.10    1.90
  -2  -4  -2   97.79    3.70
  -2  -4  -2  102.19    4.40
  -3  -4  -2   43.90    3.30
  -3  -4  -2   37.10    3.20
   3   4   2   41.60    3.20
  -4  -4  -2    7.10    2.40
  -4  -4  -2    7.10    2.60
   4   4   2    9.00    2.30
  -5  -4  -2   63.09    5.00
  -5  -4  -2   62.29    4.70
   5   4   2   66.79    4.40
  -6  -4  -2  128.89    6.40
  -6  -4  -2  112.79    6.40
   9  -5  -2   73.49    5.40
   8  -5  -2   17.40    3.50
   7  -5  -2  632.54   14.60
   6  -5  -2  220.88    5.80
   6  -5  -2  219.08    7.00
   5  -5  -2   81.79    3.50
   5  -5  -2   79.49    3.90
   4  -5  -2  590.94   12.40
   3  -5  -2  470.25   10.40
   2  -5  -2  152.18    4.00
   2  -5  -2  151.38    4.90
   1  -5  -2  508.85   11.40
   1  -5  -2  502.85   10.10
   0  -5  -2  701.83   13.80
   0  -5  -2  703.83   15.20
  -1  -5  -2  419.96   10.50
  -1  -5  -2  428.66    9.30
  -2  -5  -2  586.74   12.60
  -2  -5  -2  574.74   13.70
  -3  -5  -2  347.07    9.00
  -3  -5  -2  335.87    9.70
  -4  -5  -2   14.20    3.40
  -4  -5  -2   18.40    3.10
  -5  -5  -2   39.80    4.00
  -5  -5  -2   43.90    4.60
   9  -6  -2   22.80    3.70
   8  -6  -2  238.58    8.40
   7  -6  -2  411.36   10.90
   6  -6  -2  294.27    8.40
   6  -6  -2  293.97    7.50
   5  -6  -2  495.35   11.80
   5  -6  -2  522.05   11.30
   4  -6  -2  936.61   19.00
   3  -6  -2  620.04   13.40
   2  -6  -2  935.01   19.30
   2  -6  -2  933.01   18.00
   1  -6  -2 1651.93   32.20
   1  -6  -2 1625.44   30.60
   0  -6  -2  927.91   18.20
   0  -6  -2  932.51   19.90
  -1  -6  -2  434.66    9.80
  -1  -6  -2  431.56   11.20
  -2  -6  -2  601.74   14.80
  -2  -6  -2  620.24   13.50
  -3  -6  -2  340.07    9.10
  -3  -6  -2  344.07   10.60
  -4  -6  -2  144.79    7.00
  -4  -6  -2  156.98    6.40
   9  -7  -2   56.49    5.30
   8  -7  -2  725.73   17.20
   7  -7  -2  693.33   16.20
   6  -7  -2  112.99    4.80
   6  -7  -2  115.99    5.40
   5  -7  -2   96.79    4.70
   5  -7  -2   96.49    4.60
   4  -7  -2  303.07    8.10
   3  -7  -2  227.98    5.90
   3  -7  -2  225.48    7.00
   2  -7  -2   98.89    3.60
   2  -7  -2  107.59    4.80
   1  -7  -2  166.48    6.50
   1  -7  -2  158.88    4.70
   0  -7  -2   78.79    3.70
   0  -7  -2   89.89    5.40
  -1  -7  -2   49.10    4.40
  -1  -7  -2   55.49    3.60
  -2  -7  -2  212.38    8.60
  -2  -7  -2  225.48    6.90
  -3  -7  -2   98.69    6.30
   9  -8  -2  196.38    8.50
   8  -8  -2  635.04   16.00
   7  -8  -2    6.70    3.00
   6  -8  -2   18.50    2.80
   6  -8  -2   14.00    3.30
   5  -8  -2  158.68    6.20
   5  -8  -2  170.28    6.10
   4  -8  -2  260.27    7.90
   3  -8  -2  282.47    7.00
   3  -8  -2  272.57    8.20
   2  -8  -2  199.68    7.40
   2  -8  -2  205.68    5.60
   1  -8  -2   -4.40    2.40
   1  -8  -2   -2.30    1.70
   0  -8  -2    3.80    3.20
  -1  -8  -2   36.50    4.50
  -2  -8  -2    2.80    3.20
   8  -9  -2   26.90    4.20
   7  -9  -2  271.77    9.10
   6  -9  -2  151.28    6.50
   6  -9  -2  148.89    6.30
   5  -9  -2   15.60    3.00
   5  -9  -2   11.50    2.90
   4  -9  -2   13.30    3.10
   3  -9  -2  309.07    9.30
   2  -9  -2  174.58    7.50
   1  -9  -2  116.59    6.70
   0  -9  -2   75.89    6.40
  -1  -9  -2    3.10    3.40
   7 -10  -2  230.48    9.00
   6 -10  -2   12.40    3.20
   5 -10  -2   74.69    5.40
   5 -10  -2   62.79    5.00
   4 -10  -2  514.35   13.60
   3 -10  -2  504.85   13.50
   2 -10  -2  174.38    7.70
   1 -10  -2  208.08    9.00
   0 -10  -2  186.48    8.60
   6 -11  -2  128.39    7.00
   5 -11  -2   99.49    6.30
   5 -11  -2  102.79    6.20
   4 -11  -2  101.39    6.70
   3 -11  -2  133.09    7.40
   2 -11   3   11.40    3.70
   3 -11   3   94.69    5.70
   3 -11   3  100.29    6.20
   4 -11   3    6.60    3.00
   4 -11   3    8.80    3.00
   4 -11   3    8.30    3.40
   5 -11   3   64.39    5.00
   5 -11   3   66.19    5.00
   6 -11   3    4.40    3.00
   0 -10   3  737.33   17.10
   0 -10   3  729.73   18.30
   1 -10   3    1.30    2.50
   1 -10   3    3.60    3.30
   2 -10   3  249.08    8.00
   2 -10   3  256.97    8.90
   3 -10   3   58.99    4.50
   3 -10   3   61.79    4.30
   3 -10   3   60.79    4.90
   4 -10   3  546.25   13.30
   4 -10   3  541.55   13.40
   4 -10   3  552.84   13.60
   5 -10   3   69.99    5.10
   6 -10   3    0.10    3.10
   7 -10   3  147.89    7.50
  -2  -9   3   35.70    4.20
  -1  -9   3  150.28    6.70
   0  -9   3  453.15   11.50
   1  -9   3   70.09    4.40
   1  -9   3   76.39    4.30
   2  -9   3   86.79    4.90
   2  -9   3   86.39    5.00
   2  -9   3   95.59    4.30
   3  -9   3  854.41   18.80
   3  -9   3  858.41   18.30
   3  -9   3  871.21   18.80
   4  -9   3  909.11   19.30
   4  -9   3  905.21   19.40
   5  -9   3  171.68    6.70
   6  -9   3   21.80    3.60
   7  -9   3  101.09    6.00
   8  -9   3  242.08    9.30
  -3  -8   3   37.60    4.20
  -2  -8   3   27.10    3.70
  -1  -8   3  769.22   17.10
   0  -8   3  694.43   15.40
   1  -8   3   79.99    3.70
   1  -8   3   84.99    4.40
   2  -8   3  632.54   14.20
   2  -8   3  625.74   13.60
   3  -8   3 1468.65   29.60
   3  -8   3 1505.45   29.20
   3  -8   3 1489.05   29.50
   4  -8   3  173.88    6.10
   4  -8   3  171.38    5.60
   5  -8   3    5.90    2.50
   6  -8   3  439.86   11.50
   7  -8   3  505.45   13.10
   8  -8   3   64.29    5.30
  -4  -7   3  266.17    9.20
  -3  -7   3   23.50    3.50
  -2  -7   3    0.00    2.40
  -1  -7   3  456.55   11.10
   0  -7   3  139.19    5.20
   1  -7   3  141.99    5.20
   1  -7   3  140.49    4.50
   2  -7   3    8.20    1.90
   2  -7   3   10.40    2.30
   3  -7   3  485.15   11.10
   3  -7   3  491.15   11.00
   4  -7   3    7.40    1.70
   4  -7   3    2.30    2.00
   5  -7   3   88.79    4.80
   5  -7   3   95.29    5.00
   6  -7   3   85.49    5.30
   7  -7   3  108.59    6.10
   8  -7   3   -0.10    3.40
  -5  -6   3  309.27   10.10
  -4  -6   3   -2.80    2.90
  -3  -6   3  283.37    8.30
  -2  -6   3   89.89    4.70
  -1  -6   3  376.96    9.30
   0  -6   3   31.70    2.70
   1  -6   3   59.09    3.40
   1  -6   3   56.69    2.80
   2  -6   3    6.70    1.60
   3  -6   3   25.70    2.40
   3  -6   3   27.70    2.10
   4  -6   3  381.36    8.20
   4  -6   3  376.66    9.20
   5  -6   3  667.93   14.70
   5  -6   3  647.14   12.90
   6  -6   3  130.19    5.50
   7  -6   3    1.00    2.60
   8  -6   3  170.48    7.20
   9  -6   3  523.45   14.20
  -6  -5   3   24.40    4.20
  -5  -5   3    3.90    3.00
  -4  -5   3  687.83   15.90
  -3  -5   3 1133.09   23.20
  -2  -5   3    2.50    2.10
  -2  -5   3    0.80    1.20
  -1  -5   3   93.59    3.90
  -1  -5   3   86.39    2.80
   0  -5   3 3030.50   56.19
   1  -5   3  809.32   16.60
   1  -5   3  828.72   15.90
   2  -5   3    4.80    1.40
   3  -5   3 1923.01   36.10
   3  -5   3 1904.71   35.40
   4  -5   3 1073.39   21.70
   4  -5   3 1101.69   20.20
   5  -5   3  253.07    7.20
   6  -5   3    6.90    2.50
   7  -5   3 1032.20   22.20
   8  -5   3  307.97   10.00
   9  -5   3    5.90    3.80
  -6  -4   3    0.90    3.10
  -5  -4   3  123.79    6.10
  -4  -4   3 1191.88   24.40
  -3  -4   3  878.81   17.10
  -3  -4   3  950.20   19.00
  -2  -4   3   72.39    2.20
  -2  -4   3   80.29    3.80
  -1  -4   3  286.77    6.90
  -1  -4   3  280.17    5.80
   0  -4   3 4349.46   84.29
   1  -4   3 5979.70  112.59
   2  -4   3  276.87    6.40
   3  -4   3   74.49    3.30
   3  -4   3   72.09    2.20
   4  -4   3 2035.20   38.50
   5  -4   3 1731.73   33.60
   6  -4   3  420.46   10.70
   7  -4   3  287.17    8.90
   8  -4   3  268.17    9.20
   9  -4   3   38.10    4.80
  -7  -3   3   89.99    6.40
  -6  -3   3   79.39    5.00
   5   3  -3  506.55   11.00
  -5  -3   3  512.65   12.60
   4   3  -3 1745.53   32.70
  -4  -3   3 1782.32   34.30
   3   3  -3   53.29    1.90
  -3  -3   3   55.79    3.20
  -3  -3   3   50.49    1.90
  -2  -3   3   79.49    3.50
  -2  -3   3   78.09    2.00
  -1  -3   3 4507.05   85.29
  -1  -3   3 4269.67   80.19
   0  -3   3 2267.47   42.70
   0  -3   3 2278.37   43.00
   1  -3   3  902.41   17.00
   2  -3   3   18.10    1.80
   3  -3   3 1465.55   27.80
   4  -3   3  558.24   12.10
   5  -3   3   16.80    2.40
   6  -3   3  116.99    5.50
   7  -3   3   55.69    4.30
   8  -3   3    6.40    3.50
  -8  -2   3  151.68    7.40
  -7  -2   3   95.19    6.20
   6   2  -3   67.29    4.50
  -6  -2   3   67.29    4.70
   5   2  -3  353.96    8.20
  -5  -2   3  348.47    9.30
   4   2  -3  299.57    6.60
  -4  -2   3  280.17    6.30
  -4  -2   3  289.67    7.80
   3   2  -3    2.50    1.00
  -3  -2   3    3.40    0.80
  -3  -2   3    4.10    1.80
   2   2  -3  184.38    3.60
  -2  -2   3  179.08    3.60
  -2  -2   3  182.48    5.00
  -1  -2   3 1330.57   25.00
   0   2  -3   51.19    1.60
   0  -2   3   52.99    1.60
   0  -2   3   50.09    2.40
  -1   2  -3 1622.64   30.00
   1  -2   3 1634.24   30.80
   1  -2   3 1647.04   30.50
   2  -2   3  143.79    3.90
   2  -2   3  139.29    2.90
   3  -2   3   59.09    3.00
   4  -2   3    0.60    1.90
   5  -2   3  262.77    7.50
   6  -2   3  276.77    8.30
   7  -2   3    2.30    3.00
   8  -2   3    2.60    3.10
  -8  -1   3   21.00    3.80
  -7  -1   3  900.11   20.20
   6   1  -3  698.03   14.70
  -6  -1   3  694.03   15.80
   5   1  -3   93.19    3.70
  -5  -1   3   86.79    4.60
   4   1  -3   11.90    1.50
  -4  -1   3   11.70    2.00
  -4  -1   3   12.70    1.30
   3   1  -3 2233.28   40.00
  -3  -1   3 2182.48   40.90
  -3  -1   3 2175.18   39.90
   2   1  -3  322.77    6.10
  -2  -1   3  315.07    7.00
   1   1  -3 1614.84   29.60
   1   1  -3 1633.24   29.40
  -1  -1   3 1569.44   30.60
   0   1  -3 1951.50   37.30
   0   1  -3 1840.32   35.40
   0  -1   3 1914.71   36.00
   0  -1   3 1924.71   36.40
  -1   1  -3 4959.00   89.79
  -1   1  -3 4736.63   89.49
   1  -1   3 4864.11   90.69
   1  -1   3 4863.51   89.69
  -2   1  -3 1035.20   18.90
   2  -1   3 1018.10   19.70
  -3   1  -3  304.97    6.10
   3  -1   3  300.97    7.30
  -4   1  -3 1999.70   36.60
   4  -1   3 1969.70   37.60
  -5   1  -3  798.12   15.60
   5  -1   3  821.22   17.30
   6  -1   3   47.00    3.80
   7  -1   3  265.57    8.90
   8  -1   3  217.38    8.90
  -8   0   3  156.78    7.30
   7   0  -3  655.73   14.10
  -7   0   3  611.74   14.90
   6   0  -3   45.50    3.40
  -6   0   3   55.19    4.00
   5   0  -3   28.70    2.30
  -5   0   3   26.90    2.80
   4   0  -3 1480.65   27.80
  -4   0   3 1498.65   28.60
   3   0  -3 3014.60   55.19
  -3   0   3 2962.50   57.29
  -3   0   3 2954.60   55.29
   2   0  -3 3968.80   74.99
   2   0  -3 4071.99   77.19
  -2   0   3 4157.38   77.99
  -2   0   3 4045.10   76.29
   1   0  -3 5371.76  102.29
   1   0  -3 5817.42  105.09
  -1   0   3 5448.85  102.59
   0   0  -3 2230.48   43.10
   0   0  -3 2360.86   45.00
   0   0   3 2299.27   44.30
   0   0   3 2325.47   44.70
  -1   0  -3 2295.97   43.80
   1   0   3 2266.67   43.30
   1   0   3 2218.48   42.50
   1   0   3 2406.46   44.50
  -2   0  -3 1844.42   34.60
   2   0   3 1815.72   34.10
  -3   0  -3 1072.69   20.70
  -3   0  -3 1075.19   20.10
   3   0   3 1040.00   20.80
  -4   0  -3 1585.34   29.50
  -4   0  -3 1569.94   30.30
   4   0   3 1568.84   30.50
  -5   0  -3  670.53   13.70
  -5   0  -3  659.53   14.70
   5   0   3  688.43   15.00
  -6   0  -3   59.99    4.80
  -6   0  -3   60.09    4.70
   6   0   3   41.50    3.90
   7   0   3  108.59    6.40
   8   0   3   84.69    6.70
  -9   1   3    1.40    3.30
   8  -1  -3  422.16   11.00
  -8   1   3  415.16   11.60
   7  -1  -3 1054.89   21.40
  -7   1   3 1019.70   22.10
   6  -1  -3    0.70    1.80
  -6   1   3    6.10    2.50
   5  -1  -3   42.60    2.80
  -5   1   3   45.20    3.20
   4  -1  -3 5394.06  103.39
   4  -1  -3 5430.66  100.39
  -4   1   3 5384.96  101.39
   3  -1  -3 1978.30   35.80
   3  -1  -3 1889.71   35.50
  -3   1   3 1912.31   35.70
   2  -1  -3 2292.77   42.80
   2  -1  -3 2354.16   44.90
  -2   1   3 2305.47   42.80
  -2   1   3 2295.27   43.40
   1  -1  -3  124.79    2.60
   1  -1  -3  125.89    3.40
  -1   1   3  128.79    2.70
   0  -1  -3 5070.19   95.79
   0   1   3 4903.81   93.49
   0   1   3 5082.79   95.49
   0   1   3 5102.19   91.79
  -1  -1  -3  443.16    8.70
  -1  -1  -3  451.55    9.10
  -1  -1  -3  423.96    9.30
   1   1   3  448.66    8.80
   1   1   3  458.65    9.40
  -2  -1  -3  139.69    3.90
  -2  -1  -3  143.79    4.00
   2   1   3  136.99    4.40
   2   1   3  142.09    4.40
  -3  -1  -3  863.61   16.60
  -3  -1  -3  838.32   16.80
   3   1   3  813.32   17.10
  -4  -1  -3  832.12   17.30
  -4  -1  -3  845.12   16.90
   4   1   3  842.02   17.70
  -5  -1  -3  243.38    7.20
  -5  -1  -3  241.88    6.60
   5   1   3  235.68    7.70
  -6  -1  -3    8.10    2.90
  -6  -1  -3    7.00    2.20
   6   1   3    5.80    3.30
  -7  -1  -3   14.40    3.40
   7   1   3    7.10    3.40
   9  -2  -3   44.40    4.40
  -9   2   3   52.09    4.90
   8  -2  -3  743.53   16.60
  -8   2   3  732.33   17.30
   7  -2  -3  359.76    9.30
  -7   2   3  358.66    9.90
   6  -2  -3    4.70    2.10
  -6   2   3    5.40    2.10
   5  -2  -3  185.08    5.00
   5  -2  -3  176.68    5.30
  -5   2   3  184.18    5.50
   4  -2  -3 1570.04   29.10
   4  -2  -3 1548.55   29.00
  -4   2   3 1579.44   29.20
  -4   2   3 1464.95   29.90
   3  -2  -3  119.39    3.70
   3  -2  -3  113.49    3.30
  -3   2   3  117.49    3.50
   2  -2  -3  452.65    9.40
   2  -2  -3  457.05    8.80
  -2   2   3  458.05    8.80
   0  -2  -3 2282.67   43.10
   0  -2  -3 2383.36   43.30
   0  -2  -3 2402.86   43.50
   0   2   3 2385.86   43.30
   0   2   3 2281.97   43.20
  -1  -2  -3  442.16    8.70
  -1  -2  -3  446.46    9.40
   1   2   3  432.86    9.40
   1   2   3  431.86    8.70
  -2  -2  -3   13.60    1.90
  -2  -2  -3   13.20    1.60
   2   2   3   16.50    2.20
  -3  -2  -3  850.01   16.90
  -3  -2  -3  839.82   17.10
   3   2   3  812.02   17.20
  -4  -2  -3    3.60    2.00
  -4  -2  -3    9.70    2.10
   4   2   3    9.40    2.60
  -5  -2  -3  295.27    8.50
  -5  -2  -3  304.07    8.20
   5   2   3  288.77    8.70
  -6  -2  -3   14.10    2.70
  -6  -2  -3   17.70    3.30
   6   2   3   11.60    3.30
  -7  -2  -3   42.00    4.30
   7   2   3   41.00    4.40
   9  -3  -3   -1.40    2.80
   8  -3  -3  228.48    7.60
  -8   3   3  217.28    7.70
   7  -3  -3   37.90    3.40
  -7   3   3   36.20    3.40
   6  -3  -3  324.67    7.60
   6  -3  -3  325.57    8.40
  -6   3   3  318.47    8.40
   5  -3  -3    8.30    2.10
   5  -3  -3    9.50    1.60
  -5   3   3    7.50    1.80
   4  -3  -3  173.58    5.00
   4  -3  -3  171.78    4.70
  -4   3   3  169.08    4.70
   3  -3  -3   -0.40    1.00
   3  -3  -3    3.40    1.30
  -3   3   3    1.90    1.40
   2  -3  -3  743.73   14.10
   2  -3  -3  769.12   15.00
   1  -3  -3  494.55    9.10
   1  -3  -3  480.85   10.30
   0  -3  -3    2.80    0.80
   0  -3  -3    1.90    1.60
   0   3   3    2.90    0.80
  -1  -3  -3  240.98    6.40
  -1  -3  -3  244.28    5.50
   1   3   3  240.88    6.10
  -2  -3  -3  740.63   15.50
  -2  -3  -3  739.43   14.70
   2   3   3  727.73   15.20
  -3  -3  -3  180.98    5.70
  -3  -3  -3  169.58    5.40
   3   3   3  172.78    5.70
  -4  -3  -3  199.88    6.60
  -4  -3  -3  189.18    6.30
   4   3   3  192.28    6.50
  -5  -3  -3  257.77    8.20
  -5  -3  -3  271.87    8.20
   5   3   3  275.97    8.30
  -6  -3  -3   32.30    3.70
  -6  -3  -3   29.90    3.80
   6   3   3   35.40    3.90
   9  -4  -3   57.59    4.80
   8  -4  -3    4.00    2.90
   7  -4  -3 2114.09   40.90
   6  -4  -3  927.91   18.20
   6  -4  -3  903.01   19.00
   5  -4  -3  279.17    7.00
   5  -4  -3  295.67    7.60
   4  -4  -3 1353.56   26.00
   3  -4  -3 7331.27  138.39
   3  -4  -3 7599.84  141.79
   2  -4  -3  320.27    7.60
   1  -4  -3  185.68    3.90
   1  -4  -3  175.48    5.20
   0  -4  -3  839.82   16.10
   0  -4  -3  888.41   17.60
   0   4   3  832.32   16.20
  -1  -4  -3 1647.14   32.20
  -1  -4  -3 1670.63   30.90
  -2  -4  -3  414.86   10.40
  -2  -4  -3  417.36    9.30
  -3  -4  -3  189.78    6.50
  -3  -4  -3  192.08    5.90
   3   4   3  187.38    6.00
  -4  -4  -3  376.66    9.60
  -4  -4  -3  376.46   10.20
   4   4   3  361.46    9.70
  -5  -4  -3  241.58    7.90
  -5  -4  -3  248.08    8.40
   5   4   3  245.08    7.80
  -6  -4  -3   79.79    7.70
  -6  -4  -3   79.59    5.50
   9  -5  -3   46.10    4.70
   8  -5  -3   53.49    4.30
   7  -5  -3  624.04   14.70
   7  -5  -3  638.34   13.40
   6  -5  -3  686.73   15.30
   6  -5  -3  704.63   14.50
   5  -5  -3   56.59    3.30
   5  -5  -3   57.49    3.50
   4  -5  -3  440.36   10.00
   3  -5  -3 2129.69   39.40
   3  -5  -3 2042.60   38.30
   2  -5  -3  309.57    7.80
   2  -5  -3  314.47    6.50
   1  -5  -3  180.08    4.10
   1  -5  -3  171.48    5.50
   0  -5  -3 2508.95   45.70
   0  -5  -3 2418.06   46.80
  -1  -5  -3 1500.05   30.00
  -1  -5  -3 1508.85   28.50
  -2  -5  -3  165.18    5.20
  -2  -5  -3  164.58    6.30
  -3  -5  -3  134.49    6.30
  -3  -5  -3  133.19    5.10
  -4  -5  -3   82.59    5.70
  -4  -5  -3   93.39    5.00
  -5  -5  -3   45.00    4.10
  -5  -5  -3   46.60    4.60
   9  -6  -3    4.90    3.10
   8  -6  -3  855.21   19.30
   7  -6  -3  903.41   19.80
   6  -6  -3    7.20    2.40
   6  -6  -3    7.30    2.20
   5  -6  -3   39.90    3.30
   4  -6  -3 1133.99   22.70
   3  -6  -3  729.53   15.60
   2  -6  -3    4.90    2.20
   2  -6  -3    4.30    1.20
   1  -6  -3  148.19    4.00
   1  -6  -3  146.39    5.50
   0  -6  -3 1110.89   23.00
   0  -6  -3 1088.59   21.10
  -1  -6  -3   65.29    4.50
  -1  -6  -3   64.79    3.30
  -2  -6  -3  168.78    7.10
  -2  -6  -3  162.98    5.50
  -3  -6  -3   92.39    6.10
  -3  -6  -3  101.49    4.90
  -4  -6  -3  334.17   10.60
   9  -7  -3   15.60    4.00
   8  -7  -3  294.07    9.40
   7  -7  -3   16.20    3.20
   6  -7  -3  360.86    9.30
   6  -7  -3  358.46   10.00
   5  -7  -3    2.10    2.20
   4  -7  -3  331.67    8.80
   3  -7  -3   26.10    2.90
   3  -7  -3   28.70    2.00
   2  -7  -3  304.87    6.90
   2  -7  -3  303.97    8.70
   1  -7  -3   18.30    1.90
   1  -7  -3   15.20    2.90
   0  -7  -3   -1.60    1.50
   0  -7  -3    5.10    2.90
  -1  -7  -3   65.69    4.10
  -1  -7  -3   55.19    4.60
  -2  -7  -3   82.09    6.20
  -3  -7  -3   -5.70    2.80
   9  -8  -3  109.99    6.50
   8  -8  -3   33.30    4.40
   7  -8  -3   25.30    3.60
   6  -8  -3  553.14   13.70
   6  -8  -3  549.54   13.10
   5  -8  -3   10.40    2.70
   4  -8  -3   30.50    3.30
   4  -8  -3   34.60    2.60
   3  -8  -3  520.85   10.90
   3  -8  -3  506.55   12.70
   2  -8  -3  414.66   11.20
   1  -8  -3    9.40    2.90
   0  -8  -3  161.88    7.20
  -1  -8  -3  372.66   11.50
  -2  -8  -3  213.08    9.20
   8  -9  -3   46.70    4.60
   7  -9  -3  621.54   15.50
   6  -9  -3  632.74   15.50
   6  -9  -3  640.84   15.10
   5  -9  -3   48.90    4.20
   4  -9  -3  166.28    6.90
   3  -9  -3 1442.96   30.00
   2  -9  -3  403.16   11.80
   1  -9  -3   41.20    4.70
   0  -9  -3  325.77   10.80
  -1  -9  -3  705.93   18.20
   7 -10  -3  355.16   11.10
   6 -10  -3  117.89    6.30
   6 -10  -3  121.49    6.20
   5 -10  -3   85.19    5.70
   4 -10  -3  202.18    8.10
   3 -10  -3  207.78    8.50
   2 -10  -3  297.17   10.20
   1 -10  -3  161.38    8.30
   5 -11  -3  102.79    6.60
   5 -11  -3  118.09    6.20
   4 -11  -3  228.28    8.80
   2 -11   4    1.40    2.80
   2 -11   4    5.40    3.10
   3 -11   4  131.59    6.70
   3 -11   4  125.49    6.20
   4 -11   4  657.53   15.50
   4 -11   4  663.83   16.10
   5 -11   4  124.19    6.50
   5 -11   4  131.19    6.50
   0 -10   4  487.85   12.80
   1 -10   4  578.94   14.10
   2 -10   4   18.10    3.10
   2 -10   4   17.40    3.60
   3 -10   4  103.69    4.90
   3 -10   4  107.59    5.60
   3 -10   4  101.59    5.60
   4 -10   4  716.63   16.20
   4 -10   4  712.53   16.80
   4 -10   4  702.43   16.30
   5 -10   4  207.78    7.60
   6 -10   4    2.70    3.00
   7 -10   4  198.38    8.20
  -2  -9   4   18.50    3.70
  -1  -9   4   30.60    3.80
   0  -9   4  762.82   17.20
   1  -9   4  279.67    8.40
   2  -9   4    2.20    2.00
   2  -9   4    1.00    2.20
   3  -9   4  477.35   12.10
   3  -9   4  470.75   11.90
   3  -9   4  489.45   11.40
   4  -9   4  923.51   19.60
   4  -9   4  935.31   19.80
   5  -9   4    0.50    2.40
   6  -9   4   17.70    3.50
   7  -9   4  191.28    8.00
  -3  -8   4   -0.60    2.90
  -2  -8   4    3.80    3.00
  -1  -8   4  200.98    7.10
   0  -8   4  207.48    6.90
   1  -8   4   10.60    2.00
   1  -8   4    9.50    2.20
   2  -8   4   33.30    3.20
   2  -8   4   34.80    2.80
   3  -8   4   62.29    3.80
   3  -8   4   59.99    4.30
   3  -8   4   61.79    3.70
   4  -8   4    9.70    2.10
   4  -8   4    9.80    2.60
   5  -8   4  209.08    7.20
   6  -8   4    8.00    2.70
   7  -8   4  291.07    9.60
   8  -8   4    4.40    3.20
  -4  -7   4   -0.70    3.10
  -3  -7   4  337.67   10.00
  -2  -7   4  187.38    6.90
  -1  -7   4  285.47    8.30
   0  -7   4   29.40    2.10
   0  -7   4   30.20    3.00
   1  -7   4 1770.52   34.10
   1  -7   4 1726.13   32.90
   2  -7   4  220.28    6.80
   2  -7   4  221.98    6.10
   3  -7   4   35.50    2.80
   4  -7   4  319.97    7.60
   4  -7   4  315.97    8.50
   5  -7   4  545.35   12.80
   6  -7   4   35.50    3.70
   7  -7   4    5.50    3.30
   8  -7   4  258.37    9.00
  -5  -6   4   36.00    4.50
  -4  -6   4   21.80    3.70
  -3  -6   4  500.35   12.40
  -2  -6   4  528.45   12.50
  -1  -6   4   12.30    2.40
   0  -6   4  549.35   10.90
   0  -6   4  535.75   12.20
   1  -6   4 2743.83   50.39
   1  -6   4 2733.23   51.49
   2  -6   4  344.67    7.90
   3  -6   4    7.70    1.90
   4  -6   4 1460.35   27.90
   4  -6   4 1526.05   29.20
   5  -6   4 1284.87   25.90
   6  -6   4   99.29    5.00
   7  -6   4  352.56   10.10
   8  -6   4  665.33   16.50
  -6  -5   4   57.89    5.30
  -5  -5   4   78.99    5.30
  -4  -5   4  940.11   20.40
  -3  -5   4  950.20   20.10
  -2  -5   4  181.88    4.00
  -2  -5   4  181.88    6.00
  -1  -5   4  422.16    8.60
  -1  -5   4  451.85   10.10
   0  -5   4 2401.76   44.60
   0  -5   4 2344.97   43.30
   1  -5   4 1984.00   38.20
   1  -5   4 2056.09   37.30
   2  -5   4    3.00    1.40
   3  -5   4   18.80    2.10
   4  -5   4 1194.58   22.40
   4  -5   4 1255.77   22.50
   4  -5   4 1221.28   24.20
   5  -5   4  715.23   15.60
   6  -5   4   61.99    4.70
   7  -5   4    6.20    2.90
   8  -5   4  381.36   11.40
  -6  -4   4   24.20    4.00
  -5  -4   4    1.50    2.80
  -4  -4   4  633.34   14.50
  -3  -4   4  201.78    6.30
  -3  -4   4  206.18    4.20
  -2  -4   4  138.09    4.70
  -1  -4   4 1364.36   25.90
  -1  -4   4 1332.87   24.20
  -1  -4   4 1303.17   24.30
   0  -4   4 2978.30   54.79
   0  -4   4 3001.40   55.29
   1  -4   4  102.79    3.10
   2  -4   4  179.98    4.80
   3  -4   4 1516.95   27.90
   3  -4   4 1536.15   29.10
   4  -4   4 1679.93   32.30
   5  -4   4   14.10    2.40
   6  -4   4   70.99    4.80
   7  -4   4   81.09    5.10
   8  -4   4   80.29    6.20
  -6  -3   4   44.70    4.10
  -5  -3   4  217.08    7.50
   4   3  -4  236.48    5.10
  -4  -3   4  224.78    7.10
  -3  -3   4  728.33   15.10
  -3  -3   4  703.63   13.20
  -2  -3   4  557.64   11.90
  -1  -3   4  916.71   18.10
   0  -3   4    2.20    1.40
   0  -3   4    4.80    0.90
   1  -3   4 1331.67   25.70
   1  -3   4 1437.56   25.80
   2  -3   4 1106.79   20.90
   2  -3   4 1160.48   21.70
   3  -3   4  183.08    5.10
   4  -3   4   20.70    2.50
   5  -3   4 1306.57   26.10
   6  -3   4  250.17    7.90
   7  -3   4   13.60    3.60
   8  -3   4   27.30    4.30
  -8  -2   4   13.30    4.00
  -7  -2   4  510.95   13.40
  -6  -2   4  299.47    9.10
   5   2  -4  191.88    5.10
  -5  -2   4  187.18    6.40
   4   2  -4    2.70    1.20
  -4  -2   4    2.50    1.90
   3   2  -4 2358.96   42.50
  -3  -2   4 2316.57   43.80
  -2  -2   4 2312.87   43.00
  -1  -2   4  122.19    3.70
   0   2  -4   17.70    1.30
   0  -2   4   16.70    1.80
   0  -2   4   16.00    1.20
   0  -2   4   18.90    1.60
  -1   2  -4 2319.07   42.80
   1  -2   4 2344.37   43.90
   1  -2   4 2362.26   44.60
   2  -2   4 1866.61   34.10
   2  -2   4 1858.41   34.60
   3  -2   4   24.50    2.20
   4  -2   4  940.31   19.10
   5  -2   4 2558.14   48.50
   6  -2   4  318.67    9.00
   7  -2   4    2.20    3.10
   8  -2   4  259.37    9.50
  -8  -1   4   69.89    5.50
  -7  -1   4  547.05   13.70
   6   1  -4  897.91   18.30
  -6  -1   4  921.31   19.70
   5   1  -4   47.50    2.80
  -5  -1   4   41.20    3.30
   4   1  -4  609.14   11.90
  -4  -1   4  595.74   13.00
   3   1  -4 5467.15   99.19
  -3  -1   4 5338.07  104.59
   2   1  -4 1281.57   23.20
  -2  -1   4 1261.77   24.00
   1   1  -4 1026.10   19.40
   1   1  -4 1024.00   19.60
   1   1  -4  974.00   19.30
  -1  -1   4 1071.89   19.50
   0   1  -4  619.94   12.30
   0   1  -4  648.44   12.50
   0  -1   4  650.93   12.50
   0  -1   4  661.83   12.30
  -1   1  -4 4791.92   89.39
   1  -1   4 4693.43   89.19
   1  -1   4 4803.92   88.99
  -2   1  -4  561.84   10.60
   2  -1   4  533.55   10.50
   2  -1   4  566.14   11.40
  -3   1  -4   20.80    1.50
   3  -1   4   23.20    2.40
  -4   1  -4  920.61   17.20
   4  -1   4  897.61   18.60
  -5   1  -4  937.11   17.60
   5  -1   4  910.81   19.50
   6  -1   4   19.60    3.20
   7  -1   4   33.60    4.50
   8  -1   4  319.27   10.80
  -8   0   4   97.29    5.90
   7   0  -4  337.87    8.70
  -7   0   4  330.77    9.90
   6   0  -4  247.98    6.60
  -6   0   4  249.08    7.80
   5   0  -4  116.79    3.80
  -5   0   4  112.99    4.50
   4   0  -4 1825.02   33.80
  -4   0   4 1827.52   34.60
   3   0  -4 3936.91   72.79
   3   0  -4 3924.01  106.29
  -3   0   4 3918.71   75.39
   2   0  -4  420.46    8.90
   2   0  -4  404.56    8.50
  -2   0   4  427.56    8.60
   1   0  -4  871.21   16.50
   1   0  -4  883.11   17.00
   1   0  -4  876.81   16.50
  -1   0   4  910.31   16.60
   0   0  -4 6546.95  125.39
   0   0  -4 6788.52  126.09
   0   0   4 6776.52  126.19
   0   0   4 6746.33  125.59
  -1   0  -4 3219.18   60.19
   1   0   4 3180.88   58.19
   1   0   4 3158.48   58.89
  -2   0  -4    7.00    1.20
   2   0   4   10.30    2.10
  -3   0  -4  160.88    4.20
   3   0   4  161.88    5.10
  -4   0  -4  887.81   17.30
   4   0   4  885.81   18.50
  -5   0  -4  100.99    3.70
   5   0   4  107.09    5.50
   6   0   4   74.19    5.50
   7   0   4   -3.20    3.40
  -9   1   4    0.10    3.40
   8  -1  -4   63.49    4.60
  -8   1   4   66.69    5.10
   7  -1  -4  210.98    6.40
  -7   1   4  209.78    7.20
   6  -1  -4    3.10    1.90
  -6   1   4    2.00    2.20
   5  -1  -4   57.89    3.00
  -5   1   4   59.19    3.70
   4  -1  -4  109.19    3.80
   4  -1  -4  106.09    3.50
  -4   1   4   99.49    3.80
   3  -1  -4  191.48    5.10
  -3   1   4  182.78    5.60
  -3   1   4  187.98    4.80
   2  -1  -4 3357.06   64.39
   2  -1  -4 3463.25   66.89
  -2   1   4 3442.86   64.89
   1  -1  -4 2672.73   51.99
   1  -1  -4 2765.72   61.49
   1  -1  -4 2790.02   53.69
  -1   1   4 2787.12   51.09
   0  -1  -4 2356.16   45.70
   0   1   4 2310.87   43.40
   0   1   4 2442.56   46.40
  -1  -1  -4  212.98    5.30
   1   1   4  216.18    4.80
   1   1   4  210.28    5.20
   1   1   4  209.58    5.60
  -2  -1  -4 1741.03   32.60
  -2  -1  -4 1734.73   32.40
   2   1   4 1751.72   33.10
  -3  -1  -4   21.30    2.20
  -3  -1  -4   19.90    2.00
   3   1   4   16.80    2.60
  -4  -1  -4  604.14   13.10
  -4  -1  -4  593.44   12.70
   4   1   4  593.84   13.60
  -5  -1  -4  293.77    8.40
  -5  -1  -4  304.17    7.80
   5   1   4  311.87    9.10
   6   1   4  222.18    8.30
   7   1   4  250.87    9.50
   9  -2  -4   54.19    4.50
  -9   2   4   62.09    5.20
   8  -2  -4  180.98    6.80
  -8   2   4  198.48    7.60
   7  -2  -4    7.80    2.40
  -7   2   4    9.10    2.90
   6  -2  -4  535.15   11.90
  -6   2   4  527.45   12.30
   5  -2  -4   23.10    2.10
   5  -2  -4   24.40    2.30
  -5   2   4   26.60    2.50
   4  -2  -4   62.79    3.00
   4  -2  -4   60.39    2.90
  -4   2   4   56.59    3.00
   3  -2  -4  625.34   12.30
   3  -2  -4  638.74   12.90
  -3   2   4  629.24   12.40
   2  -2  -4  855.61   17.00
   2  -2  -4  877.11   16.10
  -2   2   4  882.41   16.20
   1  -2  -4  150.38    4.30
   0  -2  -4    3.20    1.40
   0   2   4    2.20    0.60
   0   2   4    1.00    1.40
  -1  -2  -4  270.77    5.80
  -1  -2  -4  268.07    6.50
   1   2   4  265.17    5.80
   1   2   4  271.57    6.60
  -2  -2  -4 2856.81   52.39
  -2  -2  -4 2870.91   52.99
   2   2   4 2841.72   53.19
  -3  -2  -4 1743.93   33.50
  -3  -2  -4 1728.73   33.20
   3   2   4 1778.82   33.90
  -4  -2  -4   53.19    3.50
  -4  -2  -4   51.19    3.50
   4   2   4   40.10    3.40
  -5  -2  -4  102.09    4.90
  -5  -2  -4  105.69    5.20
   5   2   4  100.79    5.60
  -6  -2  -4  547.25   13.60
   6   2   4  557.14   14.10
   7   2   4  158.58    7.40
   9  -3  -4  179.18    7.30
  -9   3   4  187.78    7.80
   8  -3  -4   40.40    3.90
  -8   3   4   32.40    3.70
   7  -3  -4  323.77    8.70
  -7   3   4  315.77    8.80
   6  -3  -4 2011.40   38.20
   6  -3  -4 1949.90   37.70
  -6   3   4 2033.40   38.30
   5  -3  -4  278.77    7.00
   5  -3  -4  278.57    7.10
  -5   3   4  278.17    7.00
   4  -3  -4   11.70    1.90
  -4   3   4   11.00    1.60
   3  -3  -4 4183.88   81.09
   3  -3  -4 4065.09   76.19
   2  -3  -4 2460.95   45.80
   2  -3  -4 2489.25   46.90
   1  -3  -4 1398.26   26.80
   0  -3  -4  793.02   14.80
   0  -3  -4  799.22   16.20
   0   3   4  794.02   14.80
  -1  -3  -4 8420.76  155.88
  -1  -3  -4 8048.89  149.49
   1   3   4 7778.62  149.99
  -2  -3  -4  558.84   11.50
  -2  -3  -4  549.74   12.30
   2   3   4  555.84   12.30
  -3  -3  -4  395.96    9.80
  -3  -3  -4  394.96    9.30
   3   3   4  414.76   10.00
  -4  -3  -4  224.88    7.10
  -4  -3  -4  223.68    6.80
   4   3   4  215.48    7.20
  -5  -3  -4 1049.89   22.40
  -5  -3  -4 1055.59   22.20
   5   3   4 1069.49   22.60
  -6  -3  -4   89.59    5.60
   6   3   4   89.29    5.60
   9  -4  -4  110.39    6.10
   8  -4  -4  277.97    8.40
   7  -4  -4  669.53   14.20
   7  -4  -4  666.93   15.10
   6  -4  -4 1138.39   23.00
   6  -4  -4 1120.49   22.40
   5  -4  -4 1045.60   20.90
   5  -4  -4 1020.10   20.60
   4  -4  -4  417.86    9.60
   3  -4  -4 1065.99   20.80
   3  -4  -4 1039.40   19.60
   2  -4  -4 2666.93   48.80
   1  -4  -4  544.55   11.80
   1  -4  -4  533.55   10.00
   0  -4  -4  327.77    8.20
   0  -4  -4  330.97    6.70
   0   4   4  323.97    6.80
  -1  -4  -4 1747.63   33.90
  -1  -4  -4 1742.33   32.40
  -2  -4  -4  187.98    5.20
  -2  -4  -4  191.38    6.30
  -3  -4  -4   40.10    3.70
  -3  -4  -4   46.70    3.20
   3   4   4   39.80    3.30
  -4  -4  -4  315.57    8.60
  -4  -4  -4  326.27    9.30
   4   4   4  314.57    9.00
  -5  -4  -4  643.64   14.90
  -5  -4  -4  641.34   15.50
   5   4   4  627.04   15.10
   9  -5  -4  130.59    6.70
   8  -5  -4    0.70    2.80
   7  -5  -4  877.21   18.10
   7  -5  -4  897.51   19.30
   6  -5  -4   80.09    4.00
   6  -5  -4   76.39    4.30
   5  -5  -4  441.46   10.30
   4  -5  -4   61.19    3.60
   3  -5  -4 1148.19   22.00
   3  -5  -4 1224.08   23.60
   2  -5  -4   88.89    2.40
   2  -5  -4   94.39    4.30
   1  -5  -4    9.10    2.30
   1  -5  -4    8.10    1.00
   0  -5  -4  350.86    9.10
   0  -5  -4  350.06    7.30
  -1  -5  -4  319.07    7.30
  -1  -5  -4  332.67    9.00
  -2  -5  -4   65.39    4.90
  -2  -5  -4   72.29    3.70
  -3  -5  -4   31.10    3.80
  -3  -5  -4   33.10    3.00
  -4  -5  -4  186.58    7.70
  -4  -5  -4  185.98    6.60
  -5  -5  -4    2.10    3.20
   9  -6  -4    8.70    3.40
   8  -6  -4  156.98    6.90
   7  -6  -4  210.08    6.40
   7  -6  -4  195.38    7.10
   6  -6  -4  212.08    6.90
   6  -6  -4  216.98    6.70
   5  -6  -4  433.46   10.50
   4  -6  -4  193.38    6.20
   3  -6  -4   46.80    2.00
   3  -6  -4   43.50    3.40
   2  -6  -4  911.01   17.00
   2  -6  -4  896.61   19.10
   1  -6  -4  548.75   13.00
   1  -6  -4  547.25   10.80
   0  -6  -4    1.20    1.30
   0  -6  -4    2.00    2.50
  -1  -6  -4  161.98    4.80
  -1  -6  -4  160.78    6.80
  -2  -6  -4  543.45   12.20
  -2  -6  -4  579.84   14.40
  -3  -6  -4   38.00    4.20
  -4  -6  -4   24.30    3.90
   9  -7  -4  238.88    9.10
   8  -7  -4   63.49    5.00
   7  -7  -4   88.99    5.20
   7  -7  -4   85.89    5.60
   6  -7  -4  780.92   17.40
   6  -7  -4  783.62   17.10
   5  -7  -4  486.85   11.80
   4  -7  -4  138.89    5.70
   3  -7  -4   54.49    4.40
   3  -7  -4   60.29    2.50
   2  -7  -4 2401.26   44.20
   2  -7  -4 2427.16   46.70
   1  -7  -4  484.05   12.40
   0  -7  -4   63.89    4.80
  -1  -7  -4  243.38    8.90
  -2  -7  -4  715.83   17.60
  -3  -7  -4   64.59    5.70
   9  -8  -4  194.28    8.40
   8  -8  -4   71.79    5.50
   7  -8  -4  258.47    8.60
   6  -8  -4  468.35   12.20
   6  -8  -4  488.15   12.10
   5  -8  -4  282.57    8.60
   4  -8  -4  273.97    8.50
   3  -8  -4  861.11   19.20
   2  -8  -4  973.60   21.40
   1  -8  -4   72.29    5.20
   0  -8  -4   22.20    4.00
  -1  -8  -4  706.33   17.80
  -2  -8  -4  387.96   12.20
   8  -9  -4    4.90    3.30
   7  -9  -4  472.45   12.80
   6  -9  -4  636.64   15.60
   6  -9  -4  649.14   15.40
   5  -9  -4    2.50    2.80
   4  -9  -4   20.70    3.60
   3  -9  -4  461.05   12.50
   2  -9  -4  153.68    7.40
   1  -9  -4    9.60    3.40
   0  -9  -4    2.20    3.30
  -1  -9  -4   87.19    6.60
   7 -10  -4  164.28    7.80
   6 -10  -4   17.20    3.70
   6 -10  -4   17.00    3.50
   5 -10  -4  441.56   12.50
   4 -10  -4    3.00    2.90
   3 -10  -4  550.54   14.90
   2 -10  -4   22.30    4.30
   1 -10  -4  427.86   13.40
   2 -11   5  143.39    6.70
   2 -11   5  142.59    7.40
   3 -11   5   32.40    4.10
   3 -11   5   33.30    4.10
   4 -11   5  292.27    9.70
   5 -11   5  168.38    7.10
   5 -11   5  173.38    7.60
   0 -10   5  179.78    7.40
   1 -10   5  184.88    7.30
   2 -10   5  103.59    5.70
   3 -10   5   24.20    3.10
   3 -10   5   26.70    3.60
   3 -10   5   21.10    3.30
   4 -10   5   84.19    5.60
   4 -10   5   90.09    5.00
   5 -10   5   97.99    5.70
   6 -10   5    1.30    2.70
  -2  -9   5   12.80    3.50
  -1  -9   5   55.59    4.70
   0  -9   5   72.09    5.00
   1  -9   5    7.50    2.80
   2  -9   5  125.49    5.90
   2  -9   5  115.39    4.70
   3  -9   5    0.50    2.40
   3  -9   5    0.70    2.20
   3  -9   5    1.90    2.30
   4  -9   5   16.40    2.70
   4  -9   5   15.00    2.90
   5  -9   5   75.59    5.10
   6  -9   5   31.10    3.90
   7  -9   5    3.90    3.40
  -3  -8   5   16.80    3.80
  -2  -8   5   77.99    5.00
  -1  -8   5  218.68    7.60
   0  -8   5   82.19    4.90
   1  -8   5  346.97    8.10
   1  -8   5  344.07    9.50
   2  -8   5 1103.79   21.80
   2  -8   5 1096.29   23.00
   3  -8   5  271.47    7.40
   3  -8   5  259.67    8.20
   4  -8   5   38.30    3.50
   4  -8   5   36.60    2.80
   5  -8   5  573.64   13.70
   6  -8   5  513.15   13.00
   7  -8   5    6.20    3.40
   8  -8   5   21.50    4.40
  -4  -7   5  208.28    8.30
  -3  -7   5  215.78    7.60
  -2  -7   5  174.68    6.50
  -1  -7   5   79.79    4.40
   0  -7   5  271.67    8.00
   0  -7   5  277.57    6.30
   1  -7   5 1006.30   20.80
   1  -7   5  975.90   19.30
   2  -7   5  544.35   11.80
   2  -7   5  550.54   12.90
   3  -7   5   18.30    2.30
   4  -7   5  229.28    5.90
   4  -7   5  225.28    6.90
   5  -7   5 1064.59   22.10
   6  -7   5  303.87    9.00
   7  -7   5   17.30    3.40
   8  -7   5  335.17   10.80
  -5  -6   5  181.88    8.00
  -4  -6   5   85.99    5.80
  -3  -6   5  307.57    8.90
  -2  -6   5  728.73   16.30
  -1  -6   5  739.03   14.10
  -1  -6   5  754.12   16.20
   0  -6   5  774.42   15.00
   0  -6   5  785.82   16.70
   1  -6   5  615.64   12.30
   1  -6   5  598.44   13.50
   2  -6   5  204.78    5.50
   3  -6   5   96.69    4.10
   4  -6   5  461.45   10.90
   4  -6   5  469.75    9.50
   5  -6   5  588.24   13.60
   6  -6   5   50.09    4.30
   7  -6   5    4.70    3.20
   8  -6   5   87.09    5.90
  -6  -5   5   37.20    4.60
  -5  -5   5   41.50    4.50
  -4  -5   5   29.80    3.80
  -3  -5   5  304.87    8.70
  -2  -5   5  123.39    5.10
  -1  -5   5   57.29    1.70
  -1  -5   5   56.29    1.80
  -1  -5   5   54.39    3.60
   0  -5   5  113.69    4.30
   0  -5   5  112.99    3.10
   1  -5   5   79.09    3.70
   1  -5   5   81.59    2.90
   2  -5   5  293.67    6.90
   3  -5   5    3.50    1.00
   3  -5   5    3.00    1.60
   4  -5   5  493.95    9.20
   4  -5   5  483.85    9.20
   4  -5   5  484.95   11.20
   5  -5   5   13.30    2.80
   6  -5   5  477.35   12.00
   7  -5   5    6.40    3.20
   8  -5   5   73.29    5.70
  -6  -4   5   12.40    3.40
  -5  -4   5   15.70    3.20
  -4  -4   5   32.60    3.30
  -3  -4   5   40.60    3.20
  -2  -4   5  289.87    7.60
  -1  -4   5 1039.60   20.70
  -1  -4   5 1027.70   18.70
   0  -4   5   85.19    3.50
   0  -4   5   80.99    2.40
   1  -4   5  140.39    3.80
   2  -4   5  554.64   11.10
   2  -4   5  565.64   11.60
   3  -4   5  659.43   13.70
   3  -4   5  650.83   12.40
   4  -4   5   10.10    2.10
   5  -4   5  142.29    5.40
   6  -4   5  888.91   19.40
   7  -4   5   89.09    5.90
   8  -4   5   -0.60    3.60
  -7  -3   5  132.39    7.10
  -6  -3   5   87.69    5.80
  -5  -3   5   42.30    4.00
  -4  -3   5  134.39    5.60
  -3  -3   5  851.21   17.60
  -2  -3   5 1107.29   21.90
  -1  -3   5  391.16    8.80
   0   3  -5 1017.90   18.80
   0  -3   5 1011.30   19.90
   0  -3   5 1013.40   18.80
   1  -3   5 2725.23   51.09
   1  -3   5 2820.42   52.09
   2  -3   5 1654.23   31.00
   2  -3   5 1718.83   31.70
   3  -3   5  525.85   11.30
   3  -3   5  526.85    9.80
   4  -3   5  551.34   12.30
   5  -3   5 1256.57   25.40
   6  -3   5  642.64   14.90
   7  -3   5    0.90    2.90
   8  -3   5    0.80    3.60
  -8  -2   5  382.36   12.00
  -7  -2   5   89.89    6.10
  -6  -2   5  264.47    8.60
   5   2  -5  887.91   16.70
  -5  -2   5  841.42   18.50
   4   2  -5  759.92   14.30
  -4  -2   5  748.33   16.00
  -3  -2   5 1585.14   30.40
  -2  -2   5 2419.66   45.00
   1   2  -5  223.08    4.40
  -1  -2   5  225.48    5.60
  -1  -2   5  223.08    4.40
   0   2  -5   30.00    1.70
   0  -2   5   29.50    2.50
   0  -2   5   31.60    2.00
   0  -2   5   34.00    1.70
  -1   2  -5 2306.07   42.50
   1  -2   5 2284.07   42.00
   1  -2   5 2302.07   42.20
  -2   2  -5 1218.98   22.50
   2  -2   5 1205.18   23.30
   2  -2   5 1221.28   22.50
  -3   2  -5   43.00    1.50
   3  -2   5   44.20    3.20
   4  -2   5  937.41   19.20
   5  -2   5 1386.86   27.80
   6  -2   5   43.10    4.20
   7  -2   5    3.20    3.30
   8  -2   5  364.96   11.70
  -8  -1   5   66.89    5.40
  -7  -1   5   77.69    5.70
   6   1  -5  227.18    6.20
  -6  -1   5  248.38    7.90
   5   1  -5  479.55    9.80
  -5  -1   5  453.35   11.10
   4   1  -5  207.78    4.80
  -4  -1   5  209.88    6.20
   3   1  -5  299.77    6.10
  -3  -1   5  309.57    7.40
   2   1  -5  537.65   10.20
   2   1  -5  544.05   11.50
  -2  -1   5  561.64   11.30
   1   1  -5   42.90    1.80
   1   1  -5   45.90    2.20
   1   1  -5   47.50    2.70
  -1  -1   5   42.40    2.40
  -1  -1   5   41.70    2.40
  -1  -1   5   42.70    1.70
   0   1  -5   21.30    1.50
   0   1  -5   19.90    1.80
   0  -1   5   21.50    1.70
   0  -1   5   17.10    1.50
  -1   1  -5 2120.89   39.60
  -1   1  -5 2117.59   40.80
   1  -1   5 2125.79   39.00
   1  -1   5 2065.99   38.60
  -2   1  -5 1434.66   26.20
   2  -1   5 1403.26   27.00
   2  -1   5 1408.56   26.10
  -3   1  -5  205.68    4.70
   3  -1   5  207.58    5.90
  -4   1  -5   42.50    2.20
   4  -1   5   39.40    3.20
  -5   1  -5  151.88    4.10
   5  -1   5  156.38    6.00
   6  -1   5   13.50    3.20
   7  -1   5   40.40    4.50
   8  -1   5   36.60    5.30
  -8   0   5   38.50    4.10
   7   0  -5   15.80    2.60
  -7   0   5   14.70    3.10
   6   0  -5    2.80    1.80
  -6   0   5    2.80    2.30
   5   0  -5   14.20    1.70
  -5   0   5    3.50    2.00
   4   0  -5   58.29    2.40
  -4   0   5   59.49    3.10
   3   0  -5   27.70    2.50
  -3   0   5   34.00    2.50
   2   0  -5  154.78    4.00
   2   0  -5  158.88    4.60
  -2   0   5  158.38    4.10
   1   0  -5  171.18    4.70
   1   0  -5  170.78    4.10
   1   0  -5  168.48    4.00
  -1   0   5  166.48    4.50
  -1   0   5  175.98    4.10
   0   0  -5  618.94   12.10
   0   0   5  592.94   12.00
   0   0   5  594.24   12.10
  -1   0  -5    0.30    1.20
   1   0   5    2.20    1.20
   1   0   5    0.60    1.70
  -2   0  -5  928.81   17.50
   2   0   5  920.61   18.30
   2   0   5  879.11   17.40
  -3   0  -5  699.73   13.70
   3   0   5  677.53   14.70
  -4   0  -5    1.70    1.40
   4   0   5   -1.60    2.10
  -5   0  -5    2.80    1.60
   5   0   5    0.90    2.90
   6   0   5  328.47   10.10
   7   0   5  184.08    8.30
  -9   1   5    4.50    3.40
   8  -1  -5   55.69    4.40
  -8   1   5   65.19    5.10
   7  -1  -5  113.79    4.80
  -7   1   5  109.79    5.80
   6  -1  -5  315.37    7.80
  -6   1   5  313.67    8.50
   5  -1  -5 1151.18   22.00
  -5   1   5 1122.69   22.60
   4  -1  -5  574.74   11.50
   4  -1  -5  557.34   12.00
  -4   1   5  552.34   11.80
   3  -1  -5  212.98    5.80
  -3   1   5  213.48    5.20
   2  -1  -5 3677.83   71.49
   2  -1  -5 3655.13   69.09
  -2   1   5 3700.33   69.99
   1  -1  -5 2880.21   55.69
  -1   1   5 2942.51   53.09
  -1   1   5 2727.63   52.89
   0  -1  -5   19.50    1.80
   0   1   5   18.40    1.80
   0   1   5   20.30    1.70
  -1  -1  -5  982.90   18.70
   1   1   5  930.81   18.10
   1   1   5  982.30   19.10
  -2  -1  -5 2799.02   51.39
   2   1   5 2677.23   51.09
  -3  -1  -5  300.07    7.20
   3   1   5  296.07    8.00
  -4  -1  -5   36.20    3.00
   4   1   5   44.50    3.90
  -5  -1  -5  207.68    6.20
   5   1   5  212.68    7.40
   6   1   5  611.44   15.30
   7   1   5   53.29    5.10
  -9   2   5   83.39    5.70
   8  -2  -5  333.17    9.10
  -8   2   5  332.77   10.10
   7  -2  -5  340.67    8.90
  -7   2   5  331.37    9.30
   6  -2  -5  238.78    6.60
  -6   2   5  230.78    6.90
   5  -2  -5  549.35   11.80
   5  -2  -5  543.95   12.10
  -5   2   5  569.24   12.10
   4  -2  -5  750.52   15.40
  -4   2   5  740.43   14.90
   3  -2  -5  367.96    8.60
   3  -2  -5  360.16    7.60
  -3   2   5  371.46    7.70
   2  -2  -5 1002.20   19.60
   2  -2  -5  983.20   18.40
  -2   2   5 1011.90   18.40
   1  -2  -5 1994.10   37.30
   0  -2  -5  811.92   16.10
   0   2   5  791.32   14.80
   0   2   5  800.82   16.10
  -1  -2  -5 1787.42   33.50
   1   2   5 1720.03   32.60
   1   2   5 1799.82   33.70
  -2  -2  -5 2558.24   46.60
  -2  -2  -5 2578.34   47.30
   2   2   5 2438.16   47.40
  -3  -2  -5  501.25   11.30
  -3  -2  -5  501.65   10.90
   3   2   5  485.95   11.60
  -4  -2  -5  196.78    6.00
  -4  -2  -5  183.88    6.10
   4   2   5  182.88    6.80
  -5  -2  -5  813.42   17.50
   5   2   5  812.62   18.40
   6   2   5  525.55   13.80
   9  -3  -5   91.19    5.50
  -9   3   5   90.99    6.20
   8  -3  -5  308.57    9.00
  -8   3   5  297.47    9.10
   7  -3  -5  553.44   12.70
  -7   3   5  551.14   13.10
   6  -3  -5  690.73   15.00
   6  -3  -5  717.03   15.00
  -6   3   5  702.03   15.10
   5  -3  -5  598.34   13.00
   5  -3  -5  596.84   13.00
  -5   3   5  616.44   12.90
   4  -3  -5  251.87    6.60
  -4   3   5  245.68    6.00
   3  -3  -5  323.27    6.80
   3  -3  -5  331.77    7.90
  -3   3   5  334.47    6.80
   2  -3  -5 1233.48   22.20
   2  -3  -5 1218.48   23.80
   1  -3  -5  603.34   12.70
   0  -3  -5    9.50    1.80
   0   3   5   10.70    0.90
  -1  -3  -5  205.88    6.10
  -1  -3  -5  200.98    4.80
   1   3   5  211.88    6.10
  -2  -3  -5  224.18    6.50
  -2  -3  -5  218.48    5.60
   2   3   5  222.08    6.50
  -3  -3  -5  118.09    4.30
  -3  -3  -5  114.59    5.00
   3   3   5  108.89    4.90
  -4  -3  -5   10.10    2.50
  -4  -3  -5    9.80    2.50
   4   3   5   10.50    2.90
  -5  -3  -5  349.96    9.80
  -5  -3  -5  340.67    9.50
   5   3   5  361.46   10.30
   6   3   5   48.50    4.60
   9  -4  -5   17.40    3.40
   8  -4  -5  168.98    6.70
   7  -4  -5  406.06    9.90
   7  -4  -5  393.66   10.40
  -7   4   5  407.06   10.30
   6  -4  -5   19.10    2.50
   6  -4  -5   18.80    2.80
  -6   4   5   15.80    2.40
   5  -4  -5  228.08    6.60
   4  -4  -5   90.19    4.10
   3  -4  -5 1536.05   28.20
   3  -4  -5 1542.95   29.70
   2  -4  -5  266.27    7.00
   1  -4  -5  131.29    4.70
   0  -4  -5   13.80    1.10
   0  -4  -5   11.90    2.20
   0   4   5   12.50    1.10
  -1  -4  -5  118.79    3.50
  -1  -4  -5  113.49    4.80
  -2  -4  -5    9.50    2.40
  -2  -4  -5    7.40    1.70
   2   4   5    7.40    2.30
  -3  -4  -5   94.49    5.20
  -3  -4  -5   82.49    4.10
   3   4   5   81.29    4.70
  -4  -4  -5   17.00    2.80
  -4  -4  -5    7.60    2.80
   4   4   5   11.50    3.10
  -5  -4  -5   54.09    4.50
  -5  -4  -5   47.00    4.00
   5   4   5   50.89    4.50
   9  -5  -5   42.00    4.50
   8  -5  -5  213.78    7.70
   7  -5  -5  626.54   13.90
   7  -5  -5  621.94   14.60
   6  -5  -5   30.20    3.30
   6  -5  -5   35.40    3.10
   5  -5  -5   77.19    4.20
   4  -5  -5  317.27    7.90
   4  -5  -5  255.17    7.50
   3  -5  -5    7.30    0.90
   3  -5  -5    7.00    2.00
   2  -5  -5  412.56   10.00
   1  -5  -5 1640.74   29.90
   1  -5  -5 1660.13   32.40
   0  -5  -5  125.89    5.10
   0  -5  -5  119.09    3.20
  -1  -5  -5   21.80    1.80
  -1  -5  -5   23.20    3.30
  -2  -5  -5  477.95   10.50
  -2  -5  -5  470.65   12.10
  -3  -5  -5  413.46   11.40
  -3  -5  -5  405.96    9.80
  -4  -5  -5    9.60    3.30
   9  -6  -5   60.49    5.10
   8  -6  -5    8.50    3.20
   7  -6  -5  232.78    7.10
   7  -6  -5  215.48    7.40
   6  -6  -5  402.96   10.30
   6  -6  -5  410.36   10.70
   5  -6  -5  218.48    6.70
   4  -6  -5  539.45   12.60
   3  -6  -5 1103.99   20.20
   3  -6  -5 1046.60   20.20
   3  -6  -5 1111.39   22.50
   2  -6  -5 1194.98   22.00
   2  -6  -5 1217.88   24.80
   1  -6  -5 1068.49   20.00
   1  -6  -5 1103.69   22.80
   0  -6  -5  360.66    7.70
   0  -6  -5  365.56   10.10
  -1  -6  -5  182.98    7.30
  -2  -6  -5  659.73   16.20
  -3  -6  -5  599.64   15.30
  -4  -6  -5   27.10    4.00
   9  -7  -5  357.36   10.90
   8  -7  -5  285.17    9.20
   7  -7  -5  106.39    6.00
   7  -7  -5  113.89    5.50
   6  -7  -5  423.46   11.00
   5  -7  -5  523.75   12.70
   4  -7  -5   26.50    3.10
   3  -7  -5   68.39    4.80
   2  -7  -5  696.23   16.10
   1  -7  -5  184.28    7.00
   0  -7  -5   18.90    3.40
  -1  -7  -5  119.49    6.80
  -2  -7  -5  539.85   14.50
  -3  -7  -5   76.29    6.10
   9  -8  -5   30.60    4.60
   8  -8  -5   83.09    5.70
   7  -8  -5  112.39    5.90
   7  -8  -5  104.79    5.90
   6  -8  -5  172.98    6.90
   5  -8  -5  257.97    8.40
   4  -8  -5  207.58    7.60
   3  -8  -5  223.48    7.70
   2  -8  -5  205.98    8.00
   1  -8  -5    1.90    2.90
   0  -8  -5   11.50    3.40
  -1  -8  -5   70.59    5.80
   8  -9  -5    3.30    3.50
   7  -9  -5   -0.50    3.20
   6  -9  -5    5.00    3.00
   5  -9  -5   45.50    4.40
   4  -9  -5  224.88    8.00
   3  -9  -5   19.80    3.80
   2  -9  -5    5.20    3.40
   1  -9  -5  228.98    8.90
   0  -9  -5   55.19    5.20
   7 -10  -5   89.19    6.40
   6 -10  -5  129.79    7.00
   5 -10  -5  237.88    9.00
   4 -10  -5  334.17   10.80
   3 -10  -5  137.59    7.10
   2 -10  -5   32.30    4.90
   2 -11   6    6.50    3.40
   2 -11   6    3.00    3.10
   3 -11   6    5.70    3.20
   3 -11   6    5.40    3.20
   4 -11   6    4.00    2.90
   0 -10   6   18.10    3.70
   1 -10   6   -1.50    2.60
   2 -10   6    5.40    2.90
   3 -10   6   91.89    5.30
   3 -10   6  106.29    6.00
   4 -10   6   23.00    3.70
   4 -10   6   26.50    3.40
   5 -10   6   -0.20    2.80
   6 -10   6   29.90    3.80
  -2  -9   6    3.70    3.30
  -1  -9   6   73.29    5.60
   0  -9   6  643.14   15.40
   1  -9   6  363.46   10.40
   2  -9   6  152.08    6.60
   2  -9   6  161.58    5.40
   3  -9   6  303.17    9.40
   3  -9   6  297.87    8.10
   4  -9   6   90.39    5.10
   5  -9   6   79.69    4.70
   6  -9   6  446.16   12.10
   7  -9   6  211.78    8.10
  -3  -8   6  160.48    7.10
  -2  -8   6   23.30    3.80
  -1  -8   6  449.26   11.90
   0  -8   6 1716.33   34.30
   1  -8   6  591.14   12.50
   1  -8   6  604.14   14.30
   2  -8   6    4.70    1.90
   2  -8   6    4.00    2.50
   3  -8   6  313.47    8.20
   3  -8   6  314.57    9.30
   4  -8   6 1286.37   25.90
   5  -8   6  435.46   11.20
   6  -8   6   66.39    4.90
   7  -8   6   99.29    5.80
  -4  -7   6   77.19    6.10
  -3  -7   6    2.40    3.10
  -2  -7   6  310.27    9.40
  -1  -7   6  282.67    8.30
   0  -7   6   70.99    4.60
   0  -7   6   72.89    2.80
   1  -7   6    3.00    2.40
   1  -7   6   -0.20    1.50
   2  -7   6  365.66    8.50
   2  -7   6  358.16    9.60
   3  -7   6   66.19    3.70
   4  -7   6   15.50    1.90
   4  -7   6    9.80    2.50
   5  -7   6  139.99    6.00
   6  -7   6   20.50    3.30
   7  -7   6    8.10    3.20
   8  -7   6   64.99    5.60
  -5  -6   6  102.19    6.70
  -4  -6   6  494.25   12.90
  -3  -6   6   16.40    3.40
  -2  -6   6    6.50    2.50
  -1  -6   6  673.03   15.10
   0  -6   6   63.39    2.50
   0  -6   6   66.59    3.90
   1  -6   6  222.28    6.70
   1  -6   6  221.08    5.60
   2  -6   6    3.60    1.70
   3  -6   6    6.20    2.00
   4  -6   6  176.28    4.40
   4  -6   6  181.98    6.10
   5  -6   6   57.19    4.10
   6  -6   6   48.20    4.30
   7  -6   6  241.98    8.40
   8  -6   6   61.39    5.10
  -6  -5   6    7.40    3.30
  -5  -5   6    2.50    2.90
  -4  -5   6  211.68    7.40
  -3  -5   6  510.05   12.40
  -2  -5   6  344.47    9.10
  -1  -5   6  288.97    5.70
  -1  -5   6  306.97    8.10
   0  -5   6  566.04   12.70
   0  -5   6  556.54   11.00
   1  -5   6  854.01   18.00
   1  -5   6  866.71   16.70
   2  -5   6  319.07    7.50
   3  -5   6   31.80    1.90
   3  -5   6   32.00    2.70
   4  -5   6  110.29    3.10
   4  -5   6  120.59    4.70
   5  -5   6  411.96   10.40
   6  -5   6  399.06   10.90
   7  -5   6   76.69    5.80
   8  -5   6    6.00    3.50
  -6  -4   6   51.59    4.80
  -5  -4   6   13.70    3.40
  -4  -4   6  888.71   19.30
  -3  -4   6 1376.86   27.50
  -2  -4   6  432.56   10.20
  -1  -4   6  876.01   18.00
   0  -4   6 1430.16   26.20
   0  -4   6 1403.56   27.60
   1  -4   6  463.35    9.60
   2  -4   6  652.63   13.20
   2  -4   6  688.53   13.70
   3  -4   6 1588.74   31.20
   3  -4   6 1670.93   30.00
   4  -4   6 1385.26   27.30
   5  -4   6  468.65   11.40
   6  -4   6  196.28    7.30
   7  -4   6  168.18    7.10
   8  -4   6   95.59    6.90
  -7  -3   6  219.88    8.80
  -6  -3   6    8.00    3.00
  -5  -3   6  161.88    6.30
  -4  -3   6 1292.07   26.10
  -3  -3   6  391.46    9.50
  -2  -3   6    2.60    1.60
  -1  -3   6  423.86    9.60
  -1  -3   6  418.36    7.90
   0   3  -6 1158.68   21.40
   0  -3   6 1157.78   21.40
   0  -3   6 1134.09   22.50
   1  -3   6  729.73   14.20
   1  -3   6  708.53   14.20
   2  -3   6  982.70   18.90
   2  -3   6 1018.00   19.60
   3  -3   6  551.44   10.30
   3  -3   6  534.65   11.80
   4  -3   6   73.19    4.20
   5  -3   6  156.48    5.90
   6  -3   6   24.50    3.50
   7  -3   6    2.90    3.10
   8  -3   6  172.98    8.40
  -8  -2   6  402.16   12.40
  -7  -2   6  367.96   11.10
  -6  -2   6    9.40    2.90
   5   2  -6  177.88    4.80
  -5  -2   6  179.88    6.30
   4   2  -6 1120.19   20.50
  -4  -2   6 1120.99   22.70
  -3  -2   6  210.28    6.00
  -2  -2   6  143.39    4.50
   1   2  -6   73.19    2.00
  -1  -2   6   71.89    3.30
  -1  -2   6   72.69    2.20
   0   2  -6  502.05   10.00
   0   2  -6  510.35   10.70
   0  -2   6  518.15   10.20
   0  -2   6  495.85   10.70
  -1   2  -6    1.60    1.20
   1  -2   6    1.10    1.20
   1  -2   6    2.20    1.40
  -2   2  -6    0.70    1.00
   2  -2   6    0.80    1.00
   2  -2   6    0.30    1.50
  -3   2  -6    3.10    0.90
   3  -2   6    0.70    0.80
   3  -2   6    1.40    2.00
  -4   2  -6  372.66    7.20
   4  -2   6  364.66    9.50
   5  -2   6   -0.10    2.40
   6  -2   6  340.67   10.10
   7  -2   6   34.90    4.60
   8  -2   6  151.38    7.80
  -8  -1   6    5.70    3.60
  -7  -1   6  291.97    9.20
   6   1  -6  176.78    5.00
  -6  -1   6  177.78    6.60
   5   1  -6   29.60    2.00
  -5  -1   6   30.80    3.30
   4   1  -6   37.50    1.90
  -4  -1   6   43.20    3.10
   3   1  -6  782.82   14.60
  -3  -1   6  779.02   15.80
   2   1  -6  554.24   11.90
   2   1  -6  544.75   10.50
  -2  -1   6  564.84   11.50
   1   1  -6   -0.40    1.40
   1   1  -6    3.10    1.10
  -1  -1   6    0.90    1.00
  -1  -1   6    0.90    1.20
   0   1  -6  533.55   10.90
   0  -1   6  536.45   10.80
   0  -1   6  511.75   10.80
  -1   1  -6  144.69    4.00
   1  -1   6  149.79    4.30
   1  -1   6  133.59    3.90
  -2   1  -6 1902.61   34.70
   2  -1   6 1886.51   35.50
   2  -1   6 1838.42   34.60
  -3   1  -6  280.17    6.30
   3  -1   6  295.47    7.70
  -4   1  -6    0.10    1.20
   4  -1   6    3.80    2.60
   5  -1   6  285.57    8.60
   6  -1   6  484.45   12.80
   7  -1   6  144.69    7.60
  -8   0   6    0.70    3.10
   7   0  -6  559.64   12.60
  -7   0   6  563.04   13.90
   6   0  -6  240.38    6.30
  -6   0   6  231.58    7.50
   5   0  -6    7.20    1.50
  -5   0   6    8.50    2.10
   4   0  -6 2151.78   39.80
   4   0  -6 2175.08   41.10
  -4   0   6 2168.78   40.80
   3   0  -6 3646.64   67.79
  -3   0   6 3576.64   69.09
   2   0  -6   33.20    1.90
   2   0  -6   34.70    1.70
   2   0  -6   30.20    2.60
  -2   0   6   37.40    2.20
   1   0  -6  180.18    5.10
  -1   0   6  181.88    4.50
   0   0  -6 5607.74  106.09
   0   0   6 5511.35  105.89
   0   0   6 5441.96  103.39
  -1   0  -6 2415.86   45.00
   1   0   6 2354.16   43.90
   1   0   6 2294.07   43.40
  -2   0  -6  880.31   17.10
   2   0   6  866.91   17.50
   2   0   6  868.91   17.80
  -3   0  -6  844.32   16.70
   3   0   6  845.72   17.80
  -4   0  -6  227.78    5.80
   4   0   6  215.78    7.10
  -5   0  -6  166.28    5.00
   5   0   6  157.68    6.60
   6   0   6  418.36   12.10
   7   0   6  116.99    7.40
  -9   1   6    5.00    3.10
  -8   1   6   36.10    4.30
   7  -1  -6 1064.29   21.40
  -7   1   6 1054.29   22.50
   6  -1  -6 1547.75   29.40
  -6   1   6 1510.75   30.20
   5  -1  -6  213.78    5.60
   5  -1  -6  209.98    6.40
  -5   1   6  204.38    6.20
   4  -1  -6  108.19    4.10
  -4   1   6   96.39    3.80
   3  -1  -6 1424.26   27.40
  -3   1   6 1410.46   26.60
   2  -1  -6 1136.69   22.40
   2  -1  -6 1156.08   21.50
  -2   1   6 1166.48   21.50
   1  -1  -6  695.53   14.30
  -1   1   6  707.13   13.20
   0  -1  -6 2504.15   48.00
   0   1   6 2491.25   46.40
  -1  -1  -6 1010.90   19.70
   1   1   6 1004.90   20.10
  -2  -1  -6  130.19    4.30
   2   1   6  138.29    4.90
  -3  -1  -6  405.26    9.40
   3   1   6  428.26   10.50
  -4  -1  -6  177.98    5.50
   4   1   6  178.28    6.60
  -5  -1  -6   60.29    3.70
   5   1   6   70.79    5.50
   6   1   6  288.77    9.90
   7   1   6  140.29    7.70
  -9   2   6   25.30    3.80
   8  -2  -6  946.21   19.90
  -8   2   6  938.51   20.90
   7  -2  -6  498.35   11.50
  -7   2   6  475.65   11.90
   6  -2  -6   34.40    3.00
   6  -2  -6   33.60    2.80
  -6   2   6   30.00    3.10
   5  -2  -6   35.40    2.60
   5  -2  -6   28.40    2.60
  -5   2   6   30.70    2.70
   4  -2  -6  804.92   16.70
  -4   2   6  815.12   16.10
   3  -2  -6  677.43   13.50
   3  -2  -6  710.33   14.70
  -3   2   6  719.93   13.70
   2  -2  -6  246.78    5.00
   2  -2  -6  246.08    6.40
  -2   2   6  242.48    5.00
   1  -2  -6  312.27    7.60
  -1   2   6  318.17    5.90
   0  -2  -6  534.65   11.50
   0   2   6  520.05   10.00
   0   2   6  535.75   11.50
  -1  -2  -6  203.88    5.80
   1   2   6  197.18    5.90
  -2  -2  -6   15.60    2.20
   2   2   6   18.30    2.50
  -3  -2  -6  111.39    4.60
   3   2   6  111.09    5.30
  -4  -2  -6  171.98    6.00
   4   2   6  171.38    6.80
  -5  -2  -6   48.30    3.70
   5   2   6   55.79    4.80
   6   2   6   18.40    4.00
   9  -3  -6   22.30    3.50
  -9   3   6   23.60    3.70
   8  -3  -6  278.77    8.40
  -8   3   6  275.77    8.80
   7  -3  -6   59.39    4.20
   7  -3  -6   63.19    4.00
  -7   3   6   62.59    4.50
   6  -3  -6  239.88    6.90
   6  -3  -6  239.08    7.00
  -6   3   6  244.78    7.00
   5  -3  -6   33.10    2.90
  -5   3   6   35.60    2.60
   4  -3  -6  486.75   11.10
  -4   3   6  484.65   10.10
   3  -3  -6   33.40    1.70
   3  -3  -6   36.50    2.90
  -3   3   6   35.30    1.80
   2  -3  -6  286.47    7.50
   1  -3  -6  149.79    4.90
   0  -3  -6  274.67    7.20
   0   3   6  269.97    5.40
  -1  -3  -6  190.88    5.90
   1   3   6  196.98    6.10
  -2  -3  -6  157.58    5.60
   2   3   6  150.38    5.80
  -3  -3  -6  339.97    9.00
   3   3   6  318.47    9.10
  -4  -3  -6   99.29    5.10
   4   3   6  109.59    5.70
  -5  -3  -6    5.10    2.70
   5   3   6    9.30    3.20
   9  -4  -6   34.30    4.00
   8  -4  -6   -1.30    2.70
  -8   4   6    2.60    2.60
   7  -4  -6  257.87    7.70
   7  -4  -6  265.07    8.00
  -7   4   6  261.97    7.70
   6  -4  -6  890.61   18.80
   6  -4  -6  897.61   18.80
  -6   4   6  894.71   18.40
   5  -4  -6  183.58    6.10
   4  -4  -6   46.10    2.20
   4  -4  -6   57.69    3.80
   3  -4  -6  913.41   18.70
   3  -4  -6  902.71   16.80
   2  -4  -6  639.44   13.90
   1  -4  -6   43.30    3.50
   0  -4  -6  417.46   10.10
   0   4   6  405.96    8.00
  -1  -4  -6  579.44   13.20
  -1  -4  -6  555.94   11.30
  -2  -4  -6   52.39    4.00
  -2  -4  -6   56.99    3.00
   2   4   6   54.19    3.90
  -3  -4  -6  137.59    4.90
  -3  -4  -6  136.39    6.10
   3   4   6  142.49    6.10
  -4  -4  -6  332.07    9.80
  -4  -4  -6  323.87    8.70
   4   4   6  331.77    9.80
  -5  -4  -6  144.19    6.80
   5   4   6  156.98    7.00
   9  -5  -6   38.60    4.30
   8  -5  -6  123.39    6.10
   7  -5  -6  841.42   17.90
   7  -5  -6  819.12   18.20
   6  -5  -6  512.45   12.20
   5  -5  -6   75.99    4.50
   4  -5  -6  449.86    9.30
   4  -5  -6  484.65   11.30
   3  -5  -6 1520.55   27.40
   3  -5  -6 1501.95   29.80
   2  -5  -6 1222.88   24.70
   1  -5  -6  644.04   14.60
   0  -5  -6  582.54   13.70
  -1  -5  -6  345.87    9.60
  -1  -5  -6  336.57    7.40
  -2  -5  -6  110.69    5.90
  -2  -5  -6  114.99    5.70
  -3  -5  -6  303.37    9.70
  -4  -5  -6  337.37   10.50
   9  -6  -6    0.90    3.20
   8  -6  -6   34.40    4.00
   7  -6  -6  710.73   16.10
   7  -6  -6  722.33   16.60
   6  -6  -6  369.36   10.00
   5  -6  -6   77.39    4.80
   4  -6  -6  622.64   14.30
   3  -6  -6 1125.49   23.40
   2  -6  -6  431.66   11.00
   1  -6  -6   40.10    3.70
   0  -6  -6   21.90    3.30
  -1  -6  -6  318.47    9.90
  -2  -6  -6  523.65   13.90
  -3  -6  -6   96.49    6.00
   9  -7  -6    9.00    3.70
   8  -7  -6  210.38    7.90
   7  -7  -6  156.88    6.40
   7  -7  -6  163.48    7.00
   6  -7  -6   47.80    4.10
   5  -7  -6    1.70    2.30
   4  -7  -6  188.38    7.10
   3  -7  -6  136.19    6.10
   2  -7  -6  406.86   11.20
   1  -7  -6   29.10    3.90
   0  -7  -6   34.40    4.20
  -1  -7  -6   32.10    4.20
  -2  -7  -6    8.50    3.70
   8  -8  -6    5.50    3.40
   7  -8  -6   61.29    5.20
   7  -8  -6   62.29    5.00
   6  -8  -6   61.09    5.10
   5  -8  -6  159.18    6.90
   4  -8  -6   11.00    3.00
   3  -8  -6    2.30    2.70
   2  -8  -6  267.07    9.30
   1  -8  -6   42.50    4.70
   0  -8  -6    7.20    3.40
  -1  -8  -6  323.87   10.90
   8  -9  -6    9.90    3.50
   7  -9  -6  381.56   12.00
   7  -9  -6  384.56   11.30
   6  -9  -6  463.55   12.70
   5  -9  -6  237.28    8.70
   4  -9  -6  471.25   13.10
   3  -9  -6  315.57   10.40
   2  -9  -6   94.09    6.70
   1  -9  -6  233.28    9.20
   0  -9  -6  160.78    8.50
   6 -10  -6  497.15   13.80
   5 -10  -6   35.30    4.60
   4 -10  -6   92.39    6.20
   3 -10  -6  389.66   12.40
   2 -10  -6  102.19    7.40
   3 -11   7    0.70    3.10
   0 -10   7  269.97    9.10
   1 -10   7  391.96   11.40
   2 -10   7    8.90    3.20
   3 -10   7   16.80    3.30
   4 -10   7  494.05   12.30
   4 -10   7  502.65   13.60
   5 -10   7  243.08    8.20
  -2  -9   7   10.50    3.70
  -1  -9   7   72.89    5.50
   0  -9   7  661.03   16.00
   1  -9   7  464.65   12.40
   2  -9   7   20.40    3.50
   3  -9   7   74.19    4.30
   3  -9   7   78.69    5.60
   4  -9   7  704.53   15.90
   5  -9   7  237.18    8.00
   6  -9   7   84.49    5.80
   7  -9   7   11.20    3.80
  -3  -8   7  193.58    7.90
  -2  -8   7   26.20    4.00
  -1  -8   7  154.28    6.70
   0  -8   7  457.55   12.00
   1  -8   7   26.30    3.50
   2  -8   7    2.90    1.90
   2  -8   7    6.30    2.80
   3  -8   7  331.27    9.70
   3  -8   7  312.87    8.30
   4  -8   7   32.60    3.40
   5  -8   7    7.70    2.90
   6  -8   7   91.49    5.80
   7  -8   7   39.20    4.60
  -4  -7   7  211.98    8.60
  -3  -7   7   -2.70    3.10
  -2  -7   7  872.71   19.50
  -1  -7   7  167.38    6.60
   0  -7   7  121.09    5.40
   1  -7   7  273.67    6.60
   1  -7   7  256.57    8.10
   2  -7   7  875.21   17.60
   2  -7   7  860.51   19.00
   3  -7   7   12.60    2.30
   4  -7   7    9.90    2.60
   5  -7   7  485.55   12.00
   6  -7   7  231.48    7.90
   7  -7   7    9.70    3.70
  -5  -6   7  137.59    7.50
  -4  -6   7   80.09    5.40
  -3  -6   7 1045.40   22.60
  -2  -6   7  149.49    6.00
  -1  -6   7   78.99    4.40
   0  -6   7  175.68    4.30
   0  -6   7  176.68    6.20
   1  -6   7 1365.16   25.90
   1  -6   7 1364.16   27.50
   2  -6   7  498.75   10.90
   3  -6   7   37.20    3.00
   4  -6   7  711.33   15.50
   5  -6   7 1520.85   30.50
   6  -6   7  223.58    8.00
   7  -6   7   31.90    4.00
   8  -6   7  333.27   11.20
  -6  -5   7  708.63   17.60
  -5  -5   7   51.79    4.80
  -4  -5   7  226.68    7.80
  -3  -5   7 1980.80   38.90
  -2  -5   7  751.92   16.50
  -1  -5   7   76.29    4.30
   0  -5   7 1015.10   21.10
   0  -5   7 1025.30   19.20
   1  -5   7 1279.57   24.40
   1  -5   7 1294.17   25.70
   2  -5   7  239.38    6.20
   3  -5   7  150.98    5.10
   4  -5   7  194.78    6.20
   5  -5   7  194.38    6.90
   6  -5   7   87.19    5.60
   7  -5   7   16.70    3.90
   8  -5   7   68.79    5.80
  -6  -4   7   79.39    5.80
  -5  -4   7   14.50    3.50
  -4  -4   7  413.06   10.90
  -3  -4   7 1692.83   33.30
  -2  -4   7   13.50    2.30
  -1  -4   7  126.69    2.80
  -1  -4   7  121.49    4.70
   0   4  -7 2322.07   42.80
   0  -4   7 2324.77   42.40
   0  -4   7 2305.97   43.90
   1  -4   7 2194.08   40.60
   2  -4   7   25.70    2.30
   3  -4   7  233.98    5.40
   3  -4   7  249.97    6.80
   4  -4   7 1459.85   28.80
   5  -4   7   78.59    5.00
   6  -4   7   19.80    3.30
   7  -4   7   56.79    4.90
   8  -4   7   54.79    5.60
  -7  -3   7   63.79    5.60
  -6  -3   7   86.99    5.60
  -5  -3   7   26.40    3.60
  -4  -3   7  391.16   10.30
  -3  -3   7   47.70    3.80
  -2  -3   7  693.23   14.80
   1   3  -7   40.80    1.60
  -1  -3   7   48.00    1.70
  -1  -3   7   39.80    2.90
   0  -3   7  292.17    7.50
   0  -3   7  308.77    6.60
   1  -3   7    2.80    1.50
   2  -3   7  997.40   19.30
   2  -3   7  947.41   18.60
   3  -3   7  285.47    7.50
   3  -3   7  287.57    6.00
   4  -3   7    7.60    2.30
   5  -3   7   68.09    4.50
   6  -3   7  121.49    6.40
   7  -3   7    1.50    3.20
  -8  -2   7   92.09    6.90
  -7  -2   7  217.68    8.50
  -6  -2   7  359.06   10.20
  -5  -2   7  389.16   10.20
  -4  -2   7   72.99    4.30
  -3  -2   7  221.68    6.30
   2   2  -7 1409.36   26.30
  -2  -2   7 1495.45   28.00
   1   2  -7    1.70    1.70
   1   2  -7    2.30    0.90
  -1  -2   7    0.10    1.40
  -1  -2   7    2.40    1.00
   0   2  -7   10.60    1.80
   0  -2   7    9.70    1.60
   0  -2   7   14.80    1.70
  -1   2  -7 2417.06   44.30
   1  -2   7 2334.67   43.60
   1  -2   7 2305.27   43.50
  -2   2  -7 3538.35   63.49
   2  -2   7 3361.66   62.29
   2  -2   7 3353.36   62.99
  -3   2  -7  173.98    4.20
   3  -2   7  166.78    5.50
   3  -2   7  163.98    4.10
  -4   2  -7   12.00    1.20
   4  -2   7    9.50    2.90
   5  -2   7  641.84   15.00
   6  -2   7  745.83   17.40
   7  -2   7   43.70    5.30
  -8  -1   7   18.80    4.10
  -7  -1   7  867.41   19.60
  -6  -1   7 1558.84   31.40
   5   1  -7  177.78    4.40
  -5  -1   7  174.78    6.10
   4   1  -7   93.29    2.80
  -4  -1   7  106.79    4.50
   3   1  -7 1769.22   33.50
   3   1  -7 1895.41   35.40
  -3  -1   7 1850.91   34.90
   2   1  -7  499.65   11.10
   2   1  -7  493.95    9.80
  -2  -1   7  499.75   10.70
   1   1  -7    9.10    2.00
  -1  -1   7    8.30    1.40
  -1  -1   7   12.20    1.80
   0   1  -7 3047.90   59.59
   0  -1   7 3261.07   61.09
  -1   1  -7 2981.50   55.19
   1  -1   7 3119.69   55.59
   1  -1   7 2909.61   55.69
  -2   1  -7   41.40    2.50
   2  -1   7   42.50    3.10
   2  -1   7   42.20    2.30
  -3   1  -7    8.50    1.50
   3  -1   7    6.50    2.30
  -4   1  -7 1159.78   22.10
   4  -1   7 1154.88   23.90
   5  -1   7  803.92   18.10
   6  -1   7  123.69    6.40
   7  -1   7   48.50    5.50
  -8   0   7   14.90    3.50
  -7   0   7  699.23   16.40
   6   0  -7 1747.93   32.70
  -6   0   7 1718.33   34.20
   5   0  -7   46.40    2.60
  -5   0   7   41.50    3.40
   4   0  -7   57.79    3.60
   4   0  -7   70.79    2.60
  -4   0   7   68.89    3.60
   3   0  -7 3934.71   72.79
  -3   0   7 3956.80   75.39
   2   0  -7 9492.15  181.98
  -2   0   7 9538.05  177.78
   1   0  -7  114.89    3.90
   1   0  -7  118.69    4.30
  -1   0   7  112.69    3.50
  -1   0   7  108.09    3.70
   0   0  -7   19.10    2.10
   0   0   7   24.20    2.10
  -1   0  -7 4095.99   78.49
   1   0   7 4126.39   78.89
  -2   0  -7  781.02   15.50
   2   0   7  758.32   16.20
  -3   0  -7   21.70    2.10
   3   0   7   20.00    3.20
  -4   0  -7  367.86    8.50
   4   0   7  358.56   10.00
   5   0   7  270.17    9.20
   6   0   7   -2.10    3.20
   7   0   7    1.90    4.10
  -9   1   7   38.30    4.60
  -8   1   7  441.56   12.00
   7  -1  -7  860.81   17.50
  -7   1   7  824.62   18.60
   6  -1  -7  193.48    5.70
  -6   1   7  189.58    6.50
   5  -1  -7  313.87    8.40
   5  -1  -7  310.07    7.30
  -5   1   7  303.77    8.00
   4  -1  -7  905.71   18.40
  -4   1   7  868.61   17.70
   3  -1  -7  229.08    6.50
  -3   1   7  243.88    5.70
   2  -1  -7  568.84   12.20
   2  -1  -7  548.65   11.00
  -2   1   7  574.34   11.10
   1  -1  -7   66.29    3.30
  -1   1   7   69.89    2.30
   0  -1  -7  198.28    5.50
   0   1   7  187.08    5.50
  -1  -1  -7   85.09    3.60
   1   1   7   78.49    3.80
  -2  -1  -7   45.20    3.00
   2   1   7   49.70    3.90
  -3  -1  -7   32.70    2.60
   3   1   7   33.30    3.40
  -4  -1  -7   89.29    4.20
   4   1   7   90.89    5.20
   5   1   7   48.70    4.80
   6   1   7   27.70    4.50
  -9   2   7   44.60    4.80
   8  -2  -7    7.70    2.70
  -8   2   7   10.50    3.30
   7  -2  -7  205.08    6.60
  -7   2   7  211.78    7.00
   6  -2  -7  183.68    5.70
   6  -2  -7  183.68    6.30
  -6   2   7  180.68    6.10
   5  -2  -7  791.02   16.80
  -5   2   7  774.82   16.10
   4  -2  -7  561.54   12.60
  -4   2   7  555.34   11.60
   3  -2  -7  394.16    8.30
   3  -2  -7  417.96    9.60
  -3   2   7  403.46    8.40
   2  -2  -7 1914.21   36.70
  -2   2   7 1945.11   35.50
   1  -2  -7  564.74   12.30
  -1   2   7  577.54   10.60
   0  -2  -7   72.39    3.40
   0   2   7   66.79    2.10
   0   2   7   68.09    3.50
  -1  -2  -7  638.14   13.50
   1   2   7  611.84   13.70
  -2  -2  -7 1105.29   22.60
   2   2   7 1147.99   23.10
  -3  -2  -7   20.90    2.70
   3   2   7   20.70    3.00
  -4  -2  -7    4.80    2.40
   4   2   7    5.40    2.70
   5   2   7  355.56   10.80
   6   2   7  321.17   10.70
   9  -3  -7  348.07    9.90
  -9   3   7  354.86   10.80
   8  -3  -7    5.30    2.70
  -8   3   7    2.80    2.80
   7  -3  -7   65.79    4.30
   7  -3  -7   66.49    4.30
  -7   3   7   68.59    4.20
   6  -3  -7 1020.20   20.70
   6  -3  -7 1006.70   21.00
  -6   3   7 1002.50   20.60
   5  -3  -7  580.54   13.20
  -5   3   7  590.44   12.50
   4  -3  -7   21.50    2.50
  -4   3   7   23.80    1.90
   3  -3  -7  245.68    5.10
   3  -3  -7  235.38    6.80
  -3   3   7  246.78    5.20
   2  -3  -7 4091.19   78.09
   1  -3  -7 1985.70   38.00
   0  -3  -7    3.50    2.10
   0   3   7    3.70    0.70
  -1  -3  -7  306.27    8.10
   1   3   7  303.07    8.20
  -2  -3  -7 1141.19   23.50
   2   3   7 1162.68   23.80
  -3  -3  -7  261.97    7.80
   3   3   7  247.68    8.00
  -4  -3  -7  132.49    5.80
   4   3   7  120.29    6.00
   5   3   7  338.67   10.60
   9  -4  -7  202.38    7.60
  -9   4   7  202.68    7.90
   8  -4  -7    7.20    2.90
   8  -4  -7   12.10    2.80
  -8   4   7   14.00    3.10
   7  -4  -7  766.42   17.10
   7  -4  -7  775.62   17.10
  -7   4   7  788.52   16.90
   6  -4  -7 1583.74   31.60
  -6   4   7 1607.04   30.80
   5  -4  -7  206.18    6.80
  -5   4   7  206.18    5.50
   4  -4  -7  340.97    7.40
   4  -4  -7  369.86    9.30
   3  -4  -7 2819.02   50.19
   3  -4  -7 2726.83   52.19
   2  -4  -7 1373.06   27.30
   1  -4  -7   12.50    2.50
   0  -4  -7   63.69    4.20
   0   4   7   55.99    1.70
  -1  -4  -7 1044.70   21.90
  -2  -4  -7  476.75   12.10
  -3  -4  -7   62.79    4.50
   3   4   7   62.39    4.50
  -4  -4  -7  246.88    8.50
   4   4   7  242.08    8.50
   9  -5  -7    8.40    3.20
   8  -5  -7   44.80    4.20
   8  -5  -7   33.40    3.50
   7  -5  -7  377.76   10.10
   7  -5  -7  371.56   10.20
   6  -5  -7  636.14   14.70
   5  -5  -7   30.60    3.40
   4  -5  -7   13.40    2.80
   3  -5  -7 1491.95   29.70
   2  -5  -7  430.26   10.90
   1  -5  -7  119.09    5.20
   0  -5  -7   57.69    4.30
  -1  -5  -7  879.31   19.40
  -2  -5  -7  154.68    6.50
  -3  -5  -7  201.48    8.00
  -4  -5  -7   58.39    5.10
   9  -6  -7   36.00    4.10
   8  -6  -7    3.40    2.80
   7  -6  -7  319.77    9.60
   7  -6  -7  330.27    9.60
   6  -6  -7   43.40    3.90
   5  -6  -7  176.88    6.80
   4  -6  -7    5.60    2.50
   3  -6  -7   99.29    5.40
   2  -6  -7  452.35   11.70
   1  -6  -7  340.97    9.80
   0  -6  -7  199.08    7.70
  -1  -6  -7    1.70    3.10
  -2  -6  -7  469.45   13.10
  -3  -6  -7   14.40    3.60
   9  -7  -7  421.36   12.20
   8  -7  -7   80.39    5.90
   7  -7  -7   38.40    4.00
   7  -7  -7   48.80    4.30
   6  -7  -7   94.29    5.70
   5  -7  -7  890.91   19.70
   4  -7  -7  380.66   10.50
   3  -7  -7   35.20    4.00
   2  -7  -7  287.67    9.30
   1  -7  -7  451.55   12.30
   0  -7  -7   41.00    4.40
  -1  -7  -7  110.49    6.50
  -2  -7  -7  499.55   14.30
   8  -8  -7  126.79    6.50
   7  -8  -7   38.80    4.10
   7  -8  -7   33.80    4.10
   6  -8  -7 1858.61   37.50
   5  -8  -7  542.55   14.00
   4  -8  -7   73.09    5.70
   3  -8  -7  105.19    5.90
   2  -8  -7  957.00   21.80
   1  -8  -7  266.67    9.80
   0  -8  -7   67.19    5.80
  -1  -8  -7  318.47   11.30
   7  -9  -7  192.58    8.20
   6  -9  -7  678.13   16.80
   5  -9  -7   93.69    5.90
   4  -9  -7    2.50    3.00
   3  -9  -7  311.47   10.30
   2  -9  -7  406.96   12.60
   1  -9  -7   -2.50    3.30
   6 -10  -7   96.39    6.80
   5 -10  -7   20.60    4.30
   4 -10  -7   24.00    4.50
   3 -10  -7  173.78    8.20
   0 -10   8  203.18    8.30
   1 -10   8  281.47    9.70
   2 -10   8    0.10    3.20
   3 -10   8    5.20    3.30
   4 -10   8  279.07    9.80
   4 -10   8  259.37    8.60
   5 -10   8  319.57    9.60
  -2  -9   8   13.90    3.60
  -1  -9   8   47.30    4.60
   0  -9   8  174.78    7.50
   1  -9   8  101.99    6.10
   2  -9   8  115.09    6.30
   3  -9   8    3.30    2.30
   3  -9   8    2.00    3.00
   4  -9   8  203.68    7.10
   5  -9   8    3.10    2.80
   6  -9   8  258.87    8.90
  -3  -8   8   -3.50    3.30
  -2  -8   8  155.18    7.00
  -1  -8   8  293.97    9.40
   0  -8   8    4.20    2.60
   1  -8   8   33.80    3.70
   2  -8   8  980.30   19.80
   2  -8   8  976.70   21.40
   3  -8   8  282.27    7.80
   3  -8   8  276.27    9.10
   4  -8   8   41.20    3.60
   5  -8   8   95.69    5.40
   6  -8   8  492.55   13.00
   7  -8   8   37.90    4.70
  -4  -7   8   35.90    4.70
  -3  -7   8  331.57   10.50
  -2  -7   8  439.86   11.80
  -1  -7   8   76.29    4.80
   0  -7   8  176.08    6.60
   1  -7   8  973.20   19.10
   1  -7   8  976.80   21.00
   2  -7   8  577.84   13.90
   2  -7   8  581.54   12.60
   3  -7   8    9.80    2.30
   4  -7   8  148.89    5.80
   5  -7   8 1253.47   26.00
   6  -7   8  559.44   14.00
   7  -7   8   -0.10    3.00
  -5  -6   8  190.98    8.50
  -4  -6   8    5.00    3.00
  -3  -6   8  470.25   12.50
  -2  -6   8 1189.28   25.00
  -1  -6   8   55.79    4.50
   0  -6   8   30.20    1.90
   0  -6   8   25.80    3.10
   1  -6   8 1336.57   25.70
   1  -6   8 1366.96   27.50
   2  -6   8  738.93   15.30
   3  -6   8   16.60    2.60
   4  -6   8  402.66   10.30
   5  -6   8 1064.39   22.50
   6  -6   8   67.59    5.10
   7  -6   8   95.49    6.50
  -6  -5   8  168.08    7.80
  -5  -5   8   39.80    4.30
  -4  -5   8   41.10    4.00
  -3  -5   8  387.86   10.50
  -2  -5   8  251.37    7.60
  -1  -5   8   19.90    2.90
   0  -5   8   18.00    1.60
   0  -5   8   17.60    2.50
   1  -5   8  604.24   12.40
   1  -5   8  605.24   13.80
   2  -5   8   32.60    2.60
   3  -5   8  180.88    5.90
   4  -5   8    5.00    2.40
   5  -5   8    2.30    2.60
   6  -5   8  133.69    6.70
   7  -5   8    5.50    3.30
  -6  -4   8   14.20    3.80
  -5  -4   8  246.28    8.70
  -4  -4   8    4.50    2.60
  -3  -4   8   56.29    4.10
  -2  -4   8  247.78    7.40
  -1  -4   8  338.97    8.90
  -1  -4   8  344.37    6.80
   0  -4   8  237.28    5.50
   0  -4   8  232.08    6.70
   1  -4   8  129.89    4.10
   2  -4   8  598.84   12.80
   3  -4   8  279.27    6.90
   3  -4   8  306.17    7.80
   4  -4   8  131.89    5.60
   5  -4   8    5.50    3.00
   6  -4   8  450.65   12.30
   7  -4   8   37.80    4.80
  -7  -3   8    9.60    3.90
  -6  -3   8  160.58    7.00
  -5  -3   8  468.65   12.30
  -4  -3   8   25.00    3.20
  -3  -3   8   28.40    3.10
  -2  -3   8 1660.73   32.20
   1   3  -8 2121.39   38.40
  -1  -3   8 2113.49   38.50
  -1  -3   8 2091.39   40.10
   0  -3   8  178.58    4.70
   0  -3   8  184.98    5.50
   1  -3   8  477.05   10.30
  -2   3  -8 2936.71   54.39
   2  -3   8 2987.70   55.09
   3  -3   8 1243.98   23.60
   3  -3   8 1276.57   25.20
   4  -3   8    8.40    2.60
   5  -3   8  187.18    7.20
   6  -3   8  900.01   20.40
   7  -3   8   77.19    6.10
  -8  -2   8   46.30    5.30
  -7  -2   8  124.89    7.00
  -6  -2   8  710.33   16.70
  -5  -2   8  699.23   16.00
  -4  -2   8   63.29    4.00
  -3  -2   8  489.95   11.30
   2   2  -8 2397.96   45.00
  -2  -2   8 2556.74   46.60
   1   2  -8  382.36    8.20
   1   2  -8  379.96    9.00
  -1  -2   8  370.66    7.90
  -1  -2   8  381.36    8.90
   0   2  -8   13.50    1.90
   0  -2   8   17.10    2.10
   0  -2   8   19.00    1.90
  -1   2  -8 2115.19   39.40
   1  -2   8 2099.19   39.50
  -2   2  -8 1890.01   34.60
   2  -2   8 1927.51   35.50
   2  -2   8 1730.93   35.40
  -3   2  -8   65.59    2.70
   3  -2   8   58.09    2.50
   3  -2   8   60.49    3.90
  -4   2  -8  176.98    4.30
   4  -2   8  167.98    6.30
   5  -2   8  903.41   20.00
   6  -2   8  234.28    8.60
   7  -2   8   21.20    4.60
  -8  -1   8  211.38    8.40
  -7  -1   8  432.76   12.10
  -6  -1   8  442.96   11.50
   5   1  -8   70.69    2.60
  -5  -1   8   60.49    4.10
   4   1  -8   27.80    1.80
  -4  -1   8   28.80    3.00
   3   1  -8  719.13   15.40
   3   1  -8  680.13   13.50
  -3  -1   8  726.33   14.90
   2   1  -8 1499.35   29.00
   2   1  -8 1469.05   28.00
  -2  -1   8 1497.15   28.50
   1   1  -8   97.29    3.90
  -1  -1   8   96.69    3.30
  -1  -1   8   96.59    3.60
   0   1  -8   91.59    3.70
   0  -1   8   92.99    3.70
  -1   1  -8  681.03   13.80
   1  -1   8  667.83   14.20
  -2   1  -8  778.32   15.80
   2  -1   8  797.62   16.70
  -3   1  -8  146.39    4.50
   3  -1   8  150.38    5.90
  -4   1  -8   62.19    3.10
   4  -1   8   64.79    4.60
   5  -1   8  379.56   10.80
   6  -1   8  127.99    7.40
   7  -1   8   46.90    5.50
  -8   0   8   18.10    3.80
  -7   0   8   71.29    5.00
   6   0  -8   80.39    3.50
  -6   0   8   78.39    4.60
   5   0  -8   90.59    3.40
  -5   0   8   96.69    4.70
   4   0  -8   76.19    4.40
  -4   0   8   77.49    3.60
   3   0  -8 2362.96   45.90
  -3   0   8 2501.35   45.30
   2   0  -8  279.97    7.40
  -2   0   8  278.77    6.60
   1   0  -8 1158.68   22.90
  -1   0   8 1141.89   22.20
  -1   0   8 1183.58   22.50
   0   0  -8   11.40    1.90
   0   0   8   11.90    1.90
  -1   0  -8 1114.19   21.80
   1   0   8 1111.49   22.20
  -2   0  -8   85.19    3.70
   2   0   8   84.89    4.60
  -3   0  -8  815.82   16.70
   3   0   8  831.92   18.10
  -4   0  -8   14.70    2.20
   4   0   8   19.00    3.60
   5   0   8   79.39    5.60
   6   0   8  264.87    9.90
  -9   1   8   32.20    4.60
  -8   1   8  252.17    8.90
   7  -1  -8   61.69    3.90
  -7   1   8   70.99    5.20
   6  -1  -8    8.20    2.40
   6  -1  -8   10.00    2.10
  -6   1   8   11.30    2.70
   5  -1  -8  441.66   10.90
   5  -1  -8  445.36    9.70
  -5   1   8  436.66   10.40
   4  -1  -8  748.73   16.10
  -4   1   8  748.43   15.30
   3  -1  -8  700.53   15.00
  -3   1   8  692.73   13.90
   2  -1  -8 1608.04   31.50
  -2   1   8 1656.63   30.30
   1  -1  -8 1803.02   34.60
  -1   1   8 1829.32   33.50
   0  -1  -8  220.08    6.20
   0   1   8  211.78    6.10
  -1  -1  -8   15.70    2.20
   1   1   8   16.30    2.40
  -2  -1  -8  640.24   13.90
   2   1   8  657.13   14.60
  -3  -1  -8  700.23   14.80
   3   1   8  685.73   15.80
  -4  -1  -8    7.60    2.30
   4   1   8    6.60    2.90
   5   1   8    5.50    3.60
   6   1   8  311.77   10.80
  -9   2   8  275.87    9.40
   8  -2  -8   25.60    3.20
  -8   2   8   26.90    3.70
   7  -2  -8    3.70    2.30
  -7   2   8    4.80    2.70
   6  -2  -8  414.26    9.90
   6  -2  -8  427.06   10.80
  -6   2   8  409.46   10.20
   5  -2  -8 1220.08   24.70
  -5   2   8 1205.38   23.80
   4  -2  -8   88.89    4.30
  -4   2   8   91.89    3.40
   3  -2  -8   11.80    2.20
   3  -2  -8   13.80    1.30
  -3   2   8   12.10    1.40
   2  -2  -8 2384.56   45.10
  -2   2   8 2392.86   43.40
   1  -2  -8 2031.90   38.80
  -1   2   8 2039.60   36.90
   0  -2  -8   25.90    2.70
   0   2   8   26.90    2.80
   0   2   8   25.40    1.50
  -1  -2  -8  602.64   13.20
   1   2   8  582.84   13.40
  -2  -2  -8 3020.80   55.59
   2   2   8 2899.31   55.99
  -3  -2  -8  591.14   13.50
   3   2   8  598.54   14.40
  -4  -2  -8    3.50    2.30
   4   2   8    2.00    3.00
   5   2   8  444.06   12.40
  -9   3   8  356.76   10.90
   8  -3  -8   68.99    4.60
  -8   3   8   55.49    4.40
   7  -3  -8  185.58    6.80
   7  -3  -8  189.98    6.40
  -7   3   8  190.08    6.70
   6  -3  -8 1181.68   24.10
   6  -3  -8 1159.78   23.40
  -6   3   8 1139.89   23.20
   5  -3  -8  746.83   16.30
  -5   3   8  728.13   15.10
   4  -3  -8   66.29    4.30
  -4   3   8   71.99    2.80
   3  -3  -8  503.65    9.70
   3  -3  -8  490.55   11.60
  -3   3   8  498.95    9.70
   2  -3  -8 1585.14   31.00
   1  -3  -8  323.77    8.50
   0  -3  -8   20.20    2.60
   0   3   8   18.70    1.20
  -1  -3  -8  161.98    5.90
   1   3   8  153.88    5.80
  -2  -3  -8  496.45   12.10
   2   3   8  506.65   12.50
  -3  -3  -8   11.80    2.80
   3   3   8   13.40    3.20
  -4  -3  -8    1.50    2.60
   4   3   8    4.40    3.10
   5   3   8  150.88    7.50
   9  -4  -8  144.59    6.70
  -9   4   8  151.28    6.90
   8  -4  -8   19.20    3.10
   8  -4  -8   15.80    3.20
  -8   4   8   13.80    3.10
   7  -4  -8   21.60    3.20
   7  -4  -8   26.30    3.30
  -7   4   8   17.20    2.80
   6  -4  -8  654.03   15.20
  -6   4   8  677.63   14.30
   5  -4  -8  500.55   12.30
  -5   4   8  499.75   10.70
   4  -4  -8    3.70    1.00
   4  -4  -8    2.10    2.20
   3  -4  -8  156.28    5.70
   2  -4  -8  648.74   14.60
   1  -4  -8   44.40    3.70
   0  -4  -8  130.59    5.70
  -1  -4  -8  443.26   11.30
  -2  -4  -8  333.17    9.70
  -3  -4  -8  189.58    7.40
   3   4   8  188.58    7.50
  -4  -4  -8   85.29    5.90
   4   4   8  100.29    6.20
   9  -5  -8  317.97   10.00
   8  -5  -8  184.58    6.90
   8  -5  -8  186.98    7.30
   7  -5  -8  114.49    5.60
   7  -5  -8  103.59    5.50
   6  -5  -8   13.20    3.00
   5  -5  -8  782.72   17.50
   4  -5  -8  518.65   12.60
   3  -5  -8   13.90    3.00
   2  -5  -8    7.30    2.60
   1  -5  -8  462.35   11.80
   0  -5  -8   52.49    4.40
  -1  -5  -8   15.30    3.30
  -2  -5  -8  228.38    8.10
  -3  -5  -8  474.95   13.10
   9  -6  -8    8.10    3.50
   8  -6  -8   96.59    5.90
   8  -6  -8   97.19    5.50
   7  -6  -8   17.00    3.30
   7  -6  -8   11.90    3.00
   6  -6  -8   61.69    4.80
   5  -6  -8 1245.98   26.10
   4  -6  -8  955.70   20.70
   3  -6  -8    1.90    2.60
   2  -6  -8  165.38    6.60
   1  -6  -8 1794.02   36.20
   0  -6  -8  653.83   16.00
  -1  -6  -8   20.00    4.00
  -2  -6  -8  260.17    9.50
   9  -7  -8  372.96   11.60
   8  -7  -8   51.89    4.50
   7  -7  -8  113.49    6.20
   6  -7  -8  878.61   19.80
   5  -7  -8  471.25   12.60
   4  -7  -8   21.60    3.70
   3  -7  -8   14.20    3.50
   2  -7  -8  942.91   21.20
   0  -7  -8    7.30    3.20
  -1  -7  -8    2.70    3.70
   8  -8  -8  168.58    7.80
   7  -8  -8   14.80    3.80
   6  -8  -8  293.67    9.90
   5  -8  -8  442.66   12.40
   4  -8  -8    1.90    2.90
   3  -8  -8   22.40    3.80
   2  -8  -8  559.84   14.80
   1  -8  -8  131.59    7.00
   0  -8  -8   38.50    4.80
   7  -9  -8    0.60    3.50
   6  -9  -8   22.80    4.30
   5  -9  -8    2.10    3.20
   4  -9  -8  132.09    7.50
   3  -9  -8    1.20    3.30
   2  -9  -8   61.49    5.80
   1  -9  -8   88.69    6.70
   0 -10   9   69.69    5.60
   1 -10   9   34.00    4.50
   2 -10   9   -0.40    2.90
   3 -10   9   31.00    4.50
   4 -10   9   19.10    3.80
   5 -10   9   -2.70    2.80
  -1  -9   9  103.89    6.60
   0  -9   9  226.18    8.70
   1  -9   9   71.99    5.30
   2  -9   9   43.40    4.30
   3  -9   9  190.18    8.00
   3  -9   9  184.68    7.10
   4  -9   9  148.49    6.30
   5  -9   9  142.19    6.50
   6  -9   9  274.67    9.40
  -3  -8   9   82.69    6.20
  -2  -8   9  323.27   10.60
  -1  -8   9  645.54   15.80
   0  -8   9  162.98    7.10
   1  -8   9  114.79    6.30
   2  -8   9  876.31   19.60
   2  -8   9  851.71   17.80
   3  -8   9  691.73   16.60
   3  -8   9  686.33   15.20
   4  -8   9   96.99    5.20
   5  -8   9  258.47    8.50
   6  -8   9  318.17   10.10
  -4  -7   9  273.27    9.70
  -3  -7   9  147.49    6.90
  -2  -7   9   16.60    3.60
  -1  -7   9   47.40    4.30
   0  -7   9  149.59    6.60
   1  -7   9   86.39    3.70
   1  -7   9   88.69    5.10
   2  -7   9  136.39    5.00
   2  -7   9  135.29    6.00
   3  -7   9  186.98    6.20
   4  -7   9   43.20    3.70
   5  -7   9   55.19    4.40
   6  -7   9  143.09    6.60
   7  -7   9   -2.60    3.60
  -5  -6   9   65.19    5.50
  -4  -6   9   51.49    5.10
  -3  -6   9   96.39    5.60
  -2  -6   9  275.87    8.60
  -1  -6   9    3.20    2.70
   0  -6   9   15.20    1.70
   0  -6   9   15.00    3.00
   1  -6   9  216.08    5.70
   1  -6   9  210.38    7.30
   2  -6   9  107.09    4.30
   3  -6   9   57.99    3.90
   4  -6   9   58.69    4.50
   5  -6   9   33.40    3.70
   6  -6   9   28.40    3.90
   7  -6   9    2.20    3.60
  -6  -5   9   45.80    5.30
  -5  -5   9   -1.50    3.00
  -4  -5   9   20.50    3.60
  -3  -5   9  252.37    8.50
  -2  -5   9  220.58    7.30
  -1  -5   9  383.96   10.20
   0  -5   9  248.48    5.90
   0  -5   9  251.17    7.70
   1  -5   9   53.19    3.80
   1  -5   9   55.99    3.10
   2  -5   9  128.99    4.70
   3  -5   9 2161.38   41.30
   4  -5   9  360.66    9.80
   5  -5   9  204.08    7.30
   6  -5   9   82.99    5.60
   7  -5   9  574.64   15.30
  -6  -4   9  124.69    6.80
  -5  -4   9   21.40    3.90
  -4  -4   9  422.56   11.50
  -3  -4   9 1417.66   28.80
  -2  -4   9  482.05   11.70
  -1  -4   9    6.50    1.10
  -1  -4   9    1.30    2.00
   0  -4   9  267.17    6.30
   0  -4   9  258.07    7.40
   1  -4   9 1916.81   36.00
   2  -4   9 1401.16   27.30
   3  -4   9  299.37    8.30
   4  -4   9   16.60    2.90
   5  -4   9   96.89    5.40
   6  -4   9  676.83   16.40
   7  -4   9  442.66   13.10
  -7  -3   9   26.10    4.20
  -6  -3   9   87.49    6.20
  -5  -3   9  708.93   16.60
  -4  -3   9  341.87    9.70
  -3  -3   9    8.20    2.40
  -2  -3   9  635.54   14.10
   1   3  -9 2296.07   43.90
  -1  -3   9 2368.56   44.60
  -1  -3   9 2375.66   43.00
   0  -3   9  803.32   17.10
   0  -3   9  837.92   16.30
  -1   3  -9  456.35   10.30
   1  -3   9  458.65   10.20
  -2   3  -9  884.61   17.60
   2  -3   9  886.61   18.20
  -3   3  -9  206.78    5.30
   3  -3   9  222.08    6.70
   4  -3   9   13.90    2.90
   5  -3   9  224.18    7.80
   6  -3   9  455.55   12.60
   7  -3   9   17.50    4.20
  -7  -2   9  506.95   13.70
  -6  -2   9   51.49    4.70
  -5  -2   9   66.69    4.60
  -4  -2   9  507.05   12.20
   3   2  -9  200.58    4.30
  -3  -2   9  217.98    6.60
   2   2  -9  110.79    4.60
   2   2  -9  107.29    3.00
  -2  -2   9  109.69    4.50
   1   2  -9  157.68    5.40
  -1  -2   9  151.38    4.20
  -1  -2   9  153.88    5.10
   0   2  -9   -0.50    1.70
   0  -2   9    0.70    1.60
   0  -2   9    5.20    1.80
  -1   2  -9    4.10    1.70
   1  -2   9    3.40    2.00
  -2   2  -9   90.19    3.60
   2  -2   9   94.19    4.60
  -3   2  -9    1.10    1.40
   3  -2   9    3.30    2.40
   4  -2   9    6.50    3.20
   5  -2   9  182.28    7.70
   6  -2   9   25.80    4.10
   7  -2   9   10.20    4.00
  -8  -1   9    6.10    3.70
  -7  -1   9    1.20    3.30
  -6  -1   9   10.80    3.00
   5   1  -9   26.00    2.00
  -5  -1   9   25.90    3.10
   4   1  -9   14.00    1.40
  -4  -1   9   13.10    2.60
   3   1  -9   17.60    2.60
  -3  -1   9   19.50    2.40
   2   1  -9    6.80    2.10
  -2  -1   9    8.10    1.80
   1   1  -9   20.40    2.30
  -1  -1   9   26.20    2.10
  -1  -1   9   30.60    2.40
   0   1  -9  375.56    9.10
   0  -1   9  398.66    9.00
  -1   1  -9   74.89    3.60
   1  -1   9   72.19    3.80
  -2   1  -9    1.70    1.60
   2  -1   9    2.80    2.20
  -3   1  -9  581.34   12.10
   3  -1   9  548.25   13.30
  -4   1  -9  501.85   11.00
   4  -1   9  515.65   13.10
   5  -1   9    8.00    3.40
   6  -1   9   35.00    4.60
  -8   0   9   11.60    3.80
  -7   0   9  136.19    6.60
   6   0  -9  147.49    4.70
  -6   0   9  148.19    5.90
   5   0  -9  255.47    8.10
   5   0  -9  255.37    6.20
  -5   0   9  256.87    7.60
   4   0  -9  409.86   10.30
  -4   0   9  395.16    9.60
   3   0  -9   90.79    4.30
  -3   0   9   91.29    3.70
   2   0  -9  348.07    8.90
  -2   0   9  371.56    8.20
   1   0  -9 1251.57   24.60
  -1   0   9 1248.98   24.20
  -1   0   9 1226.98   23.80
   0   0  -9  836.32   17.50
   0   0   9  875.51   17.60
  -1   0  -9  481.75   10.90
   1   0   9  489.15   11.40
  -2   0  -9  359.06    8.60
   2   0   9  354.96    9.40
  -3   0  -9  384.46    9.10
   3   0   9  374.66   10.20
  -4   0  -9  223.08    6.40
   4   0   9  226.28    8.00
   5   0   9   67.89    5.60
   6   0   9  281.67   10.40
  -9   1   9   36.50    4.70
  -8   1   9   88.39    6.10
   7  -1  -9  710.83   15.20
  -7   1   9  710.03   16.40
   6  -1  -9  591.94   14.20
   6  -1  -9  596.04   12.80
  -6   1   9  591.74   13.70
   5  -1  -9  351.66    9.60
  -5   1   9  357.66    9.00
   4  -1  -9 1084.59   22.50
  -4   1   9 1091.39   21.50
   3  -1  -9 1328.37   26.90
  -3   1   9 1368.16   25.70
   2  -1  -9 1179.58   23.70
  -2   1   9 1180.48   22.40
   1  -1  -9 1632.34   31.20
  -1   1   9 1582.54   29.90
   0  -1  -9  544.45   12.10
   0   1   9  528.45   12.00
  -1  -1  -9  143.29    5.10
   1   1   9  144.09    5.60
  -2  -1  -9  426.26   10.20
   2   1   9  431.46   11.00
  -3  -1  -9  224.08    6.80
   3   1   9  215.38    7.50
  -4  -1  -9  141.59    5.50
   4   1   9  136.09    6.90
   5   1   9  376.96   11.60
   6   1   9   88.79    6.90
  -9   2   9   27.90    4.20
  -8   2   9   35.00    4.00
   7  -2  -9  190.48    7.20
   7  -2  -9  187.78    6.10
  -7   2   9  197.18    7.00
   6  -2  -9  302.57    8.90
   6  -2  -9  311.27    8.10
  -6   2   9  316.07    8.50
   5  -2  -9  290.37    8.50
  -5   2   9  300.07    7.60
   4  -2  -9  168.68    6.00
  -4   2   9  178.88    5.00
   3  -2  -9   30.30    1.90
   3  -2  -9   31.20    3.00
  -3   2   9   34.30    2.10
   2  -2  -9  517.25   12.10
  -2   2   9  529.75   10.20
   1  -2  -9 1511.95   29.40
  -1   2   9 1479.25   27.40
   0  -2  -9   21.50    2.60
   0   2   9   16.30    2.50
   0   2   9   23.20    1.60
  -1  -2  -9   67.29    4.10
   1   2   9   63.59    4.10
  -2  -2  -9 1530.85   30.00
   2   2   9 1492.85   30.50
  -3  -2  -9 1467.05   29.40
   3   2   9 1470.85   30.20
  -4  -2  -9   72.69    4.70
   4   2   9   81.89    5.90
   5   2   9   48.30    5.10
  -9   3   9   11.50    3.30
   8  -3  -9  161.68    6.70
   8  -3  -9  146.49    6.20
  -8   3   9  153.68    6.60
   7  -3  -9  376.36   10.60
   7  -3  -9  384.96    9.80
  -7   3   9  374.86   10.00
   6  -3  -9   40.10    3.90
  -6   3   9   35.70    3.00
   5  -3  -9   79.19    4.60
  -5   3   9   87.59    3.80
   4  -3  -9   25.90    3.00
  -4   3   9   26.20    1.90
   3  -3  -9  244.98    7.50
  -3   3   9  239.78    5.10
   2  -3  -9  137.19    5.30
   1  -3  -9  437.56   10.80
   0  -3  -9   12.30    2.50
   0   3   9    9.90    1.10
  -1  -3  -9   16.30    2.80
   1   3   9   16.40    2.90
  -2  -3  -9  114.69    5.60
   2   3   9  118.39    6.00
  -3  -3  -9   77.19    5.00
   3   3   9   77.99    5.60
  -4  -3  -9  215.98    7.70
   4   3   9  229.38    8.70
   9  -4  -9    6.90    3.20
  -9   4   9    7.70    3.30
   8  -4  -9    5.20    2.80
   8  -4  -9   -2.80    2.70
  -8   4   9    2.40    2.60
   7  -4  -9  390.06   10.20
   7  -4  -9  380.76   10.70
  -7   4   9  380.06    9.80
   6  -4  -9  105.19    5.60
  -6   4   9  100.19    4.30
   5  -4  -9    3.20    2.50
  -5   4   9    5.00    1.70
   4  -4  -9  438.56   11.30
   3  -4  -9  223.68    7.40
   2  -4  -9    9.40    2.80
   1  -4  -9  371.46    9.90
   0  -4  -9  484.95   12.30
  -1  -4  -9   24.40    3.50
  -2  -4  -9   35.80    4.00
  -3  -4  -9  699.53   16.80
   3   4   9  745.33   17.40
  -4  -4  -9  168.08    7.30
   4   4   9  175.68    7.90
   9  -5  -9  515.75   13.70
   8  -5  -9   31.40    3.80
   8  -5  -9   37.60    4.00
   7  -5  -9  113.09    5.90
   7  -5  -9  109.59    5.40
   6  -5  -9  806.72   18.40
   5  -5  -9  534.45   13.40
   4  -5  -9  467.25   11.90
   3  -5  -9  786.82   17.60
   2  -5  -9  271.57    8.40
   1  -5  -9  370.96   10.30
   0  -5  -9  742.83   17.30
  -1  -5  -9  150.08    6.90
  -2  -5  -9   81.59    5.40
  -3  -5  -9  411.06   12.00
   9  -6  -9    3.70    3.30
   8  -6  -9  216.18    8.00
   8  -6  -9  196.68    7.60
   7  -6  -9  339.37   10.30
   6  -6  -9  299.67    9.60
   5  -6  -9  402.06   11.30
   4  -6  -9  342.37   10.10
   3  -6  -9  215.28    7.70
   2  -6  -9  288.17    9.10
   1  -6  -9  540.85   13.90
   0  -6  -9  394.26   11.40
  -1  -6  -9   39.20    4.30
  -2  -6  -9  104.89    6.80
   8  -7  -9   55.49    5.00
   8  -7  -9   67.69    5.40
   7  -7  -9   46.10    4.50
   6  -7  -9    8.30    3.40
   5  -7  -9   -2.40    3.10
   4  -7  -9   17.00    3.40
   3  -7  -9    0.50    2.80
   2  -7  -9   59.89    5.00
   1  -7  -9    4.00    3.50
   0  -7  -9   37.50    4.40
  -1  -7  -9    3.40    3.30
   8  -8  -9    0.60    3.50
   7  -8  -9    3.40    3.60
   6  -8  -9    5.30    3.50
   5  -8  -9  119.29    6.90
   4  -8  -9    5.20    3.60
   3  -8  -9  187.68    8.40
   2  -8  -9    0.20    3.20
   1  -8  -9   -0.60    3.20
   7  -9  -9   50.59    5.40
   6  -9  -9  163.28    8.20
   5  -9  -9  275.07    9.80
   4  -9  -9  252.47    9.50
   3  -9  -9  375.16   12.30
   2  -9  -9   58.59    5.80
   1 -10  10  418.76   12.40
   2 -10  10  186.88    8.50
   3 -10  10   24.30    4.30
   4 -10  10   84.49    6.70
  -1  -9  10   35.80    4.70
   0  -9  10  430.36   12.50
   1  -9  10  500.25   13.80
   2  -9  10   67.29    5.40
   3  -9  10  178.38    8.10
   4  -9  10  296.37   10.30
   4  -9  10  283.57    8.90
   5  -9  10   17.30    3.60
  -3  -8  10  224.68    9.30
  -2  -8  10    6.90    3.70
  -1  -8  10    7.50    3.10
   0  -8  10  212.68    8.20
   1  -8  10  367.36   11.00
   2  -8  10   28.70    3.90
   3  -8  10    8.90    3.10
   3  -8  10    9.80    2.70
   4  -8  10  195.38    7.00
   5  -8  10   45.70    4.50
   6  -8  10    6.30    3.60
  -4  -7  10  146.59    7.90
  -3  -7  10   34.60    4.30
  -2  -7  10  571.64   14.70
  -1  -7  10    4.20    2.70
   0  -7  10   42.00    4.00
   1  -7  10   35.10    3.70
   2  -7  10  156.78    5.50
   2  -7  10  154.58    6.80
   3  -7  10  135.49    5.70
   4  -7  10   49.00    3.90
   5  -7  10   19.40    3.30
   6  -7  10   13.90    3.80
  -5  -6  10   18.20    4.50
  -4  -6  10    4.90    3.20
  -3  -6  10  112.99    6.10
  -2  -6  10  179.68    7.00
  -1  -6  10   21.40    3.10
   0  -6  10   14.70    2.90
   1  -6  10  700.33   14.60
   1  -6  10  720.33   16.40
   2  -6  10  465.55   11.90
   2  -6  10  469.95   10.80
   3  -6  10  540.45   12.60
   4  -6  10  378.46   10.10
   5  -6  10    9.10    3.00
   6  -6  10  130.29    6.60
  -5  -5  10  144.39    7.50
  -4  -5  10  122.09    6.30
  -3  -5  10 1146.39   24.50
  -2  -5  10 1170.08   24.50
  -1  -5  10    0.10    2.30
   0  -5  10  183.78    6.80
   0  -5  10  191.88    5.10
   1  -5  10 3985.70   73.89
   1  -5  10 3910.81   72.39
   2  -5  10  596.54   13.10
   3  -5  10  970.80   20.30
   4  -5  10   92.99    5.40
   5  -5  10 1724.33   34.80
   6  -5  10  103.09    6.70
   7  -5  10   22.30    4.70
  -6  -4  10  167.88    8.30
  -5  -4  10  113.29    6.20
  -4  -4  10  471.55   12.40
  -3  -4  10   11.20    2.80
  -2  -4  10   35.10    3.40
  -1  -4  10 2400.36   43.60
  -1  -4  10 2361.76   45.70
   0  -4  10  993.40   20.80
   0  -4  10  998.10   19.50
   1  -4  10   36.80    3.20
   1  -4  10   36.10    2.80
   2  -4  10  263.47    7.40
   3  -4  10  961.50   20.20
   4  -4  10  141.49    6.00
   5  -4  10   77.79    5.30
   6  -4  10  120.19    7.10
   7  -4  10    1.70    4.30
  -7  -3  10 1109.69   25.30
  -6  -3  10  208.18    8.20
  -5  -3  10 1470.65   30.50
  -4  -3  10   11.80    2.90
  -3  -3  10 2103.09   40.90
   2   3 -10    0.50    0.80
  -2  -3  10    0.20    1.90
  -1  -3  10  439.46   10.80
  -1  -3  10  474.65    9.60
   0   3 -10  166.08    5.40
   0  -3  10  164.98    5.70
   0  -3  10  169.38    5.00
  -1   3 -10    2.10    1.80
   1  -3  10    3.70    2.00
  -2   3 -10  273.67    6.80
   2  -3  10  251.77    7.30
  -3   3 -10    2.80    1.40
   3  -3  10    1.70    2.50
   4  -3  10   19.70    3.60
   5  -3  10   60.69    5.30
   6  -3  10   37.90    4.60
  -7  -2  10   68.59    5.60
  -6  -2  10  418.36   11.70
  -5  -2  10    2.10    2.90
  -4  -2  10  217.28    7.30
   3   2 -10   -0.80    0.90
  -3  -2  10    0.00    2.00
   2   2 -10  783.92   17.00
  -2  -2  10  766.42   16.50
   1   2 -10  862.61   18.40
  -1  -2  10  882.91   18.20
  -1  -2  10  882.41   17.30
   0   2 -10  114.39    4.60
   0  -2  10  120.89    4.50
   0  -2  10  120.79    4.30
  -1   2 -10  345.57    8.40
   1  -2  10  344.07    8.70
  -2   2 -10  408.06    9.40
   2  -2  10  412.66   10.40
  -3   2 -10   58.49    3.10
   3  -2  10   56.09    4.40
   4  -2  10  138.89    6.30
   5  -2  10  272.27    9.60
   6  -2  10   73.89    6.20
  -8  -1  10   38.50    4.50
  -7  -1  10   78.19    5.60
  -6  -1  10  986.00   21.60
  -5  -1  10  373.66   10.10
   4   1 -10   17.00    3.10
  -4  -1  10   17.10    2.80
   3   1 -10  490.45   12.00
  -3  -1  10  494.15   11.40
   2   1 -10 1710.13   33.50
  -2  -1  10 1723.03   33.00
   1   1 -10  935.11   19.30
  -1  -1  10  922.51   18.70
  -1  -1  10  931.71   18.50
   0   1 -10   15.70    2.40
   0  -1  10   14.70    2.20
   0  -1  10   14.10    2.00
  -1   1 -10   86.79    3.90
   1  -1  10   83.19    4.10
  -2   1 -10  947.81   19.20
   2  -1  10  963.10   20.10
  -3   1 -10  559.14   12.10
   3  -1  10  557.94   13.50
   4  -1  10  320.97    9.80
   5  -1  10  436.86   12.70
   6  -1  10  130.19    7.80
  -8   0  10   11.90    3.80
  -7   0  10  435.16   12.00
  -6   0  10 1102.09   23.30
   5   0 -10   53.19    4.40
   5   0 -10   54.69    2.90
  -5   0  10   52.89    3.90
   4   0 -10  395.66   10.40
  -4   0  10  399.66    9.70
   3   0 -10 2893.91   55.89
  -3   0  10 3030.70   55.09
   2   0 -10  917.71   19.30
  -2   0  10  924.91   18.30
   1   0 -10  112.79    4.60
  -1   0  10  115.99    3.90
  -1   0  10  111.09    4.40
   0   0 -10  977.30   19.80
   0   0  10  953.90   19.70
  -1   0 -10  838.92   17.70
   1   0  10  862.81   18.10
  -2   0 -10  285.27    7.70
   2   0  10  287.77    8.60
  -3   0 -10  225.78    6.70
   3   0  10  226.38    8.00
   4   0  10  101.29    6.40
   5   0  10  104.49    6.40
   6   0  10   15.30    4.10
  -8   1  10    2.40    3.30
  -7   1  10  358.86   10.30
   6  -1 -10  606.14   13.00
   6  -1 -10  592.44   14.60
  -6   1  10  616.84   14.10
   5  -1 -10   28.60    3.30
  -5   1  10   34.40    3.10
   4  -1 -10   16.90    2.70
  -4   1  10   24.10    2.40
   3  -1 -10 1189.68   24.50
  -3   1  10 1212.68   23.20
   2  -1 -10  289.67    8.10
  -2   1  10  281.87    6.60
   1  -1 -10  231.48    7.00
  -1   1  10  222.48    5.50
   0  -1 -10   36.00    3.20
   0   1  10   26.80    2.70
  -1  -1 -10  107.19    4.90
   1   1  10  117.49    5.10
  -2  -1 -10   14.80    2.60
   2   1  10   17.10    3.20
  -3  -1 -10  324.87    8.70
   3   1  10  325.17    9.70
   4   1  10   -1.70    3.30
   5   1  10  418.46   12.60
  -9   2  10  112.79    6.90
  -8   2  10    3.10    3.00
   7  -2 -10  106.39    6.00
   7  -2 -10   97.29    4.80
  -7   2  10  111.19    5.50
   6  -2 -10    4.30    2.90
  -6   2  10    4.60    2.30
   5  -2 -10  125.59    5.90
  -5   2  10  130.29    4.90
   4  -2 -10   -0.70    2.20
  -4   2  10    2.10    1.60
   3  -2 -10  193.28    6.60
  -3   2  10  201.28    4.90
   2  -2 -10  116.29    5.30
  -2   2  10  113.19    3.10
   1  -2 -10 1729.63   33.70
  -1   2  10 1711.73   31.60
   0  -2 -10    3.30    2.40
   0   2  10   -3.00    2.30
  -1  -2 -10 1086.69   22.90
   1   2  10 1140.69   23.30
  -2  -2 -10  191.58    6.70
   2   2  10  188.38    7.00
  -3  -2 -10 1282.97   25.70
   3   2  10 1209.38   26.30
   4   2  10    4.80    3.10
   5   2  10   27.90    4.50
  -9   3  10  275.87    9.40
   8  -3 -10    2.00    2.90
   8  -3 -10    1.00    2.50
  -8   3  10    2.40    2.80
   7  -3 -10   10.30    3.10
   7  -3 -10    8.70    2.60
  -7   3  10   11.90    2.70
   6  -3 -10  518.55   13.30
  -6   3  10  537.35   12.10
   5  -3 -10   21.90    3.20
  -5   3  10   24.20    2.30
   4  -3 -10   61.99    4.40
  -4   3  10   61.79    2.80
   3  -3 -10 2796.32   53.49
  -3   3  10 2818.02   50.89
   2  -3 -10 1002.80   21.20
   1  -3 -10  136.89    5.60
   0  -3 -10  318.97    9.20
  -1  -3 -10 1856.01   36.60
   1   3  10 1851.61   36.80
  -2  -3 -10  670.53   15.60
   2   3  10  659.33   15.90
  -3  -3 -10  154.68    6.70
   3   3  10  165.48    7.30
   4   3  10  113.89    6.30
   9  -4 -10 1337.97   27.80
  -9   4  10 1304.77   27.80
   8  -4 -10   40.80    4.30
   8  -4 -10   43.80    4.10
  -8   4  10   45.90    3.90
   7  -4 -10  155.28    6.30
   7  -4 -10  143.19    6.80
  -7   4  10  152.08    5.80
   6  -4 -10 1685.13   33.90
  -6   4  10 1655.33   32.00
   5  -4 -10 3145.29   60.09
  -5   4  10 3163.38   57.89
   4  -4 -10    2.40    2.60
   3  -4 -10   20.00    3.40
   2  -4 -10 1017.20   21.70
   1  -4 -10  376.16   10.30
   0  -4 -10  136.99    6.00
  -1  -4 -10  494.25   12.90
  -2  -4 -10  179.48    7.40
  -3  -4 -10   29.60    4.10
   9  -5 -10    3.20    3.30
   8  -5 -10   11.80    3.30
   8  -5 -10   10.40    3.30
   7  -5 -10  529.05   13.80
   6  -5 -10  440.66   12.10
   5  -5 -10   72.09    5.60
   4  -5 -10   28.50    3.60
   3  -5 -10  345.07   10.20
   2  -5 -10  718.53   16.70
   1  -5 -10  155.38    7.00
   0  -5 -10   64.49    5.00
  -1  -5 -10  162.68    7.10
  -2  -5 -10    0.10    2.80
  -3  -5 -10    5.40    3.30
   8  -6 -10   35.90    4.20
   8  -6 -10   37.50    4.40
   7  -6 -10  322.17   10.30
   6  -6 -10  107.19    6.00
   5  -6 -10   87.49    6.00
   4  -6 -10    5.30    3.30
   3  -6 -10   62.69    4.90
   2  -6 -10    7.50    3.10
   1  -6 -10    7.70    3.20
   0  -6 -10   26.40    4.30
  -1  -6 -10   -2.00    3.00
  -2  -6 -10    8.30    3.70
   8  -7 -10  242.88    9.10
   8  -7 -10  246.88    9.10
   7  -7 -10   53.69    5.10
   6  -7 -10   41.30    4.80
   5  -7 -10 1026.10   23.10
   4  -7 -10  129.89    6.60
   3  -7 -10    3.50    3.10
   2  -7 -10  313.27   10.30
   1  -7 -10  324.77   11.00
   0  -7 -10   70.49    6.10
   7  -8 -10   17.10    4.10
   6  -8 -10  110.89    7.20
   5  -8 -10  176.68    7.90
   4  -8 -10   28.50    4.50
   3  -8 -10   81.79    6.10
   2  -8 -10  365.56   12.10
   1  -8 -10  161.38    8.10
   6  -9 -10  617.74   16.40
   5  -9 -10  633.74   16.70
   4  -9 -10    3.00    3.60
   3  -9 -10    4.40    3.70
  -1  -9  11   -2.20    3.30
   0  -9  11   87.99    5.90
   1  -9  11  200.68    8.60
   2  -9  11   -0.20    2.90
   3  -9  11   39.60    4.70
   4  -9  11    8.90    3.50
   4  -9  11   10.50    3.30
   5  -9  11   20.40    3.90
  -2  -8  11  123.69    7.30
  -1  -8  11  220.18    8.70
   0  -8  11   37.70    4.40
   1  -8  11   15.60    3.70
   2  -8  11  490.35   13.40
   3  -8  11   62.89    5.30
   3  -8  11   67.19    4.70
   4  -8  11   26.70    3.60
   5  -8  11    8.20    3.50
  -3  -7  11    0.60    3.10
  -2  -7  11  785.62   18.70
  -1  -7  11  686.63   16.80
   0  -7  11    4.70    3.10
   1  -7  11  227.28    8.00
   2  -7  11 1205.18   24.30
   2  -7  11 1221.08   25.90
   3  -7  11  154.98    6.20
   4  -7  11   37.10    4.00
   5  -7  11  410.86   11.50
   6  -7  11  205.38    8.60
  -4  -6  11   -0.70    3.20
  -3  -6  11   59.09    4.90
  -2  -6  11  449.46   12.30
  -1  -6  11  316.97    9.70
   0  -6  11   45.20    4.00
   1  -6  11  497.25   11.10
   1  -6  11  499.95   12.70
   2  -6  11 1130.19   24.40
   2  -6  11 1172.88   23.30
   3  -6  11   40.40    3.70
   4  -6  11    1.60    2.90
   5  -6  11  930.61   20.70
   6  -6  11  458.95   13.10
  -5  -5  11   -1.40    3.60
  -4  -5  11   14.10    3.80
  -3  -5  11 1015.60   22.40
  -2  -5  11  759.92   17.40
  -1  -5  11    7.40    2.90
   0  -5  11   68.99    3.40
   0  -5  11   69.99    4.50
   1  -5  11   47.60    3.20
   1  -5  11   52.19    4.10
   2  -5  11   14.10    2.70
   3  -5  11    5.20    2.80
   4  -5  11   31.70    3.80
   5  -5  11   -0.30    3.30
   6  -5  11    1.80    3.40
  -6  -4  11   58.99    5.60
  -5  -4  11  338.67   10.60
  -4  -4  11  219.08    8.00
  -3  -4  11 1268.57   26.50
  -2  -4  11  338.77    9.60
  -1  -4  11 1993.10   36.90
  -1  -4  11 1998.30   39.00
   0  -4  11  210.58    7.10
   0  -4  11  222.38    6.10
   1  -4  11 1541.55   29.60
   1  -4  11 1501.55   30.40
   2  -4  11   76.49    4.60
   3  -4  11  408.26   10.80
   4  -4  11    0.80    2.90
   5  -4  11   43.40    4.90
   6  -4  11   52.39    5.60
  -7  -3  11  106.29    7.50
  -6  -3  11  228.28    9.10
  -5  -3  11    8.40    3.10
  -4  -3  11    0.90    2.60
  -3  -3  11  352.26    9.90
  -2  -3  11 1448.26   29.10
  -1  -3  11 1231.28   23.10
  -1  -3  11 1170.68   24.40
   0   3 -11   29.00    3.00
   0  -3  11   31.10    2.70
   0  -3  11   29.60    3.10
  -1   3 -11   48.70    3.60
   1  -3  11   48.80    3.80
  -2   3 -11 1728.53   32.90
   2  -3  11 1702.73   33.60
  -3   3 -11 1000.50   19.90
   3  -3  11 1012.80   21.40
   4  -3  11   -1.20    2.80
   5  -3  11  112.19    6.90
   6  -3  11  351.96   11.30
  -7  -2  11  148.99    7.80
  -6  -2  11  383.46   11.50
  -5  -2  11 1080.39   23.20
  -4  -2  11   22.70    3.30
   3   2 -11  161.18    6.20
  -3  -2  11  158.58    5.80
   2   2 -11 1651.13   32.10
  -2  -2  11 1566.34   31.50
   1   2 -11  735.43   16.30
  -1  -2  11  736.53   15.10
  -1  -2  11  752.72   15.90
   0   2 -11   59.99    3.60
   0  -2  11   64.19    3.70
   0  -2  11   64.09    3.60
  -1   2 -11  351.26    8.70
   1  -2  11  344.47    8.90
  -2   2 -11 1252.87   24.90
   2  -2  11 1276.67   25.80
  -3   2 -11  689.93   14.60
   3  -2  11  713.23   16.40
   4  -2  11   16.00    3.50
   5  -2  11   77.69    6.00
   6  -2  11  559.14   15.60
  -8  -1  11   64.09    5.40
  -7  -1  11    4.10    3.20
  -6  -1  11  837.32   19.10
  -5  -1  11 1086.99   22.90
   4   1 -11   10.60    2.80
  -4  -1  11   11.90    2.70
   3   1 -11  141.99    5.80
  -3  -1  11  133.69    5.20
   2   1 -11 2013.30   39.10
  -2  -1  11 2017.80   38.50
   1   1 -11   60.19    4.10
  -1  -1  11   58.49    3.40
  -1  -1  11   57.59    3.30
   0   1 -11  263.77    7.60
   0  -1  11  270.27    7.10
   0  -1  11  280.37    7.50
  -1   1 -11  555.04   12.50
   1  -1  11  554.74   12.70
  -2   1 -11  862.21   17.80
   2  -1  11  853.11   18.60
  -3   1 -11    3.10    2.00
   3  -1  11    5.20    3.10
   4  -1  11   -0.10    3.00
   5  -1  11  208.28    8.50
   6  -1  11   36.90    5.30
  -8   0  11   49.80    4.90
  -7   0  11  129.09    6.70
  -6   0  11  476.15   12.30
   5   0 -11   85.59    5.20
  -5   0  11   98.49    5.00
   4   0 -11   13.40    2.90
  -4   0  11    9.90    2.40
   3   0 -11  379.06   10.30
  -3   0  11  402.76    9.30
   2   0 -11  406.96   10.20
  -2   0  11  382.96    9.00
   1   0 -11   43.60    3.50
  -1   0  11   35.80    2.80
   0   0 -11    1.20    2.20
   0   0  11    2.70    1.50
   0   0  11   -0.20    2.00
  -1   0 -11  611.04   13.70
   1   0  11  604.04   13.90
  -2   0 -11   55.39    4.10
   2   0  11   55.59    4.40
  -3   0 -11  285.77    8.00
   3   0  11  286.67    9.00
   4   0  11   75.99    5.60
   5   0  11    2.40    3.80
  -8   1  11  296.37    9.90
  -7   1  11   39.80    4.00
   6  -1 -11   65.39    3.80
   6  -1 -11   69.39    5.40
  -6   1  11   65.99    4.60
   5  -1 -11  962.80   21.20
  -5   1  11  989.90   20.20
   4  -1 -11 1536.95   31.50
  -4   1  11 1585.44   30.20
   3  -1 -11   21.10    3.10
  -3   1  11   23.00    2.20
   2  -1 -11   11.20    2.60
  -2   1  11   14.90    1.80
   1  -1 -11 1216.78   24.70
  -1   1  11 1194.38   23.00
   0  -1 -11  417.86   10.40
   0   1  11  418.46   10.40
  -1  -1 -11  187.08    6.50
   1   1  11  175.88    6.50
  -2  -1 -11  185.38    6.50
   2   1  11  183.08    7.10
  -3  -1 -11 1606.14   32.20
   3   1  11 1651.13   33.40
   4   1  11    4.90    3.60
   5   1  11  354.86   11.60
  -8   2  11  185.78    7.50
   7  -2 -11   49.10    3.60
   7  -2 -11   46.50    4.40
  -7   2  11   59.99    4.70
   6  -2 -11  134.99    6.30
  -6   2  11  148.69    5.60
   5  -2 -11 1138.09   24.60
  -5   2  11 1190.38   23.20
   4  -2 -11  141.99    6.00
  -4   2  11  139.89    4.50
   3  -2 -11   56.49    4.30
  -3   2  11   53.39    2.70
   2  -2 -11  763.62   16.90
  -2   2  11  741.43   14.40
   1  -2 -11  300.47    8.70
  -1   2  11  283.57    6.20
   0  -2 -11  355.56    9.80
  -1  -2 -11 1578.04   31.30
   1   2  11 1544.55   31.50
  -2  -2 -11  587.14   14.10
   2   2  11  608.04   14.80
  -3  -2 -11    6.10    3.00
   3   2  11    8.00    3.50
   4   2  11  112.09    6.50
   8  -3 -11  178.18    7.70
   8  -3 -11  182.28    6.70
  -8   3  11  182.18    7.30
   7  -3 -11   47.90    4.60
   7  -3 -11   53.29    4.20
  -7   3  11   54.59    4.20
   6  -3 -11  559.64   14.10
  -6   3  11  533.55   12.30
   5  -3 -11 3790.82   71.09
  -5   3  11 3721.43   68.99
   4  -3 -11   99.29    5.30
  -4   3  11  102.49    3.40
   3  -3 -11  827.12   18.20
  -3   3  11  805.02   15.30
   2  -3 -11 1551.84   31.30
   1  -3 -11 3369.76   63.79
   0  -3 -11   28.60    3.40
  -1  -3 -11   47.20    4.20
  -2  -3 -11  754.82   17.50
   2   3  11  765.82   17.80
  -3  -3 -11  190.28    7.70
   3   3  11  194.38    7.80
   4   3  11   15.00    4.00
   9  -4 -11   17.70    5.90
  -9   4  11   12.80    3.60
   8  -4 -11   -1.10    2.70
   8  -4 -11    1.50    3.10
  -8   4  11    2.90    2.60
   7  -4 -11  869.31   20.00
  -7   4  11  854.71   18.20
   6  -4 -11  985.70   22.00
  -6   4  11  988.70   20.30
   5  -4 -11    6.20    3.30
   4  -4 -11   63.09    4.90
   3  -4 -11  200.98    7.30
   2  -4 -11  656.33   15.50
   1  -4 -11  107.49    6.00
   0  -4 -11   88.29    5.80
  -1  -4 -11   -0.90    2.90
  -2  -4 -11  179.98    7.70
  -3  -4 -11    3.30    3.30
   8  -5 -11  158.58    7.10
   8  -5 -11  163.58    7.50
   7  -5 -11  202.68    8.20
   6  -5 -11   65.89    5.20
   5  -5 -11   83.09    6.00
   4  -5 -11  302.97    9.50
   3  -5 -11  205.18    7.70
   2  -5 -11  171.08    7.10
   1  -5 -11  349.47   10.50
   0  -5 -11  356.86   10.80
  -1  -5 -11    0.90    3.00
  -2  -5 -11   -1.80    3.20
   8  -6 -11  447.16   12.70
   8  -6 -11  419.46   12.20
   7  -6 -11   27.20    3.90
   6  -6 -11   19.10    3.60
   5  -6 -11  385.76   11.30
   4  -6 -11  681.23   16.90
   3  -6 -11   -1.20    2.80
   2  -6 -11  130.99    6.70
   1  -6 -11 1318.67   28.60
   0  -6 -11  302.87   10.30
  -1  -6 -11   31.90    4.80
   8  -7 -11  351.76   11.10
   8  -7 -11  376.06   11.70
   7  -7 -11   10.80    3.80
   6  -7 -11   51.09    5.30
   5  -7 -11  663.83   16.70
   4  -7 -11  415.96   12.50
   3  -7 -11   10.20    3.90
   2  -7 -11  220.68    8.80
   1  -7 -11  556.54   15.30
   0  -7 -11   35.50    4.80
   7  -8 -11    1.80    3.70
   6  -8 -11  177.68    8.60
   5  -8 -11  368.96   11.80
   4  -8 -11   17.20    4.00
   3  -8 -11   -1.20    3.40
   2  -8 -11  311.97   11.40
   0  -9  12   65.69    5.60
   1  -9  12   36.30    4.80
   2  -9  12   85.79    6.60
   3  -9  12  500.25   14.00
   4  -9  12   98.99    6.60
  -2  -8  12  281.17   10.40
  -1  -8  12  430.46   12.50
   0  -8  12  130.89    6.70
   1  -8  12   92.99    6.40
   2  -8  12  782.72   18.70
   3  -8  12  607.64   16.00
   3  -8  12  632.14   18.30
   4  -8  12    5.20    3.20
   5  -8  12    3.70    3.40
  -3  -7  12   23.60    4.20
  -2  -7  12  237.18    8.80
  -1  -7  12  311.57   10.00
   0  -7  12   32.70    4.20
   1  -7  12   54.49    4.90
   2  -7  12  436.86   12.00
   2  -7  12  422.36   10.60
   3  -7  12  190.48    6.90
   4  -7  12   -1.30    3.00
   5  -7  12   99.49    6.00
  -4  -6  12    3.30    3.40
  -3  -6  12   44.50    4.50
  -2  -6  12  287.47    9.60
  -1  -6  12    6.00    2.80
   0  -6  12   27.20    3.80
   1  -6  12  152.88    6.40
   1  -6  12  143.49    5.20
   2  -6  12  189.88    7.20
   2  -6  12  187.48    6.60
   3  -6  12   35.80    3.80
   4  -6  12   51.29    4.70
   5  -6  12   77.49    6.10
   6  -6  12   23.60    4.20
  -5  -5  12   -1.30    3.80
  -4  -5  12   73.69    5.80
  -3  -5  12   22.50    4.00
  -2  -5  12   20.80    3.50
  -1  -5  12  237.58    8.20
   0  -5  12  524.15   13.10
   0  -5  12  530.55   11.40
   1  -5  12    1.80    2.40
   1  -5  12    0.90    2.20
   2  -5  12   15.60    2.80
   3  -5  12  903.41   19.70
   4  -5  12  246.88    8.70
   5  -5  12   21.30    3.90
   6  -5  12   27.50    4.80
  -6  -4  12   41.80    4.90
  -5  -4  12  167.78    7.60
  -4  -4  12  310.37    9.80
  -3  -4  12  200.38    7.80
  -2  -4  12  121.99    5.60
  -1  -4  12  420.96   11.20
  -1  -4  12  435.26    9.20
   0  -4  12  452.25   10.30
   0  -4  12  459.35   11.60
   1  -4  12   35.00    3.30
   1  -4  12   40.40    3.60
   2  -4  12   91.59    5.10
   3  -4  12  436.76   11.50
   4  -4  12  104.49    6.40
   5  -4  12   11.90    4.00
   6  -4  12  329.17   11.00
  -6  -3  12   35.90    4.90
  -5  -3  12  780.72   18.40
  -4  -3  12  488.35   12.70
  -3  -3  12   74.89    4.70
  -2  -3  12  874.11   19.00
   1   3 -12 1659.93   33.40
  -1  -3  12 1723.33   33.30
  -1  -3  12 1662.73   31.80
   0   3 -12  204.98    6.80
   0  -3  12  211.48    6.10
   0  -3  12  208.48    6.90
  -1   3 -12  117.19    4.80
   1  -3  12  113.29    5.10
  -2   3 -12 1170.68   23.30
   2  -3  12 1163.68   24.20
   3  -3  12  797.42   18.20
   4  -3  12    3.30    3.60
   5  -3  12   24.20    4.30
   6  -3  12  260.17   10.00
  -7  -2  12  132.09    7.20
  -6  -2  12  269.67    9.60
  -5  -2  12  551.24   13.90
  -4  -2  12   95.39    5.50
   3   2 -12   14.50    3.00
  -3  -2  12   21.10    3.00
   2   2 -12  160.58    6.20
  -2  -2  12  158.88    5.90
   1   2 -12  554.94   13.30
  -1  -2  12  547.05   12.70
  -1  -2  12  580.24   12.20
   0   2 -12   -0.80    2.10
   0  -2  12    1.90    2.00
   0  -2  12    4.00    2.00
  -1   2 -12    5.80    2.20
   1  -2  12    3.00    2.20
  -2   2 -12  498.65   11.40
   2  -2  12  476.55   12.10
  -3   2 -12  246.08    7.10
   3  -2  12  247.48    8.30
   4  -2  12   20.20    3.80
   5  -2  12   -2.20    3.30
  -7  -1  12    5.20    3.50
  -6  -1  12   66.19    5.00
  -5  -1  12    3.50    2.70
   4   1 -12  177.88    6.90
  -4  -1  12  177.88    6.50
   3   1 -12   31.50    3.50
  -3  -1  12   38.20    3.40
   2   1 -12  221.58    7.20
  -2  -1  12  212.88    6.50
   1   1 -12    4.10    2.50
  -1  -1  12    3.00    2.00
  -1  -1  12    4.90    2.00
   0   1 -12  529.05   12.70
   0  -1  12  546.15   12.10
   0  -1  12  560.64   12.60
  -1   1 -12   29.50    3.00
   1  -1  12   30.00    3.40
  -2   1 -12   38.60    3.20
   2  -1  12   38.90    4.00
  -3   1 -12  245.38    7.10
   3  -1  12  254.47    8.70
   4  -1  12  354.36   11.10
   5  -1  12   -1.70    3.40
  -8   0  12   31.50    4.40
  -7   0  12   28.60    4.20
  -6   0  12   18.60    3.40
   5   0 -12  125.39    6.10
  -5   0  12  138.49    5.80
   4   0 -12  235.38    8.00
  -4   0  12  251.97    7.30
   3   0 -12   30.70    3.60
  -3   0  12   30.20    2.80
   2   0 -12    5.70    2.60
  -2   0  12    8.30    1.90
   1   0 -12  441.46   11.20
  -1   0  12  460.15   10.20
   0   0 -12  728.73   16.50
   0   0  12  764.82   16.50
   0   0  12  760.82   15.50
  -1   0 -12   33.90    3.30
   1   0  12   25.20    3.10
  -2   0 -12    3.30    2.40
   2   0  12    6.30    3.00
  -3   0 -12  616.64   14.10
   3   0  12  620.74   15.40
   4   0  12  597.74   15.60
   5   0  12    5.60    4.00
  -8   1  12  377.26   11.40
  -7   1  12  223.08    8.00
   6  -1 -12  148.59    7.00
  -6   1  12  136.39    6.00
   5  -1 -12 1397.76   29.20
  -5   1  12 1397.06   27.80
   4  -1 -12 1990.30   39.50
  -4   1  12 1985.00   37.80
   3  -1 -12  146.49    6.10
  -3   1  12  150.38    4.80
   2  -1 -12  125.89    5.50
  -2   1  12  125.09    4.10
   1  -1 -12 1769.12   34.90
  -1   1  12 1755.62   33.10
   0  -1 -12  851.21   18.80
   0   1  12  870.61   17.20
   0   1  12  871.61   18.80
  -1  -1 -12    2.10    2.50
   1   1  12    4.20    2.70
  -2  -1 -12  172.88    6.60
   2   1  12  186.08    7.10
  -3  -1 -12  636.94   15.10
   3   1  12  673.53   16.30
   4   1  12   59.79    5.50
  -8   2  12   85.39    5.80
   7  -2 -12  221.48    8.50
   7  -2 -12  178.78    7.90
  -7   2  12  189.78    7.00
   6  -2 -12  169.78    7.10
  -6   2  12  176.58    6.10
   5  -2 -12  194.88    7.40
  -5   2  12  196.28    6.10
   4  -2 -12   64.89    4.80
  -4   2  12   70.79    3.40
   3  -2 -12    6.40    2.70
  -3   2  12    3.30    1.50
   2  -2 -12  400.46   10.70
  -2   2  12  390.26    8.20
   1  -2 -12 1452.15   29.00
  -1   2  12 1392.16   26.50
   0  -2 -12  301.87    9.10
  -1  -2 -12    1.60    2.80
   1   2  12    4.20    2.60
  -2  -2 -12  311.87    9.40
   2   2  12  313.77    9.60
  -3  -2 -12  477.45   12.70
   3   2  12  516.35   13.80
   4   2  12   17.30    4.10
   8  -3 -12  144.19    6.90
  -8   3  12  148.89    6.80
   7  -3 -12   28.00    3.80
  -7   3  12   31.60    3.30
   6  -3 -12   30.40    4.00
  -6   3  12   29.80    2.90
   5  -3 -12   69.19    5.00
  -5   3  12   70.29    3.60
   4  -3 -12    0.70    2.60
   3  -3 -12   -0.50    2.90
   2  -3 -12  181.48    7.00
   1  -3 -12   19.40    3.30
   0  -3 -12  607.14   14.70
  -1  -3 -12  231.58    8.20
  -2  -3 -12  165.68    7.20
   2   3  12  169.18    7.30
  -3  -3 -12    1.90    3.10
   3   3  12    4.20    3.40
   8  -4 -12   88.59    6.30
   8  -4 -12   80.69    5.60
   7  -4 -12  378.66   11.60
   6  -4 -12   10.80    3.10
   5  -4 -12   89.19    6.10
   4  -4 -12  108.59    5.90
   3  -4 -12  201.38    7.60
   2  -4 -12    6.80    3.40
   1  -4 -12   33.50    4.20
   0  -4 -12  220.98    8.10
  -1  -4 -12   60.79    5.10
  -2  -4 -12    3.00    3.40
   8  -5 -12  253.67    9.50
   8  -5 -12  267.17    9.00
   7  -5 -12  337.17   10.90
   6  -5 -12   63.89    5.30
   5  -5 -12  116.29    6.40
   4  -5 -12  920.01   20.90
   3  -5 -12  372.46   11.00
   2  -5 -12   11.80    3.70
   1  -5 -12  380.26   11.30
   0  -5 -12  614.14   15.70
  -1  -5 -12   48.00    5.10
   8  -6 -12  284.17   10.20
   7  -6 -12   12.20    3.90
   6  -6 -12   31.70    4.20
   5  -6 -12  611.14   16.00
   4  -6 -12  863.91   20.40
   3  -6 -12  112.39    6.50
   2  -6 -12   61.59    5.50
   1  -6 -12  676.73   17.40
   0  -6 -12  327.07   11.20
   7  -7 -12    3.00    3.30
   6  -7 -12   -2.50    3.30
   5  -7 -12  153.78    7.60
   4  -7 -12  155.88    8.20
   3  -7 -12   26.80    4.30
   2  -7 -12   35.60    5.10
   1  -7 -12  109.49    7.10
   6  -8 -12   71.69    6.10
   5  -8 -12  105.89    7.10
   4  -8 -12   62.49    6.10
   3  -8 -12  125.99    8.10
   1  -9  13  139.69    7.80
   2  -9  13  325.77   10.90
  -1  -8  13   37.50    4.80
   0  -8  13  493.75   13.70
   1  -8  13  242.68    9.00
   2  -8  13    5.00    3.10
   3  -8  13   37.70    4.70
   4  -8  13   60.39    5.00
  -3  -7  13   45.70    5.30
  -2  -7  13    0.10    3.40
  -1  -7  13   47.60    4.60
   0  -7  13   37.90    4.30
   1  -7  13  188.68    7.60
   2  -7  13    0.90    2.80
   3  -7  13    5.40    3.60
   3  -7  13    5.30    3.10
   4  -7  13    6.60    3.40
   5  -7  13   -2.50    3.50
  -4  -6  13   65.19    5.60
  -3  -6  13   27.30    4.60
  -2  -6  13  113.39    6.70
  -1  -6  13  131.89    6.40
   0  -6  13   78.49    5.30
   1  -6  13  146.19    6.80
   2  -6  13  114.39    5.40
   2  -6  13  113.49    6.30
   3  -6  13   49.30    4.50
   4  -6  13  149.09    7.20
   5  -6  13  372.76   11.70
  -5  -5  13   91.89    7.30
  -4  -5  13  239.58    9.10
  -3  -5  13  483.05   13.20
  -2  -5  13  284.67    9.40
  -1  -5  13  493.35   12.90
   0  -5  13  689.23   16.20
   1  -5  13   47.00    4.20
   1  -5  13   37.80    3.40
   2  -5  13   20.40    3.30
   3  -5  13  781.82   17.80
   4  -5  13  456.55   12.60
   5  -5  13   -2.10    3.70
  -6  -4  13  354.26   12.10
  -5  -4  13   50.49    5.00
  -4  -4  13   35.40    4.50
  -3  -4  13  534.35   13.70
  -2  -4  13  472.25   12.30
  -1  -4  13   34.90    3.80
   0  -4  13  219.58    6.30
   0  -4  13  193.58    7.00
   1  -4  13  529.55   13.00
   1  -4  13  525.35   12.40
   2  -4  13  145.69    6.30
   3  -4  13  151.28    6.90
   4  -4  13  182.28    7.60
   5  -4  13   14.30    4.00
  -6  -3  13    9.10    4.20
  -5  -3  13   -0.50    3.30
  -4  -3  13  102.79    6.20
  -3  -3  13   83.79    5.50
  -2  -3  13   92.09    4.90
   1   3 -13   82.49    4.80
  -1  -3  13   80.69    4.50
  -1  -3  13   83.69    3.70
   0   3 -13    3.00    2.20
   0  -3  13    1.80    2.40
   0  -3  13    5.20    2.10
  -1   3 -13    4.50    2.30
   1  -3  13    6.70    2.50
   1  -3  13    7.70    2.60
  -2   3 -13   50.69    3.80
   2  -3  13   45.20    3.90
   3  -3  13   38.50    4.40
   4  -3  13   -1.60    3.50
   5  -3  13   36.40    4.70
  -7  -2  13   80.19    6.30
  -6  -2  13    0.90    3.60
  -5  -2  13   30.90    4.10
  -4  -2  13    4.00    2.70
   3   2 -13   76.39    5.00
  -3  -2  13   66.39    4.70
   2   2 -13  169.38    6.80
  -2  -2  13  159.68    6.10
   1   2 -13   56.89    4.70
  -1  -2  13   64.19    3.80
  -1  -2  13   60.79    4.20
   0   2 -13  248.48    7.50
   0  -2  13  254.47    7.40
   0  -2  13  251.57    7.30
  -1   2 -13  171.68    6.10
   1  -2  13  170.18    6.10
  -2   2 -13   15.10    2.60
   2  -2  13   15.60    3.10
   3  -2  13   20.00    3.80
   4  -2  13  503.75   13.60
   5  -2  13   61.49    5.50
  -7  -1  13   31.60    4.30
  -6  -1  13  557.64   14.40
  -5  -1  13  434.36   11.60
   4   1 -13   26.30    3.60
  -4  -1  13   22.80    3.30
   3   1 -13  183.98    7.10
  -3  -1  13  191.48    6.50
   2   1 -13  634.34   15.10
  -2  -1  13  652.73   14.30
   1   1 -13  168.68    6.30
  -1  -1  13  173.38    5.70
   0   1 -13   73.19    4.70
   0  -1  13   87.09    4.10
   0  -1  13   80.19    4.60
  -1   1 -13  510.05   12.20
   1  -1  13  501.15   12.30
  -2   1 -13  628.24   14.20
   2  -1  13  631.74   15.20
   3  -1  13  424.76   11.80
   4  -1  13  297.27   10.30
   5  -1  13   74.19    6.20
  -7   0  13  156.38    7.40
   6   0 -13  271.07    9.60
  -6   0  13  268.47    8.80
   5   0 -13  360.86   10.90
  -5   0  13  355.26    9.80
   4   0 -13  375.56   10.80
  -4   0  13  358.66    9.60
   3   0 -13  315.17    9.50
  -3   0  13  295.17    8.10
   2   0 -13  368.46   10.10
  -2   0  13  357.76    8.80
   1   0 -13  565.04   13.80
  -1   0  13  588.54   12.60
   0   0 -13  614.54   14.60
   0   0  13  630.64   14.60
   0   0  13  663.93   13.70
  -1   0 -13  259.47    8.00
   1   0  13  257.27    8.10
  -2   0 -13   63.29    4.50
   2   0  13   70.59    5.10
   3   0  13  164.38    7.50
   4   0  13  159.18    7.50
  -8   1  13    9.60    3.60
   7  -1 -13  223.48    8.90
  -7   1  13  203.18    7.80
   6  -1 -13  391.76   11.80
  -6   1  13  405.26   10.70
   5  -1 -13  122.59    6.20
  -5   1  13  116.49    5.30
   4  -1 -13  236.18    8.20
  -4   1  13  241.48    6.90
   3  -1 -13  235.28    7.90
  -3   1  13  236.38    6.50
   2  -1 -13   77.29    4.80
  -2   1  13   78.89    3.50
   1  -1 -13  129.79    6.20
  -1   1  13  146.49    4.50
   0  -1 -13  134.69    5.90
   0   1  13  135.79    5.90
   0   1  13  136.99    4.50
  -1  -1 -13   16.60    3.20
   1   1  13   20.80    3.20
  -2  -1 -13    7.50    3.00
   2   1  13    9.10    3.10
   3   1  13    7.70    3.60
   4   1  13    5.60    3.70
  -8   2  13   27.90    3.90
   7  -2 -13   40.10    4.40
  -7   2  13   48.90    4.10
   6  -2 -13   21.60    3.60
  -6   2  13   26.30    3.20
   5  -2 -13   92.59    5.60
  -5   2  13   92.39    4.50
   4  -2 -13   18.40    3.50
  -4   2  13   14.40    2.10
   3  -2 -13    4.20    3.00
  -3   2  13    6.20    1.70
   2  -2 -13    9.10    2.90
   1  -2 -13   26.50    3.80
   0  -2 -13   32.50    3.90
  -1  -2 -13  104.59    6.00
   1   2  13  111.49    6.20
  -2  -2 -13   11.30    3.30
   2   2  13   11.40    3.50
   3   2  13   41.30    4.50
   8  -3 -13   68.59    5.60
   7  -3 -13    8.80    3.60
   6  -3 -13   17.60    3.80
   5  -3 -13  220.78    8.50
   4  -3 -13  330.97   10.10
   3  -3 -13  104.89    5.80
   2  -3 -13  160.18    6.90
   1  -3 -13  508.55   13.20
   0  -3 -13  651.53   16.00
  -1  -3 -13  494.35   13.20
  -2  -3 -13  104.49    6.40
   3   3  13   26.80    4.10
   8  -4 -13   96.89    6.60
   8  -4 -13   89.09    5.90
   7  -4 -13  117.39    7.10
   6  -4 -13  377.46   11.60
   5  -4 -13  143.29    7.30
   4  -4 -13  104.99    6.50
   3  -4 -13  336.57   10.40
   2  -4 -13  243.48    8.70
   1  -4 -13  123.89    6.90
   0  -4 -13   75.89    6.10
  -1  -4 -13   93.29    6.40
  -2  -4 -13  128.79    7.20
   8  -5 -13   13.00    3.70
   8  -5 -13   24.40    4.30
   7  -5 -13   33.90    4.30
   6  -5 -13  430.96   12.50
   5  -5 -13  365.16   11.50
   4  -5 -13  354.06   11.30
   3  -5 -13  293.87   10.20
   2  -5 -13   12.00    3.90
   1  -5 -13  120.79    6.70
   0  -5 -13  497.75   14.10
  -1  -5 -13   -0.60    3.30
   7  -6 -13   14.70    3.90
   6  -6 -13  295.57   10.60
   5  -6 -13   36.40    4.60
   4  -6 -13   55.39    5.20
   3  -6 -13   26.90    4.30
   2  -6 -13  111.79    7.40
   1  -6 -13   -0.80    3.80
   0  -6 -13    1.30    4.00
   6  -7 -13  247.38   10.10
   5  -7 -13   86.59    6.60
   4  -7 -13   14.30    4.10
   3  -7 -13  181.28    9.00
   2  -7 -13  143.59    8.40
  -1  -8  14   86.79    6.80
   0  -8  14  100.99    6.80
   1  -8  14    2.50    3.50
   2  -8  14   -0.50    3.30
   3  -8  14   14.40    4.10
  -2  -7  14  686.23   17.60
  -1  -7  14  549.65   14.70
   0  -7  14   22.40    4.10
   1  -7  14   44.50    4.50
   2  -7  14  387.86   11.60
   3  -7  14  322.77   10.40
   3  -7  14  298.17    9.50
   4  -7  14   67.19    5.50
  -3  -6  14    4.40    3.40
  -2  -6  14  736.53   18.10
  -1  -6  14  274.87    9.50
   0  -6  14    0.50    3.20
   1  -6  14  210.38    8.30
   2  -6  14  608.04   14.60
   2  -6  14  631.14   15.70
   3  -6  14  200.88    7.70
   4  -6  14  128.19    7.10
  -4  -5  14   87.29    6.90
  -3  -5  14  328.47   10.80
  -2  -5  14  527.55   13.90
  -1  -5  14   26.50    3.60
   0  -5  14   18.00    3.50
   1  -5  14  157.58    6.90
   1  -5  14  140.69    5.80
   2  -5  14  201.98    7.80
   2  -5  14  198.38    7.50
   3  -5  14   -0.50    3.20
   4  -5  14   -3.50    3.10
   5  -5  14    4.50    3.80
  -5  -4  14   -2.80    3.70
  -4  -4  14   43.30    4.60
  -3  -4  14   43.90    4.60
  -2  -4  14   36.00    3.80
  -1  -4  14   27.90    3.60
   0  -4  14   -0.10    2.60
   0  -4  14    0.10    2.00
   1  -4  14  300.27    8.50
   1  -4  14  294.77    9.10
   2  -4  14   73.79    5.10
   3  -4  14   98.59    6.20
   4  -4  14   16.40    4.20
   5  -4  14   13.30    4.10
  -6  -3  14   14.20    4.20
  -5  -3  14  659.03   16.80
  -4  -3  14  304.47    9.90
  -3  -3  14   28.90    3.90
  -2  -3  14  120.69    5.90
   1   3 -14  599.44   14.80
  -1  -3  14  625.34   14.50
  -1  -3  14  606.14   13.20
   0   3 -14  166.58    6.50
   0  -3  14  167.38    5.90
   0  -3  14  164.78    6.40
  -1   3 -14  142.49    6.00
   1  -3  14  146.79    6.10
   1  -3  14  155.88    6.10
  -2   3 -14  266.27    7.80
   2  -3  14  275.47    8.80
   3  -3  14  246.18    8.60
   4  -3  14  259.67    9.70
   5  -3  14   46.00    5.40
  -6  -2  14   26.40    4.40
  -5  -2  14  600.04   15.30
  -4  -2  14  252.87    8.60
   3   2 -14    1.90    3.10
  -3  -2  14   -2.60    2.60
   2   2 -14  638.14   15.50
  -2  -2  14  634.04   14.70
   1   2 -14 1252.47   26.90
  -1  -2  14 1340.37   26.40
   0   2 -14   20.00    3.20
   0  -2  14   22.70    3.00
   0  -2  14   21.30    2.90
  -1   2 -14   60.39    4.60
   1  -2  14   70.29    4.60
   1  -2  14   59.09    4.70
  -2   2 -14 1259.37   25.10
   2  -2  14 1208.68   25.80
   3  -2  14  275.27    9.50
   4  -2  14   22.60    4.50
  -7  -1  14    9.80    4.00
  -6  -1  14  595.74   15.30
   5   1 -14  572.14   15.00
  -5  -1  14  572.54   14.30
   4   1 -14   94.49    5.70
  -4  -1  14   91.29    5.30
   3   1 -14   66.19    5.00
  -3  -1  14   59.79    4.30
   2   1 -14  192.18    7.20
  -2  -1  14  192.88    6.50
   1   1 -14  290.27    8.90
  -1  -1  14  309.67    8.30
   0   1 -14  218.38    7.60
   0  -1  14  233.08    6.80
   0  -1  14  228.08    7.40
  -1   1 -14  160.88    6.20
   1  -1  14  153.08    6.50
  -2   1 -14  165.58    6.40
   2  -1  14  184.58    7.40
   3  -1  14  144.59    7.30
   4  -1  14   34.40    4.70
  -7   0  14   12.30    3.50
   6   0 -14 1083.79   24.60
  -6   0  14 1107.99   23.70
   5   0 -14  423.26   12.10
  -5   0  14  409.16   11.00
   4   0 -14  279.07    9.40
  -4   0  14  275.07    8.10
   3   0 -14   31.60    3.70
  -3   0  14   27.20    2.90
   2   0 -14 1119.09   23.90
  -2   0  14 1115.99   22.40
   1   0 -14  185.18    7.10
  -1   0  14  174.98    5.70
   0   0 -14   25.10    3.20
   0   0  14   23.50    2.60
   0   0  14   21.70    3.20
  -1   0 -14    5.70    2.80
   1   0  14    6.00    2.70
  -2   0 -14    1.00    2.60
   2   0  14    3.00    2.80
   3   0  14   26.40    3.90
   4   0  14    1.90    3.30
   7  -1 -14    2.90    3.50
  -7   1  14   -1.10    2.90
   6  -1 -14    0.70    3.10
  -6   1  14   -2.00    2.60
   5  -1 -14  240.48    8.70
  -5   1  14  250.27    7.50
   4  -1 -14  359.26   10.50
  -4   1  14  337.27    8.80
   3  -1 -14   17.90    3.50
  -3   1  14   15.80    2.40
   2  -1 -14   23.90    3.60
  -2   1  14   13.70    2.10
   1  -1 -14  461.55   12.10
   0  -1 -14  400.96   11.20
  -1  -1 -14   15.30    3.40
   1   1  14   12.80    3.00
  -2  -1 -14   12.50    3.40
   2   1  14   16.50    3.40
   3   1  14   28.10    4.40
   8  -2 -14  447.86   13.50
  -8   2  14  434.66   14.10
   7  -2 -14    5.10    3.60
  -7   2  14    4.50    3.10
   6  -2 -14    5.20    3.20
  -6   2  14    3.70    2.80
   5  -2 -14  478.35   13.30
   4  -2 -14  489.95   13.30
   3  -2 -14   -0.80    2.70
   2  -2 -14   80.89    5.30
   1  -2 -14 1270.17   27.00
   0  -2 -14  401.06   11.50
  -1  -2 -14    8.30    3.30
   1   2  14   16.00    3.30
  -2  -2 -14   92.89    6.10
   2   2  14  106.99    6.60
   3   2  14  412.46   12.30
   8  -3 -14  289.67   10.60
   7  -3 -14    8.30    3.70
   6  -3 -14  202.38    8.60
   5  -3 -14  652.53   16.40
   4  -3 -14  255.57    9.20
   3  -3 -14  231.48    8.40
   2  -3 -14  500.85   13.60
   1  -3 -14  384.06   11.50
   0  -3 -14  200.38    8.30
  -1  -3 -14  131.99    7.10
  -2  -3 -14  154.08    7.50
   7  -4 -14   43.10    4.90
   6  -4 -14  233.58    8.90
   5  -4 -14  757.02   18.50
   4  -4 -14    5.00    3.20
   3  -4 -14    8.10    3.40
   2  -4 -14  417.36   12.40
   1  -4 -14   60.19    5.20
   0  -4 -14   40.80    4.90
  -1  -4 -14   12.50    4.00
   7  -5 -14   54.59    5.40
   6  -5 -14  114.79    6.70
   5  -5 -14  185.58    8.10
   4  -5 -14   70.59    5.90
   3  -5 -14   39.50    4.60
   2  -5 -14  161.58    7.80
   1  -5 -14   -2.20    3.30
   0  -5 -14  321.47   11.20
   7  -6 -14   14.10    3.90
   6  -6 -14    0.80    3.80
   5  -6 -14  160.38    8.00
   4  -6 -14  167.58    8.10
   3  -6 -14  112.19    7.70
   2  -6 -14  176.08    8.40
   1  -6 -14   70.39    6.40
   5  -7 -14  685.23   18.30
   4  -7 -14  606.94   16.60
  -2  -7  15  110.29    7.20
  -1  -7  15  479.55   13.60
   0  -7  15   37.50    4.40
   1  -7  15    2.50    3.10
   2  -7  15  492.45   13.90
   3  -7  15  575.64   15.70
  -3  -6  15   11.10    3.80
  -2  -6  15  201.18    8.60
  -1  -6  15  194.78    8.30
   0  -6  15   13.80    3.30
   1  -6  15    0.40    3.00
   2  -6  15  307.07   12.80
   2  -6  15  297.47    9.80
   3  -6  15   82.19    5.80
   3  -6  15   89.99    6.00
   4  -6  15   34.30    4.70
  -4  -5  15   55.49    5.60
  -3  -5  15   -4.50    3.40
  -2  -5  15   98.19    6.40
  -1  -5  15   71.59    5.60
   0  -5  15  370.96   11.00
   1  -5  15    0.30    2.50
   1  -5  15    2.20    2.60
   2  -5  15    2.00    2.80
   2  -5  15    1.50    2.90
   3  -5  15  307.27   10.00
   4  -5  15  286.87   10.40
  -5  -4  15   94.39    6.60
  -4  -4  15  639.04   16.60
  -3  -4  15   46.00    4.90
  -2  -4  15   33.70    4.20
  -1  -4  15  343.27   10.00
   0  -4  15  360.46    9.30
   0  -4  15  365.16   10.50
   1  -4  15   60.19    4.70
   1  -4  15   66.29    4.80
   2  -4  15   11.00    3.30
   2  -4  15    6.10    3.00
   3  -4  15  629.14   15.80
   4  -4  15  134.29    7.60
  -5  -3  15  497.95   14.10
  -4  -3  15  661.83   16.50
  -3  -3  15   79.99    5.70
  -2  -3  15   73.69    5.30
   1   3 -15  936.41   21.30
  -1  -3  15  985.50   21.00
   0   3 -15 1017.70   22.20
   0  -3  15 1017.40   21.40
   0  -3  15 1047.40   22.00
  -1   3 -15  178.18    6.60
   1  -3  15  187.38    6.80
   1  -3  15  168.78    6.70
   2  -3  15  228.68    8.20
   3  -3  15  495.55   13.30
   4  -3  15   55.29    5.40
  -6  -2  15   49.00    5.40
  -5  -2  15  519.45   14.10
  -4  -2  15   51.69    4.70
   3   2 -15   84.79    6.00
  -3  -2  15   69.79    5.10
   2   2 -15  248.48    8.60
  -2  -2  15  228.88    7.70
   1   2 -15  931.11   20.70
  -1  -2  15  938.01   20.10
   0   2 -15   34.20    3.70
   0  -2  15   36.90    3.50
   0  -2  15   32.60    3.30
  -1   2 -15   37.20    3.70
   1  -2  15   40.40    3.70
   1  -2  15   35.60    3.80
  -2   2 -15  151.98    7.80
   2  -2  15  146.19    6.90
   3  -2  15  208.18    8.50
   4  -2  15    2.30    3.70
  -6  -1  15   83.59    6.30
   5   1 -15  221.98    9.00
  -5  -1  15  205.18    8.00
   4   1 -15  117.09    6.70
  -4  -1  15   92.29    5.50
   3   1 -15   97.19    5.80
  -3  -1  15   85.49    4.90
   2   1 -15  402.76   11.40
  -2  -1  15  392.56   10.10
   1   1 -15   68.49    5.20
  -1  -1  15   65.69    4.30
   0   1 -15  595.04   14.60
   0  -1  15  606.44   14.20
   0  -1  15  597.34   13.70
  -1   1 -15  139.59    6.10
   1  -1  15  143.59    5.70
   1  -1  15  134.09    6.50
  -2   1 -15  140.49    6.10
   2  -1  15  146.99    7.00
   3  -1  15    1.10    3.30
  -7   0  15  163.28    7.80
   6   0 -15    9.10    3.80
  -6   0  15    2.60    3.20
   5   0 -15   72.09    5.70
  -5   0  15   68.29    5.00
   4   0 -15   90.69    6.30
  -4   0  15   80.39    4.80
   3   0 -15  262.67    9.00
  -3   0  15  243.28    7.40
   2   0 -15   25.60    3.70
  -2   0  15   32.10    2.90
   1   0 -15    3.60    2.70
  -1   0  15    4.30    2.10
   0   0 -15  677.23   16.30
   0   0  15  707.73   15.60
   0   0  15  690.33   16.20
  -1   0 -15  118.99    5.90
   1   0  15  104.89    5.70
  -2   0 -15   14.40    3.20
   2   0  15   16.40    3.50
   3   0  15  236.98    8.90
   7  -1 -15  208.18    8.80
  -7   1  15  207.38    8.00
   6  -1 -15   26.20    4.10
  -6   1  15   22.10    3.50
   5  -1 -15  682.93   16.80
  -5   1  15  647.24   15.00
   4  -1 -15 1069.09   23.70
  -4   1  15 1051.19   22.30
   3  -1 -15  169.78    7.50
   2  -1 -15  124.39    6.20
   1  -1 -15  744.23   17.50
   0  -1 -15  561.34   14.10
  -1  -1 -15   48.10    4.50
   1   1  15   44.80    4.50
  -2  -1 -15    7.90    3.30
   2   1  15   11.10    3.30
   3   1  15  152.58    7.90
   7  -2 -15   21.20    4.00
   6  -2 -15  122.99    6.90
   5  -2 -15  333.47   10.70
   4  -2 -15 1036.00   23.40
   3  -2 -15    4.70    3.40
   2  -2 -15   12.90    3.40
   1  -2 -15 1131.99   24.70
   0  -2 -15  382.06   11.20
  -1  -2 -15   38.90    4.50
  -2  -2 -15   99.19    6.40
   2   2  15  114.99    6.50
   7  -3 -15    8.00    3.80
   6  -3 -15   29.40    4.30
   5  -3 -15  501.45   13.90
   4  -3 -15  180.78    8.10
   3  -3 -15   51.69    4.80
   2  -3 -15    1.30    3.60
   1  -3 -15   80.39    5.90
   0  -3 -15   -2.70    3.40
  -1  -3 -15   46.90    5.10
   7  -4 -15   78.59    6.20
   6  -4 -15    8.40    3.40
   5  -4 -15  101.99    6.50
   4  -4 -15  145.49    7.70
   3  -4 -15  451.45   13.10
   2  -4 -15   13.90    3.80
   1  -4 -15   58.29    5.30
   0  -4 -15  217.28    9.30
   6  -5 -15    1.00    3.30
   5  -5 -15    3.20    3.80
   4  -5 -15  480.45   14.20
   3  -5 -15  331.87   11.20
   2  -5 -15    1.00    4.00
   1  -5 -15   28.10    4.90
   5  -6 -15  208.08    9.60
   4  -6 -15 1181.88   27.00
   3  -6 -15  109.99    7.30
   0  -7  16   20.30    4.20
   1  -7  16    3.80    3.20
  -2  -6  16   24.90    4.50
  -1  -6  16   18.40    4.00
   0  -6  16   82.89    5.80
   1  -6  16   70.59    5.50
   2  -6  16    0.10    3.30
   3  -6  16  232.08    9.00
   3  -6  16  235.48    8.80
  -3  -5  16  332.17   11.30
  -2  -5  16  125.59    6.60
  -1  -5  16    3.50    3.30
   0  -5  16  342.27   10.70
   1  -5  16  972.00   22.00
   2  -5  16  116.99    6.10
   2  -5  16  112.99    6.60
   3  -5  16   14.10    4.00
  -4  -4  16  342.17   11.40
  -3  -4  16   -0.90    3.00
  -2  -4  16    2.80    2.80
  -1  -4  16  778.32   18.20
   0  -4  16  463.35   12.40
   1  -4  16    8.80    3.10
   1  -4  16   11.30    3.00
   2  -4  16    3.00    3.00
   2  -4  16    2.60    3.10
   3  -4  16  269.87    9.60
  -5  -3  16   -5.80    3.40
  -4  -3  16  210.48    8.60
  -3  -3  16  195.68    7.90
  -2  -3  16   16.50    3.30
   1   3 -16  241.48    8.70
  -1  -3  16  231.98    8.00
   0   3 -16  311.57    9.70
   0  -3  16  319.87    9.50
   0  -3  16  313.97    8.80
  -1   3 -16    3.20    2.70
   1  -3  16    3.30    2.80
   1  -3  16    7.90    2.90
   2  -3  16    2.80    2.80
   2  -3  16    5.40    3.30
   3  -3  16  182.28    8.10
  -5  -2  16   -2.30    3.30
  -4  -2  16    6.90    3.50
   3   2 -16   94.19    5.90
  -3  -2  16   68.79    5.20
   2   2 -16   26.40    3.90
  -2  -2  16   12.50    3.00
   1   2 -16    5.80    3.10
  -1  -2  16    6.20    2.70
   0   2 -16   88.49    5.50
   0  -2  16   81.69    4.90
   0  -2  16   78.19    4.80
  -1   2 -16  245.68    8.10
   1  -2  16  238.08    7.90
   1  -2  16  234.68    8.20
   2  -2  16    4.70    3.30
   3  -2  16   15.10    3.80
  -6  -1  16   78.99    6.30
   5   1 -16    6.70    3.40
  -5  -1  16    8.80    3.40
   4   1 -16   73.29    5.80
  -4  -1  16   70.39    5.00
   3   1 -16  271.07    9.40
  -3  -1  16  265.77    8.40
   2   1 -16  108.69    5.90
  -2  -1  16   88.49    5.00
   1   1 -16   55.69    4.70
  -1  -1  16   47.20    3.70
   0   1 -16  475.55   12.60
   0  -1  16  483.25   11.70
   0  -1  16  493.35   12.40
  -1   1 -16  662.93   16.00
   1  -1  16  657.73   16.10
   1  -1  16  696.13   19.20
   2  -1  16   58.29    5.10
   3  -1  16    5.50    3.50
   6   0 -16   47.70    5.00
  -6   0  16   40.90    4.50
   5   0 -16   33.00    4.40
  -5   0  16   27.50    3.70
   4   0 -16  392.96   11.70
  -4   0  16  367.56   10.20
   3   0 -16  485.45   13.00
  -3   0  16  457.35   11.50
   2   0 -16   51.09    4.50
   1   0 -16  177.78    7.50
   0   0 -16  529.15   13.80
  -1   0 -16   63.49    5.20
   1   0  16   68.39    5.10
   2   0  16    3.50    3.00
   6  -1 -16  279.47   10.20
   5  -1 -16  311.17   10.80
   4  -1 -16  392.76   12.10
   3  -1 -16  190.98    7.80
   2  -1 -16   20.00    3.90
   1  -1 -16  163.38    7.10
   0  -1 -16  260.87    9.20
  -1  -1 -16   13.10    3.50
   1   1  16   20.90    4.00
   2   1  16    7.50    3.20
   7  -2 -16    3.90    3.50
   6  -2 -16   44.90    4.90
   5  -2 -16    4.20    3.60
   4  -2 -16  104.79    6.80
   3  -2 -16   14.00    3.60
   2  -2 -16   60.19    5.20
   1  -2 -16   -0.60    3.30
   0  -2 -16  160.78    7.80
  -1  -2 -16    3.50    3.40
   6  -3 -16   15.00    4.20
   5  -3 -16   33.20    4.40
   4  -3 -16   88.99    6.20
   3  -3 -16  704.23   17.80
   2  -3 -16  195.88    8.70
   1  -3 -16    8.10    4.00
   0  -3 -16  219.78    9.20
   6  -4 -16  182.48    8.80
   5  -4 -16   87.29    6.40
   4  -4 -16  142.49    8.00
   3  -4 -16  443.06   13.20
   2  -4 -16   19.30    4.60
   1  -4 -16   63.69    6.00
   5  -5 -16  156.38    8.10
   4  -5 -16  192.68    9.20
   3  -5 -16  109.59    7.80
   2  -5 -16   55.59    5.60
  -1  -6  17  107.69    6.40
   0  -6  17   79.89    5.90
   1  -6  17  351.36   11.30
  -2  -5  17  159.58    7.80
  -1  -5  17  559.64   14.80
   0  -5  17  122.39    6.40
   1  -5  17   22.10    3.80
   2  -5  17   26.00    4.30
   2  -5  17   23.50    3.90
  -3  -4  17  351.26   11.30
  -2  -4  17  169.98    7.60
  -1  -4  17   55.09    4.60
   0  -4  17   17.50    3.50
   1  -4  17   73.89    5.10
   1  -4  17   70.89    5.50
   2  -4  17   15.40    3.60
   2  -4  17   18.40    3.60
  -4  -3  17   37.60    4.60
  -3  -3  17   11.00    3.60
  -2  -3  17   -0.10    2.90
   1   3 -17  187.38    7.90
  -1  -3  17  189.08    7.30
   0   3 -17  166.78    7.30
   0  -3  17  161.88    6.80
   0  -3  17  172.98    6.50
  -1   3 -17   17.10    3.20
   1  -3  17   13.90    3.20
   1  -3  17   14.90    3.30
   2  -3  17   87.89    6.00
   2  -3  17   89.89    6.00
  -5  -2  17  266.37    9.80
  -4  -2  17  184.78    7.80
   3   2 -17  155.18    7.80
  -3  -2  17  148.29    7.00
   2   2 -17  211.18    8.10
  -2  -2  17  196.08    7.30
   1   2 -17  247.68    8.90
  -1  -2  17  241.28    8.10
   0   2 -17  307.17    9.80
   0  -2  17  299.87    9.10
   0  -2  17  331.27    9.40
  -1   2 -17  129.29    6.20
   1  -2  17  121.59    5.80
   1  -2  17  137.39    6.50
   2  -2  17   24.00    3.60
   5   1 -17  382.16   12.00
  -5  -1  17  350.86   10.90
   4   1 -17   39.70    4.90
  -4  -1  17   28.70    3.90
   3   1 -17   59.89    5.40
  -3  -1  17   50.69    4.20
   2   1 -17  429.16   12.10
  -2  -1  17  393.56   10.70
   1   1 -17  162.68    7.00
   0   1 -17   63.29    5.40
   0  -1  17   70.39    5.20
  -1   1 -17  251.17    8.80
   1  -1  17  260.27    8.90
   2  -1  17  178.18    7.60
   6   0 -17   75.89    6.40
   5   0 -17  209.18    8.80
   4   0 -17   77.69    6.50
   3   0 -17   80.09    5.90
   2   0 -17  160.48    7.70
   1   0 -17   23.20    3.90
   0   0 -17    4.60    3.20
  -1   0 -17    3.40    3.00
   1   0  17    0.90    2.80
   6  -1 -17   99.79    6.80
   5  -1 -17   43.40    4.90
   4  -1 -17   40.10    4.60
   3  -1 -17   40.20    4.50
   2  -1 -17   28.50    4.00
   1  -1 -17  100.69    6.10
   0  -1 -17    0.80    3.30
  -1  -1 -17   59.59    5.00
   6  -2 -17   14.80    4.30
   5  -2 -17   69.29    6.00
   4  -2 -17  238.88    9.60
   3  -2 -17  393.06   12.30
   2  -2 -17   51.29    5.20
   1  -2 -17   52.39    5.30
   0  -2 -17   50.39    5.20
   6  -3 -17   39.00    5.20
   5  -3 -17 1184.08   26.80
   4  -3 -17  368.76   12.10
   3  -3 -17   17.30    4.30
   2  -3 -17  277.67   10.10
   1  -3 -17  798.42   19.70
   5  -4 -17   20.20    4.70
   4  -4 -17   76.79    6.40
   3  -4 -17   23.80    4.40
   2  -4 -17    2.60    3.60
   0  -5  18  427.66   12.50
  -2  -4  18    0.70    3.20
  -1  -4  18    1.80    3.10
   0  -4  18   57.79    4.80
   1  -4  18   50.59    4.70
  -3  -3  18   28.80    4.30
  -2  -3  18   11.10    3.40
   1   3 -18  739.63   18.10
  -1  -3  18  747.73   17.50
   0   3 -18  747.03   17.90
   0  -3  18  739.43   17.50
   1  -3  18   26.20    3.70
   1  -3  18   31.00    3.70
  -4  -2  18  338.77   10.70
   3   2 -18    2.60    3.70
  -3  -2  18   -4.20    3.00
   2   2 -18   34.70    4.70
  -2  -2  18   24.70    3.60
   1   2 -18  281.37    9.70
  -1  -2  18  301.07   10.10
   0   2 -18   83.49    5.90
   1  -2  18    9.40    3.00
   4   1 -18   57.79    5.40
   3   1 -18  159.18    7.70
   2   1 -18    1.90    3.10
   1   1 -18  170.08    7.80
   0   1 -18    6.60    3.10
   1  -1  18   34.80    4.20
   5   0 -18  104.29    7.40
   4   0 -18  188.08    8.50
   3   0 -18  166.18    7.80
   2   0 -18   61.29    5.50
   1   0 -18    8.40    3.50
   0   0 -18  273.87    9.70
   5  -1 -18   30.90    4.90
   4  -1 -18  608.84   16.30
   3  -1 -18  487.65   14.20
   2  -1 -18    7.30    3.30
   1  -1 -18   29.30    4.10
   0  -1 -18  357.76   11.40
   5  -2 -18  341.37   11.90
   4  -2 -18  498.15   14.40
   3  -2 -18    6.30    3.40
   2  -2 -18    3.30    3.70
   1  -2 -18  562.14   15.30
   4  -3 -18  225.28    9.40
   3  -3 -18   13.80    4.20
   2   2 -19   19.70    4.20
   1   2 -19   12.20    3.40
   3   1 -19  411.16   12.80
   2   1 -19  445.46   13.10
   1   1 -19   10.90    3.60
   3   0 -19  295.07   10.50
   2   0 -19    8.10    3.40
   1   0 -19    9.80    3.80
   3  -1 -19  443.96   13.70

_computing_structure_solution     'SHELXT 2014/4 (Sheldrick, 2014)'
;
_shelx_hkl_checksum              76173
_shelx_shelxl_version_number     2014/7
_olex2_submission_special_instructions 'No special instructions were received'
loop_
_space_group_symop_operation_xyz
'x, y, z'
'-x, -y, -z'
loop_
_atom_site_label
_atom_site_type_symbol
_atom_site_fract_x
_atom_site_fract_y
_atom_site_fract_z
_atom_site_U_iso_or_equiv
_atom_site_adp_type
_atom_site_occupancy
_atom_site_site_symmetry_order
_atom_site_calc_flag
_atom_site_refinement_flags_posn
Zn1 Zn 0.50892(3) 0.11531(2) 0.15807(2) 0.01219(5) Uani 1 1 d .
Cl1 Cl 0.75176(6) 0.09071(5) 0.09935(3) 0.01828(8) Uani 1 1 d .
Cl2 Cl 0.21795(5) -0.09858(4) 0.16652(2) 0.01493(8) Uani 1 1 d .
O1 O 0.66326(17) 0.22424(13) 0.30368(7) 0.0150(2) Uani 1 1 d .
O2 O 0.81476(17) 0.79793(14) 0.35238(8) 0.0178(2) Uani 1 1 d .
N1 N 0.44017(19) 0.31608(16) 0.12398(9) 0.0119(2) Uani 1 1 d .
N2 N 0.75646(18) 0.51471(15) 0.33018(8) 0.0113(2) Uani 1 1 d .
C1 C 0.2566(2) 0.27737(19) 0.06124(10) 0.0141(3) Uani 1 1 d .
H1 H 0.1620 0.1590 0.0372 0.017 Uiso 1 1 calc R
C2 C 0.2007(2) 0.4044(2) 0.03044(11) 0.0159(3) Uani 1 1 d .
H2 H 0.0698 0.3733 -0.0137 0.019 Uiso 1 1 calc R
C3 C 0.3389(2) 0.5774(2) 0.06518(11) 0.0156(3) Uani 1 1 d .
H3 H 0.3056 0.6666 0.0439 0.019 Uiso 1 1 calc R
C4 C 0.5271(2) 0.61842(19) 0.13163(10) 0.0139(3) Uani 1 1 d .
H4 H 0.6228 0.7360 0.1575 0.017 Uiso 1 1 calc R
C5 C 0.5730(2) 0.48513(18) 0.15954(10) 0.0115(3) Uani 1 1 d .
C6 C 0.7764(2) 0.52370(18) 0.23056(10) 0.0122(3) Uani 1 1 d .
H6A H 0.8277 0.4395 0.2105 0.015 Uiso 1 1 calc R
H6B H 0.8802 0.6411 0.2295 0.015 Uiso 1 1 calc R
C7 C 0.7096(2) 0.35860(18) 0.36063(10) 0.0118(3) Uani 1 1 d .
C8 C 0.7181(2) 0.35752(18) 0.46304(10) 0.0113(3) Uani 1 1 d .
C9 C 0.6939(2) 0.20833(19) 0.49871(11) 0.0139(3) Uani 1 1 d .
H9 H 0.6748 0.1078 0.4574 0.017 Uiso 1 1 calc R
C10 C 0.6974(2) 0.20518(19) 0.59626(11) 0.0158(3) Uani 1 1 d .
H10 H 0.6800 0.1023 0.6205 0.019 Uiso 1 1 calc R
C11 C 0.7260(2) 0.3507(2) 0.65665(11) 0.0154(3) Uani 1 1 d .
H11 H 0.7243 0.3461 0.7219 0.018 Uiso 1 1 calc R
C12 C 0.7577(2) 0.50696(19) 0.62317(10) 0.0132(3) Uani 1 1 d .
C13 C 0.8009(2) 0.6629(2) 0.68441(11) 0.0165(3) Uani 1 1 d .
H13 H 0.8062 0.6636 0.7507 0.020 Uiso 1 1 calc R
C14 C 0.8352(2) 0.8128(2) 0.64922(11) 0.0173(3) Uani 1 1 d .
H14 H 0.8657 0.9164 0.6913 0.021 Uiso 1 1 calc R
C15 C 0.8253(2) 0.81332(19) 0.55091(11) 0.0154(3) Uani 1 1 d .
H15 H 0.8465 0.9169 0.5268 0.018 Uiso 1 1 calc R
C16 C 0.7852(2) 0.66474(18) 0.48929(10) 0.0119(3) Uani 1 1 d .
C17 C 0.7865(2) 0.66993(18) 0.38761(10) 0.0124(3) Uani 1 1 d .
C18 C 0.7526(2) 0.50965(18) 0.52432(10) 0.0114(3) Uani 1 1 d .
loop_
_atom_site_aniso_label
_atom_site_aniso_U_11
_atom_site_aniso_U_22
_atom_site_aniso_U_33
_atom_site_aniso_U_23
_atom_site_aniso_U_13
_atom_site_aniso_U_12
Zn1 0.01423(9) 0.01002(8) 0.01323(9) 0.00234(6) 0.00497(6) 0.00554(6)
Cl1 0.01716(17) 0.02154(18) 0.01846(17) 0.00179(14) 0.00723(14) 0.00988(14)
Cl2 0.01783(16) 0.01117(15) 0.01413(16) 0.00202(12) 0.00664(13) 0.00365(13)
O1 0.0195(5) 0.0121(5) 0.0128(5) 0.0007(4) 0.0026(4) 0.0074(4)
O2 0.0226(6) 0.0122(5) 0.0173(5) 0.0043(4) 0.0052(4) 0.0062(4)
N1 0.0136(6) 0.0118(5) 0.0108(5) 0.0021(4) 0.0049(4) 0.0052(5)
N2 0.0116(5) 0.0113(5) 0.0103(5) 0.0026(4) 0.0030(4) 0.0042(4)
C1 0.0135(6) 0.0145(7) 0.0130(6) 0.0004(5) 0.0039(5) 0.0052(5)
C2 0.0160(7) 0.0205(7) 0.0132(7) 0.0019(6) 0.0036(5) 0.0103(6)
C3 0.0216(7) 0.0174(7) 0.0139(7) 0.0040(6) 0.0065(6) 0.0134(6)
C4 0.0177(7) 0.0121(6) 0.0126(6) 0.0023(5) 0.0055(5) 0.0065(5)
C5 0.0133(6) 0.0123(6) 0.0099(6) 0.0026(5) 0.0056(5) 0.0054(5)
C6 0.0126(6) 0.0130(6) 0.0107(6) 0.0030(5) 0.0044(5) 0.0045(5)
C7 0.0089(6) 0.0117(6) 0.0140(7) 0.0023(5) 0.0021(5) 0.0042(5)
C8 0.0085(6) 0.0118(6) 0.0119(6) 0.0018(5) 0.0021(5) 0.0032(5)
C9 0.0113(6) 0.0116(6) 0.0155(7) 0.0023(5) 0.0015(5) 0.0029(5)
C10 0.0135(7) 0.0158(7) 0.0164(7) 0.0066(6) 0.0025(5) 0.0048(6)
C11 0.0115(6) 0.0202(7) 0.0130(7) 0.0052(6) 0.0030(5) 0.0052(6)
C12 0.0083(6) 0.0174(7) 0.0133(7) 0.0021(5) 0.0027(5) 0.0050(5)
C13 0.0143(7) 0.0218(7) 0.0131(7) 0.0007(6) 0.0044(5) 0.0076(6)
C14 0.0162(7) 0.0167(7) 0.0176(7) -0.0030(6) 0.0042(6) 0.0071(6)
C15 0.0141(7) 0.0137(7) 0.0183(7) 0.0016(6) 0.0046(6) 0.0061(5)
C16 0.0086(6) 0.0125(6) 0.0129(6) 0.0013(5) 0.0020(5) 0.0037(5)
C17 0.0099(6) 0.0108(6) 0.0142(6) 0.0011(5) 0.0024(5) 0.0030(5)
C18 0.0073(6) 0.0128(6) 0.0127(6) 0.0015(5) 0.0023(5) 0.0036(5)
loop_
_atom_type_symbol
_atom_type_description
_atom_type_scat_dispersion_real
_atom_type_scat_dispersion_imag
_atom_type_scat_source
C C 0.0033 0.0016 'International Tables Vol C Tables 4.2.6.8 and 6.1.1.4'
H H 0.0000 0.0000 'International Tables Vol C Tables 4.2.6.8 and 6.1.1.4'
Cl Cl 0.1484 0.1585 'International Tables Vol C Tables 4.2.6.8 and 6.1.1.4'
N N 0.0061 0.0033 'International Tables Vol C Tables 4.2.6.8 and 6.1.1.4'
O O 0.0106 0.0060 'International Tables Vol C Tables 4.2.6.8 and 6.1.1.4'
Zn Zn 0.2839 1.4301 'International Tables Vol C Tables 4.2.6.8 and 6.1.1.4'
loop_
_geom_angle_atom_site_label_1
_geom_angle_atom_site_label_2
_geom_angle_atom_site_label_3
_geom_angle
Cl1 Zn1 Cl2 126.712(15)
O1 Zn1 Cl1 102.95(3)
O1 Zn1 Cl2 102.27(3)
N1 Zn1 Cl1 115.15(3)
N1 Zn1 Cl2 107.28(4)
N1 Zn1 O1 97.00(4)
C7 O1 Zn1 137.81(10)
C1 N1 Zn1 118.23(10)
C1 N1 C5 118.61(12)
C5 N1 Zn1 123.14(10)
C7 N2 C6 118.71(12)
C7 N2 C17 124.58(12)
C17 N2 C6 116.70(11)
N1 C1 H1 118.8
N1 C1 C2 122.34(14)
C2 C1 H1 118.8
C1 C2 H2 120.5
C3 C2 C1 118.95(14)
C3 C2 H2 120.5
C2 C3 H3 120.5
C2 C3 C4 119.00(13)
C4 C3 H3 120.5
C3 C4 H4 120.5
C5 C4 C3 119.06(13)
C5 C4 H4 120.5
N1 C5 C4 122.00(13)
N1 C5 C6 117.17(12)
C4 C5 C6 120.83(13)
N2 C6 C5 112.37(11)
N2 C6 H6A 109.1
N2 C6 H6B 109.1
C5 C6 H6A 109.1
C5 C6 H6B 109.1
H6A C6 H6B 107.9
O1 C7 N2 121.05(13)
O1 C7 C8 121.11(13)
N2 C7 C8 117.84(12)
C9 C8 C7 119.75(13)
C9 C8 C18 120.62(13)
C18 C8 C7 119.62(13)
C8 C9 H9 120.0
C8 C9 C10 120.08(14)
C10 C9 H9 120.0
C9 C10 H10 119.9
C11 C10 C9 120.22(14)
C11 C10 H10 119.9
C10 C11 H11 119.4
C10 C11 C12 121.10(14)
C12 C11 H11 119.4
C11 C12 C13 122.90(14)
C11 C12 C18 118.61(13)
C13 C12 C18 118.47(13)
C12 C13 H13 119.5
C14 C13 C12 120.95(14)
C14 C13 H13 119.5
C13 C14 H14 119.9
C13 C14 C15 120.18(14)
C15 C14 H14 119.9
C14 C15 H15 119.7
C16 C15 C14 120.57(14)
C16 C15 H15 119.7
C15 C16 C17 119.84(13)
C15 C16 C18 120.17(13)
C18 C16 C17 119.93(13)
O2 C17 N2 119.57(13)
O2 C17 C16 123.88(13)
N2 C17 C16 116.54(12)
C8 C18 C12 119.32(13)
C8 C18 C16 121.04(13)
C16 C18 C12 119.63(13)
loop_
_geom_bond_atom_site_label_1
_geom_bond_atom_site_label_2
_geom_bond_distance
Zn1 Cl1 2.1960(4)
Zn1 Cl2 2.2119(4)
Zn1 O1 2.0957(11)
Zn1 N1 2.0557(12)
O1 C7 1.2365(17)
O2 C17 1.2121(18)
N1 C1 1.3464(19)
N1 C5 1.3551(18)
N2 C6 1.4826(17)
N2 C7 1.3799(18)
N2 C17 1.4191(18)
C1 H1 0.9500
C1 C2 1.389(2)
C2 H2 0.9500
C2 C3 1.388(2)
C3 H3 0.9500
C3 C4 1.392(2)
C4 H4 0.9500
C4 C5 1.3875(19)
C5 C6 1.5103(19)
C6 H6A 0.9900
C6 H6B 0.9900
C7 C8 1.4697(19)
C8 C9 1.3822(19)
C8 C18 1.4137(19)
C9 H9 0.9500
C9 C10 1.408(2)
C10 H10 0.9500
C10 C11 1.377(2)
C11 H11 0.9500
C11 C12 1.414(2)
C12 C13 1.420(2)
C12 C18 1.424(2)
C13 H13 0.9500
C13 C14 1.374(2)
C14 H14 0.9500
C14 C15 1.408(2)
C15 H15 0.9500
C15 C16 1.379(2)
C16 C17 1.476(2)
C16 C18 1.4142(19)
loop_
_geom_torsion_atom_site_label_1
_geom_torsion_atom_site_label_2
_geom_torsion_atom_site_label_3
_geom_torsion_atom_site_label_4
_geom_torsion
Zn1 O1 C7 N2 -33.5(2)
Zn1 O1 C7 C8 147.01(11)
Zn1 N1 C1 C2 -176.94(11)
Zn1 N1 C5 C4 176.69(10)
Zn1 N1 C5 C6 -2.54(17)
O1 C7 C8 C9 6.3(2)
O1 C7 C8 C18 -174.15(13)
N1 C1 C2 C3 0.2(2)
N1 C5 C6 N2 -83.08(15)
N2 C7 C8 C9 -173.21(13)
N2 C7 C8 C18 6.31(19)
C1 N1 C5 C4 -1.4(2)
C1 N1 C5 C6 179.34(12)
C1 C2 C3 C4 -1.6(2)
C2 C3 C4 C5 1.4(2)
C3 C4 C5 N1 0.1(2)
C3 C4 C5 C6 179.28(13)
C4 C5 C6 N2 97.68(15)
C5 N1 C1 C2 1.3(2)
C6 N2 C7 O1 -7.6(2)
C6 N2 C7 C8 171.94(12)
C6 N2 C17 O2 4.08(19)
C6 N2 C17 C16 -174.68(12)
C7 N2 C6 C5 90.55(15)
C7 N2 C17 O2 -175.54(13)
C7 N2 C17 C16 5.70(19)
C7 C8 C9 C10 -178.64(13)
C7 C8 C18 C12 179.12(12)
C7 C8 C18 C16 -1.9(2)
C8 C9 C10 C11 -0.3(2)
C9 C8 C18 C12 -1.4(2)
C9 C8 C18 C16 177.63(13)
C9 C10 C11 C12 -1.7(2)
C10 C11 C12 C13 -175.87(14)
C10 C11 C12 C18 2.1(2)
C11 C12 C13 C14 178.56(14)
C11 C12 C18 C8 -0.6(2)
C11 C12 C18 C16 -179.60(13)
C12 C13 C14 C15 0.8(2)
C13 C12 C18 C8 177.48(13)
C13 C12 C18 C16 -1.5(2)
C13 C14 C15 C16 -1.3(2)
C14 C15 C16 C17 -176.75(13)
C14 C15 C16 C18 0.3(2)
C15 C16 C17 O2 -2.4(2)
C15 C16 C17 N2 176.27(13)
C15 C16 C18 C8 -177.89(13)
C15 C16 C18 C12 1.1(2)
C17 N2 C6 C5 -89.10(14)
C17 N2 C7 O1 172.02(13)
C17 N2 C7 C8 -8.4(2)
C17 C16 C18 C8 -0.8(2)
C17 C16 C18 C12 178.15(12)
C18 C8 C9 C10 1.8(2)
C18 C12 C13 C14 0.6(2)
C18 C16 C17 O2 -179.48(14)
C18 C16 C17 N2 -0.78(19)
