#------------------------------------------------------------------------------
#$Date: 2019-11-23 20:31:29 +0200 (Sat, 23 Nov 2019) $
#$Revision: 234869 $
#$URL: file:///home/coder/svn-repositories/cod/cif/4/34/95/4349545.cif $
#------------------------------------------------------------------------------
#
# This file is available in the Crystallography Open Database (COD),
# http://www.crystallography.net/
#
# All data on this site have been placed in the public domain by the
# contributors.
#
data_4349545
loop_
_publ_author_name
'Shi, Chao'
'Han, Xiang-Bin'
'Wang, Ya'
'Zhang, Wen'
_publ_section_title
;
 Tuning dielectric transitions by B&#x2032;-site mixing in hybrid double
 perovskite crystals (CH3NH3)2[K1&#x2212;xRbxCo(CN)6] (x = 0.23--0.62)
;
_journal_issue                   12
_journal_name_full               'Inorganic Chemistry Frontiers'
_journal_page_first              1604
_journal_paper_doi               10.1039/C6QI00347H
_journal_volume                  3
_journal_year                    2016
_chemical_formula_moiety         'C12 Co2 N12, C4 N4, 0.46(Rb), 1.54(K)'
_chemical_formula_sum            'C16 Co2 K1.54 N16 Rb0.46'
_chemical_formula_weight         633.69
_space_group_crystal_system      cubic
_space_group_IT_number           225
_space_group_name_Hall           '-F 4 2 3'
_space_group_name_H-M_alt        'F m -3 m'
_audit_creation_method           SHELXL-2014/7
_audit_update_record
;
2016-08-24 deposited with the CCDC.
2016-10-13 downloaded from the CCDC.
;
_cell_angle_alpha                90
_cell_angle_beta                 90
_cell_angle_gamma                90
_cell_formula_units_Z            2
_cell_length_a                   11.466(5)
_cell_length_b                   11.466(5)
_cell_length_c                   11.466(5)
_cell_measurement_reflns_used    121
_cell_measurement_temperature    460(2)
_cell_measurement_theta_max      0.558
_cell_measurement_theta_min      0.519
_cell_volume                     1507.4(11)
_computing_structure_refinement  'SHELXL-2014/7 (Sheldrick, 2014)'
_diffrn_ambient_temperature      460(2)
_diffrn_measured_fraction_theta_full 0.969
_diffrn_measured_fraction_theta_max 0.975
_diffrn_measurement_device_type  'Rigaku, SCXmini'
_diffrn_measurement_method       '\w scans'
_diffrn_radiation_type           MoK\a
_diffrn_radiation_wavelength     0.71073
_diffrn_reflns_av_R_equivalents  0.0669
_diffrn_reflns_av_unetI/netI     0.0172
_diffrn_reflns_Laue_measured_fraction_full 0.969
_diffrn_reflns_Laue_measured_fraction_max 0.975
_diffrn_reflns_limit_h_max       14
_diffrn_reflns_limit_h_min       -14
_diffrn_reflns_limit_k_max       14
_diffrn_reflns_limit_k_min       -14
_diffrn_reflns_limit_l_max       14
_diffrn_reflns_limit_l_min       -14
_diffrn_reflns_number            4020
_diffrn_reflns_point_group_measured_fraction_full 0.969
_diffrn_reflns_point_group_measured_fraction_max 0.975
_diffrn_reflns_theta_full        25.242
_diffrn_reflns_theta_max         27.301
_diffrn_reflns_theta_min         3.077
_exptl_absorpt_coefficient_mu    2.083
_exptl_absorpt_correction_T_max  0.558
_exptl_absorpt_correction_T_min  0.519
_exptl_crystal_colour            yellow
_exptl_crystal_density_diffrn    1.396
_exptl_crystal_density_method    'not measured'
_exptl_crystal_description       block
_exptl_crystal_F_000             616.5
_exptl_crystal_size_max          0.32
_exptl_crystal_size_mid          0.30
_exptl_crystal_size_min          0.28
_refine_diff_density_max         0.709
_refine_diff_density_min         -0.751
_refine_diff_density_rms         0.134
_refine_ls_extinction_coef       0.32(11)
_refine_ls_extinction_expression Fc^*^=kFc[1+0.001xFc^2^\l^3^/sin(2\q)]^-1/4^
_refine_ls_extinction_method     'SHELXL-2014/7 (Sheldrick 2014'
_refine_ls_goodness_of_fit_ref   1.279
_refine_ls_hydrogen_treatment    undef
_refine_ls_matrix_type           full
_refine_ls_number_parameters     15
_refine_ls_number_reflns         121
_refine_ls_number_restraints     27
_refine_ls_restrained_S_all      1.229
_refine_ls_R_factor_all          0.0929
_refine_ls_R_factor_gt           0.0929
_refine_ls_shift/su_max          0.000
_refine_ls_shift/su_mean         0.000
_refine_ls_structure_factor_coef Fsqd
_refine_ls_weighting_details
'w=1/[\s^2^(Fo^2^)+(0.1831P)^2^] where P=(Fo^2^+2Fc^2^)/3'
_refine_ls_weighting_scheme      calc
_refine_ls_wR_factor_gt          0.2398
_refine_ls_wR_factor_ref         0.2396
_reflns_Friedel_coverage         0.000
_reflns_number_gt                117
_reflns_number_total             121
_reflns_threshold_expression     'I > 2\s(I)'
_cod_data_source_file            c6qi00347h2.cif
_cod_data_source_block           1-460K
_cod_original_cell_volume        1507(2)
_cod_database_code               4349545
_shelx_shelxl_version_number     2014/7
_shelx_space_group_comment
;
The symmetry employed for this shelxl refinement is uniquely defined
by the following loop, which should always be used as a source of
symmetry information in preference to the above space-group names.
They are only intended as comments.
;
_shelx_res_file
;

    a.res created by SHELXL-2014/7

TITL a in Fm-3m
CELL 0.71073  11.4659  11.4659  11.4659  90.000  90.000  90.000
ZERR   16.00   0.0046   0.0046   0.0046   0.000   0.000   0.000
LATT 4
SYMM -X, -Y, Z
SYMM -X, Y, -Z
SYMM X, -Y, -Z
SYMM Z, X, Y
SYMM Z, -X, -Y
SYMM -Z, -X, Y
SYMM -Z, X, -Y
SYMM Y, Z, X
SYMM -Y, Z, -X
SYMM Y, -Z, -X
SYMM -Y, -Z, X
SYMM Y, X, -Z
SYMM -Y, -X, -Z
SYMM Y, -X, Z
SYMM -Y, X, Z
SYMM X, Z, -Y
SYMM -X, Z, Y
SYMM -X, -Z, -Y
SYMM X, -Z, Y
SYMM Z, Y, -X
SYMM Z, -Y, X
SYMM -Z, Y, X
SYMM -Z, -Y, -X
SFAC C  H  N  K  Co Rb
UNIT 16 16 16 16 16 16
L.S. 16
ACTA
BOND $H
FMAP 2
PLAN 1
CONF

EXYZ K1 Rb1
EADP K1 Rb1
DFIX 1.45 0.05 N2 C2
DELU N2 C2
SIMU N2 C2
ISOR N2 C2
delu
WGHT    0.183100
EXTI    0.319310
FVAR       1.02577
MOLE 1
C1    1    0.000000    0.000000    0.163650    10.12500    0.19138    0.19138 =
         0.07559    0.00000    0.00000    0.00000
C2    1    0.750000    0.867213    0.250000    10.04167    0.19237    0.18592 =
         0.19237    0.00000    0.11151    0.00000
CO1   5    0.000000    0.000000    0.000000    10.02083    0.05947    0.05947 =
         0.05947    0.00000    0.00000    0.00000
K1    4    0.000000    0.000000    0.500000    10.01604    0.08012    0.08012 =
         0.08012    0.00000    0.00000    0.00000
N1    3    0.000000    0.000000    0.256682    10.12500    0.21507    0.21507 =
         0.07464    0.00000    0.00000    0.00000
N2    3    0.750000    0.750000    0.250000    10.04167    0.18589    0.18589 =
         0.18589    0.00000    0.00000    0.00000
RB1   6    0.000000    0.000000    0.500000    10.00479    0.08012    0.08012 =
         0.08012    0.00000    0.00000    0.00000
HKLF 4

REM  a in Fm-3m
REM R1 =  0.0929 for     117 Fo > 4sig(Fo)  and  0.0929 for all     118 data
REM     15 parameters refined using     27 restraints

END

WGHT      0.1831      0.0000

REM Highest difference peak  0.709,  deepest hole -0.751,  1-sigma level  0.134
Q1    1   0.0000  0.0000  0.0761  10.12500  0.05    0.71
;
_shelx_res_checksum              34744
_shelx_hkl_file
;
  -1  -1   1 3978.95   67.91
   2   2  -2  455.74   28.60
  -2  -2   2  453.53   24.49
   2   2  -2  440.61   11.87
  -2  -2   2  503.64   27.52
   2   2  -2  482.67   25.27
   3   3  -3   97.95   24.65
  -3  -3   3  108.81   10.73
  -3  -3   3   92.20   21.10
   4   4  -4 3293.18  103.82
  -4  -4   4 3167.17   82.00
  -4  -4   4 3196.37  100.13
   5   5  -5  192.57   51.09
  -5  -5   5  138.02   14.35
  -5  -5   5  165.19   69.01
   6   6  -6 1354.83  133.93
  -6  -6   6 1310.92  122.81
   7   7  -7   44.25   32.82
  -7  -7   7   40.08   53.09
   8   8  -8  216.10   88.50
  -8  -8   8   16.17   18.50
   7   9  -7   24.09   37.04
  -7  -9   7   14.65   27.13
   6   8  -6  618.58   97.74
  -6  -8   6  564.07  121.46
   5   7  -5  170.50   38.26
  -5  -7   5  188.03   97.31
   4   6  -4 2358.20  155.00
  -4  -6   4 2038.97  116.62
  -4  -6   4 2182.25  125.74
  -4  -6   4 2265.46  162.41
   3   5  -3   -5.91   23.71
  -3  -5   3   15.41    7.84
  -3  -5   3   10.18   13.02
  -3  -5   3   19.91   17.96
   2   4  -2 5786.56  114.03
  -2  -4   2 5684.47   97.96
  -2  -4   2 5658.74   97.91
  -2  -4   2 5734.69  117.40
   1   3  -1  763.78   35.93
  -1  -3   1  663.14   24.07
  -1  -3   1  753.25   20.79
  -1  -3   1  751.35   33.23
   1   3  -1  725.39   28.84
  -1   1   1 3869.90   66.87
   1  -1  -1 3886.46   65.85
   3   1  -3  169.74   10.91
  -3  -1   3  229.18   46.73
   4   2  -4 3522.68   61.91
  -4  -2   4 3772.63   84.49
   5   3  -5  175.37   40.79
   5   3  -5  154.54   11.66
  -5  -3   5  170.17   36.73
   6   4  -6 1680.25  140.07
  -6  -4   6 1573.53  128.66
   7   5  -7   94.52   43.76
  -7  -5   7   97.28   50.12
   8   6  -8  298.52   79.00
  -8  -6   8  191.77  102.23
   9   7  -9   31.06   43.24
  -9  -7   9   11.79   16.89
   7  11  -7    4.07   33.77
  -7 -11   7   12.34   17.44
   6  10  -6  273.04   95.66
   5   9  -5   36.72   38.35
  -5  -9   5   11.53   22.64
   4   8  -4 1056.63  103.49
  -4  -8   4 1057.35   85.19
  -4  -8   4 1111.90  113.95
   3   7  -3  204.84   55.70
  -3  -7   3  191.13   26.37
  -3  -7   3  208.09   94.86
   2   6  -2 2811.21   91.05
  -2  -6   2 2857.47   87.21
   1   5  -1  897.99   47.25
   1   5  -1  860.64   33.78
  -1  -5   1  882.78   54.44
  -1   3   1  781.64   23.97
   1  -3  -1  734.81   20.59
  -1   3   1  814.88   31.07
   1  -3  -1  787.25   40.02
   1  -3  -1  800.47   34.36
  -1   3   1  845.99   29.84
   2  -2  -2  437.99   13.82
  -2   2   2  463.35   27.16
   2  -2  -2  441.05   17.52
   2  -2  -2  463.56   21.11
   3  -1  -3  179.04   24.71
   3  -1  -3  201.68   15.85
  -3   1   3  229.45   41.87
   3  -1  -3  188.83   18.11
  -3   1   3  225.08   24.04
   4   0  -4 9475.56  166.23
  -4   0   4 9571.74  168.52
   4   0  -4 9292.17  156.35
   5   1  -5  333.74   38.55
  -5  -1   5  354.78   25.46
   5   1  -5  316.39   24.52
  -5  -1   5  397.40   65.79
   6   2  -6 2481.45  156.46
  -6  -2   6 2432.22  155.66
   7   3  -7  108.62   28.68
  -7  -3   7  127.14   49.73
   8   4  -8  395.50   77.12
  -8  -4   8  340.39  133.38
   9   5  -9   16.41   27.46
  -9  -5   9    1.38   28.84
   6  12  -6  102.79   66.25
   5  11  -5   27.85   34.02
  -5 -11   5    5.32   16.26
   4  10  -4  564.99   80.38
  -4 -10   4  464.12   94.03
   3   9  -3   22.91   52.01
  -3  -9   3   23.11   27.01
  -3  -9   3    1.28   20.49
   2   8  -2 2334.35  151.27
   2   8  -2 2131.63  129.46
  -2  -8   2 2278.79  185.08
   1   7  -1  957.41   45.62
   1   7  -1  904.56   63.34
  -1  -7   1  953.30   43.44
   0   6   0 7480.04  143.10
  -1   5   1  903.46   30.96
   1  -5  -1  851.00   25.13
  -1   5   1  937.47   59.02
   2  -4  -2 5389.46   90.70
  -2   4   2 5732.40  113.57
   3  -3  -3   88.04   15.65
   3  -3  -3   97.16    8.18
  -3   3   3  125.11   52.21
   4  -2  -4 3416.94   65.51
   4  -2  -4 3584.46   67.42
  -4   2   4 3702.52   91.12
   5  -1  -5  332.96   29.53
  -5   1   5  361.76   39.29
  -5   1   5  376.51   65.19
   6   0  -6 2705.99  164.47
  -6   0   6 2723.33  157.81
  -6   0   6 3169.57  212.57
   7   1  -7  199.00   41.88
  -7  -1   7  164.79   27.03
  -7  -1   7  235.81  113.35
   8   2  -8  531.92   74.76
  -8  -2   8  497.46  117.69
   9   3  -9   13.21   26.23
  -9  -3   9   21.07   25.34
  10   4 -10   93.19   52.82
 -10  -4  10    6.56   15.09
   5  13  -5    3.37   26.95
  -5 -13   5   -5.32   24.71
   4  12  -4  372.76   66.88
  -4 -12   4  310.62  121.12
   3  11  -3   49.87   30.07
  -3 -11   3   79.26   26.01
  -3 -11   3   55.87   34.20
   2  10  -2  607.26   73.34
  -2 -10   2  607.14  117.00
   1   9  -1   40.11   41.44
   1   9  -1   30.47   24.84
  -1  -9   1   17.40   20.19
   0   8   0 4258.90   83.81
   0   8   0 4180.23  267.40
   0  -8   0 4615.76   90.22
  -1   7   1  973.85   39.53
  -1   7   1  980.56   84.82
   1  -7  -1 1054.05   61.39
  -2   6   2 2818.64   81.39
   2  -6  -2 2625.27   72.39
  -2   6   2 2880.69   98.18
   2  -6  -2 2774.12   88.08
   3  -5  -3   12.06   10.67
  -3   5   3   24.22   15.70
   3  -5  -3   18.78   21.04
   4  -4  -4 2938.82   75.24
   4  -4  -4 3109.43   79.31
  -4   4   4 3211.78   95.45
   4  -4  -4 3051.76   95.37
   5  -3  -5  164.22   25.85
   5  -3  -5  169.30   19.22
  -5   3   5  220.82   69.09
   5  -3  -5  166.18   28.00
   6  -2  -6 2312.76  137.39
  -6   2   6 2335.38  149.55
   7  -1  -7  219.23   39.49
  -7   1   7  187.43   32.37
  -7   1   7  239.38   43.99
   8   0  -8  525.29   65.11
  -8   0   8  596.43  147.46
   9   1  -9   25.02   29.06
  -9  -1   9    7.59   24.67
 -10  -2  10   61.72   53.84
   3  13  -3   26.26   38.70
  -3 -13   3    5.87   21.40
   2  12  -2  731.25  110.45
  -2 -12   2  654.89   82.04
  -2 -12   2  522.83  147.40
   1  11  -1  142.58   42.74
   1  11  -1  157.25   80.21
  -1 -11   1  125.22   59.92
   0  10   0  760.61   81.84
   0  10   0  687.87   77.81
   0 -10   0  768.12   87.72
  -1   9   1   13.78   33.80
  -1   9   1   26.62   20.35
   1  -9  -1   20.43   38.88
  -2   8   2 2307.61  136.91
  -2   8   2 2295.73  146.27
   2  -8  -2 2397.28  155.41
  -3   7   3  178.23   34.96
   3  -7  -3  172.53   16.48
  -3   7   3  193.26   76.56
   3  -7  -3  194.93   38.03
   4  -6  -4 2002.72  112.84
  -4   6   4 2196.03  149.19
   4  -6  -4 2300.59  143.46
   5  -5  -5  144.33    8.98
   5  -5  -5  152.73   10.05
  -5   5   5  209.72   76.72
   5  -5  -5  182.02   32.42
   6  -4  -6 1557.74  116.44
  -6   4   6 1698.22  149.85
   6  -4  -6 1712.65  140.11
  -7   3   7  133.68   52.24
   7  -3  -7  122.12   34.90
  -8   2   8  471.89   69.58
   8  -2  -8  533.31   68.86
   2  14  -2  123.13   51.69
  -2 -14   2  140.56   54.74
  -2 -14   2   75.29   82.68
   1  13  -1   15.74   36.01
  -1 -13   1   13.08   22.26
   0  12   0  896.55   55.53
   0  12   0  770.42  144.03
   0 -12   0  783.43  163.04
  -1  11   1  142.43   34.60
  -1  11   1  128.11   64.31
   1 -11  -1  149.67   46.15
  -2  10   2  601.84   83.28
  -2  10   2  576.48  157.46
   2 -10  -2  652.90   82.68
  -3   9   3    1.53    5.90
  -3   9   3   11.52   17.06
   3  -9  -3    5.65   25.04
  -4   8   4 1031.70  119.33
   4  -8  -4 1062.13  102.51
  -5   7   5  218.13   71.91
   5  -7  -5  219.26   41.80
  -6   6   6 1350.77  135.93
   6  -6  -6 1357.72  130.33
  -7   5   7  110.22   51.13
   7  -5  -7  108.65   37.84
  -8   4   8  355.88   64.65
   8  -4  -8  413.45   72.19
   9  -3  -9   17.78   31.09
  10  -2 -10  183.21   84.42
   0  14   0  129.74   53.33
   0 -14   0   88.69   62.42
  -1  13   1   23.67   29.03
   1 -13  -1   15.19   23.41
  -2  12   2  641.60  128.66
   2 -12  -2  658.47   87.62
  -3  11   3   71.87   47.07
   3 -11  -3   86.20   41.96
  -4  10   4  436.80  175.14
   4 -10  -4  467.17   77.55
  -5   9   5   21.79   22.04
   5  -9  -5   34.53   31.33
  -6   8   6  567.55  183.81
   6  -8  -6  631.35   86.29
  -7   7   7   50.47   28.43
   7  -7  -7   63.19   34.72
  -8   6   8  199.23  132.54
   8  -6  -8  307.09   54.13
  -9   5   9   12.33   19.45
   9  -5  -9   18.25   23.03
  10  -4 -10  114.15   58.60
  -2  14   2  100.98   63.02
   2 -14  -2  102.33   53.98
  -3  13   3   19.25   26.31
   3 -13  -3   28.65   35.22
  -4  12   4  242.85  159.32
   4 -12  -4  282.56   86.70
  -5  11   5   37.34   32.49
   5 -11  -5   17.29   19.53
  -6  10   6  231.92  138.87
   6 -10  -6  251.93   80.05
  -7   9   7    9.66   16.29
   7  -9  -7   23.58   32.23
  -8   8   8  108.41   75.87
   8  -8  -8  192.73   73.03
  -9   7   9   13.16   10.82
   9  -7  -9    5.69   18.42
  -5  13   5   22.91   31.16
   5 -13  -5   15.70   21.09
  -6  12   6   78.31   85.46
   6 -12  -6  123.93   62.62
  -7  11   7   18.89   22.87
   7 -11  -7   22.21   30.26
  -9   9   7    8.07   18.92
   9  -9  -7   -4.72   25.17
  -8  10   6   90.86   77.29
   8 -10  -6  160.60   68.75
  -7  11   5   14.83   24.34
   7 -11  -5   26.12   32.38
  -6  12   4  165.12  112.14
   6 -12  -4  217.72   84.69
  -5  13   3   31.53   34.50
   5 -13  -3    2.65   24.23
  -4  14   2   78.87   67.54
   4 -14  -2   98.92   59.17
 -10   6   8   96.41   77.83
  10  -6  -8  150.43   59.96
  -9   7   7   23.53   25.08
   9  -7  -7    8.92   23.91
  -8   8   6  268.06  114.91
   8  -8  -6  349.36   70.19
  -7   9   5   25.03   30.26
   7  -9  -5   35.81   41.03
  -6  10   4  367.99  142.88
   6 -10  -4  368.24   74.15
  -5  11   3   22.78   27.98
   5 -11  -3   36.90   28.13
  -4  12   2  480.98   88.12
   4 -12  -2  402.57   76.79
  -3  13   1   32.54   34.57
   3 -13  -1   27.11   27.77
  -2  14   0   66.16   64.10
   2 -14   0  136.63   62.97
  11  -3  -9   16.34   22.13
 -10   4   8  138.90   81.64
  10  -4  -8  245.68   84.39
  -9   5   7   22.69   22.45
   9  -5  -7   24.87   31.56
  -8   6   6  569.71  184.93
   8  -6  -6  673.20   95.60
  -7   7   5  110.61   41.14
   7  -7  -5   92.83   36.62
  -6   8   4  864.55  125.92
   6  -8  -4  874.34   97.17
  -5   9   3   24.92   23.74
   5  -9  -3   37.44   36.77
  -4  10   2  568.62   94.45
   4 -10  -2  539.54   80.47
  -3  11   1   93.21   43.14
   3 -11  -1  127.41   47.93
  -2  12   0  757.83   92.71
  -2  12   0  738.57  134.08
   2 -12   0  811.61  116.88
  -1  13  -1   23.10   32.03
  -1  13  -1   21.16   20.99
   1 -13   1   25.70   36.32
   0  14  -2  123.08   53.97
   0  14  -2   69.66   66.55
   0 -14   2   86.02   58.61
  11  -1  -9   13.40   22.03
  10  -2  -8  259.45   70.52
  -9   3   7   26.08   16.35
   9  -3  -7   38.78   38.67
  -8   4   6  904.36   93.62
   8  -4  -6  855.84   92.48
  -7   5   5  235.12   70.28
   7  -5  -5  228.43   50.72
  -6   6   4 1667.86  198.45
   6  -6  -4 1803.27  146.90
  -5   7   3  173.13   53.42
   5  -7  -3  156.75   39.93
  -4   8   2 1594.25  161.84
   4  -8  -2 1536.96  131.05
  -3   9   1   20.25   22.85
  -3   9   1    6.05   17.86
   3  -9  -1   28.93   29.51
  -2  10   0  657.39   69.10
  -2  10   0  704.50  123.98
   2 -10   0  724.67   92.01
  -1  11  -1  145.46   36.13
  -1  11  -1  142.08   61.25
   1 -11   1  180.01   58.40
   0  12  -2  746.91   97.54
   0  12  -2  722.32   98.29
   0 -12   2  698.61  160.41
   1  13  -3    4.65   25.60
   1  13  -3   22.45   16.78
  -1 -13   3    7.37   20.72
   2  14  -4  101.31   58.16
  -2 -14   4   12.43   26.40
 -11  -1   9    9.61   22.99
 -10   0   8  308.87   65.27
  -9   1   7   29.17   20.78
   8  -2  -6 1043.79   96.41
  -8   2   6 1081.82  104.98
   8  -2  -6 1125.31  111.40
   7  -3  -5  173.51   20.02
  -7   3   5  189.35   53.48
   7  -3  -5  171.18   33.81
  -6   4   4 2259.84  146.00
   6  -4  -4 2383.61  150.13
  -5   5   3  226.03   72.82
   5  -5  -3  203.35   35.78
  -4   6   2 2828.99  128.68
   4  -6  -2 2827.16   98.90
  -3   7   1  396.87   32.06
   3  -7  -1  323.13   23.55
  -3   7   1  357.85   64.38
   3  -7  -1  396.18   48.53
  -2   8   0 3256.44  192.87
  -2   8   0 2957.27  199.19
   2  -8   0 3344.52  212.46
  -1   9  -1   44.54   35.77
  -1   9  -1   28.62   16.65
   1  -9   1   27.07   39.74
   0  10  -2  645.26   72.76
   0  10  -2  639.09   91.51
   0 -10   2  683.12  111.87
   1  11  -3  115.83   44.44
   1  11  -3   69.46   46.46
  -1 -11   3   66.31   59.98
   2  12  -4  453.79   77.11
  -2 -12   4  352.52  180.74
   3  13  -5   45.73   51.55
  -3 -13   5   10.31   25.00
 -11  -3   9    5.48   11.59
  10   2  -8  284.87   71.30
 -10  -2   8   22.48   25.32
   9   1  -7   31.77   25.43
  -9  -1   7   49.84   36.58
   8   0  -6 1392.26  130.37
  -8   0   6 1454.34   48.65
  -8   0   6 1508.56   67.81
   7  -1  -5  355.12   43.38
  -7   1   5  393.23   93.45
  -7   1   5  405.24   46.11
   6  -2  -4 2847.96   80.21
  -6   2   4 2970.98  102.04
   6  -2  -4 2851.25   95.66
   5  -3  -3    9.28    4.30
  -5   3   3   19.62   15.87
   5  -3  -3    9.07   17.40
  -4   4   2 3895.84  124.05
   4  -4  -2 3896.22  115.00
   3  -5  -1  232.09   11.76
  -3   5   1  244.81   30.18
   3  -5  -1  231.41   32.46
  -2   6   0 5597.11  147.53
  -2   6   0 5174.10  150.94
   2  -6   0 5679.58  162.79
  -1   7  -1  995.34   48.67
  -1   7  -1  990.43   44.26
   1  -7   1 1073.73   62.11
   0   8  -2 3044.39  184.43
   0   8  -2 3010.10  187.24
   0  -8   2 3146.18  196.91
   1   9  -3   23.77   33.79
   1   9  -3    5.63    7.88
  -1  -9   3    6.02   20.86
   2  10  -4  566.87   84.11
  -2 -10   4  497.90   71.15
   3  11  -5   52.07   47.38
  -3 -11   5   27.71   30.67
   4  12  -6  279.04   65.36
  10   4  -8  238.60   82.80
 -10  -4   8    2.22   18.77
   9   3  -7   30.01   37.59
  -9  -3   7   14.54   22.99
   8   2  -6 1068.99  109.39
  -8  -2   6 1078.03   96.58
  -8  -2   6 1101.45  140.29
   7   1  -5  388.05   48.17
  -7  -1   5  401.62   79.21
  -7  -1   5  385.83   48.61
   6   0  -4 3868.79  111.15
  -6   0   4 4036.03  120.47
  -6   0   4 4264.23  132.24
   5  -1  -3  270.71   23.65
  -5   1   3  262.28   17.21
  -5   1   3  317.89   72.55
  -5   1   3  301.17   34.99
  -3   3   1  280.76   40.82
   3  -3  -1  246.99   24.54
  -2   4   0 7734.28  128.95
   2  -4   0 7498.89  124.38
  -2   4   0 7654.08  150.53
   2  -4   0 7746.69  139.26
  -1   5  -1  989.12   34.92
   1  -5   1 1092.80   51.15
   0   6  -2 5563.35  157.19
   0   6  -2 5236.10  146.57
   0  -6   2 5406.49  151.09
   1   7  -3  379.60   48.12
   1   7  -3  355.35   37.92
  -1  -7   3  359.40   61.90
   2   8  -4 1585.21  134.54
   2   8  -4 1542.97  118.72
  -2  -8   4 1597.89  153.91
   3   9  -5   31.78   48.43
  -3  -9   5   36.54   20.34
  -3  -9   5   26.84   23.20
   4  10  -6  391.42   91.65
  -4 -10   6  331.18   99.49
   5  11  -7   21.10   48.65
  -5 -11   7    6.20   17.05
  10   6  -8  183.69   78.77
 -10  -6   8   13.81   23.39
   9   5  -7   11.61   30.53
  -9  -5   7   11.93   36.10
   8   4  -6  879.89   98.18
   7   3  -5  157.64   36.85
  -7  -3   5  155.42   34.19
  -7  -3   5  178.35   58.48
   6   2  -4 2867.96   95.21
  -6  -2   4 2868.21   86.60
  -6  -2   4 2995.29   97.77
   5   1  -3  279.04   28.82
  -5  -1   3  282.53   20.78
   5   1  -3  249.65   16.87
  -5  -1   3  315.81   71.13
   4   0  -2 7528.89  129.03
  -4   0   2 7343.83  124.76
  -4   0   2 7629.55  134.20
   4   0  -2 7409.48  127.06
  -4   0   2 8300.39  148.13
   3  -1  -1  822.32   25.62
  -3   1   1  746.94   20.18
  -3   1   1  825.33   33.19
   3  -1  -1  759.67   24.75
   3  -1  -1  741.21   25.96
   3  -1  -1  723.25   28.71
  -1   3  -1  888.03   30.07
  -1   3  -1  892.71   27.22
   1  -3   1  887.22   41.11
   1  -3   1  962.82   43.70
  -1   3  -1  833.72   27.69
   0   4  -2 7670.93  136.32
   0   4  -2 7402.60  126.98
   0  -4   2 7362.59  124.56
   0  -4   2 7696.15  140.05
   1   5  -3  240.82   33.23
   1   5  -3  223.68   20.75
  -1  -5   3  215.14   25.41
  -1  -5   3  241.82   61.43
   2   6  -4 2791.49  100.23
  -2  -6   4 2499.05   74.63
  -2  -6   4 2892.11  147.31
   3   7  -5  183.60   49.10
  -3  -7   5  148.94   16.02
  -3  -7   5  171.95   73.59
   4   8  -6  879.09  103.60
  -4  -8   6  893.34  111.62
   5   9  -7   30.71   45.39
  -5  -9   7   15.47   21.72
   6  10  -8  155.94   73.64
   9   7  -7   32.80   33.43
  -9  -7   7    7.89   16.22
   8   6  -6  595.48   92.14
  -8  -6   6  490.61  118.05
   7   5  -5  195.49   48.41
  -7  -5   5  175.33   77.33
   6   4  -4 2224.15  148.08
  -6  -4   4 2150.12  124.77
   6   4  -4 2004.17  114.86
  -6  -4   4 2142.96  155.30
  -5  -3   3    9.49   13.99
   5   3  -3   14.68   12.59
  -5  -3   3   13.49   21.66
   4   2  -2 5588.89  107.16
  -4  -2   2 5550.09   97.14
   4   2  -2 5578.60   96.82
  -4  -2   2 5778.07  114.58
   3   1  -1  923.33   43.22
  -3  -1   1  851.95   29.64
  -3  -1   1  872.44   26.81
  -3  -1   1  941.58   46.35
   3   1  -1  911.84   31.61
  -1   1  -1 3855.90   65.53
   1   3  -3  255.27   25.51
   1   3  -3  242.77   16.09
  -1  -3   3  257.22   17.88
  -1  -3   3  257.20   34.93
   2   4  -4 3751.97   87.21
  -2  -4   4 3674.78   62.84
  -2  -4   4 3765.23   83.63
   3   5  -5  213.22   47.10
  -3  -5   5  150.89    9.90
  -3  -5   5  169.13   11.59
  -3  -5   5  184.49   45.19
   4   6  -6 1720.45  143.86
  -4  -6   6 1625.90  154.25
   5   7  -7  109.85   44.02
  -5  -7   7   63.94   50.34
   6   8  -8  333.63   78.50
  -6  -8   8  275.21   99.09
   7   9  -9   11.58   32.54
  -7  -9   9    0.15   16.16
   9   9  -7   -7.89   31.36
  -9  -9   7    5.00   17.20
   8   8  -6  363.64   93.37
   7   7  -5  117.07   55.32
  -7  -7   5   95.65   47.54
   6   6  -4 1744.54  147.71
  -6  -6   4 1698.39  129.63
  -6  -6   4 1620.24  130.17
   5   5  -3  200.95   49.04
  -5  -5   3  175.46   23.32
  -5  -5   3  196.63   80.25
   4   4  -2 3818.75   91.00
  -4  -4   2 3687.80   73.43
   4   4  -2 3514.66   65.86
  -4  -4   2 3760.79   83.59
   3   3  -1  249.70   28.52
  -3  -3   1  258.01   18.06
   3   3  -1  230.38   14.40
  -3  -3   1  269.09   46.95
   1   1   1 3805.61   67.91
  -1  -1  -1 3382.96   58.74
   1   1  -3  720.47   23.18
   1   1  -3  830.97   29.36
   1   1  -3  761.86   15.86
   1   1  -3  809.36   17.85
  -1  -1   3  841.89   35.36
   1   1  -3  794.50   40.99
   2   2  -4 5543.45  105.56
  -2  -2   4 5788.75  110.84
   3   3  -5   16.61   23.87
  -3  -3   5   19.80   15.17
   4   4  -6 2287.61  150.49
  -4  -4   6 2157.77  138.20
   5   5  -7  215.67   58.40
  -5  -5   7  195.49   68.92
   6   6  -8  663.82  105.63
  -6  -6   8  219.77   41.47
   7   7  -9   25.38   33.48
  -7  -7   9   24.02   31.27
   8  10  -6  155.24   65.45
  -8 -10   6   21.21   33.24
   7   9  -5   34.84   34.93
  -7  -9   5    7.72   20.50
   6   8  -4  932.19  110.57
  -6  -8   4  783.78   73.96
  -6  -8   4  834.52   95.38
   5   7  -3  139.76   45.34
  -5  -7   3  151.83   25.04
  -5  -7   3  168.67   73.01
   4   6  -2 2992.12  108.12
  -4  -6   2 2860.76   88.44
  -4  -6   2 2996.09   99.99
   3   5  -1  305.85   33.57
  -3  -5   1  308.12   26.70
   2   4   0 7377.21  132.24
  -2  -4   0 7577.11  132.19
   1   3   1  708.51   32.30
  -1  -3  -1  658.47   26.06
  -1  -3  -1  739.90   29.74
   1   3   1  669.72   22.32
  -1   1   3  887.89   28.26
  -1   1   3  920.12   31.55
  -1   1   3  922.78   28.15
  -2   0   4 8045.09  135.54
  -2   0   4 7993.33  142.69
   3   1  -5  276.73   27.82
   3   1  -5  266.68   12.14
  -3  -1   5  287.18   53.64
   4   2  -6 2734.51   90.06
  -4  -2   6 2712.82   93.27
   5   3  -7  156.16   34.99
  -5  -3   7  171.03   68.24
   6   4  -8  868.81   93.48
  -6  -4   8  803.52   95.59
   7   5  -9   18.55   29.55
  -7  -5   9   17.11   39.19
   8   6 -10  176.32   74.96
  -8  -6  10    8.20   14.49
   7  11  -5   25.04   34.61
  -7 -11   5    5.15   21.49
   6  10  -4  395.84   80.17
   5   9  -3   11.10   30.92
  -5  -9   3   24.60   19.03
  -5  -9   3   11.26   13.18
   4   8  -2 1662.86  138.25
  -4  -8   2 1625.85  128.64
  -4  -8   2 1650.39  140.32
   3   7  -1  392.67   49.13
  -3  -7   1  421.92   39.40
  -3  -7   1  416.60   97.50
   2   6   0 5419.63  153.97
  -2  -6   0 5524.91  151.98
  -2  -6   0 5359.55  152.90
   1   5   1  803.20   34.29
   1   5   1  828.59   38.32
  -1  -5  -1  871.39   36.79
   0   4   2 7456.29  128.25
   0  -4  -2 7419.77  128.49
   0   4   2 7679.79  141.01
   0  -4  -2 6941.93  120.96
   0   4   2 7433.88  126.65
  -1   3   3  258.45   28.78
   1  -3  -3  231.23   20.91
  -1   3   3  260.59   23.37
   1  -3  -3  242.07   18.59
  -1   3   3  241.97   14.93
  -2   2   4 5724.73  105.52
   2  -2  -4 5483.83  106.40
  -2   2   4 5835.46  105.37
   3  -1  -5  266.35   21.43
  -3   1   5  267.97   30.51
  -3   1   5  307.68   58.55
   4   0  -6 3882.58  112.06
  -4   0   6 3923.36  105.80
   4   0  -6 3528.29   99.34
  -4   0   6 4127.39  146.60
   5   1  -7  378.52   40.01
  -5  -1   7  363.64   69.32
   6   2  -8 1092.20  113.16
  -6  -2   8 1036.14  139.09
   7   3  -9   17.77   25.86
  -7  -3   9    2.63   19.12
   8   4 -10  208.55   74.12
  -8  -4  10   67.47   85.03
   6  12  -4  239.35   90.49
  -6 -12   4   18.31   30.97
   5  11  -3   32.17   32.54
  -5 -11   3    2.95   11.44
   4  10  -2  488.83   69.28
  -4 -10   2  535.54   63.39
  -4 -10   2  503.51   84.98
   3   9  -1   42.33   52.11
  -3  -9   1   16.38   27.01
  -3  -9   1   -0.15   12.97
   2   8   0 3052.74  187.82
  -2  -8   0 3110.18  184.51
  -2  -8   0 3072.20  213.16
   1   7   1  928.99   64.39
   1   7   1  903.80  101.19
  -1  -7  -1  950.45   43.61
   0   6   2 5300.94  147.85
   0   6   2 5346.12  168.72
   0  -6  -2 5726.66  155.30
  -1   5   3  295.63   42.97
   1  -5  -3  286.28   18.20
  -1   5   3  297.68   45.04
   1  -5  -3  294.57   26.31
  -2   4   4 3940.39   75.35
   2  -4  -4 3644.38   71.76
  -2   4   4 3838.95   98.87
   2  -4  -4 3861.10   81.06
  -3   3   5   17.73    8.18
   3  -3  -5   15.23   11.14
  -3   3   5   14.55   16.20
   3  -3  -5    6.46   12.24
   4  -2  -6 2795.87   82.87
  -4   2   6 2921.15   91.79
  -4   2   6 2961.12   92.04
   5  -1  -7  360.37   37.92
  -5   1   7  370.04   27.17
  -5   1   7  406.12   80.95
   6   0  -8 1347.08  127.71
  -6   0   8 1378.49  125.11
  -6   0   8 1532.54   65.47
   7   1  -9   33.44   33.91
  -7  -1   9   27.45   31.36
   8   2 -10  284.50   78.43
  -8  -2  10  208.46   75.63
   9   3 -11   17.75   24.93
  -9  -3  11    8.38   15.72
   5  13  -3   14.76   28.94
  -5 -13   3   -2.08   24.45
   4  12  -2  507.78   92.07
  -4 -12   2  457.76   74.06
  -4 -12   2  432.51  111.63
   3  11  -1  122.09   52.38
  -3 -11   1  101.83   32.37
  -3 -11   1   87.92   57.95
   2  10   0  681.78   83.31
  -2 -10   0  658.19   71.00
  -2 -10   0  650.14   97.38
   1   9   1    3.20   22.99
   1   9   1   40.07   18.19
  -1  -9  -1   16.43   29.12
   0   8   2 3051.39  183.18
   0   8   2 2982.99  201.77
   0  -8  -2 3341.17  199.95
  -1   7   3  417.71   61.57
  -1   7   3  406.19   68.67
   1  -7  -3  304.19   34.80
  -2   6   4 2880.88   82.37
  -2   6   4 2816.25  104.68
   2  -6  -4 2855.41   90.88
  -3   5   5  190.49   45.97
   3  -5  -5  141.14   30.07
  -3   5   5  205.81   84.77
   3  -5  -5  186.72   29.80
   4  -4  -6 2354.36  137.92
  -4   4   6 2198.71  139.64
   4  -4  -6 2228.12  136.35
   5  -3  -7  168.14   25.60
  -5   3   7  144.84   55.53
   5  -3  -7  163.50   30.29
   6  -2  -8 1061.78  100.54
  -6   2   8 1024.17   94.81
   7  -1  -9   33.06   17.08
  -7   1   9   43.30   32.07
   8   0 -10  278.50   67.42
  -8   0  10  204.59   57.98
  -9  -1  11    6.32   13.45
   4  14  -2  102.75   59.71
  -4 -14   2    7.03   29.01
   3  13  -1   16.32   26.77
  -3 -13   1   20.90   24.88
  -3 -13   1    1.80   11.69
   2  12   0  815.06  103.86
  -2 -12   0  800.30  101.75
  -2 -12   0  661.45  129.17
   1  11   1  137.76   37.31
   1  11   1  142.78   42.71
  -1 -11  -1  121.66   52.46
   0  10   2  664.91   96.66
   0  10   2  640.59   83.34
   0 -10  -2  686.61   78.02
  -1   9   3   17.76   23.48
  -1   9   3   15.72   24.92
   1  -9  -3   26.03   32.35
  -2   8   4 1596.44  126.79
  -2   8   4 1628.71  192.65
   2  -8  -4 1596.10  129.83
  -3   7   5  163.72   48.49
  -3   7   5  159.91   67.95
   3  -7  -5  167.81   33.63
  -4   6   6 1709.98  131.24
  -4   6   6 1712.89  148.46
   4  -6  -6 1747.11  138.38
   5  -5  -7  175.01   20.12
  -5   5   7  188.49   90.12
   5  -5  -7  192.03   35.63
  -6   4   8  833.02   87.65
   6  -4  -8  829.97   88.07
  -7   3   9   16.05   17.35
   7  -3  -9   24.71   26.44
   8  -2 -10  292.46   70.18
   2  14   0  126.66   55.76
  -2 -14   0  149.63   58.73
  -2 -14   0   13.26   22.37
   1  13   1   25.03   34.58
  -1 -13  -1   23.79   27.62
  -1 -13  -1    8.96   15.34
   0  12   2  657.83  139.05
   0  12   2  789.58  100.29
   0 -12  -2  694.71   91.94
  -1  11   3   79.57   32.35
  -1  11   3   80.63   48.17
   1 -11  -3   84.09   30.93
  -2  10   4  416.03   77.20
  -2  10   4  509.17  130.13
   2 -10  -4  504.26   67.63
  -3   9   5   40.00   20.87
   3  -9  -5   23.84   25.71
  -4   8   6  878.66  149.67
   4  -8  -6  826.18   89.10
  -5   7   7  109.19   60.22
   5  -7  -7  108.34   32.12
  -6   6   8  565.43   90.82
   6  -6  -8  609.52   77.22
  -7   5   9   19.84   24.59
   7  -5  -9   22.06   23.13
   8  -4 -10  226.61   71.16
   9  -3 -11   11.94   19.95
   0 -14  -2   92.75   58.04
  -1  13   3   13.05   15.11
   1 -13  -3    6.44   24.43
  -2  12   4  476.38  116.53
   2 -12  -4  434.07   71.92
  -3  11   5   52.57   28.34
   3 -11  -5   43.74   22.83
  -4  10   6  306.12  178.89
   4 -10  -6  388.44   66.20
  -5   9   7   10.28   18.05
   5  -9  -7   14.19   23.78
  -6   8   8  191.15  126.81
   6  -8  -8  284.35   65.98
  -7   7   9   20.80   26.00
   7  -7  -9   17.88   27.49
  -8   6  10   94.33   78.23
   8  -6 -10  176.28   70.03
  -2  14   4  146.69   77.09
  -3  13   5   26.01   35.13
  -4  12   6  139.29  109.40
  -5  11   7   17.36   21.98
   5 -11  -7   20.49   22.32
  -6  10   8  100.46   79.28
   6 -10  -8  148.59   55.86
  -7   9   9    5.62   11.37
   7  -9  -9    4.49   21.69
 -11   7   7   10.19   13.20
  11  -7  -7   -0.62   23.61
 -10   8   6  106.84   69.59
  10  -8  -6  147.22   61.07
  -9   9   5    6.55   14.71
   9  -9  -5   33.38   40.54
  -8  10   4  218.31   93.94
   8 -10  -4  241.69   84.64
  -7  11   3   20.91   24.38
   7 -11  -3   23.53   40.78
  -6  12   2  224.35  141.05
   6 -12  -2  275.45   94.65
  -5  13   1   17.22   24.58
   5 -13  -1   21.51   27.75
  -4  14   0   84.32   59.50
   4 -14   0   94.79   50.27
 -11   5   7   13.16   17.47
  11  -5  -7   27.75   33.48
 -10   6   6  237.35  140.44
  10  -6  -6  287.43   91.58
  -9   7   5   18.74   21.01
   9  -7  -5   44.97   37.48
  -8   8   4  382.72  119.32
   8  -8  -4  420.66   77.94
  -7   9   3   27.77   28.78
   7  -9  -3   11.65   26.64
  -6  10   2  544.85  150.42
   6 -10  -2  488.67   79.98
  -5  11   1   78.39   45.10
   5 -11  -1   65.31   43.17
  -4  12   0  399.12  165.62
   4 -12   0  535.42  100.71
  -3  13  -1   37.24   36.47
   3 -13   1   44.96   43.60
  -2  14  -2   77.53   59.30
   2 -14   2   98.49   93.99
  12  -2  -8  198.57   94.20
 -11   3   7   23.27   25.54
  11  -3  -7   36.33   36.67
 -10   4   6  318.89  124.71
  10  -4  -6  411.02   79.96
  -9   5   5   29.74   25.67
   9  -5  -5   49.58   38.19
  -8   6   4  887.42   94.64
   8  -6  -4  872.67   97.51
  -7   7   3  145.74   58.98
   7  -7  -3  125.08   38.13
  -6   8   2 1112.54  130.33
   6  -8  -2 1026.53  107.37
  -5   9   1   23.28   19.24
   5  -9  -1   27.70   40.61
  -4  10   0  606.27  146.45
   4 -10   0  591.79   89.20
  -3  11  -1   90.25   23.89
  -3  11  -1  103.06   56.26
   3 -11   1   97.10   49.60
  -2  12  -2  613.24   79.11
  -2  12  -2  614.19  111.41
   2 -12   2  711.87  112.59
  -1  13  -3   16.07   29.43
  -1  13  -3   11.50   17.89
   1 -13   3   10.31   26.12
   0  14  -4   69.32   42.48
   0 -14   4   81.29   88.20
  12   0  -8  145.57   71.21
  11  -1  -7   42.00   39.33
 -10   2   6  486.14   98.12
  10  -2  -6  502.18   74.08
  -9   3   5   28.30   15.89
   9  -3  -5   19.86   24.44
  -8   4   4 1137.36  112.38
   8  -4  -4 1122.65  104.84
  -7   5   3  206.10   67.32
   7  -5  -3  153.08   33.15
  -6   6   2 2517.61  163.77
   6  -6  -2 2452.93  155.51
  -5   7   1  290.09    7.21
  -5   7   1  384.45  118.20
   5  -7  -1  345.14   49.59
  -4   8   0 1936.85  116.18
  -4   8   0 1894.34  128.86
   4  -8   0 1900.98  133.27
  -3   9  -1   54.79   44.23
  -3   9  -1    6.07   13.61
   3  -9   1    9.22   34.05
  -2  10  -2  583.80   64.69
  -2  10  -2  646.77   98.91
   2 -10   2  656.65   85.16
  -1  11  -3   92.76   28.28
  -1  11  -3   93.45   48.53
   1 -11   3   99.42   55.93
   0  12  -4  478.30   79.27
   0  12  -4  448.95   88.52
   0 -12   4  421.70  173.90
   1  13  -5   28.19   26.51
  -1 -13   5   10.81   22.91
 -11  -1   7    0.94   23.62
  10   0  -6  517.43   67.12
 -10   0   6  442.96   98.73
   9  -1  -5   34.19   21.31
  -9   1   5   45.54   25.69
   9  -1  -5   34.74   32.34
   8  -2  -4 1629.70  123.99
  -8   2   4 1603.08  145.31
   8  -2  -4 1608.12  134.82
   7  -3  -3  154.89   14.50
  -7   3   3  222.55   66.22
   7  -3  -3  189.04   39.06
  -6   4   2 2902.96  122.26
   6  -4  -2 2998.16  104.74
  -5   5   1  380.60   40.33
   5  -5  -1  394.98   45.21
  -4   6   0 3836.43  102.82
  -4   6   0 4122.83  144.77
   4  -6   0 3856.10  123.71
  -3   7  -1  398.74   37.98
  -3   7  -1  422.55   90.72
   3  -7   1  441.59   63.27
  -2   8  -2 2229.70  139.35
  -2   8  -2 2261.47  147.20
   2  -8   2 2506.57  160.16
  -1   9  -3   36.61   37.08
  -1   9  -3   19.71   20.24
   1  -9   3   12.80   44.25
   0  10  -4  561.34   71.20
   0  10  -4  579.97   92.48
   0 -10   4  567.46  108.27
   1  11  -5   77.52   46.44
  -1 -11   5   56.08   34.37
   2  12  -6  208.87   76.27
  -2 -12   6  200.58  137.90
  11   3  -7   39.08   34.90
 -11  -3   7   -4.08   26.20
  10   2  -6  486.36   81.03
 -10  -2   6  510.65  125.00
   9   1  -5   43.45   38.63
  -9  -1   5   44.61   17.19
  -9  -1   5   53.59   40.59
   8   0  -4 1946.15  122.14
  -8   0   4 1842.78   52.34
  -8   0   4 2139.32  138.19
   7  -1  -3  377.20   35.76
  -7   1   3  390.57   91.48
   7  -1  -3  311.16   42.62
   6  -2  -2 2757.26   75.23
  -6   2   2 2798.64   73.77
  -6   2   2 2834.32   94.09
   6  -2  -2 2633.62   83.90
  -5   3   1  294.08   10.94
  -5   3   1  314.93   32.58
   5  -3  -1  298.00   30.04
  -4   4   0 9883.15  160.75
  -4   4   0 9999.99  540.67
   4  -4   0 9555.44  180.33
  -3   5  -1  231.25   23.90
  -3   5  -1  256.90   20.86
  -3   5  -1  271.67   34.67
   3  -5   1  254.17   32.13
  -2   6  -2 2902.93   88.10
  -2   6  -2 2811.69   85.52
   2  -6   2 3243.42  107.20
  -1   7  -3  404.47   45.38
  -1   7  -3  421.41   68.62
   1  -7   3  458.06   66.79
   0   8  -4 1855.76   73.70
   0   8  -4 1772.04   73.76
   0  -8   4 1818.91  104.27
   1   9  -5   34.61   30.03
   1   9  -5   28.47   26.85
  -1  -9   5   25.35   17.46
   2  10  -6  532.36   94.75
  -2 -10   6  506.11   88.14
   3  11  -7   52.13   56.62
  -3 -11   7   14.29   38.67
  11   5  -7   13.31   24.07
 -11  -5   7   -8.63   23.19
  10   4  -6  379.87   71.86
 -10  -4   6  191.38   42.69
   9   3  -5   34.29   25.68
  -9  -3   5   43.87   15.08
  -9  -3   5   46.17   42.21
   8   2  -4 1634.61  134.58
  -8  -2   4 1544.34  151.11
  -8  -2   4 1688.90  135.86
   7   1  -3  402.90   42.21
  -7  -1   3  401.71   41.23
  -7  -1   3  451.77   52.05
   6   0  -2 5554.49  148.54
  -6   0   2 5167.28  158.49
  -6   0   2 5905.38  162.21
   5  -1  -1  890.50   41.40
  -5   1   1  831.32   23.82
  -5   1   1  868.63   35.97
   5  -1  -1  906.36   37.77
   4  -2   0 7598.79  126.70
  -4   2   0 7401.10  122.48
  -4   2   0 7694.08  146.47
   4  -2   0 7688.93  137.73
  -3   3  -1  230.12   26.45
  -3   3  -1  248.53   33.65
   3  -3   1  231.49   25.09
  -2   4  -2 6081.31  109.10
   2  -4   2 6150.21  123.01
  -1   5  -3  271.20   31.04
  -1   5  -3  243.70   24.07
   1  -5   3  277.94   37.59
   0   6  -4 3924.61  121.96
   0   6  -4 3812.17  109.12
   0  -6   4 3652.94  110.58
   1   7  -5  348.62   55.16
   1   7  -5  333.82   40.01
  -1  -7   5  341.56   67.61
   2   8  -6 1073.30  114.45
  -2  -8   6  841.00   85.88
   3   9  -7   21.72   36.03
  -3  -9   7    6.37   30.38
   4  10  -8  240.40   91.87
  -4 -10   8  168.75  110.33
  11   7  -7   24.15   28.63
 -11  -7   7   -1.17   20.75
  10   6  -6  304.23  103.02
 -10  -6   6   15.55   22.59
   9   5  -5   12.37   27.75
  -9  -5   5   23.31   36.01
   8   4  -4 1040.66   98.77
  -8  -4   4  985.39   80.57
  -8  -4   4  967.12  125.06
   7   3  -3  168.45   41.57
  -7  -3   3  186.36   28.12
  -7  -3   3  183.85   42.20
   6   2  -2 2896.57   89.99
  -6  -2   2 2860.27   88.80
  -6  -2   2 3113.51  102.01
   5   1  -1  956.32   37.55
  -5  -1   1  962.72   35.94
  -5  -1   1 1019.81   37.39
  -3   1  -1  754.65   27.89
  -3   1  -1  735.31   34.52
   3  -1   1  653.46   25.09
   3  -1   1  832.54   35.87
  -3   1  -1  755.18   22.96
   2  -2   2  469.39   20.82
  -2   2  -2  447.05   17.74
  -2   2  -2  449.56   26.09
   2  -2   2  438.59   21.86
   2  -2   2  473.39   30.44
  -2   2  -2  435.07   20.34
  -1   3  -3  285.81   24.97
  -1   3  -3  262.25   24.82
   1  -3   3  231.89   15.05
   1  -3   3  248.26   26.03
   0   4  -4 9469.47  169.53
   0  -4   4 9110.92  153.05
   0  -4   4 9325.52  190.41
   1   5  -5  334.80   40.29
   1   5  -5  344.75   24.37
  -1  -5   5  317.14   22.06
  -1  -5   5  337.71   69.79
   2   6  -6 2408.28  156.81
  -2  -6   6 2075.07  117.33
  -2  -6   6 2494.31  160.65
   3   7  -7  120.45   40.41
  -3  -7   7  151.55   47.51
   4   8  -8  481.62   87.59
  -4  -8   8  379.99  123.70
   5   9  -9   13.71   50.95
  -5  -9   9   15.65   20.09
  10   8  -6  190.81   84.38
 -10  -8   6   -5.15   21.52
   9   7  -5   19.60   32.34
  -9  -7   5   36.27   42.30
   8   6  -4  874.26  100.32
  -8  -6   4  864.28   82.07
   7   5  -3  196.49   58.74
  -7  -5   3  174.17   31.24
  -7  -5   3  166.99   72.34
   6   4  -2 2958.47  106.50
  -6  -4   2 2879.34   89.37
  -6  -4   2 2820.38   89.77
   5   3  -1  240.86   30.42
  -5  -3   1  228.53   28.71
   4   2   0 7607.84  135.89
  -4  -2   0 7654.64  134.16
   3   1   1  921.13   32.44
  -3  -1  -1  883.44   27.19
  -3  -1  -1  990.11   41.64
   3   1   1  932.94   28.42
   3   1   1  955.39   32.64
   1  -1   3  794.31   29.79
  -1   1  -3  712.64   42.50
   1  -1   3  750.99   23.45
   1  -1   3  782.01   29.37
   0   2  -4 6969.32  127.18
   0   2  -4 7478.09  124.85
   0  -2   4 7422.44  122.73
   0  -2   4 7340.19  137.98
   1   3  -5  269.17   31.06
   1   3  -5  235.56   13.27
  -1  -3   5  265.54    9.96
  -1  -3   5  255.86   32.44
   2   4  -6 2909.68  102.08
  -2  -4   6 2794.22   96.76
   3   5  -7  173.89   45.46
  -3  -5   7  177.02   72.84
   4   6  -8  849.94  100.81
  -4  -6   8  841.66  107.86
   5   7  -9   36.96   32.68
  -5  -7   9   13.44   20.05
   6   8 -10  160.91   69.44
  -6  -8  10   -1.47   23.52
   9   9  -5   34.45   32.50
  -9  -9   5    3.98   14.78
   8   8  -4  468.55   90.44
  -8  -8   4  117.13   82.23
   7   7  -3  113.97   38.26
  -7  -7   3  117.41   22.52
  -7  -7   3  128.07   56.64
   6   6  -2 2603.80  166.98
  -6  -6   2 2368.40  145.22
  -6  -6   2 2380.77  157.18
   5   5  -1  378.49   43.74
  -5  -5   1  350.65   33.35
  -5  -5   1  376.33   39.93
   4   4   0 9747.17  182.01
  -4  -4   0 9451.42  171.10
  -4  -4   0 9875.87  178.81
   3   3   1  240.59   26.55
  -3  -3  -1  251.84   25.38
  -3  -3  -1  269.43   29.54
   3   3   1  250.07   21.28
   2   2   2  445.21   22.68
  -2  -2  -2  438.89   20.95
  -2  -2  -2  416.38   27.11
   2   2   2  428.95   20.38
   2   2   2  515.69   13.81
   1   1  -5  967.03   44.05
   1   1  -5  857.98   20.42
   1   1  -5  848.26   23.27
  -1  -1   5  891.23   45.88
   2   2  -6 2933.05   93.75
  -2  -2   6 2850.60   89.04
   3   3  -7  174.69   37.15
  -3  -3   7  189.32   47.92
   4   4  -8 1070.57  112.49
  -4  -4   8  973.18  122.54
   5   5  -9   35.25   44.04
  -5  -5   9   19.26   12.00
   6   6 -10  260.50   94.62
  -6  -6  10   67.29   93.58
   7   7 -11    9.30   30.92
  -7  -7  11   -3.11   20.76
   8  10  -4  259.85   97.01
  -8 -10   4   17.29   25.19
   7   9  -3   36.79   48.90
  -7  -9   3   23.47   22.75
  -7  -9   3   14.59   23.02
   6   8  -2 1128.93  114.83
  -6  -8   2 1004.74   95.68
  -6  -8   2 1106.87  120.11
   5   7  -1  337.82   49.70
  -5  -7   1  373.02   35.90
  -5  -7   1  377.41   52.23
   4   6   0 3866.37  121.63
  -4  -6   0 4201.63  122.47
  -4  -6   0 4038.39  124.94
   3   5   1  268.29   30.88
  -3  -5  -1  300.51   36.51
  -3  -5  -1  291.19   31.58
   2   4   2 5487.14  112.38
   1   3   3  247.26   18.54
  -1  -3  -3  274.31   22.75
   1   3   3  234.44    9.89
   0  -2  -4 6354.53  106.02
  -1   1   5  973.21   46.69
   1  -1  -5  918.24   25.62
   1  -1  -5  949.13   29.91
  -1   1   5 1015.62   41.86
   1  -1  -5  866.25   31.31
   2   0  -6 5709.00  156.14
   2   0  -6 5070.79  134.32
   2   0  -6 5362.00  137.18
  -2   0   6 5388.87  156.64
   3   1  -7  382.08   39.59
   3   1  -7  339.93   24.17
   3   1  -7  361.57   24.14
  -3  -1   7  374.42   84.49
   4   2  -8 1570.73  130.93
  -4  -2   8 1533.58  126.68
   5   3  -9   20.41   39.56
  -5  -3   9    2.47   17.37
   6   4 -10  430.96   89.63
  -6  -4  10  266.70   93.84
   7   5 -11   35.71   46.57
  -7  -5  11    5.48   21.20
   7  11  -3   24.34   34.09
  -7 -11   3    1.27   16.11
   6  10  -2  510.17   83.93
  -6 -10   2  474.82   70.07
   5   9  -1   29.43   46.59
  -5  -9   1   32.99   23.18
  -5  -9   1   30.33   26.57
   4   8   0 1948.96  130.73
  -4  -8   0 2074.98  130.39
  -4  -8   0 2029.79  127.18
   3   7   1  389.54   44.06
  -3  -7  -1  391.78   39.72
  -3  -7  -1  388.94   46.79
   2   6   2 2787.04   96.35
  -2  -6  -2 2819.55   87.89
  -2  -6  -2 2764.10   78.36
   1   5   3  271.34   70.44
  -1  -5  -3  247.53   23.92
  -1  -5  -3  291.44   21.62
   1   5   3  254.21   15.77
   0   4   4 9467.48  178.16
   0  -4  -4 9818.51  165.92
  -1   3   5  265.59   24.06
  -1   3   5  272.08   26.12
   1  -3  -5  223.07   19.90
   1  -3  -5  261.81   20.51
  -2   2   6 3009.65   92.77
  -2   2   6 3070.04   89.63
  -2   2   6 2944.33   86.58
   3  -1  -7  406.42   39.27
  -3   1   7  397.05   54.84
   4   0  -8 1902.97  120.30
   4   0  -8 1784.28   35.60
  -4   0   8 1984.28  124.40
   5   1  -9   32.09   27.04
  -5  -1   9   40.35   27.59
   6   2 -10  530.08   77.23
  -6  -2  10  471.50   93.01
   7   3 -11   19.84   40.23
  -7  -3  11    4.65   14.43
   6  12  -2  290.59  100.77
   5  11  -1  106.11   50.69
  -5 -11   1   93.81   33.40
  -5 -11   1   37.94   60.77
   4  10   0  618.44   74.36
  -4 -10   0  615.47   68.61
  -4 -10   0  581.77  110.22
   3   9   1   15.92   29.56
  -3  -9  -1   26.96   54.32
  -3  -9  -1    5.47   14.73
   2   8   2 2259.82  154.28
  -2  -8  -2 2316.53  146.18
  -2  -8  -2 2278.94  165.09
   1   7   3  386.21   49.02
  -1  -7  -3  387.16   38.31
   0   6   4 3846.78  118.36
  -1   5   5  440.32   84.04
  -1   5   5  341.50   31.59
   1  -5  -5  389.35   33.22
  -2   4   6 3003.30  105.02
  -2   4   6 2966.70  104.39
   2  -4  -6 2862.27   85.54
  -3   3   7  166.21   59.77
   3  -3  -7  167.99   24.95
   4  -2  -8 1632.15  129.88
  -4   2   8 1651.09  128.74
  -4   2   8 1647.86  128.69
   5  -1  -9   38.08   27.67
   5  -1  -9   32.67   13.34
  -5   1   9   42.83   20.41
   6   0 -10  516.27   73.29
  -6   0  10  475.67  120.98
   7   1 -11   28.65   23.29
  -7  -1  11   18.18   25.86
   8   2 -12  147.64   74.08
  -8  -2  12    1.81   15.74
   5  13  -1   21.77   38.97
  -5 -13   1   29.55   29.85
  -5 -13   1   16.00   27.62
   4  12   0  553.00   96.80
  -4 -12   0  596.24   97.12
   3  11   1  109.09   41.01
  -3 -11  -1  108.74   47.52
  -3 -11  -1   84.22   45.17
   2  10   2  596.68   70.20
  -2 -10  -2  610.64   69.96
  -2 -10  -2  570.51   60.94
   1   9   3    8.37   19.70
  -1  -9  -3   13.48   25.61
   0   8   4 1847.85   73.09
   0   8   4 2016.74  130.56
   0  -8  -4 1924.25  120.63
  -1   7   5  393.37   90.51
  -1   7   5  361.56   38.16
   1  -7  -5  348.18   34.25
  -2   6   6 2570.57  157.19
  -2   6   6 2459.84  196.27
   2  -6  -6 2416.97  144.98
  -3   5   7  149.03   56.99
  -3   5   7  189.02   76.81
   3  -5  -7  177.21   30.85
   4  -4  -8 1093.78   92.40
  -4   4   8 1036.24   86.90
   4  -4  -8 1023.23   89.11
   5  -3  -9   27.28   17.27
  -5   3   9   17.91   11.69
   5  -3  -9   26.54   25.66
   6  -2 -10  487.16   75.08
  -7   1  11   -0.78   21.35
  -8   0  12   39.07   38.02
   4  14   0  137.53   84.54
  -4 -14   0  111.92   57.53
  -4 -14   0   15.02   34.06
   3  13   1   12.27   22.50
  -3 -13  -1   22.84   36.75
  -3 -13  -1    7.60   10.84
   2  12   2  691.94  104.86
  -2 -12  -2  730.22  103.61
  -2 -12  -2  528.00  114.07
   1  11   3   82.64   33.43
  -1 -11  -3   86.54   31.46
  -1 -11  -3   35.53   31.63
   0  10   4  562.21   89.24
   0  10   4  608.66   75.13
   0 -10  -4  615.00   70.72
  -1   9   5   39.74   18.14
  -1   9   5   40.57   28.86
   1  -9  -5   -2.01   16.39
  -2   8   6 1144.99  106.54
  -2   8   6 1166.54  121.25
   2  -8  -6 1032.46   99.79
  -3   7   7  120.85   45.62
  -3   7   7  135.13   69.65
   3  -7  -7  138.26   29.65
  -4   6   8  887.89  112.37
   4  -6  -8  858.57   87.93
  -5   5   9   28.87   23.56
   5  -5  -9   24.05   22.76
  -6   4  10  357.78   54.57
   6  -4 -10  372.37   63.19
   7  -3 -11   16.00   19.20
   8  -2 -12   52.54   27.88
   2  14   2   93.71   53.52
  -2 -14  -2  128.66   58.11
   1  13   3    9.14   13.37
  -1 -13  -3    6.09   24.49
   0  12   4  385.39   95.98
   0 -12  -4  509.18   79.19
  -1  11   5   64.03   33.50
   1 -11  -5   48.41   21.21
  -2  10   6  495.64  126.24
   2 -10  -6  460.00   67.97
  -3   9   7   27.85   27.03
  -4   8   8  338.93  125.73
   4  -8  -8  387.38   63.29
  -5   7   9   21.39   35.75
   5  -7  -9   23.27   21.45
  -6   6  10  144.80  137.03
   6  -6 -10  286.31   83.35
   7  -5 -11   13.39   27.63
   0 -14  -4  104.66   53.60
  -2  12   6  293.29   95.97
  -3  11   7   13.53   28.33
  -4  10   8  129.08  108.76
  -5   9   9    9.48   19.78
  -6   8  10   83.96   80.83
  -7   7  11    8.58   15.49
 -10  10   4   87.77   62.94
  10 -10  -4   95.27   55.36
  -9  11   3   20.92   24.85
   9 -11  -3    2.25   26.75
  -8  12   2  133.06   74.01
   8 -12  -2  170.92   90.27
  -7  13   1   20.88   30.09
   7 -13  -1   11.87   27.50
 -12   6   6   93.41   73.47
  12  -6  -6  135.96   76.97
 -11   7   5   14.63   20.70
  11  -7  -5   10.28   24.78
 -10   8   4  193.20   96.28
  10  -8  -4  232.95   83.20
  -9   9   3   20.93   23.44
   9  -9  -3   18.95   30.45
  -8  10   2  225.52   97.51
   8 -10  -2  270.08   75.78
  -7  11   1   56.30   37.87
   7 -11  -1   29.34   43.81
  -6  12   0  278.91  130.12
   6 -12   0  306.39  106.18
  -5  13  -1   27.16   30.49
   5 -13   1   22.03   29.51
  -4  14  -2   77.93   54.80
   4 -14   2   94.00   60.00
 -12   4   6  146.22   85.38
  12  -4  -6  216.32   78.14
 -11   5   5   41.45   37.80
  11  -5  -5   28.62   37.85
 -10   6   4  377.74  114.37
  10  -6  -4  355.60   71.07
  -9   7   3   35.48   28.06
   9  -7  -3   43.64   39.83
  -8   8   2  591.16  160.26
   8  -8  -2  559.09   83.70
  -7   9   1   65.27   36.30
   7  -9  -1   29.81   41.67
  -6  10   0  560.79  148.54
   6 -10   0  483.23   82.38
  -5  11  -1   70.26   31.52
   5 -11   1   69.95   45.27
  -4  12  -2  377.20  172.22
   4 -12   2  449.35   83.74
  -3  13  -3   30.21   29.28
   3 -13   3   29.55   31.14
   2 -14   4   80.69   63.24
  13  -1  -7   -4.03   24.73
 -12   2   6  195.91  105.71
  12  -2  -6  274.75   91.21
 -11   3   5   37.20   18.42
  11  -3  -5   58.23   38.39
 -10   4   4  491.26  125.93
  10  -4  -4  496.95   74.29
  -9   5   3   30.66   17.62
   9  -5  -3   56.33   36.06
  -8   6   2 1126.54  169.91
   8  -6  -2 1105.05  112.99
  -7   7   1  239.09   79.68
   7  -7  -1  211.49   49.71
  -6   8   0 1469.93  105.32
   6  -8   0 1356.41  134.45
  -5   9  -1   19.06   14.79
  -5   9  -1   37.40   23.28
   5  -9   1   35.45   41.83
  -4  10  -2  512.40   58.19
  -4  10  -2  535.86  151.24
   4 -10   2  574.06   95.87
  -3  11  -3   57.46   26.70
  -3  11  -3   61.28   30.34
   3 -11   3   81.81   49.90
  -2  12  -4  453.21   84.36
  -2  12  -4  334.61  120.10
   2 -12   4  439.90  144.85
  -1  13  -5   25.59   31.43
   1 -13   5   -1.52   16.09
  13   1  -7    3.47   24.24
  12   0  -6  354.82   54.33
 -11   1   5   58.51   21.19
  11  -1  -5   49.62   29.38
 -10   2   4  507.19   92.79
  10  -2  -4  433.29   59.10
  -9   3   3    4.48   14.23
   9  -3  -3   18.04   46.65
  -8   4   2 1640.02  169.63
   8  -4  -2 1750.80  149.15
  -7   5   1  413.60  101.50
   7  -5  -1  395.55   52.20
  -6   6   0 2636.29  147.67
  -6   6   0 3060.18  194.91
   6  -6   0 2855.10  180.53
  -5   7  -1  350.28   24.40
  -5   7  -1  393.98   53.57
   5  -7   1  354.41   51.16
  -4   8  -2 1524.48  121.33
  -4   8  -2 1591.69  132.49
   4  -8   2 1657.91  143.61
  -3   9  -3   17.49   29.27
  -3   9  -3   -1.26   18.88
   3  -9   3    0.84   34.61
  -2  10  -4  480.50   63.09
  -2  10  -4  478.52   97.27
   2 -10   4  592.03   92.09
  -1  11  -5   64.63   39.00
  -1  11  -5   58.12   29.66
   1 -11   5   78.88   43.69
   0  12  -6  271.77   86.08
   0 -12   6  225.22  140.09
   1  13  -7   25.72   40.62
  -1 -13   7   10.84   23.21
 -12  -2   6  254.77   83.86
  11   1  -5   72.00   33.07
 -11  -1   5   60.06   26.62
  10   0  -4  612.43   69.34
 -10   0   4  535.87   91.66
  10   0  -4  609.62   80.93
   9  -1  -3   18.86   16.32
  -9   1   3   24.93   14.11
   9  -1  -3   39.61   41.98
   8  -2  -2 2149.97  125.80
  -8   2   2 2235.11  151.23
   8  -2  -2 2213.89  139.33
   7  -3  -1  365.92   22.44
  -7   3   1  381.98   16.78
  -7   3   1  401.97  103.38
   7  -3  -1  367.87   38.88
   6  -4   0 4072.60  107.86
  -6   4   0 3789.06   98.85
  -6   4   0 4019.23  138.26
   6  -4   0 3948.94  122.32
  -5   5  -1  378.96   34.71
  -5   5  -1  399.18   30.87
  -5   5  -1  418.26   84.81
   5  -5   1  361.11   40.76
  -4   6  -2 2905.92   88.76
  -4   6  -2 2950.38  144.06
   4  -6   2 2806.00  101.36
  -3   7  -3  197.19   31.97
  -3   7  -3  218.92   75.82
   3  -7   3  208.63   46.95
  -2   8  -4 1640.20  132.21
  -2   8  -4 1529.60  142.43
   2  -8   4 1611.84  147.30
  -1   9  -5   40.88   41.03
  -1   9  -5   40.84   26.43
   1  -9   5   31.70   27.88
   0  10  -6  517.25   82.38
   0 -10   6  428.92  171.05
   1  11  -7   60.74   44.84
  -1 -11   7   15.54   19.06
   2  12  -8  155.97   86.44
  -2 -12   8   92.50   80.50
  12   4  -6  243.88   50.07
 -12  -4   6   16.37   23.17
  11   3  -5   46.96   33.64
 -11  -3   5   28.99   38.71
  10   2  -4  536.23   69.92
 -10  -2   4  472.57   98.53
 -10  -2   4  569.18   75.63
   9   1  -3   29.07   38.41
  -9  -1   3   27.68   20.36
  -9  -1   3   25.16   33.92
   8   0  -2 3073.40  194.32
  -8   0   2 2832.28  171.99
   8   0  -2 2986.77  185.04
   7  -1  -1  898.72   69.34
  -7   1   1  892.58   65.02
   7  -1  -1  897.20   62.03
   6  -2   0 5076.11  132.44
  -6   2   0 5147.12  131.60
  -6   2   0 4784.88  143.01
   6  -2   0 5059.85  144.67
   5  -3   1  291.78   20.41
  -5   3  -1  286.25   18.88
  -5   3  -1  299.11   38.65
   5  -3   1  298.00   34.98
  -4   4  -2 3887.15  121.75
   4  -4   2 3861.07  116.75
  -3   5  -3    6.48   17.31
  -3   5  -3   16.17   16.51
   3  -5   3   20.05   21.69
  -2   6  -4 3082.96   98.48
  -2   6  -4 2889.86   98.15
   2  -6   4 2969.20  105.61
  -1   7  -5  390.22   50.56
  -1   7  -5  361.25   38.81
   1  -7   5  366.51   77.95
   0   8  -6 1422.16  137.36
   0   8  -6 1313.08  120.54
   0  -8   6 1281.40  136.98
   1   9  -7   48.59   45.16
  -1  -9   7   36.92   39.75
   2  10  -8  287.10   86.34
  -2 -10   8  166.06  105.91
   3  11  -9    2.03   30.41
  -3 -11   9   13.88   17.10
  12   6  -6  125.83   69.20
 -12  -6   6   -1.78   24.60
  11   5  -5   38.81   38.73
 -11  -5   5    1.30   22.71
  10   4  -4  485.49   75.51
 -10  -4   4  427.90   79.55
 -10  -4   4  470.71  106.16
   9   3  -3   25.69   38.66
  -9  -3   3    4.48   28.88
  -9  -3   3    9.49   18.43
   8   2  -2 2405.20  151.08
  -8  -2   2 2169.96  132.93
  -8  -2   2 2417.45  147.31
   7   1  -1  982.87   39.83
  -7  -1   1  972.59   41.22
  -7  -1   1 1044.01   48.26
   6   0   0 7243.51  194.47
  -6   0   0 7322.84   87.37
   6   0   0 7292.17   82.52
   5  -1   1  881.46   48.58
  -5   1  -1  884.19   43.62
   5  -1   1  896.16   38.30
   4  -2   2 5607.17  104.68
  -4   2  -2 5658.23  112.06
   4  -2   2 5493.13  102.94
   3  -3   3  110.30   29.21
   3  -3   3  113.44   28.80
  -2   4  -4 4242.60  122.33
  -2   4  -4 4027.84  115.39
   2  -4   4 3888.63  114.57
  -1   5  -5  418.30   42.83
  -1   5  -5  376.36   37.48
   1  -5   5  354.98   49.23
   0   6  -6 2937.75  187.26
   0   6  -6 2785.96  166.33
   0  -6   6 2611.37  185.01
   1   7  -7  226.89   54.42
  -1  -7   7  183.29   76.36
   2   8  -8  604.55   97.87
  -2  -8   8  129.51   23.77
   3   9  -9   37.60   33.05
  -3  -9   9    4.62   19.06
   4  10 -10  121.09   66.16
  -4 -10  10   22.90   39.01
  11   7  -5   38.38   52.17
 -11  -7   5    8.21   27.93
  10   6  -4  390.44   77.31
   9   5  -3    5.19   27.93
  -9  -5   3   15.15   22.58
  -9  -5   3   22.81   29.47
   8   4  -2 1582.24  132.41
  -8  -4   2 1513.34  124.27
  -8  -4   2 1615.24  130.00
   7   3  -1  422.99   54.57
  -7  -3   1  410.91   42.12
  -7  -3   1  415.65   45.70
  -6  -2   0 5565.63  157.48
  -6  -2   0 5537.64  171.77
  -5  -1  -1 1021.26   44.42
   4   0   2 7383.36  141.83
  -4   0  -2 7185.56  133.90
   4   0   2 7617.54  131.02
   3  -1   3  241.24   41.63
  -3   1  -3  224.62   28.43
   3  -1   3  219.38   18.71
  -3   1  -3  242.20   19.51
   2  -2   4 5537.73  115.16
  -2   2  -4 5644.16  104.76
   2  -2   4 5552.28  103.11
  -1   3  -5  336.54   37.94
  -1   3  -5  297.95   47.47
   1  -3   5  242.35   14.67
   1  -3   5  276.12   52.13
   0   4  -6 4133.65  131.98
   0   4  -6 3824.60  104.69
   0  -4   6 3492.55   91.71
   0  -4   6 3686.23  122.84
   1   5  -7  377.18   47.31
   1   5  -7  335.94   11.52
  -1  -5   7  342.67   13.15
  -1  -5   7  368.95  123.84
   2   6  -8 1120.03  114.83
  -2  -6   8 1008.76  135.17
   3   7  -9   15.45   33.79
  -3  -7   9   38.91   31.39
   4   8 -10  210.88   86.80
  -4  -8  10   86.80   61.80
  10   8  -4  246.55   85.30
 -10  -8   4    2.98   15.92
   9   7  -3   30.08   43.21
  -9  -7   3   28.05   21.93
  -9  -7   3   10.84   23.34
   8   6  -2 1110.35  122.86
  -8  -6   2  967.33   96.11
  -8  -6   2 1036.55  101.46
   7   5  -1  380.39   54.40
  -7  -5   1  325.20   31.87
  -7  -5   1  377.61   57.17
   6   4   0 4034.04  124.08
  -6  -4   0 3815.69  114.77
  -6  -4   0 3837.79  114.29
   5   3   1  312.90   71.19
  -5  -3  -1  324.37   37.03
  -5  -3  -1  278.59   33.61
   4   2   2 5616.45  117.66
  -4  -2  -2 5657.00  108.86
  -4  -2  -2 6217.78  111.07
   4   2   2 5892.98  106.65
   3   1   3  233.28   32.30
  -3  -1  -3  224.23   27.21
   3   1   3  168.58   14.21
   2   0   4 7804.62  142.77
   2   0   4 6776.54  113.56
   1  -1   5  895.30   35.70
  -1   1  -5  829.34   30.82
   1  -1   5  919.27   28.69
   1  -1   5  875.41   31.32
  -1   1  -5  810.06   25.72
   0   2  -6 5830.29  165.68
   0   2  -6 4868.47  126.15
   0  -2   6 5195.70  131.42
   0  -2   6 5264.87  146.87
   1   3  -7  455.26   57.07
   1   3  -7  362.29   32.93
  -1  -3   7  396.22   51.41
   2   4  -8 1652.25  141.10
  -2  -4   8 1561.67  134.27
   3   5  -9   34.07   45.31
  -3  -5   9   26.26   21.28
   4   6 -10  395.94   84.69
  -4  -6  10  314.33   95.80
   5   7 -11   18.91   31.94
  -5  -7  11   15.68   28.93
  10  10  -4  113.30   59.90
 -10 -10   4    6.27   14.55
   9   9  -3   23.50   51.23
  -9  -9   3    4.63   10.73
   8   8  -2  571.15   86.22
  -8  -8   2  453.15   52.08
  -8  -8   2  512.76   94.13
   7   7  -1  191.33   50.46
  -7  -7   1  187.22   37.38
  -7  -7   1   12.89   14.61
   6   6   0 2861.35  178.90
  -6  -6   0 2614.30  156.76
  -6  -6   0 2800.80  188.99
   5   5   1  364.64   41.73
  -5  -5  -1  317.31   33.96
  -5  -5  -1  355.11   36.25
   4   4   2 3907.26  118.95
  -4  -4  -2 3845.86  110.41
  -4  -4  -2 3698.11  100.19
   4   4   2 3689.54  102.82
   3   3   3  116.49   54.36
  -3  -3  -3   96.29   20.38
  -3  -3  -3  100.71    9.87
   3   3   3   94.93   12.63
   2   2   4 5461.39  120.23
  -2  -2  -4 5757.89  108.90
   1   1   5  952.47   35.02
  -1  -1  -5  937.87   34.22
   1   1   5  896.39   25.59
  -1  -1  -5  765.10   18.70
   0   0   6 7357.84  170.49
   0   0  -6 7216.36  131.57
   0   0   6 7175.70  132.09
   1   1  -7 1048.65   51.79
   1   1  -7  867.03   49.38
   1   1  -7  818.87   48.80
  -1  -1   7  951.00   35.62
   2   2  -8 2366.29  150.01
   2   2  -8 2025.31  113.63
   2   2  -8 2003.27  113.37
  -2  -2   8 2151.04  140.51
   3   3  -9    4.99   32.41
  -3  -3   9    4.80   16.01
   4   4 -10  490.14   77.91
  -4  -4  10  410.59  106.29
   5   5 -11   34.55   42.91
  -5  -5  11    3.89   17.96
   6   6 -12  120.08   61.08
  -6  -6  12   17.02   15.94
   9  11  -3    8.97   43.95
  -9 -11   3   -1.11   19.96
   8  10  -2  254.91   78.78
  -8 -10   2   11.89   41.68
   7   9  -1   44.19   45.47
  -7  -9   1   32.85   22.29
  -7  -9   1   -0.63   13.36
   6   8   0 1433.57  145.44
  -6  -8   0 1377.53  127.08
  -6  -8   0 1353.55  133.98
   5   7   1  346.55   42.85
  -5  -7  -1  371.47   42.58
  -5  -7  -1  374.71   38.06
   4   6   2 2845.83  123.01
  -4  -6  -2 3014.37   99.27
  -4  -6  -2 2873.58   85.69
   3   5   3   21.02   16.54
  -3  -5  -3   31.79   20.47
  -3  -5  -3   19.48   11.60
   3   5   3   15.64    9.78
   2   4   4 3646.47  109.48
  -2  -4  -4 3939.67  114.99
  -2  -4  -4 4307.38  106.14
   2   4   4 3473.89   85.84
   1   3   5  253.16   62.78
  -1  -3  -5  242.90   26.27
  -1  -3  -5  179.86    6.88
   0   2   6 5411.68  157.95
   0  -2  -6 5546.34  150.80
   0   2   6 4793.67  126.46
   0  -2  -6 4608.36  120.92
  -1   1   7  959.68   47.29
   1  -1  -7  982.48   33.78
  -1   1   7  982.32   33.61
   2   0  -8 3220.03  193.84
   2   0  -8 2870.53  165.41
  -2   0   8 2939.86  174.80
   3   1  -9   33.93   44.30
  -3  -1   9   17.36   18.92
   4   2 -10  508.68   68.29
  -4  -2  10  506.94  104.96
   5   3 -11   31.91   29.88
  -5  -3  11    2.46   13.89
   6   4 -12  223.85   92.48
  -6  -4  12   60.73   65.71
   8  12  -2  159.17   83.93
  -8 -12   2   -3.82   18.09
   7  11  -1   42.90   43.10
  -7 -11   1   47.36   35.71
  -7 -11   1   10.42   26.33
   6  10   0  499.04   76.48
  -6 -10   0  517.24   70.67
  -6 -10   0  467.75   72.95
   5   9   1   27.64   43.31
  -5  -9  -1   35.16   23.59
  -5  -9  -1   11.21   25.50
   4   8   2 1575.14  129.95
  -4  -8  -2 1708.16  140.19
  -4  -8  -2 1598.03  131.75
   3   7   3  192.71   76.14
  -3  -7  -3  203.77   37.23
  -3  -7  -3  186.52   54.28
   2   6   4 2721.60   97.50
  -2  -6  -4 2919.78   97.48
  -2  -6  -4 2798.79   77.81
   2   6   4 2703.07   72.88
   1   5   5  354.95   38.86
  -1  -5  -5  372.87   39.50
  -1  -5  -5  142.88   15.19
   0   4   6 4010.76  130.27
   0  -4  -6 4051.60  123.87
   0  -4  -6 3640.25   95.70
  -1   3   7  400.50   47.04
   1  -3  -7  368.59   34.37
   1  -3  -7  372.57   29.94
  -2   2   8 2301.81  153.53
   2  -2  -8 2266.26  137.00
  -2   2   8 2285.20  140.93
   3  -1  -9   17.55   24.00
   3  -1  -9   17.83   21.00
  -3   1   9    4.06   10.04
   4   0 -10  577.08   68.38
  -4   0  10  544.68  125.65
   5   1 -11   80.27   39.18
  -5  -1  11   43.04   49.03
   6   2 -12  305.26   99.55
   7  13  -1   27.76   40.43
  -7 -13   1    4.11   13.50
   6  12   0  381.03   68.54
  -6 -12   0   -0.54   14.60
   5  11   1   87.76   65.06
  -5 -11  -1   88.39   39.97
  -5 -11  -1    4.72   22.21
   4  10   2  493.62  146.82
  -4 -10  -2  523.72   68.16
  -4 -10  -2  505.22   67.18
   3   9   3    1.73   16.89
  -3  -9  -3  -11.41   30.15
  -3  -9  -3   -3.73   13.69
   2   8   4 1564.16  143.31
  -2  -8  -4 1634.01  134.83
  -2  -8  -4 1568.78  119.66
   1   7   5  365.63   91.54
  -1  -7  -5  384.87   38.56
  -1  -7  -5  393.26   23.23
   0   6   6 2751.71  164.25
   0  -6  -6 2932.65  182.01
  -1   5   7  350.47   30.73
   1  -5  -7  382.18   40.31
   1  -5  -7  352.93   26.71
  -2   4   8 1567.51  143.87
   2  -4  -8 1631.94  132.06
   2  -4  -8 1549.85  120.13
   3  -3  -9    6.06   19.94
   3  -3  -9   -3.19   18.29
   3  -3  -9   10.22   23.23
   4  -2 -10  545.80   67.21
   4  -2 -10  492.37   52.32
  -4   2  10  527.79   60.78
   5  -1 -11   70.05   30.20
  -5   1  11   -2.01   16.46
   6   0 -12  303.19   90.47
  -6   0  12    0.21   13.91
   7   1 -13    7.97   20.64
  -7  -1  13    6.46   15.04
   5  13   1   23.07   29.10
  -5 -13  -1   28.58   42.75
   4  12   2  412.20  156.20
  -4 -12  -2  493.75   81.72
  -4 -12  -2  164.79   36.75
   3  11   3   68.76   34.11
  -3 -11  -3   50.26   36.05
  -3 -11  -3   57.12   35.51
   2  10   4  495.91   75.37
  -2 -10  -4  522.25   73.23
  -2 -10  -4  461.80   66.66
   1   9   5   43.46   18.82
  -1  -9  -5   34.30   31.72
  -1  -9  -5   29.20   18.36
   0   8   6 1334.13  129.18
   0  -8  -6 1486.08   67.09
   0  -8  -6  783.93   74.27
  -1   7   7  219.83   66.61
   1  -7  -7  230.95   46.77
  -2   6   8 1090.04  145.04
   2  -6  -8 1104.48  108.42
   2  -6  -8 1017.78   95.13
  -3   5   9   34.96   17.46
   3  -5  -9   20.47   30.46
   3  -5  -9   20.26   18.46
   4  -4 -10  481.76   72.51
   4  -4 -10  464.99   68.79
   4  -4 -10  457.21   66.76
   5  -3 -11   56.48   25.28
   5  -3 -11   47.97   23.21
   4  14   2   86.94   57.27
  -4 -14  -2  113.54   65.34
   3  13   3   -1.07   21.10
  -3 -13  -3   25.18   41.92
   2  12   4  399.62   90.39
  -2 -12  -4  530.30   92.55
   1  11   5   62.07   27.50
  -1 -11  -5   76.92   40.52
   0  10   6  413.95  112.94
   0 -10  -6  573.37   80.07
  -1   9   7   19.48   12.87
   1  -9  -7   60.27   54.85
  -2   8   8  480.06   97.24
   4  -6 -10  408.48   74.14
   5  -5 -11   31.53   22.25
   5  -5 -11   30.19   19.17
   2  14   4   55.92   33.91
  -2 -14  -4  130.27   69.24
  -1 -13  -5   19.59   35.83
   0 -12  -6  322.98  101.88
   1 -11  -7   51.89   49.51
   2 -10  -8  257.84   70.63
   3  -9  -9   20.13   27.06
   4  -8 -10  222.76   72.16
   5  -7 -11   40.69   32.08
   1 -13  -7    7.75   30.54
   2 -12  -8  158.13   79.26
   3 -11  -9   23.01   36.97
   4 -10 -10  116.52   63.42
 -11   9   3   13.66   20.80
  11  -9  -3   15.39   27.19
 -10  10   2  125.06   70.70
  10 -10  -2  192.26   93.85
  -9  11   1   30.36   37.35
   9 -11  -1    1.59   28.99
  -8  12   0  147.20   93.80
   8 -12   0  172.57   90.78
  -7  13  -1   14.15   20.66
   7 -13   1   20.89   32.21
 -13   5   5    9.64   15.75
  13  -5  -5    1.41   26.69
 -12   6   4  152.63   74.11
  12  -6  -4  219.64   79.14
 -11   7   3   32.78   27.31
  11  -7  -3   22.62   41.28
 -10   8   2  221.18   90.01
  10  -8  -2  249.31   75.29
  -9   9   1   25.87   19.12
   9  -9  -1   11.87   44.34
  -8  10   0  341.94  117.54
   8 -10   0  298.46   86.47
  -7  11  -1   19.78   18.47
   7 -11   1   62.60   50.91
  -6  12  -2  268.81  122.10
   6 -12   2  293.01  104.98
  -5  13  -3   28.70   26.48
   5 -13   3   -2.25   29.15
 -13   3   5   26.63   18.96
  13  -3  -5   23.21   44.24
 -12   4   4  311.54  133.20
  12  -4  -4  317.22  100.78
 -11   5   3   42.97   27.67
  11  -5  -3   51.56   33.47
 -10   6   2  488.03  143.16
  10  -6  -2  508.04   77.11
  -9   7   1   43.33   25.73
   9  -7  -1   28.19   50.32
  -8   8   0  621.43  177.00
   8  -8   0  595.55   77.82
  -7   9  -1   37.15   24.38
   7  -9   1   69.46   47.47
  -6  10  -2  515.85  158.44
   6 -10   2  546.09   84.89
  -5  11  -3   41.81   30.47
   5 -11   3   68.03   57.78
  -4  12  -4  258.94  137.91
   4 -12   4  345.22   76.11
  -3  13  -5   13.66   19.79
   3 -13   5   12.04   21.31
 -13   1   5   22.14   17.92
  13  -1  -5   16.21   24.83
 -12   2   4  421.50  128.90
  12  -2  -4  431.75   74.05
 -11   3   3   79.88   40.19
  11  -3  -3   72.58   42.81
 -10   4   2  537.84  136.79
  10  -4  -2  514.78   71.92
  -9   5   1   48.28   35.48
   9  -5  -1   44.61   39.66
  -8   6   0 1458.82  133.60
   8  -6   0 1391.44  139.68
  -7   7  -1  256.45   69.01
   7  -7   1  188.63   48.87
  -6   8  -2  986.57   89.98
  -6   8  -2 1139.49  129.14
   6  -8   2 1011.22  109.36
  -5   9  -3   17.89   19.58
  -5   9  -3   44.93   30.54
   5  -9   3   12.32   30.56
  -4  10  -4  449.90   70.09
  -4  10  -4  434.38  140.64
   4 -10   4  475.31   98.57
  -3  11  -5   45.14   37.08
  -3  11  -5   31.48   24.94
   3 -11   5   70.02   54.51
  -2  12  -6  280.10   89.17
   2 -12   6  231.65  129.76
  -1  13  -7   15.56   33.46
   1 -13   7    2.12   13.88
  13   1  -5   14.15   34.95
 -12   0   4  473.59  132.28
  12   0  -4  533.26   86.35
 -11   1   3   97.47   31.67
  11  -1  -3   83.64   32.56
 -10   2   2  552.94   92.60
  10  -2  -2  595.28   68.90
   9  -3  -1    7.16    8.03
  -9   3   1   23.34   20.40
   9  -3  -1   13.20   25.64
   8  -4   0 1885.74  144.19
  -8   4   0 1863.49  201.49
   8  -4   0 1967.91   68.82
  -7   5  -1  331.68   16.90
  -7   5  -1  424.86  120.93
   7  -5   1  329.96   42.56
  -6   6  -2 2601.58  152.63
  -6   6  -2 2658.19  174.10
   6  -6   2 2308.49  150.53
  -5   7  -3  187.36   43.56
  -5   7  -3  190.25   68.99
   5  -7   3  180.39   47.31
  -4   8  -4  989.32   89.51
  -4   8  -4 1053.97  142.26
   4  -8   4 1131.46  117.75
  -3   9  -5   20.36   27.15
  -3   9  -5   28.01   14.97
   3  -9   5   18.11   29.13
  -2  10  -6  504.56   78.37
  -2  10  -6  449.76   97.17
   2 -10   6  473.45  173.19
  -1  11  -7   42.91   44.19
   1 -11   7   14.87   23.47
   0  12  -8  154.47   83.29
   0 -12   8  109.17   89.02
 -13  -3   5    1.76   23.21
  12   2  -4  403.67  121.64
 -12  -2   4  412.42  117.76
  11   1  -3  110.10   50.38
 -11  -1   3   89.12   32.23
  11   1  -3  107.63   36.79
  10   0  -2  662.73   78.47
 -10   0   2  637.55   92.61
  10   0  -2  623.82   73.48
   9  -1  -1   30.47   14.59
  -9   1   1   22.08   24.10
   9  -1  -1   11.22   21.43
   8  -2   0 2802.81  175.72
  -8   2   0 2806.19  178.81
   8  -2   0 2916.45  178.44
   7  -3   1  400.50   30.67
  -7   3  -1  409.50   58.93
   7  -3   1  414.84   39.36
   6  -4   2 2907.21   91.54
  -6   4  -2 2993.00  100.27
   6  -4   2 2750.62   94.40
  -5   5  -3  199.21   33.79
  -5   5  -3  242.35   84.50
   5  -5   3  178.15   39.41
  -4   6  -4 2414.55  147.37
  -4   6  -4 2428.38  166.48
   4  -6   4 2372.04  154.90
  -3   7  -5  150.19   34.06
  -3   7  -5  185.62   80.71
   3  -7   5  176.33   53.94
  -2   8  -6 1122.75  116.34
  -2   8  -6 1041.23  118.57
   2  -8   6 1073.32  179.82
  -1   9  -7   51.18   44.49
   1  -9   7   18.62   18.00
   0  10  -8  295.34   79.96
   0 -10   8  226.53   98.74
   1  11  -9   11.21   40.51
  -1 -11   9    7.65    9.83
  13   5  -5   20.04   31.35
 -13  -5   5    1.26   21.86
  12   4  -4  373.43   61.50
 -12  -4   4  306.37  103.22
  11   3  -3   86.66   43.13
 -11  -3   3   73.68   29.23
 -11  -3   3   84.02   39.00
  10   2  -2  632.30   85.19
 -10  -2   2  622.46  105.65
 -10  -2   2  684.28   75.74
   9   1  -1   29.28   34.44
  -9  -1   1   24.43   33.70
   9   1  -1   39.78   41.00
   8   0   0 3999.75  248.84
  -8   0   0 4271.66   91.95
   8   0   0 4055.72  238.74
   7  -1   1  924.79   85.35
  -7   1  -1  897.32   63.80
   7  -1   1  944.28   43.30
   6  -2   2 2842.58   95.92
  -6   2  -2 2782.02   91.15
   6  -2   2 2803.35   89.98
   5  -3   3   30.84   17.63
  -5   3  -3   27.00   21.27
   5  -3   3    5.08   18.71
   4  -4   4 3329.15  100.35
  -4   4  -4 3104.77   98.36
   4  -4   4 3375.03  110.97
  -3   5  -5  190.68   33.99
  -3   5  -5  190.20   28.65
   3  -5   5  192.89   41.86
  -2   6  -6 2663.85  167.34
  -2   6  -6 2468.17  148.90
   2  -6   6 2393.05  150.84
  -1   7  -7  223.39   45.39
  -1   7  -7  209.90   33.02
   1  -7   7  188.23   78.92
   0   8  -8  576.92   77.05
   0  -8   8  444.83  155.85
   1   9  -9    6.33   34.78
  -1  -9   9   -0.56   23.98
   2  10 -10  137.51   70.60
  12   6  -4  193.06   77.88
 -12  -6   4   -3.54   24.83
  11   5  -3   56.05   41.26
 -11  -5   3   54.81   23.63
 -11  -5   3    8.29   16.20
  10   4  -2  526.72   69.13
 -10  -4   2  534.07   71.05
 -10  -4   2  537.37   69.96
   9   3  -1    7.13   21.09
  -9  -3   1   27.66   33.18
  -9  -3   1    5.13   13.38
   8   2   0 3150.00  197.46
  -8  -2   0 3154.39  191.48
  -8  -2   0 3085.95  182.98
   7   1   1  985.84   86.72
  -7  -1  -1  998.36   53.58
   7   1   1  996.55   42.34
   6   0   2 5281.06  163.17
  -6   0  -2 5554.39  156.98
   6   0   2 5554.58  150.36
   5  -1   3  248.40   43.71
  -5   1  -3  267.95   38.66
   5  -1   3  241.83   27.06
   4  -2   4 3622.16  103.19
  -3   3  -5   22.97   20.69
   3  -3   5   13.61   31.16
  -2   4  -6 3209.57  108.16
  -2   4  -6 2954.69  106.11
   2  -4   6 2719.63   89.56
  -1   5  -7  374.62   50.08
  -1   5  -7  381.73   45.97
   1  -5   7  302.00  103.24
   0   6  -8 1506.34   71.96
   0  -6   8 1291.52  120.49
   1   7  -9   48.67   51.06
  -1  -7   9   32.99   36.50
   2   8 -10  295.61   81.83
  -2  -8  10  183.73  111.01
   3   9 -11   15.09   33.84
  -3  -9  11   11.96   24.03
  11   7  -3   30.18   24.21
 -11  -7   3    8.47   15.04
  10   6  -2  582.28   95.86
 -10  -6   2  438.68   69.01
   9   5  -1   16.85   29.10
  -9  -5   1   32.75   23.24
  -9  -5   1    1.99   12.75
   8   4   0 1879.62  125.61
  -8  -4   0 1856.64   64.60
  -8  -4   0 1902.00  128.70
   7   3   1  438.15   66.73
  -7  -3  -1  348.52   44.08
  -7  -3  -1  369.71   30.09
  -6  -2  -2 2749.59   88.11
   6   2   2 2961.79   86.63
   5   1   3  283.40   27.53
  -5  -1  -3  262.73   30.53
   5   1   3  251.02   18.37
   5   1   3  298.06   21.66
   4   0   4 9558.50  206.15
  -4   0  -4 9843.38  183.75
   4   0   4 9357.63  159.66
  -4   0  -4 9043.58  152.04
   3  -1   5  254.93   35.85
  -3   1  -5  251.16   30.46
   3  -1   5  240.95   26.09
   2  -2   6 2911.76   97.25
  -2   2  -6 2754.10   85.78
   2  -2   6 2598.46  101.53
  -1   3  -7  422.67   43.69
  -1   3  -7  393.10   33.73
   1  -3   7  387.96   60.90
   0   4  -8 1897.06  129.35
   0   4  -8 1884.96  116.71
   0  -4   8 1815.71   68.34
   1   5  -9   47.17   37.68
  -1  -5   9   42.27   32.59
   2   6 -10  499.75   81.99
  -2  -6  10  304.77   74.32
   3   7 -11   18.56   35.36
  -3  -7  11    8.32   11.90
  11   9  -3    6.03   28.50
 -11  -9   3   20.55   27.72
  10   8  -2  263.26   84.35
   9   7  -1   49.66   44.24
  -9  -7   1   38.12   34.44
  -9  -7   1   17.26   25.56
   8   6   0 1363.99  139.94
  -8  -6   0 1167.57  110.47
  -8  -6   0 1342.16  123.56
   7   5   1  384.05   44.33
  -7  -5  -1  288.81   35.14
  -7  -5  -1  385.94   37.54
   6   4   2 2907.07  112.87
  -6  -4  -2 2572.23   85.27
  -6  -4  -2 2811.05  120.82
   5   3   3   17.10   18.79
  -5  -3  -3   22.63   22.87
  -5  -3  -3   -0.31    5.84
   5   3   3   14.71   12.66
   4   2   4 3648.20  114.87
  -4  -2  -4 3638.49  108.22
   3   1   5  249.30   71.45
  -3  -1  -5  294.76   34.21
  -3  -1  -5  277.42   11.75
   2   0   6 5282.89  162.17
  -2   0  -6 5215.74  144.67
   2   0   6 5209.13  135.97
   1  -1   7  922.87  101.87
  -1   1  -7  851.49   56.02
   1  -1   7  954.75   57.06
   0   2  -8 3131.05  191.64
   0   2  -8 2686.69  156.01
   0  -2   8 2879.85  187.99
   1   3  -9   25.38   47.66
  -1  -3   9    1.38    9.67
   2   4 -10  566.06   82.58
  -2  -4  10  479.43   79.83
   3   5 -11   46.62   32.46
  -3  -5  11   32.72   38.17
   4   6 -12  200.38   72.37
  -4  -6  12   10.16   19.07
  10  10  -2  120.39   69.68
 -10 -10   2    5.65   12.66
   9   9  -1   26.82   49.95
  -9  -9   1   31.58   34.79
  -9  -9   1    3.00    9.02
   8   8   0  563.90  166.67
  -8  -8   0  481.02   61.74
  -8  -8   0  112.37   18.01
   7   7   1  224.26   64.64
  -7  -7  -1  171.37   33.34
  -7  -7  -1  190.43   42.19
   6   6   2 2263.06  165.96
  -6  -6  -2 2411.95  155.91
  -6  -6  -2 2326.42  139.53
   5   5   3  168.83   67.66
  -5  -5  -3  189.26   43.33
  -5  -5  -3  179.80   32.70
   3   3   5   16.01   21.66
  -3  -3  -5   18.42   28.33
  -1  -1  -7   -0.88    5.08
   0   0   8 4093.97  254.71
   0   0  -8 3907.64  225.55
   0   0   8 4034.91  241.67
   1   1  -9   37.34   32.30
   1   1  -9   16.67   20.91
  -1  -1   9    8.11   15.56
   2   2 -10  623.94   71.39
  -2  -2  10  575.45   79.92
   3   3 -11   62.41   39.57
  -3  -3  11   56.20   52.70
   4   4 -12  351.33   62.90
  -4  -4  12  109.07   95.71
   5   5 -13   26.19   31.46
  -5  -5  13    3.89   13.74
   9  11  -1   28.75   39.60
  -9 -11   1    9.93   17.90
   8  10   0  259.34  102.43
  -8 -10   0  301.61   71.72
  -8 -10   0    9.65   19.76
   7   9   1   31.66   40.85
  -7  -9  -1   40.72   21.53
  -7  -9  -1    3.62   12.04
   6   8   2 1042.18  141.05
  -6  -8  -2 1118.57  115.27
  -6  -8  -2 1002.89  100.83
   5   7   3  175.31   58.23
  -5  -7  -3  169.05   38.07
  -5  -7  -3  153.35   33.33
   4   6   4 2132.43  146.58
  -4  -6  -4 2453.96  154.57
  -4  -6  -4 1548.15   30.08
   3   5   5  203.47   67.48
  -3  -5  -5  218.14   33.37
   2   4   6 2704.29  108.86
  -2  -4  -6 3145.99  106.28
   1   3   7  375.82   67.60
  -1  -3  -7  398.37   35.24
  -1  -3  -7  371.61   14.31
   0   2   8 2976.72  188.22
   0  -2  -8 3023.99  181.74
   0   2   8 2507.33  144.59
  -1   1   9   14.86   23.12
   1  -1  -9   42.57   31.64
  -1   1   9   19.16   15.96
   2   0 -10  720.98   82.69
   2   0 -10  559.13   28.91
  -2   0  10  628.50   69.28
   3   1 -11  125.09   45.48
  -3  -1  11   59.03   26.61
   4   2 -12  426.85   77.49
  -4  -2  12  336.16   64.56
   5   3 -13   24.02   29.49
  -5  -3  13   10.77   15.98
   8  12   0  150.05   79.90
  -8 -12   0  137.10   62.58
   7  11   1   27.22   30.66
  -7 -11  -1   39.55   43.71
  -7 -11  -1    8.10   14.72
   6  10   2  463.73  132.60
  -6 -10  -2  525.38   74.69
   5   9   3   17.12   16.79
  -5  -9  -3   43.78   33.06
  -5  -9  -3    2.90    7.40
   4   8   4 1067.35   98.60
  -4  -8  -4 1095.02  104.10
  -4  -8  -4  637.99   51.61
   3   7   5  159.43   55.34
  -3  -7  -5  171.03   34.44
  -3  -7  -5  102.64   18.65
   2   6   6 2340.84  146.58
  -2  -6  -6 1668.21   14.92
   1   5   7  402.66   79.51
  -1  -5  -7   96.24    8.68
   0   4   8 1841.53  153.98
   0  -4  -8 1962.71   67.84
  -1   3   9   17.40   18.94
   1  -3  -9   23.00   30.79
   1  -3  -9   13.51   16.13
   2  -2 -10  613.02   63.41
  -2   2  10  567.49   31.01
   3  -1 -11  125.64   38.74
  -3   1  11   66.59   30.92
   4   0 -12  497.22   83.83
  -4   0  12  251.53   54.29
   5   1 -13   36.82   38.22
  -5  -1  13    1.23   10.81
   7  13   1    9.91   15.31
  -7 -13  -1   15.10   24.31
   6  12   2  227.69  109.15
  -6 -12  -2  287.65   90.97
   5  11   3   45.03   28.44
  -5 -11  -3   49.16   34.17
   4  10   4  422.30  140.59
  -4 -10  -4  546.43   82.65
   3   9   5   31.96   25.22
  -3  -9  -5   37.58   28.13
   2   8   6 1075.91  104.10
  -2  -8  -6 1201.45  119.89
   1   7   7  206.21   59.66
  -1  -7  -7  228.11   50.04
   0   6   8 1392.17  129.74
   0  -6  -8 1444.39  137.23
  -1   5   9   39.52   20.61
   1  -5  -9   17.10   36.89
  -2   4  10  510.60   77.93
   2  -4 -10  518.55   59.36
   2  -4 -10  499.40   52.39
   3  -3 -11   87.99   35.44
   3  -3 -11   67.98   20.56
   3  -3 -11   87.12   30.58
   4  -2 -12  471.38   72.97
   5  -1 -13   22.87   20.54
  -5   1  13   -0.89   13.97
   5  13   3   22.33   28.83
  -5 -13  -3   15.35   39.00
   4  12   4  288.56  118.35
  -4 -12  -4  358.52   55.32
   3  11   5   52.10   25.15
  -3 -11  -5   65.03   37.03
   2  10   6  434.39  120.05
  -2 -10  -6  519.73   81.38
   1   9   7   44.29   15.71
  -1  -9  -7   55.45   33.50
   0   8   8  525.19   93.43
   0  -8  -8  628.11   76.17
  -1   7   9   42.76   17.90
   1  -7  -9   43.01   37.17
  -2   6  10  442.70  110.12
   2  -6 -10  481.80   74.35
   3  -5 -11   46.35   24.50
   3  13   5   19.40   19.93
  -3 -13  -5   13.40   25.81
   2  12   6  200.21   88.92
  -2 -12  -6  333.47  115.87
   1  11   7   30.07   21.12
  -1 -11  -7   53.07   51.37
   0  10   8  231.26   82.19
   0 -10  -8  321.13   68.38
   1  -9  -9   16.94   30.41
   2  -8 -10  265.27   67.71
   3  -7 -11   37.06   28.53
  -1 -13  -7   24.38   31.04
   0 -12  -8  187.90   89.85
   1 -11  -9   38.76   41.94
   2 -10 -10  184.90   90.50
   3  -9 -11   24.10   35.09
 -12   8   2  118.23   67.73
  12  -8  -2  124.26   69.52
 -11   9   1    7.87   23.58
  11  -9  -1   22.02   30.35
 -10  10   0  142.79   73.00
  10 -10   0  157.87   71.22
  -9  11  -1   32.79   32.46
   9 -11   1   24.47   42.42
  -8  12  -2  101.52   72.23
   8 -12   2  121.99   69.95
 -13   5   3   17.33   21.83
  13  -5  -3   43.49   47.16
 -12   6   2  248.36   93.94
  12  -6  -2  289.39   95.90
 -11   7   1   25.58   24.30
  11  -7  -1   41.85   39.54
 -10   8   0  274.28   90.46
  10  -8   0  318.83   70.09
  -9   9  -1   22.88   27.88
   9  -9   1   12.03   27.18
  -8  10  -2  296.81  102.78
   8 -10   2  262.99   78.15
  -7  11  -3   19.50   23.48
   7 -11   3   45.93   46.37
  -6  12  -4  158.79   88.81
   6 -12   4  229.24   96.20
  -5  13  -5    4.38   16.19
   5 -13   5   28.60   43.47
 -14   2   4   89.60   53.71
  14  -2  -4  113.15   62.25
 -13   3   3   25.74   32.30
  13  -3  -3   35.91   38.06
 -12   4   2  453.39  143.87
  12  -4  -2  468.09   87.42
 -11   5   1   33.19   30.69
  11  -5  -1   60.89   37.74
 -10   6   0  520.44  135.00
  10  -6   0  494.74   81.70
  -9   7  -1   35.26   22.77
   9  -7   1   53.94   43.10
  -8   8  -2  614.62  170.56
   8  -8   2  541.76   80.92
  -7   9  -3   31.64   28.65
   7  -9   3   24.33   48.22
  -6  10  -4  357.16  129.34
   6 -10   4  395.44   88.74
  -5  11  -5   27.45   19.52
  -5  11  -5   15.84   21.80
   5 -11   5   33.76   41.73
  -4  12  -6  202.82   75.08
  -4  12  -6  155.66   94.23
   4 -12   6  218.25   89.45
  14   0  -4  116.27   61.94
 -13   1   3   23.40   27.70
  13  -1  -3   27.35   34.26
 -12   2   2  531.06  126.10
  12  -2  -2  680.40   63.02
 -11   3   1   86.53   34.65
  11  -3  -1   80.75   39.00
 -10   4   0  627.25  146.98
  10  -4   0  609.41   76.21
  -9   5  -1   55.92   29.42
   9  -5   1   27.67   41.53
  -8   6  -2 1171.67  106.06
  -8   6  -2 1202.55  122.84
   8  -6   2 1034.10  107.07
  -7   7  -3  154.52   29.55
  -7   7  -3  142.09   45.64
   7  -7   3  111.38   47.38
  -6   8  -4  819.76   82.44
  -6   8  -4  957.20  112.94
   6  -8   4  876.88  109.57
  -5   9  -5   26.44   23.78
  -5   9  -5   23.10   22.00
   5  -9   5   23.58   39.75
  -4  10  -6  384.57   70.63
  -4  10  -6  297.90  129.94
   4 -10   6  360.52   74.75
  -3  11  -7   39.80   38.96
   3 -11   7    3.17   20.42
  -2  12  -8  166.52   80.91
   2 -12   8    8.43   24.02
  14   2  -4  125.69   65.05
 -13  -1   3   17.65   12.31
  13   1  -3   31.44   34.26
 -12   0   2  689.94  188.56
  12   0  -2  747.62   96.58
  11  -1  -1  125.67   41.04
 -11   1   1  159.52   63.93
  11  -1  -1  157.24   43.09
  10  -2   0  575.06   40.25
 -10   2   0  596.09  145.83
  10  -2   0  663.18   77.49
   9  -3   1    9.11   11.56
  -9   3  -1   20.37   28.76
   9  -3   1   10.27   33.01
   8  -4   2 1576.20  136.21
  -8   4  -2 1719.89  150.67
   8  -4   2 1586.87  132.56
   7  -5   3  155.39   74.60
  -7   5  -3  175.56   74.49
   7  -5   3  169.77   38.85
  -6   6  -4 1780.21  140.96
  -6   6  -4 1880.75  153.96
   6  -6   4 1694.88  146.14
  -5   7  -5  201.63   41.15
  -5   7  -5  221.04   81.56
   5  -7   5  179.20   46.92
  -4   8  -6  864.97   93.89
  -4   8  -6  879.35   99.78
   4  -8   6  910.68  112.59
  -3   9  -7   20.60   25.17
  -3   9  -7   33.00   19.81
   3  -9   7   32.12   34.40
  -2  10  -8  271.27   73.53
   2 -10   8  226.80   81.50
  -1  11  -9   27.05   41.02
   1 -11   9    5.38   16.11
  13   3  -3   19.62   20.23
  13   3  -3   31.24   34.12
  12   2  -2  666.97   66.36
 -12  -2   2  640.94  154.75
  12   2  -2  678.57   60.25
  11   1  -1  138.14   59.45
 -11  -1   1  140.53   44.94
  11   1  -1  146.79   39.31
  10   0   0  691.65   84.46
 -10   0   0  703.56   80.62
  10   0   0  658.68   72.95
   9  -1   1   24.65   17.41
  -9   1  -1   24.56   41.86
   9  -1   1   42.84   35.63
   8  -2   2 2206.36  138.01
  -8   2  -2 2331.70  150.94
   8  -2   2 2235.45  142.58
   7  -3   3  187.56   24.94
  -7   3  -3  222.25   98.16
   7  -3   3  194.72   37.17
   6  -4   4 2270.44  141.39
  -6   4  -4 2401.34  170.38
   6  -4   4 2121.16  136.50
  -5   5  -5  231.57   96.18
   5  -5   5  186.62   43.40
  -4   6  -6 1867.10  151.26
  -4   6  -6 1785.93  149.51
   4  -6   6 1817.54  162.78
  -3   7  -7  165.19   43.69
  -3   7  -7  158.87   48.25
   3  -7   7  104.47   60.06
  -2   8  -8  562.42   83.60
   2  -8   8  459.01  167.50
  -1   9  -9   27.50   43.54
   1  -9   9   20.85   25.66
   0  10 -10  148.75   63.11
   0 -10  10   51.88   50.55
  13   5  -3   38.44   25.98
 -13  -5   3    5.30   29.37
  12   4  -2  447.38  123.18
 -12  -4   2  466.52   78.51
  11   3  -1  117.57   49.74
 -11  -3   1  101.46   29.91
  10   2   0  642.85  136.23
 -10  -2   0  620.47   74.70
  10   2   0  646.19   70.31
   9   1   1   35.46   18.87
  -9  -1  -1    5.34   31.64
   9   1   1   40.80   25.05
   8   0   2 2947.48  194.48
  -8   0  -2 3211.31  199.63
   8   0   2 3028.62  179.83
   7  -1   3  359.92   41.20
  -7   1  -3  360.71   53.04
   7  -1   3  371.06   35.14
   6  -2   4 2855.44  147.08
  -6   2  -4 3036.67  108.07
   6  -2   4 2797.29   91.67
   5  -3   5  265.26   96.47
  -5   3  -5  207.00   41.73
   5  -3   5  202.07   33.35
   4  -4   6 2337.66  169.89
  -4   4  -6 2399.04  190.79
   4  -4   6 2313.27  144.91
  -3   5  -7  211.65   45.97
  -3   5  -7  189.49   69.18
   3  -5   7  144.36   61.14
  -2   6  -8 1181.51  123.75
  -2   6  -8 1090.63  125.41
   2  -6   8  978.64  146.59
  -1   7  -9   23.37   30.01
   1  -7   9   24.19   26.51
   0   8 -10  306.64   59.78
   0  -8  10  227.95  116.21
   1   9 -11   41.85   45.65
  -1  -9  11   -0.30    9.89
  12   6  -2  303.46  150.86
 -12  -6   2    3.74   28.70
  11   5  -1   80.37   39.70
 -11  -5   1   60.38   29.71
 -11  -5   1   14.72   20.43
  10   4   0  626.52   85.89
 -10  -4   0  536.88   66.03
 -10  -4   0  585.05   65.00
   9   3   1   10.06   25.93
  -9  -3  -1   30.33   56.12
   8   2   2 2252.89  188.04
  -8  -2  -2 2177.68  139.03
   8   2   2 2157.14  130.58
   7   1   3  429.55   60.13
  -7  -1  -3  439.10   53.24
   7   1   3  447.33   32.48
   6   0   4 4069.03  133.90
  -6   0  -4 4248.68  139.40
   6   0   4 3797.29  109.06
   5  -1   5  341.59   34.45
  -5   1  -5  336.22   42.09
   4  -2   6 2917.65  144.58
  -4   2  -6 2888.29  100.64
   4  -2   6 2844.97   96.13
   3  -3   7  177.18   97.66
  -3   3  -7  167.60   28.92
   3  -3   7  159.43   58.88
  -2   4  -8 1719.44  141.04
  -2   4  -8 1591.89  125.56
   2  -4   8 1496.16  134.54
  -1   5  -9   25.92   30.71
  -1   5  -9   35.73   12.72
   1  -5   9   44.39   26.39
   0   6 -10  544.32   90.28
   0  -6  10  416.14  113.30
   1   7 -11   16.82   32.47
  -1  -7  11    7.41   16.46
   2   8 -12  178.70   92.36
  -2  -8  12    4.06   14.61
  12   8  -2  128.90   68.79
 -12  -8   2   23.47   29.24
  11   7  -1   59.66   46.26
 -11  -7   1   23.66   22.43
 -11  -7   1    0.99   14.23
  10   6   0  536.84  149.01
 -10  -6   0  456.98   70.06
 -10  -6   0  457.64   75.36
   9   5   1   44.96   27.41
  -9  -5  -1   27.64   44.48
  -9  -5  -1   -0.22   15.17
   8   4   2 1604.09  140.99
  -8  -4  -2 1410.31  122.01
  -8  -4  -2 1571.12  122.18
   7   3   3  203.59  108.99
  -7  -3  -3  159.36   31.66
   7   3   3  192.89   22.54
   6   2   4 2860.71  115.11
  -6  -2  -4 2484.80   92.44
   5   1   5  402.87   44.28
  -5  -1  -5  371.56   43.33
   5   1   5  306.02   22.92
   4   0   6 3937.43  138.08
  -4   0  -6 3924.20  125.22
   4   0   6 3812.23  103.13
  -4   0  -6 3719.79   98.38
   3  -1   7  396.86   52.37
  -3   1  -7  345.66   36.03
   3  -1   7  359.09   41.36
   2  -2   8 2344.09  155.48
  -2   2  -8 2113.85  131.54
   2  -2   8 2226.30  135.20
  -1   3  -9   45.70   44.83
  -1   3  -9   10.10   18.43
   1  -3   9    6.33   11.65
   0   4 -10  596.48   78.61
   0  -4  10  579.52  115.35
   1   5 -11   85.03   39.09
  -1  -5  11   64.66   45.44
   2   6 -12  304.24   97.10
  -2  -6  12   84.80   78.03
  11   9  -1   23.00   34.16
 -11  -9   1    2.34    8.94
  10   8   0  292.76  101.55
 -10  -8   0  277.07   66.74
 -10  -8   0    8.04   14.17
   9   7   1   40.32   31.30
  -9  -7  -1   50.21   37.96
  -9  -7  -1   -0.20   13.55
   8   6   2 1088.91  110.99
  -8  -6  -2  949.95   99.68
  -8  -6  -2  892.86   92.62
   7   5   3  155.82   58.79
  -7  -5  -3  148.41   39.67
  -7  -5  -3  137.91   43.67
   6   4   4 2295.78  151.13
  -6  -4  -4 2111.41  139.94
   6   4   4 1715.69   30.36
   6   4   4 2161.53  123.68
   5   3   5  207.77   40.12
  -5  -3  -5  178.32   41.38
   5   3   5   46.48    7.70
   4   2   6 2726.98   99.49
  -4  -2  -6 2900.22   99.80
   3   1   7  396.20   87.08
  -3  -1  -7  399.13   39.91
  -3  -1  -7  335.75   13.81
   2   0   8 2932.76  211.33
  -2   0  -8 2686.24  164.11
   2   0   8 2886.09  169.92
   1  -1   9   12.55   15.79
  -1   1  -9   41.14   34.58
   1  -1   9   11.86   20.28
   0   2 -10  698.16   83.42
   0   2 -10  555.46   28.72
   0  -2  10  616.21   64.66
   1   3 -11   95.09   43.03
  -1  -3  11   10.25   18.86
   2   4 -12  514.37   95.75
  -2  -4  12  385.80   84.53
   3   5 -13   42.46   46.00
  -3  -5  13   -5.85   15.43
  10  10   0  137.24   92.02
 -10 -10   0  108.88   43.96
 -10 -10   0    3.44   11.21
   9   9   1   -2.08   31.34
  -9  -9  -1   17.68   27.98
  -9  -9  -1    8.01   12.43
   8   8   2  472.05  153.01
  -8  -8  -2  527.45   77.81
  -8  -8  -2  225.06   33.69
   7   7   3  157.39   54.96
  -7  -7  -3  111.06   35.20
  -7  -7  -3    5.53    8.94
  -6  -6  -4  423.60   38.16
   5   5   5  199.25   61.52
  -5  -5  -5  155.36   37.29
   4   4   6 2208.89  140.91
  -4  -4  -6 2363.96  151.34
   3   3   7  195.24   81.49
  -3  -3  -7  198.24   40.92
   2   2   8 2189.92  145.38
  -2  -2  -8 2335.52  148.11
   1   1   9   21.78   20.20
  -1  -1  -9   17.64   32.31
   1   1   9    4.31    8.84
   0   0  10  716.72  135.19
   0   0 -10  601.58   61.48
   0   0  10  514.84   36.10
   1   1 -11  140.91   45.17
  -1  -1  11   69.86   48.66
   2   2 -12  688.62   93.20
  -2  -2  12  307.49   49.67
   3   3 -13   18.27   40.67
  -3  -3  13   -1.02   15.10
   9  11   1   15.45   29.99
  -9 -11  -1   25.32   32.63
   8  10   2  231.98  125.95
  -8 -10  -2  242.07   64.20
   7   9   3   17.08   25.94
  -7  -9  -3   36.18   40.58
   6   8   4  881.38   97.55
  -6  -8  -4  885.56  102.96
   5   7   5  228.83   84.31
  -5  -7  -5  211.33   40.95
   4   6   6 1635.45  141.95
  -4  -6  -6 1880.35  158.37
   3   5   7  157.05   63.41
  -3  -5  -7  181.71   33.49
   2   4   8 1482.57  121.27
  -2  -4  -8 1652.36  136.65
   1   3   9   19.67   25.23
  -1  -3  -9   39.00   40.02
  -1  -3  -9    3.04    4.86
   0   2  10  653.93  151.05
   0  -2 -10  574.81   36.78
   0   2  10  558.04   25.14
   1  -1 -11  119.71   20.89
  -1   1  11    6.93    9.22
   2   0 -12  797.44  107.43
  -2   0  12  607.73   72.83
   3   1 -13   26.82   27.37
  -3  -1  13    3.57    8.13
   4   2 -14  105.72   61.52
  -4  -2  14    8.48   17.34
   8  12   2  134.88   91.98
  -8 -12  -2  135.50   66.77
   7  11   3   31.30   29.05
  -7 -11  -3   23.45   29.09
   6  10   4  362.20  110.25
  -6 -10  -4  405.99   76.70
   5   9   5   56.73   23.51
  -5  -9  -5   28.12   23.53
   4   8   6  833.72   86.90
  -4  -8  -6  953.20   69.02
   3   7   7  152.98   53.12
  -3  -7  -7  151.44   43.60
   2   6   8 1105.04  113.06
  -2  -6  -8 1185.25  121.65
   1   5   9   35.48   26.96
  -1  -5  -9   29.31   40.18
   0   4  10  583.67  104.94
   0  -4 -10  575.99   65.65
  -1   3  11   87.22   38.44
   1  -3 -11  114.53   30.99
   2  -2 -12  675.96   87.91
   3  -1 -13   24.24   35.44
   4   0 -14  148.07   74.47
   6  12   4  174.24   95.06
  -6 -12  -4  248.59   57.15
   5  11   5   21.72   24.53
  -5 -11  -5   41.68   41.92
   4  10   6  332.54  115.21
  -4 -10  -6  340.47   76.23
   3   9   7   55.14   24.68
  -3  -9  -7   44.70   47.54
   2   8   8  492.19  135.32
  -2  -8  -8  612.81   89.06
   1   7   9   33.23   23.21
  -1  -7  -9   50.37   40.30
   0   6  10  441.35  126.67
   0  -6 -10  549.26   82.51
  -1   5  11   70.34   35.54
   1  -5 -11   73.17   38.50
   2  -4 -12  430.52   67.62
   3  -3 -13   22.56   29.00
   5  13   5    8.23   23.77
  -5 -13  -5   18.27   36.92
   4  12   6  181.84   82.94
  -4 -12  -6  253.64   56.62
   3  11   7   29.78   31.00
  -3 -11  -7   44.25   49.52
   2  10   8  198.15   76.33
  -2 -10  -8  323.14   81.89
   1   9   9   12.94   21.96
  -1  -9  -9   -2.37   32.38
   0   8  10  248.64   96.22
   0  -8 -10  336.31   65.01
  -1   7  11   23.22   22.98
   1  -7 -11   44.73   38.41
   2  -6 -12  281.24   86.80
   2  12   8   88.02   57.99
  -2 -12  -8  171.64   88.29
  -1 -11  -9   -3.19   31.48
   0 -10 -10  183.24   75.61
   1  -9 -11   20.04   38.38
   2  -8 -12  149.16   72.03
 -13   7   1   16.89   26.88
  13  -7  -1   18.02   40.91
  12  -8   0  164.14   86.74
 -11   9  -1   31.65   32.07
  11  -9   1   13.62   29.46
 -10  10  -2  143.06   88.99
  10 -10   2  146.08   80.67
  -9  11  -3   19.27   19.27
   9 -11   3   24.62   52.94
 -14   4   2   82.16   57.90
  14  -4  -2  106.00   61.82
 -13   5   1   35.87   35.90
  13  -5  -1   43.39   41.24
 -12   6   0  318.89  125.60
  12  -6   0  312.39  103.02
 -11   7  -1   26.42   30.96
  11  -7   1   39.93   43.41
 -10   8  -2  283.41  104.30
  10  -8   2  236.65   68.65
  -9   9  -3   14.60   27.66
   9  -9   3   38.26   51.70
  -8  10  -4  215.01  116.11
   8 -10   4  250.36   86.77
  -7  11  -5   29.07   26.04
   7 -11   5   20.58   30.97
  -6  12  -6   91.41   68.88
   6 -12   6  120.98   68.33
 -14   2   2   98.19   69.19
  14  -2  -2  137.16   71.66
 -13   3   1   42.51   36.33
  13  -3  -1   19.42   37.91
 -12   4   0  513.29  129.24
  12  -4   0  499.76   84.16
 -11   5  -1   72.64   40.88
  11  -5   1   71.41   39.22
 -10   6  -2  522.58  119.77
  10  -6   2  468.61   85.50
  -9   7  -3   17.56   25.28
   9  -7   3   24.51   39.00
  -8   8  -4  437.58  119.66
   8  -8   4  385.32   82.27
  -7   9  -5   13.85   14.91
  -7   9  -5   31.92   34.84
   7  -9   5   31.51   42.48
  -6  10  -6  278.02   85.98
  -6  10  -6  236.66  106.86
   6 -10   6  302.34   99.74
  -5  11  -7   13.86   33.45
  -5  11  -7   20.34   21.86
   5 -11   7   27.10   39.29
 -14   0   2  138.74   66.82
  14   0  -2  134.27   59.76
 -13   1   1   24.51   21.58
  13  -1  -1   21.54   31.55
 -12   2   0  706.44  182.53
  12  -2   0  752.26   96.00
 -11   3  -1  109.46   44.69
  11  -3   1  103.26   40.35
 -10   4  -2  523.25  151.27
  10  -4   2  535.17   68.32
   9  -5   3   35.03   21.17
  -9   5  -3   21.64   17.14
   9  -5   3   27.38   25.89
  -8   6  -4  939.12   42.93
  -8   6  -4 1034.35  135.92
   8  -6   4  805.23   90.28
  -7   7  -5   93.01   28.23
  -7   7  -5   98.57   38.21
   7  -7   5  105.72   48.88
  -6   8  -6  634.30   82.47
  -6   8  -6  647.42  183.39
   6  -8   6  590.35   91.74
  -5   9  -7   16.29   23.59
  -5   9  -7   44.52   34.76
   5  -9   7   31.54   48.83
  -4  10  -8  238.47   79.22
   4 -10   8  185.69  105.92
  -3  11  -9    6.34   34.08
   3 -11   9   12.60   38.12
 -14  -2   2  123.98   72.84
  14   2  -2  115.26   58.27
 -13  -1   1   34.54   35.51
  13   1  -1   37.24   23.99
  12   0   0  747.43   99.54
 -12   0   0  899.06  123.72
  12   0   0  821.11  101.90
  11  -1   1  127.59   42.02
 -11   1  -1  198.38   81.60
  11  -1   1  151.52   43.32
  10  -2   2  572.64   57.79
 -10   2  -2  638.51  156.22
  10  -2   2  628.51   84.14
   9  -3   3    8.62   11.74
  -9   3  -3   13.44   36.49
   9  -3   3   31.40   44.24
   8  -4   4 1058.66  120.41
  -8   4  -4 1121.03  103.93
   8  -4   4  941.72   90.46
   7  -5   5  190.72   71.18
  -7   5  -5  216.63  100.72
   7  -5   5  178.45   43.74
  -6   6  -6 1496.42   61.81
  -6   6  -6 1472.04   69.20
   6  -6   6 1381.12  133.39
  -5   7  -7  119.53   34.62
  -5   7  -7  113.87   34.36
   5  -7   7  108.12   44.11
  -4   8  -8  441.95   84.69
  -4   8  -8  401.11   73.51
   4  -8   8  313.89  137.33
  -3   9  -9   56.88   54.83
   3  -9   9    3.57   12.46
  -2  10 -10  157.99   85.31
   2 -10  10   87.32   69.16
  14   4  -2   84.76   61.66
  14   4  -2  132.07   68.84
  13   3  -1   20.04   28.34
 -13  -3   1   24.32   29.60
  13   3  -1   13.68   28.33
  12   2   0  758.98  104.94
 -12  -2   0  777.97  105.78
  12   2   0  786.84  104.26
  11   1   1  164.55   52.15
 -11  -1  -1  146.74   44.76
  11   1   1  157.79   38.61
  10   0   2  606.19   93.62
 -10   0  -2  669.14   81.98
  10   0   2  665.13   73.63
   9  -1   3   16.55   18.81
  -9   1  -3   42.45   57.47
   9  -1   3   21.78   30.75
   8  -2   4 1606.96  142.64
  -8   2  -4 1663.05  141.88
   8  -2   4 1424.36  114.60
   7  -3   5  192.34   72.96
  -7   3  -5  202.40   69.84
   7  -3   5  158.17   30.83
   6  -4   6 1740.08  177.69
  -6   4  -6 1865.55  223.68
   6  -4   6 1752.57  144.79
  -5   5  -7  225.32   73.52
   5  -5   7  177.46   37.05
  -4   6  -8  967.30   65.28
  -4   6  -8  899.18   94.81
   4  -6   8  873.18  111.37
  -3   7  -9   52.48   51.23
   3  -7   9   31.88   26.78
  -2   8 -10  343.29   79.11
   2  -8  10  178.22   80.75
  -1   9 -11   27.16   40.40
   1  -9  11    5.45   16.79
  13   5  -1   29.92   23.01
 -13  -5   1   -5.81   22.43
  12   4   0  475.24  100.14
 -12  -4   0  494.68   87.41
  12   4   0  505.67   78.07
  11   3   1  110.80   45.42
 -11  -3  -1  105.75   42.01
  11   3   1  119.37   27.86
  10   2   2  609.47   77.68
 -10  -2  -2  633.65   76.83
  10   2   2  666.81   70.11
   9   1   3   27.73   21.47
  -9  -1  -3   37.04   52.90
   9   1   3   35.05   31.83
   8   0   4 1891.54  153.32
  -8   0  -4 1819.03  154.33
   8   0   4 1733.46  134.72
   7  -1   5  373.35   36.13
  -7   1  -5  376.92   47.77
   7  -1   5  361.92   41.14
   6  -2   6 2516.02  172.23
  -6   2  -6 2520.86  163.41
   6  -2   6 2090.29  132.99
   5  -3   7  166.01   90.47
  -5   3  -7  170.80   44.12
   5  -3   7  138.58   29.76
   4  -4   8 1128.00  102.85
  -4   4  -8 1045.07   93.11
   4  -4   8  965.42   83.31
  -3   5  -9   53.70   32.35
  -3   5  -9   25.93   18.51
   3  -5   9   26.29   18.38
  -2   6 -10  560.50   88.03
   2  -6  10  422.30  123.55
  -1   7 -11   35.22   44.23
   1  -7  11   -0.51   20.87
   0   8 -12  112.61   67.46
   0  -8  12   17.51   37.90
  13   7  -1   21.15   23.93
 -13  -7   1   10.09   18.15
  12   6   0  288.92  141.53
 -12  -6   0  292.85   90.04
 -12  -6   0   -1.60   17.58
  11   5   1   87.18   40.53
 -11  -5  -1   67.05   37.00
 -11  -5  -1    3.97   14.50
  10   4   2  547.41   94.38
 -10  -4  -2  440.87   57.63
  10   4   2  533.19   60.12
   9   3   3   -7.53   23.18
  -9  -3  -3   14.84   50.14
   9   3   3   13.19   21.96
   8   2   4 1591.44  159.98
  -8  -2  -4 1473.17  128.40
   8   2   4 1592.43  125.02
   7   1   5  390.27   40.70
  -7  -1  -5  332.65   46.85
   7   1   5  343.34   25.46
   6   0   6 2840.56  235.49
  -6   0  -6 3047.20  194.38
   5  -1   7  353.78   68.05
  -5   1  -7  374.13   49.96
   5  -1   7  349.31   27.30
   4  -2   8 1644.52  137.53
  -4   2  -8 1514.07  125.46
   4  -2   8 1431.67  128.76
   3  -3   9    7.30   25.17
  -3   3  -9    6.62   19.00
   3  -3   9   -0.52   11.91
  -2   4 -10  520.16   68.01
  -2   4 -10  480.01   91.40
   2  -4  10  454.33   71.22
  -1   5 -11   87.93   48.91
   1  -5  11   66.97   33.78
   0   6 -12  325.90  107.90
   0  -6  12  247.83  116.26
   1   7 -13   15.48   32.57
  -1  -7  13    4.51   16.13
  12   8   0  146.32   82.87
 -12  -8   0  129.62   61.85
 -12  -8   0    5.75   13.18
  11   7   1   35.08   29.75
 -11  -7  -1   22.36   19.10
 -11  -7  -1    6.58   12.49
  10   6   2  462.73  152.65
 -10  -6  -2  464.43   78.42
 -10  -6  -2   21.57   21.29
   9   5   3   32.15   22.56
  -9  -5  -3   42.29   38.90
   8   4   4 1054.86  115.41
  -8  -4  -4  947.69   92.29
   8   4   4 1002.86   79.82
   7   3   5  175.08   75.24
  -7  -3  -5  137.86   35.07
   6   2   6 2503.68  195.37
  -6  -2  -6 2434.20  158.27
   5   1   7  381.89   46.50
  -5  -1  -7  369.18   45.03
   4   0   8 1933.35   86.33
  -4   0  -8 1902.48  154.88
   4   0   8 1802.81  135.20
   3  -1   9   18.97   20.23
  -3   1  -9   53.34   48.24
   3  -1   9    0.15   10.46
   2  -2  10  598.20   73.85
  -2   2 -10  573.88   39.03
   2  -2  10  570.29   51.39
  -1   3 -11  110.57   42.25
   1  -3  11   64.38   44.19
   0   4 -12  568.03  102.36
   0  -4  12  479.54   77.91
   1   5 -13   19.58   42.30
  -1  -5  13   -0.42   10.32
  11   9   1   31.64   30.81
 -11  -9  -1   23.40   32.65
  10   8   2  241.73  100.65
 -10  -8  -2  221.25   61.98
   9   7   3   33.21   28.58
  -9  -7  -3   37.91   44.51
   8   6   4  878.93   97.73
  -8  -6  -4  768.62   93.47
   7   5   5  197.19   76.32
  -7  -5  -5  177.66   39.98
   6   4   6 1547.55  126.86
  -6  -4  -6 1707.58  143.04
   5   3   7  177.66   68.38
  -5  -3  -7  160.75   45.30
   4   2   8 1551.74  175.61
  -4  -2  -8 1544.47  128.99
   3   1   9   11.77   15.62
  -3  -1  -9   32.89   41.21
   2   0  10  670.79   83.60
  -2   0 -10  559.50   40.60
   2   0  10  554.22   21.40
  -1   1 -11  123.01   24.66
   1  -1  11   51.50   46.13
   0   2 -12  731.29   96.74
   0  -2  12  652.71   89.21
   1   3 -13   36.19   42.23
  -1  -3  13    6.37    7.60
   2   4 -14   71.84   43.09
  -2  -4  14   15.91   25.01
  10  10   2  138.74   76.59
 -10 -10  -2  135.34   65.37
   9   9   3   21.04   26.20
  -9  -9  -3   33.62   46.26
   8   8   4  391.70  120.69
  -8  -8  -4  422.85   81.03
   7   7   5  111.74   40.24
  -7  -7  -5  114.64   33.80
   6   6   6 1312.02  132.42
  -6  -6  -6 1378.06  139.32
   5   5   7  204.65   84.18
  -5  -5  -7  190.10   35.35
   4   4   8  968.04   91.55
  -4  -4  -8 1064.33  104.86
   3   3   9   13.40   13.65
  -3  -3  -9    4.15   29.15
   2   2  10  601.72   72.20
  -2  -2 -10  553.35   43.55
   1   1  11  154.81   78.28
  -1  -1 -11  120.87   30.56
   0   0 -12  890.33   71.50
   1   1 -13   37.07   41.15
   2   2 -14  156.88   83.94
   9  11   3    7.20   23.06
  -9 -11  -3   20.72   35.98
   8  10   4  194.24   88.96
  -8 -10  -4  256.72   86.32
   7   9   5   33.86   28.54
  -7  -9  -5   17.97   32.31
   6   8   6  571.29  127.29
  -6  -8  -6  635.06   93.59
   5   7   7   94.57   41.14
  -5  -7  -7  117.77   46.92
   4   6   8  852.44  140.08
  -4  -6  -8  940.06   64.75
   3   5   9   32.75   21.12
  -3  -5  -9   20.30   44.27
   2   4  10  469.07  133.63
  -2  -4 -10  522.96   66.93
   1   3  11   80.85   47.31
  -1  -3 -11   96.25   31.13
   0   2  12  706.22  121.67
   0  -2 -12  631.83   78.49
   1  -1 -13   41.14   38.63
   2   0 -14  150.81   69.56
   7  11   5   22.94   27.08
  -7 -11  -5    4.76   29.02
   6  10   6  230.33   87.66
  -6 -10  -6  290.39   97.43
   5   9   7   30.09   20.83
  -5  -9  -7   46.10   40.81
   4   8   8  329.85  131.65
  -4  -8  -8  425.86   74.47
   3   7   9   33.57   28.49
  -3  -7  -9   30.06   30.07
   2   6  10  473.33  106.21
  -2  -6 -10  513.32   76.01
   1   5  11   69.70   40.77
  -1  -5 -11   68.35   29.34
   0   4  12  449.27  117.32
   0  -4 -12  442.88   68.92
   2  -2 -14  110.47   59.59
   6  12   6   81.60   51.13
  -6 -12  -6  129.46   65.99
   5  11   7   21.44   22.14
  -5 -11  -7   27.02   38.16
   4  10   8  201.26   84.35
  -4 -10  -8  250.69   82.97
   3   9   9   16.76   25.69
  -3  -9  -9   36.29   52.06
   2   8  10  211.43  101.83
  -2  -8 -10  273.09   75.62
   1   7  11   40.67   27.71
  -1  -7 -11   18.76   28.09
   0   6  12  220.73  115.53
   0  -6 -12  359.91   52.11
  -1   5  13   19.70   20.81
   1  -5 -13   30.09   27.70
   2  -4 -14  100.75   51.99
   3  11   9    4.68    9.04
  -3 -11  -9    3.36   34.66
   2  10  10   97.03   65.38
  -2 -10 -10  209.89  103.75
   1   9  11   15.98   18.74
  -1  -9 -11   22.46   28.72
   0  -8 -12  191.21   89.36
   1  -7 -13   22.67   31.94
 -13   7  -1   11.51   20.37
  13  -7   1   20.88   37.16
 -12   8  -2  117.25   95.75
  12  -8   2  143.50   78.26
 -11   9  -3   32.45   34.87
  11  -9   3   19.53   27.25
 -10  10  -4   91.72   62.44
  10 -10   4  160.10   89.44
 -14   4   0  117.07   64.57
  14  -4   0   98.25   56.00
 -13   5  -1   27.80   27.64
  13  -5   1   38.68   46.80
 -12   6  -2  272.08  115.18
  12  -6   2  279.69   94.57
 -11   7  -3   30.82   30.88
  11  -7   3   18.05   38.50
 -10   8  -4  257.09  106.36
  10  -8   4  215.36   82.09
  -9   9  -5   36.98   36.97
   9  -9   5   15.92   42.85
  -8  10  -6  136.86   87.89
   8 -10   6  181.71   80.91
  -7  11  -7   21.51   30.15
   7 -11   7   11.78   38.00
 -14   2   0  162.13   74.57
  14  -2   0  162.24   68.66
 -13   3  -1   36.40   37.03
  13  -3   1   24.19   35.24
 -12   4  -2  490.83  164.63
  12  -4   2  476.76   81.53
 -11   5  -3   59.73   30.57
  11  -5   3   40.93   28.91
 -10   6  -4  409.17  139.26
  10  -6   4  339.75   67.39
  -9   7  -5   42.36   33.76
   9  -7   5   33.55   46.30
  -8   8  -6  302.28   70.31
  -8   8  -6  301.52  128.62
   8  -8   6  297.43   81.96
  -7   9  -7   28.60   24.72
  -7   9  -7   28.10   34.16
   7  -9   7   17.22   27.04
  -6  10  -8  172.55   64.93
  -6  10  -8  106.76   67.38
   6 -10   8  181.53   75.14
 -14   0   0  136.94   61.66
  14   0   0  133.18   58.02
 -13   1  -1   47.90   34.88
  13  -1   1   36.93   36.47
 -12   2  -2  680.19  143.81
  12  -2   2  556.42   92.00
  11  -3   3   60.71   34.41
 -11   3  -3   79.11   39.51
  11  -3   3   77.55   38.52
  10  -4   4  389.49  111.14
 -10   4  -4  517.14  191.63
  10  -4   4  453.99   78.63
   9  -5   5   44.47   25.22
  -9   5  -5   36.70   28.94
   9  -5   5   33.65   32.22
  -8   6  -6  651.18  211.70
   8  -6   6  595.55   90.80
  -7   7  -7   59.95   29.29
  -7   7  -7   58.11   49.10
   7  -7   7   60.36   31.53
  -6   8  -8  329.96   69.92
  -6   8  -8  284.58  111.50
   6  -8   8  296.44   78.49
  -5   9  -9   -0.23   22.05
   5  -9   9    6.75   17.69
  -4  10 -10  111.55   64.47
   4 -10  10   75.47   66.12
 -14  -2   0  146.46   68.40
  14   2   0  141.96   56.95
  13   1   1   28.63   17.25
 -13  -1  -1   25.31   43.82
  13   1   1   18.57   29.90
  12   0   2  676.77   89.19
 -12   0  -2  762.87  103.02
  12   0   2  737.89   94.30
  11  -1   3   76.64   43.30
 -11   1  -3  107.11   44.64
  11  -1   3  119.12   36.22
  10  -2   4  495.48   62.93
 -10   2  -4  558.45   83.24
  10  -2   4  445.09   54.03
   9  -3   5   35.32   19.18
  -9   3  -5   49.60   35.08
   9  -3   5   19.49   18.29
   8  -4   6  811.31   93.23
  -8   4  -6  969.51   96.92
   8  -4   6  834.06   92.37
   7  -5   7  103.90   71.76
  -7   5  -7  135.97   51.54
   7  -5   7  100.34   33.88
  -6   6  -8  655.54   86.58
  -6   6  -8  615.40  107.99
   6  -6   8  604.86   84.59
  -5   7  -9   60.18   52.95
  -5   7  -9   25.19   23.05
   5  -7   9   30.47   33.27
  -4   8 -10  281.52   93.96
   4  -8  10  150.87   86.08
  -3   9 -11   23.55   28.56
   3  -9  11    6.27   18.94
  14   4   0   86.74   72.15
 -14  -4   0  131.92   65.05
  14   4   0  112.80   57.54
  13   3   1   20.43   24.92
 -13  -3  -1   26.44   43.13
  13   3   1   32.13   25.33
  12   2   2  579.49  120.33
 -12  -2  -2  654.85  110.73
  12   2   2  649.44   95.67
  11   1   3  107.33   55.81
 -11  -1  -3  109.93   37.70
  11   1   3  125.22   35.07
  10   0   4  592.86   71.21
 -10   0  -4  617.88   81.04
  10   0   4  566.32   67.29
   9  -1   5   42.77   23.86
  -9   1  -5   28.55   40.19
   9  -1   5   31.42   22.08
   8  -2   6 1108.95  118.09
  -8   2  -6 1139.01  116.79
   8  -2   6  960.28   93.91
   7  -3   7  170.96   73.70
  -7   3  -7  160.94   50.86
   7  -3   7  120.81   31.03
   6  -4   8  911.13  148.06
  -6   4  -8  888.23   99.78
   6  -4   8  891.99   98.66
  -5   5  -9   26.95   28.64
  -5   5  -9   38.01   25.97
   5  -5   9   27.64   16.42
  -4   6 -10  415.48   79.56
   4  -6  10  261.66  102.21
  -3   7 -11   36.55   29.11
   3  -7  11   15.49   26.87
  -2   8 -12  152.03   79.09
   2  -8  12   17.92   40.21
  13   5   1   17.63   26.99
 -13  -5  -1   25.37   38.13
  13   5   1   16.76   14.85
  12   4   2  347.94  145.26
 -12  -4  -2  396.82   67.36
  12   4   2  451.04   71.34
  11   3   3   83.71   42.49
 -11  -3  -3   58.55   33.45
  11   3   3   71.67   22.85
  10   2   4  541.36  172.68
 -10  -2  -4  479.93   65.24
  10   2   4  501.51   54.97
   9   1   5   50.00   31.93
  -9  -1  -5   31.56   41.44
   9   1   5   34.59   20.95
   8   0   6 1399.97  156.61
  -8   0  -6 1416.26  140.60
   8   0   6 1280.54  116.65
   7  -1   7  208.04   41.40
  -7   1  -7  193.09   49.30
   7  -1   7   49.41   36.66
   6  -2   8 1081.18  155.52
  -6   2  -8 1147.15  118.66
   6  -2   8 1009.07   97.41
   5  -3   9   43.39   30.57
  -5   3  -9   26.29   24.92
   5  -3   9   27.04   22.13
  -4   4 -10  527.87   75.20
  -4   4 -10  442.50   72.31
   4  -4  10  395.27   98.67
  -3   5 -11   64.87   49.11
   3  -5  11    9.32   21.34
  -2   6 -12  243.61   88.06
   2  -6  12  123.50   91.63
  -1   7 -13    9.54   31.09
   1  -7  13    9.39   22.75
  13   7   1   15.34   14.03
 -13  -7  -1   24.21   34.89
  12   6   2  230.97  121.36
 -12  -6  -2  234.55   77.34
  11   5   3   58.55   28.23
 -11  -5  -3   43.49   31.60
  10   4   4  477.45   89.48
 -10  -4  -4  375.16   64.32
  10   4   4  443.33   63.42
   9   3   5   43.69   20.63
  -9  -3  -5   37.74   43.90
   8   2   6 1129.65  122.51
  -8  -2  -6 1069.55  108.76
   8   2   6  992.26   89.18
   7   1   7  206.03   42.91
  -7  -1  -7  189.98   38.76
   7   1   7    6.77   11.04
   6   0   8 1375.32  164.98
  -6   0  -8 1374.54  135.37
   6   0   8 1271.37  112.12
   5  -1   9   38.97   20.02
  -5   1  -9   29.68   47.31
   5  -1   9   32.21   20.47
   4  -2  10  531.33  102.47
  -4   2 -10  471.53   61.81
   4  -2  10  457.78   52.97
  -3   3 -11   71.13   36.77
  -3   3 -11   59.68   24.13
   3  -3  11   39.70   22.48
  -2   4 -12  482.80   93.43
   2  -4  12  394.33   98.76
  -1   5 -13   52.51   46.25
   1  -5  13   -2.61   16.19
  12   8   2  119.48   93.37
 -12  -8  -2  113.17   60.00
  11   7   3   21.40   37.69
 -11  -7  -3   30.54   27.66
  10   6   4  369.51  117.38
 -10  -6  -4  325.47   66.49
   9   5   5   38.99   29.57
  -9  -5  -5   36.63   34.65
   8   4   6  884.40  134.95
  -8  -4  -6  763.17   91.56
   7   3   7  149.63   53.61
  -7  -3  -7  126.70   40.53
   6   2   8 1112.94  108.06
  -6  -2  -8 1073.92  111.28
   5   1   9   49.38   27.32
  -5  -1  -9   34.81   44.87
   4   0  10  552.83   67.63
  -4   0 -10  532.76   66.10
   3  -1  11   91.36   61.05
  -3   1 -11   83.01   25.50
  -2   2 -12  724.59   79.95
  -1   3 -13   30.96   44.56
   0   4 -14  127.99   69.99
  11   9   3    4.65   19.69
 -11  -9  -3   20.98   42.95
  10   8   4  198.82  117.22
 -10  -8  -4  188.55   63.53
   9   7   5   30.34   25.16
  -9  -7  -5   38.31   45.69
   8   6   6  539.70  102.82
  -8  -6  -6  624.22   94.94
   7   5   7  116.47   43.32
  -7  -5  -7  117.10   43.45
   6   4   8  833.38   93.42
  -6  -4  -8  816.48  100.37
   5   3   9   45.29   33.44
  -5  -3  -9   42.36   44.98
   4   2  10  522.46   73.79
  -4  -2 -10  471.55   62.02
   3   1  11   84.77   39.26
  -3  -1 -11   78.20   29.99
   2   0  12  720.37  185.08
  -2   0 -12  618.14   77.24
  -1   1 -13   17.21   29.40
   0   2 -14  125.29   60.21
  10  10   4  108.73   67.37
 -10 -10  -4  130.49   70.42
   9   9   5   13.83   13.40
  -9  -9  -5   12.89   28.68
   8   8   6  271.33  109.99
  -8  -8  -6  270.67   73.62
   7   7   7   63.98   40.55
  -7  -7  -7   66.15   33.37
   6   6   8  566.73  109.82
  -6  -6  -8  595.62   84.61
   5   5   9   48.90   24.97
  -5  -5  -9   40.57   51.72
   4   4  10  438.30  135.25
  -4  -4 -10  430.28   74.55
   3   3  11   79.62   44.32
  -3  -3 -11   66.19   30.65
   2   2  12  612.89  110.68
  -2  -2 -12  581.88   86.29
   1   1  13   18.86   24.07
   0   0 -14  151.81   61.22
   8  10   6  129.98   60.56
  -8 -10  -6  126.24   52.57
   7   9   7   18.98   23.80
  -7  -9  -7   13.65   36.74
   6   8   8  280.91  117.93
  -6  -8  -8  361.52   69.80
   5   7   9   26.45   32.91
  -5  -7  -9   52.48   55.37
   4   6  10  324.79  105.39
  -4  -6 -10  397.23   76.00
   3   5  11   52.03   35.85
  -3  -5 -11   76.89   45.85
   2   4  12  381.82  150.47
  -2  -4 -12  400.49   67.80
   1   3  13   28.96   22.92
  -1  -3 -13   20.80   24.45
   7  11   7    1.84   12.33
  -7 -11  -7   25.19   43.02
   6  10   8  107.80   51.88
  -6 -10  -8  167.18   75.71
   5   9   9   14.02   13.59
  -5  -9  -9   42.35   55.26
   4   8  10  179.39   83.68
  -4  -8 -10  240.33   83.67
   3   7  11   34.59   25.35
  -3  -7 -11   42.93   47.10
   2   6  12  196.92  117.69
  -2  -6 -12  261.66   84.92
   1   5  13   17.69   25.73
  -1  -5 -13   20.86   30.24
   0   4  14   60.42   43.47
   4  10  10   76.55   58.51
  -4 -10 -10  151.84   84.99
   3   9  11   13.19   19.55
  -3  -9 -11   32.93   46.35
   2   8  12   90.56   57.78
  -2  -8 -12  149.22   73.72
   1   7  13    7.29   21.28
  -1  -7 -13   34.61   34.20
  14  -4   2  101.24   58.42
 -13   5  -3   41.55   38.33
  13  -5   3   16.16   32.87
 -12   6  -4  245.79   93.53
  12  -6   4  204.88   78.50
 -11   7  -5   19.20   25.69
  11  -7   5   33.95   36.48
 -10   8  -6  144.38   80.01
  10  -8   6  176.88   76.26
  -9   9  -7   17.27   15.81
   9  -9   7    7.15   27.29
 -14   2  -2  132.31   76.70
  14  -2   2  127.70   60.89
 -13   3  -3   20.47   39.25
  13  -3   3   32.09   32.78
 -12   4  -4  387.90  140.81
  12  -4   4  290.68   94.94
 -11   5  -5   88.80   50.47
  11  -5   5   35.17   42.91
 -10   6  -6  331.09  125.35
  10  -6   6  250.64   88.69
  -9   7  -7   15.15   24.05
  -9   7  -7   18.02   21.54
   9  -7   7   48.20   50.42
  -8   8  -8  174.61   62.22
  -8   8  -8  160.43   87.16
   8  -8   8  157.24   65.27
  -7   9  -9   14.52   29.41
  -7   9  -9   10.31    8.01
   7  -9   9   43.44   45.40
 -14   0  -2  150.48   80.90
  14   0   2   95.80   43.84
 -13   1  -3   52.86   42.03
  13  -1   3   22.09   29.57
  12  -2   4  398.03  121.33
 -12   2  -4  478.23  117.00
  12  -2   4  422.34   74.39
  11  -3   5   43.07   30.78
 -11   3  -5   72.00   48.85
  11  -3   5   27.74   28.86
  10  -4   6  308.50   89.03
 -10   4  -6  460.00  139.00
  10  -4   6  334.87   58.59
   9  -5   7   34.79   30.36
  -9   5  -7   39.89   35.77
   9  -5   7   46.45   44.13
  -8   6  -8  309.46   65.86
  -8   6  -8  325.68  125.22
   8  -6   8  272.09   74.73
  -7   7  -9   23.65   23.82
  -7   7  -9   24.79   21.83
   7  -7   9    0.48   22.65
  -6   8 -10  157.59   64.58
   6  -8  10   84.50   48.55
  14   2   2   93.81   65.31
 -14  -2  -2  134.44   76.34
  14   2   2  139.54   69.85
  13   1   3   23.22   20.47
 -13  -1  -3   57.82   49.59
  13   1   3   33.70   19.76
  12   0   4  433.50  169.19
 -12   0  -4  502.63   91.58
  12   0   4  461.08   73.55
  11  -1   5   67.65   46.52
 -11   1  -5   74.62   47.82
  11  -1   5   63.07   29.91
  10  -2   6  458.34   88.22
 -10   2  -6  552.09   90.85
  10  -2   6  481.21   73.56
   9  -3   7   26.87   22.50
  -9   3  -7   29.40   51.00
   9  -3   7   13.39   24.94
   8  -4   8  377.94  123.37
  -8   4  -8  443.99  159.88
   8  -4   8  387.77   67.41
   7  -5   9   36.66   33.18
  -7   5  -9   82.34   32.99
   7  -5   9   46.61   41.22
  -6   6 -10  332.71  104.87
  -6   6 -10  263.61  101.49
   6  -6  10  175.94  103.38
  -5   7 -11   19.50   28.68
   5  -7  11    7.79   11.54
  14   4   2   73.33   56.07
 -14  -4  -2  102.94   58.73
  13   3   3    8.46   10.43
 -13  -3  -3   25.16   50.24
  12   2   4  447.95  106.97
 -12  -2  -4  483.37   88.42
  11   1   5   91.52   63.50
 -11  -1  -5   37.70   45.70
  11   1   5   50.53   21.47
  10   0   6  470.72  103.16
 -10   0  -6  544.26   83.10
  10   0   6  471.83   68.69
   9  -1   7   36.11   30.47
  -9   1  -7   69.20   54.67
   8  -2   8  565.10   92.01
  -8   2  -8  607.88   89.38
   8  -2   8  469.81   70.99
   7  -3   9   23.57   29.67
  -7   3  -9   26.29   39.72
   7  -3   9   19.20   16.18
   6  -4  10  443.10   77.83
  -6   4 -10  351.26   60.98
   6  -4  10  256.02  104.16
  -5   5 -11   31.94   30.79
   5  -5  11   12.03   21.96
  -4   6 -12  242.47   59.42
   4  -6  12   95.32   84.31
  13   5   3    8.61   14.70
 -13  -5  -3    7.54   32.31
  12   4   4  282.47  143.29
 -12  -4  -4  312.46  104.63
  11   3   5   65.54   42.96
 -11  -3  -5   82.33   51.14
  10   2   6  477.65  175.78
 -10  -2  -6  451.77   77.49
   9   1   7   50.27   28.38
  -9  -1  -7   43.86   56.67
   8   0   8  583.94   75.97
  -8   0  -8  599.17   85.04
   7  -1   9   43.05   39.78
  -7   1  -9   21.76   32.91
   6  -2  10  470.96   99.65
  -6   2 -10  480.67   78.05
   5  -3  11   38.70   42.18
  -5   3 -11   43.12   27.20
  -4   4 -12  341.10  111.48
  -3   5 -13   -2.05   27.47
  12   6   4  174.66   94.82
 -12  -6  -4  163.31   60.77
  11   5   5   41.13   25.66
 -11  -5  -5   39.92   43.63
  10   4   6  351.52  130.24
 -10  -4  -6  318.80   67.69
   9   3   7   31.09   35.60
  -9  -3  -7   35.03   38.56
   8   2   8  574.91  110.75
  -8  -2  -8  583.92   86.75
   7   1   9   50.77   38.74
  -7  -1  -9   50.35   41.53
   6   0  10  476.21  170.82
  -6   0 -10  477.86   79.19
   5  -1  11   40.27   29.80
  -5   1 -11   56.36   31.33
   4  -2  12  360.89  175.97
  -3   3 -13   49.46   54.73
  -2   4 -14  123.81   68.04
  11   7   5   32.21   28.43
 -11  -7  -5   34.95   40.79
  10   6   6  268.52  134.41
 -10  -6  -6  291.83   90.92
   9   5   7   27.48   35.43
  -9  -5  -7   22.84   33.29
   8   4   8  387.66  168.35
  -8  -4  -8  389.87   76.85
   7   3   9   21.42   30.34
  -7  -3  -9   36.01   53.13
   6   2  10  401.97  163.59
  -6  -2 -10  465.33   81.95
   5   1  11   56.09   32.89
  -5  -1 -11   67.77   33.79
   4   0  12  538.87  122.73
  -4   0 -12  469.19   73.72
   3  -1  13   17.28   26.73
  -2   2 -14  136.93   68.62
  10   8   6  149.97   82.37
 -10  -8  -6  137.09   55.93
   9   7   7   31.21   35.74
  -9  -7  -7   35.50   53.65
   8   6   8  256.04  105.51
  -8  -6  -8  322.41   74.05
   7   5   9   36.83   22.38
  -7  -5  -9   30.29   37.34
   6   4  10  327.27  130.09
  -6  -4 -10  349.34   71.80
   5   3  11   50.54   33.22
  -5  -3 -11   45.98   45.08
   4   2  12  373.63  152.07
  -4  -2 -12  434.52   73.43
   3   1  13   41.12   36.00
  -3  -1 -13   11.16   17.25
   9   9   7    6.18   15.08
  -9  -9  -7   27.73   43.75
   8   8   8  173.76   90.80
  -8  -8  -8  191.75   74.83
   7   7   9   18.29   16.67
  -7  -7  -9    4.25   37.56
   6   6  10  234.66  125.16
  -6  -6 -10  251.25   87.24
   5   5  11   36.35   23.17
  -5  -5 -11   55.10   47.01
   4   4  12  258.37  144.17
  -4  -4 -12  313.72   97.62
   3   3  13   16.46   25.12
  -3  -3 -13   32.50   30.16
   2   2  14   91.14   70.13
   7   9   9   19.22   21.50
  -7  -9  -9   24.12   36.76
   6   8  10  133.61   83.01
  -6  -8 -10  188.69   69.59
   5   7  11   23.60   26.30
  -5  -7 -11   32.42   33.70
   4   6  12  175.95   94.05
  -4  -6 -12  198.32   76.14
   3   5  13    3.61   22.50
  -3  -5 -13   28.12   34.63
   2   4  14   73.41   63.70
 -13   5  -5   32.27   46.77
 -12   6  -6  178.56  103.86
  12  -6   6  105.23   61.02
 -11   7  -7   32.86   31.09
  11  -7   7   -2.07   23.71
 -14   2  -4  112.07   76.27
  14  -2   4   97.00   56.57
 -13   3  -5   30.29   35.28
  13  -3   5   20.73   25.23
 -12   4  -6  214.21  116.80
  12  -4   6  157.67   62.40
 -11   5  -7   21.41   24.32
  11  -5   7   27.72   28.02
 -10   6  -8  178.18   84.72
  10  -6   8  157.99   70.73
  -9   7  -9   18.34   27.84
  -9   7  -9   13.96   16.07
   9  -7   9    8.09   27.95
 -14   0  -4  126.85   67.91
  13  -1   5   16.21    9.35
 -13   1  -5   19.36   56.71
  13  -1   5   19.80   22.69
  12  -2   6  193.63  116.42
 -12   2  -6  300.70  106.97
  12  -2   6  228.08   77.75
  11  -3   7   15.46   16.44
 -11   3  -7   30.32   24.86
  11  -3   7   28.02   22.78
  10  -4   8  161.30  104.52
 -10   4  -8  237.98  111.09
  10  -4   8  221.92   73.96
   9  -5   9    5.37   14.21
  -9   5  -9   24.43   30.26
   9  -5   9   15.40   24.00
  -8   6 -10  179.87   68.46
  -8   6 -10  133.33   85.08
   8  -6  10  175.20   65.30
  -7   7 -11    7.48   34.70
   7  -7  11   13.09   21.35
  14   2   4   76.68   66.65
 -14  -2  -4   98.59   61.91
  13   1   5   27.28   27.92
 -13  -1  -5   35.49   53.83
  12   0   6  251.61  137.91
 -12   0  -6  324.19  109.54
  11  -1   7   30.20   20.70
 -11   1  -7   48.37   63.30
  10  -2   8  208.27  102.00
 -10   2  -8  249.76   77.72
   9  -3   9   13.29   11.35
  -9   3  -9   33.69   34.99
   8  -4  10  153.88  126.57
  -8   4 -10  237.72  103.42
  -7   5 -11   22.12   39.05
  -7   5 -11    9.40   12.97
  -6   6 -12  114.70   57.04
  13   3   5   18.51   33.75
 -13  -3  -5   35.77   34.48
  12   2   6  226.78  121.62
 -12  -2  -6  278.52   95.70
  11   1   7   41.90   30.51
 -11  -1  -7   31.04   43.50
  10   0   8  263.40  130.35
 -10   0  -8  354.51   84.18
   9  -1   9    7.25   18.07
  -9   1  -9   32.52   52.65
   8  -2  10  226.33  122.95
  -8   2 -10  281.67   72.05
   7  -3  11   48.98   30.96
  -7   3 -11   31.17   30.89
  -5   5 -13   10.87   27.13
  13   5   5   29.35   29.79
 -13  -5  -5   23.00   45.27
  12   4   6  165.18   91.33
 -12  -4  -6  199.84   76.66
  11   3   7   28.41   18.44
 -11  -3  -7   21.46   38.11
  10   2   8  249.62  116.73
 -10  -2  -8  287.77   79.87
   9   1   9   25.62   24.68
  -9  -1  -9   56.53   60.74
   8   0  10  272.42  134.24
  -8   0 -10  291.56   69.48
   7  -1  11   38.37   33.03
  -7   1 -11   50.75   40.24
   6  -2  12  181.75  128.71
  -6   2 -12  279.29   85.99
  12   6   6  113.60   81.86
 -12  -6  -6  107.92   56.78
  11   5   7   10.46   20.88
 -11  -5  -7   13.56   38.55
  10   4   8  204.32   94.16
 -10  -4  -8  202.51   73.31
   9   3   9   23.25   29.34
  -9  -3  -9   31.50   56.56
   8   2  10  220.13  112.46
  -8  -2 -10  248.46   71.79
   7   1  11   31.93   29.92
  -7  -1 -11   40.02   45.30
   6   0  12  257.20  135.25
  -6   0 -12  360.18   58.75
   5  -1  13   24.41   26.57
  -4   2 -14  114.18   62.64
  11   7   7   12.01   32.42
 -11  -7  -7   13.28   29.33
  10   6   8  120.65   79.86
 -10  -6  -8  188.68   80.74
   9   5   9   16.64   25.12
  -9  -5  -9   11.28   55.26
   8   4  10  229.76  142.39
  -8  -4 -10  251.23   88.87
   7   3  11   51.88   33.97
  -7  -3 -11   24.03   47.35
   6   2  12  206.23  122.29
  -6  -2 -12  237.52   77.87
   5   1  13   18.37   23.84
  -5  -1 -13   13.59   30.29
   4   0  14   63.51   63.42
   9   7   9   15.57   22.30
  -9  -7  -9   22.69   52.36
   8   6  10  107.41   69.83
  -8  -6 -10  166.20   69.23
   7   5  11   18.92   24.60
  -7  -5 -11   18.57   32.91
   6   4  12  160.06   89.93
  -6  -4 -12  208.53   80.85
   5   3  13   11.06   13.48
  -5  -3 -13   27.57   37.11
   4   2  14   85.00   59.45
   7   7  11   11.08   20.46
  -7  -7 -11   20.76   48.66
   6   6  12   95.23   62.91
  -6  -6 -12  138.73   70.15
   5   5  13    9.86   18.24
  -5  -5 -13    3.60   26.70
  13  -1   7   15.83   19.06
 -13   1  -7   40.13   50.08
  12  -2   8  111.90   88.15
 -12   2  -8  164.73  107.02
  11  -3   9   10.32   16.93
 -11   3  -9    5.80   21.97
  10  -4  10   66.34   65.09
 -10   4 -10  125.88   66.89
  13   1   7   19.71   22.27
 -13  -1  -7   38.47   68.28
  12   0   8  119.01   89.98
 -12   0  -8  144.48   76.71
  11  -1   9    5.26   20.35
 -11   1  -9   31.80   62.74
  10  -2  10  115.82   84.06
 -10   2 -10  149.58   76.11
   9  -3  11    8.38   24.92
  -9   3 -11   22.36   37.38
  12   2   8   98.90   74.01
 -12  -2  -8  182.42   93.04
  11   1   9    8.89   12.58
 -11  -1  -9    3.74   37.01
  10   0  10  134.43   82.10
 -10   0 -10  144.56   59.91
   9  -1  11   14.88   23.60
  -9   1 -11   -3.92   33.86
   8  -2  12  103.92   62.28
  -8   2 -12  108.86   58.91
  11   3   9    8.80   22.61
 -11  -3  -9   26.12   53.95
  10   2  10  125.83   91.16
 -10  -2 -10  143.77   78.87
   9   1  11    7.21   21.92
  -9  -1 -11   47.11   49.70
   8   0  12  104.77   82.74
  -8   0 -12  128.68   63.32
   7  -1  13   15.73   22.05
  -7   1 -13   28.75   36.26
  10   4  10   96.37   62.11
 -10  -4 -10  103.69   59.70
   9   3  11   20.68   30.75
  -9  -3 -11   11.82   33.09
   8   2  12  119.41   87.06
  -8  -2 -12  137.29   69.16
   7   1  13   12.93   18.60
  -7  -1 -13   20.19   23.92
   0   0   0    0.00    0.00
;
_shelx_hkl_checksum              99306
loop_
_space_group_symop_operation_xyz
'x, y, z'
'-x, -y, z'
'-x, y, -z'
'x, -y, -z'
'z, x, y'
'z, -x, -y'
'-z, -x, y'
'-z, x, -y'
'y, z, x'
'-y, z, -x'
'y, -z, -x'
'-y, -z, x'
'y, x, -z'
'-y, -x, -z'
'y, -x, z'
'-y, x, z'
'x, z, -y'
'-x, z, y'
'-x, -z, -y'
'x, -z, y'
'z, y, -x'
'z, -y, x'
'-z, y, x'
'-z, -y, -x'
'x, y+1/2, z+1/2'
'-x, -y+1/2, z+1/2'
'-x, y+1/2, -z+1/2'
'x, -y+1/2, -z+1/2'
'z, x+1/2, y+1/2'
'z, -x+1/2, -y+1/2'
'-z, -x+1/2, y+1/2'
'-z, x+1/2, -y+1/2'
'y, z+1/2, x+1/2'
'-y, z+1/2, -x+1/2'
'y, -z+1/2, -x+1/2'
'-y, -z+1/2, x+1/2'
'y, x+1/2, -z+1/2'
'-y, -x+1/2, -z+1/2'
'y, -x+1/2, z+1/2'
'-y, x+1/2, z+1/2'
'x, z+1/2, -y+1/2'
'-x, z+1/2, y+1/2'
'-x, -z+1/2, -y+1/2'
'x, -z+1/2, y+1/2'
'z, y+1/2, -x+1/2'
'z, -y+1/2, x+1/2'
'-z, y+1/2, x+1/2'
'-z, -y+1/2, -x+1/2'
'x+1/2, y, z+1/2'
'-x+1/2, -y, z+1/2'
'-x+1/2, y, -z+1/2'
'x+1/2, -y, -z+1/2'
'z+1/2, x, y+1/2'
'z+1/2, -x, -y+1/2'
'-z+1/2, -x, y+1/2'
'-z+1/2, x, -y+1/2'
'y+1/2, z, x+1/2'
'-y+1/2, z, -x+1/2'
'y+1/2, -z, -x+1/2'
'-y+1/2, -z, x+1/2'
'y+1/2, x, -z+1/2'
'-y+1/2, -x, -z+1/2'
'y+1/2, -x, z+1/2'
'-y+1/2, x, z+1/2'
'x+1/2, z, -y+1/2'
'-x+1/2, z, y+1/2'
'-x+1/2, -z, -y+1/2'
'x+1/2, -z, y+1/2'
'z+1/2, y, -x+1/2'
'z+1/2, -y, x+1/2'
'-z+1/2, y, x+1/2'
'-z+1/2, -y, -x+1/2'
'x+1/2, y+1/2, z'
'-x+1/2, -y+1/2, z'
'-x+1/2, y+1/2, -z'
'x+1/2, -y+1/2, -z'
'z+1/2, x+1/2, y'
'z+1/2, -x+1/2, -y'
'-z+1/2, -x+1/2, y'
'-z+1/2, x+1/2, -y'
'y+1/2, z+1/2, x'
'-y+1/2, z+1/2, -x'
'y+1/2, -z+1/2, -x'
'-y+1/2, -z+1/2, x'
'y+1/2, x+1/2, -z'
'-y+1/2, -x+1/2, -z'
'y+1/2, -x+1/2, z'
'-y+1/2, x+1/2, z'
'x+1/2, z+1/2, -y'
'-x+1/2, z+1/2, y'
'-x+1/2, -z+1/2, -y'
'x+1/2, -z+1/2, y'
'z+1/2, y+1/2, -x'
'z+1/2, -y+1/2, x'
'-z+1/2, y+1/2, x'
'-z+1/2, -y+1/2, -x'
'-x, -y, -z'
'x, y, -z'
'x, -y, z'
'-x, y, z'
'-z, -x, -y'
'-z, x, y'
'z, x, -y'
'z, -x, y'
'-y, -z, -x'
'y, -z, x'
'-y, z, x'
'y, z, -x'
'-y, -x, z'
'y, x, z'
'-y, x, -z'
'y, -x, -z'
'-x, -z, y'
'x, -z, -y'
'x, z, y'
'-x, z, -y'
'-z, -y, x'
'-z, y, -x'
'z, -y, -x'
'z, y, x'
'-x, -y+1/2, -z+1/2'
'x, y+1/2, -z+1/2'
'x, -y+1/2, z+1/2'
'-x, y+1/2, z+1/2'
'-z, -x+1/2, -y+1/2'
'-z, x+1/2, y+1/2'
'z, x+1/2, -y+1/2'
'z, -x+1/2, y+1/2'
'-y, -z+1/2, -x+1/2'
'y, -z+1/2, x+1/2'
'-y, z+1/2, x+1/2'
'y, z+1/2, -x+1/2'
'-y, -x+1/2, z+1/2'
'y, x+1/2, z+1/2'
'-y, x+1/2, -z+1/2'
'y, -x+1/2, -z+1/2'
'-x, -z+1/2, y+1/2'
'x, -z+1/2, -y+1/2'
'x, z+1/2, y+1/2'
'-x, z+1/2, -y+1/2'
'-z, -y+1/2, x+1/2'
'-z, y+1/2, -x+1/2'
'z, -y+1/2, -x+1/2'
'z, y+1/2, x+1/2'
'-x+1/2, -y, -z+1/2'
'x+1/2, y, -z+1/2'
'x+1/2, -y, z+1/2'
'-x+1/2, y, z+1/2'
'-z+1/2, -x, -y+1/2'
'-z+1/2, x, y+1/2'
'z+1/2, x, -y+1/2'
'z+1/2, -x, y+1/2'
'-y+1/2, -z, -x+1/2'
'y+1/2, -z, x+1/2'
'-y+1/2, z, x+1/2'
'y+1/2, z, -x+1/2'
'-y+1/2, -x, z+1/2'
'y+1/2, x, z+1/2'
'-y+1/2, x, -z+1/2'
'y+1/2, -x, -z+1/2'
'-x+1/2, -z, y+1/2'
'x+1/2, -z, -y+1/2'
'x+1/2, z, y+1/2'
'-x+1/2, z, -y+1/2'
'-z+1/2, -y, x+1/2'
'-z+1/2, y, -x+1/2'
'z+1/2, -y, -x+1/2'
'z+1/2, y, x+1/2'
'-x+1/2, -y+1/2, -z'
'x+1/2, y+1/2, -z'
'x+1/2, -y+1/2, z'
'-x+1/2, y+1/2, z'
'-z+1/2, -x+1/2, -y'
'-z+1/2, x+1/2, y'
'z+1/2, x+1/2, -y'
'z+1/2, -x+1/2, y'
'-y+1/2, -z+1/2, -x'
'y+1/2, -z+1/2, x'
'-y+1/2, z+1/2, x'
'y+1/2, z+1/2, -x'
'-y+1/2, -x+1/2, z'
'y+1/2, x+1/2, z'
'-y+1/2, x+1/2, -z'
'y+1/2, -x+1/2, -z'
'-x+1/2, -z+1/2, y'
'x+1/2, -z+1/2, -y'
'x+1/2, z+1/2, y'
'-x+1/2, z+1/2, -y'
'-z+1/2, -y+1/2, x'
'-z+1/2, y+1/2, -x'
'z+1/2, -y+1/2, -x'
'z+1/2, y+1/2, x'
loop_
_atom_site_label
_atom_site_type_symbol
_atom_site_fract_x
_atom_site_fract_y
_atom_site_fract_z
_atom_site_U_iso_or_equiv
_atom_site_adp_type
_atom_site_occupancy
_atom_site_site_symmetry_order
_atom_site_calc_flag
_atom_site_refinement_flags_posn
_atom_site_refinement_flags_adp
_atom_site_refinement_flags_occupancy
C1 C 0.0000 0.0000 0.1637(14) 0.153(6) Uani 1 8 d S TU P
C2 C 0.7500 0.867(4) 0.2500 0.19(3) Uani 0.1667 4 d DS TU P
Co1 Co 0.0000 0.0000 0.0000 0.059(2) Uani 1 48 d S TU P
K1 K 0.0000 0.0000 0.5000 0.080(2) Uani 0.7699 48 d S TU P
N1 N 0.0000 0.0000 0.2567(10) 0.168(14) Uani 1 8 d S TU P
N2 N 0.7500 0.7500 0.2500 0.19(3) Uani 1 24 d DS TU P
Rb1 Rb 0.0000 0.0000 0.5000 0.080(2) Uani 0.2299 48 d S TU P
loop_
_atom_site_aniso_label
_atom_site_aniso_U_11
_atom_site_aniso_U_22
_atom_site_aniso_U_33
_atom_site_aniso_U_23
_atom_site_aniso_U_13
_atom_site_aniso_U_12
C1 0.191(9) 0.191(9) 0.076(5) 0.000 0.000 0.000
C2 0.19(3) 0.19(3) 0.19(3) 0.000 0.11(3) 0.000
Co1 0.059(2) 0.059(2) 0.059(2) 0.000 0.000 0.000
K1 0.080(2) 0.080(2) 0.080(2) 0.000 0.000 0.000
N1 0.22(2) 0.22(2) 0.075(5) 0.000 0.000 0.000
N2 0.19(3) 0.19(3) 0.19(3) 0.000 0.000 0.000
Rb1 0.080(2) 0.080(2) 0.080(2) 0.000 0.000 0.000
loop_
_atom_type_symbol
_atom_type_description
_atom_type_scat_dispersion_real
_atom_type_scat_dispersion_imag
_atom_type_scat_source
C C 0.0033 0.0016 'International Tables Vol C Tables 4.2.6.8 and 6.1.1.4'
H H 0.0000 0.0000 'International Tables Vol C Tables 4.2.6.8 and 6.1.1.4'
N N 0.0061 0.0033 'International Tables Vol C Tables 4.2.6.8 and 6.1.1.4'
K K 0.2009 0.2494 'International Tables Vol C Tables 4.2.6.8 and 6.1.1.4'
Co Co 0.3494 0.9721 'International Tables Vol C Tables 4.2.6.8 and 6.1.1.4'
Rb Rb -0.9393 2.9676 'International Tables Vol C Tables 4.2.6.8 and 6.1.1.4'
loop_
_geom_angle_atom_site_label_1
_geom_angle_atom_site_label_2
_geom_angle_atom_site_label_3
_geom_angle
_geom_angle_site_symmetry_1
_geom_angle_site_symmetry_3
N1 C1 Co1 180.0 . .
N2 C2 C2 44.999(3) . 82_656
N2 C2 C2 44.999(1) . 78_566
C2 C2 C2 59.999(3) 82_656 78_566
N2 C2 C2 44.999(1) . 53_554
C2 C2 C2 59.999(5) 82_656 53_554
C2 C2 C2 89.999(1) 78_566 53_554
N2 C2 C2 44.999(3) . 33_554
C2 C2 C2 89.999(3) 82_656 33_554
C2 C2 C2 59.999(4) 78_566 33_554
C2 C2 C2 59.999(5) 53_554 33_554
C1 Co1 C1 180.0 105 9
C1 Co1 C1 90.0 105 97
C1 Co1 C1 90.0 9 97
C1 Co1 C1 90.0 105 5
C1 Co1 C1 90.0 9 5
C1 Co1 C1 90.0 97 5
C1 Co1 C1 90.0 105 101
C1 Co1 C1 90.0 9 101
C1 Co1 C1 90.0 97 101
C1 Co1 C1 180.0 5 101
C1 Co1 C1 90.0 105 .
C1 Co1 C1 90.0 9 .
C1 Co1 C1 180.0 97 .
C1 Co1 C1 90.0 5 .
C1 Co1 C1 90.0 101 .
N1 K1 N1 90.0 . 129
N1 K1 N1 180.0 . 97_556
N1 K1 N1 90.0 129 97_556
N1 K1 N1 90.000(1) . 53_455
N1 K1 N1 90.0 129 53_455
N1 K1 N1 90.0 97_556 53_455
N1 K1 N1 90.0 . 149
N1 K1 N1 90.000(1) 129 149
N1 K1 N1 90.000(1) 97_556 149
N1 K1 N1 180.0 53_455 149
N1 K1 N1 90.000(1) . 33_545
N1 K1 N1 180.0 129 33_545
N1 K1 N1 90.0 97_556 33_545
N1 K1 N1 90.000(1) 53_455 33_545
N1 K1 N1 90.0 149 33_545
C1 N1 K1 180.0 . .
C2 N2 C2 180.0 82_656 33_554
C2 N2 C2 90.000(12) 82_656 74_665
C2 N2 C2 90.000(6) 33_554 74_665
C2 N2 C2 90.000(8) 82_656 53_554
C2 N2 C2 90.000(6) 33_554 53_554
C2 N2 C2 90.000(3) 74_665 53_554
C2 N2 C2 90.000(7) 82_656 78_566
C2 N2 C2 90.000(6) 33_554 78_566
C2 N2 C2 90.000(3) 74_665 78_566
C2 N2 C2 180.0 53_554 78_566
C2 N2 C2 90.000(8) 82_656 .
C2 N2 C2 90.000(10) 33_554 .
C2 N2 C2 180.0 74_665 .
C2 N2 C2 90.000(4) 53_554 .
C2 N2 C2 90.0 78_566 .
loop_
_geom_bond_atom_site_label_1
_geom_bond_atom_site_label_2
_geom_bond_distance
_geom_bond_site_symmetry_2
C1 N1 1.067(18) .
C1 Co1 1.876(16) .
C2 N2 1.34(5) .
C2 C2 1.90(7) 82_656
C2 C2 1.90(7) 78_566
C2 C2 1.90(7) 53_554
C2 C2 1.90(7) 33_554
Co1 C1 1.876(16) 105
Co1 C1 1.876(16) 9
Co1 C1 1.876(16) 97
Co1 C1 1.876(16) 5
Co1 C1 1.876(16) 101
K1 N1 2.790(11) .
K1 N1 2.790(11) 129
K1 N1 2.790(11) 97_556
K1 N1 2.790(11) 53_455
K1 N1 2.790(11) 149
K1 N1 2.790(11) 33_545
N2 C2 1.34(5) 82_656
N2 C2 1.34(5) 33_554
N2 C2 1.34(5) 74_665
N2 C2 1.34(5) 53_554
N2 C2 1.34(5) 78_566
loop_
_geom_torsion_atom_site_label_1
_geom_torsion_atom_site_label_2
_geom_torsion_atom_site_label_3
_geom_torsion_atom_site_label_4
_geom_torsion
_geom_torsion_site_symmetry_1
_geom_torsion_site_symmetry_4
C2 C2 N2 C2 -90.000(7) 78_566 82_656
C2 C2 N2 C2 90.000(7) 53_554 82_656
C2 C2 N2 C2 180.0 33_554 82_656
C2 C2 N2 C2 180.0 82_656 33_554
C2 C2 N2 C2 90.000(6) 78_566 33_554
C2 C2 N2 C2 -90.000(10) 53_554 33_554
C2 C2 N2 C2 -90.000(7) 82_656 53_554
C2 C2 N2 C2 180.000(2) 78_566 53_554
C2 C2 N2 C2 90.000(7) 33_554 53_554
C2 C2 N2 C2 90.000(7) 82_656 78_566
C2 C2 N2 C2 180.000(14) 53_554 78_566
C2 C2 N2 C2 -90.000(7) 33_554 78_566
