#------------------------------------------------------------------------------
#$Date: 2019-11-23 15:23:55 +0200 (Sat, 23 Nov 2019) $
#$Revision: 233816 $
#$URL: file:///home/coder/svn-repositories/cod/cif/4/34/92/4349286.cif $
#------------------------------------------------------------------------------
#
# This file is available in the Crystallography Open Database (COD),
# http://www.crystallography.net/
#
# All data on this site have been placed in the public domain by the
# contributors.
#
data_4349286
loop_
_publ_author_name
'Hayashi, Mikihiro'
'Otsubo, Kazuya'
'Maesato, Mitsuhiko'
'Komatsu, Tokutaro'
'Sugimoto, Kunihisa'
'Fujiwara, Akihiko'
'Kitagawa, Hiroshi'
_publ_section_title
;
 An Electrically Conductive Single-Component Donor-Acceptor-Donor
 Aggregate with Hydrogen-Bonding Lattice.
;
_journal_issue                   24
_journal_name_full               'Inorganic chemistry'
_journal_page_first              13027
_journal_page_last               13034
_journal_paper_doi               10.1021/acs.inorgchem.6b02301
_journal_volume                  55
_journal_year                    2016
_chemical_formula_moiety         'C10 N4 Ni2 S8'
_chemical_formula_sum            'C10 N4 Ni2 S8'
_chemical_formula_weight         550.04
_space_group_crystal_system      triclinic
_space_group_IT_number           2
_space_group_name_Hall           '-P 1'
_space_group_name_H-M_alt        'P -1'
_atom_sites_solution_primary     direct
_atom_sites_solution_secondary   difmap
_cell_angle_alpha                101.311(8)
_cell_angle_beta                 90.999(8)
_cell_angle_gamma                94.437(8)
_cell_formula_units_Z            1
_cell_length_a                   3.950(3)
_cell_length_b                   10.125(7)
_cell_length_c                   13.144(9)
_cell_measurement_reflns_used    1853
_cell_measurement_temperature    100
_cell_measurement_theta_max      26.51
_cell_measurement_theta_min      2.83
_cell_volume                     513.6(6)
_computing_cell_refinement       Unknown
_computing_data_collection       Unknown
_computing_data_reduction        Unknown
_computing_molecular_graphics    'CrystalStructure 4.2'
_computing_publication_material  'CrystalStructure 4.2 (Rigaku, 2015)'
_computing_structure_refinement  'SHELXL Version 2014/3 (Sheldrick, 2008)'
_computing_structure_solution    'SIR2004 (Burla, et al., 2005)'
_diffrn_ambient_temperature      100
_diffrn_measured_fraction_theta_full 0.995
_diffrn_measured_fraction_theta_max 0.988
_diffrn_measurement_device_type  'Bruker SMART APEXII CCD detector'
_diffrn_radiation_type           'Mo K\a'
_diffrn_radiation_wavelength     0.71075
_diffrn_reflns_av_R_equivalents  0.0363
_diffrn_reflns_Laue_measured_fraction_full 0.995
_diffrn_reflns_Laue_measured_fraction_max 0.988
_diffrn_reflns_limit_h_max       5
_diffrn_reflns_limit_h_min       -5
_diffrn_reflns_limit_k_max       12
_diffrn_reflns_limit_k_min       -12
_diffrn_reflns_limit_l_max       16
_diffrn_reflns_limit_l_min       -16
_diffrn_reflns_number            5409
_diffrn_reflns_point_group_measured_fraction_full 0.995
_diffrn_reflns_point_group_measured_fraction_max 0.988
_diffrn_reflns_theta_full        25.242
_diffrn_reflns_theta_max         26.740
_diffrn_reflns_theta_min         1.581
_diffrn_standards_number         0
_exptl_absorpt_coefficient_mu    2.647
_exptl_absorpt_correction_type   none
_exptl_crystal_colour            NONE
_exptl_crystal_density_diffrn    1.798
_exptl_crystal_density_method    'not measured'
_exptl_crystal_description       NONE
_exptl_crystal_F_000             278.00
_exptl_crystal_size_max          0.02
_exptl_crystal_size_mid          0.02
_exptl_crystal_size_min          0.01
_refine_diff_density_max         2.67
_refine_diff_density_min         -0.80
_refine_ls_extinction_method     none
_refine_ls_goodness_of_fit_ref   1.044
_refine_ls_hydrogen_treatment    undef
_refine_ls_number_parameters     109
_refine_ls_number_reflns         2140
_refine_ls_number_restraints     0
_refine_ls_R_factor_all          0.0986
_refine_ls_R_factor_gt           0.0651
_refine_ls_shift/su_max          0.000
_refine_ls_structure_factor_coef Fsqd
_refine_ls_weighting_details
'w = 1/[\s^2^(Fo^2^)+(0.1275P)^2^+5.4307P] where P=(Fo^2^+2Fc^2^)/3'
_refine_ls_weighting_scheme      calc
_refine_ls_wR_factor_gt          0.2061
_refine_ls_wR_factor_ref         0.2302
_reflns_Friedel_coverage         0.000
_reflns_number_gt                1502
_reflns_number_total             2140
_reflns_threshold_expression     F^2^>2.0\s(F^2^)
_cod_data_source_file            ic6b02301_si_001.cif
_cod_data_source_block           MH_140227_1_result
_cod_database_code               4349286
_shelxl_version_number           2014-3
_shelx_res_file
;
TITL MH_140227_1_result
CELL  0.71075 3.94980 10.12460 13.14370 101.31100 90.99900 94.43700
ZERR  1 0.00260 0.00680 0.00880 0.00800 0.00800 0.00800
LATT 1
SFAC C H N NI S
UNIT 10 6 4 2 8
L.S. 20
FMAP 2
PLAN 25
WPDB -2
HTAB
BOND $H
CONF
LIST 4
TEMP 23.0
ACTA
WGHT    0.127500    5.430700
FVAR       0.14355
NI1   4    1.174621    0.390770    0.790072    11.00000    0.01998    0.02100 =
         0.01564    0.00198   -0.00838    0.00331
S1    5    1.230762    0.588779    0.891062    11.00000    0.02362    0.02221 =
         0.01697    0.00200   -0.00940    0.00388
S2    5    0.893867    0.481945    0.681752    11.00000    0.02257    0.02152 =
         0.01652    0.00204   -0.00780    0.00330
S3    5    1.459175    0.305005    0.900328    11.00000    0.02919    0.02221 =
         0.01840    0.00114   -0.01217    0.00567
S4    5    1.119252    0.192370    0.688419    11.00000    0.02265    0.02181 =
         0.01804    0.00266   -0.00880    0.00442
N2    3    0.841813    0.120271    0.498687    11.00000    0.02165    0.02399 =
         0.02510    0.00140   -0.00958    0.00299
N8    3    0.617703    0.370087    0.496710    11.00000    0.01999    0.02593 =
         0.01340    0.00347   -0.00443    0.00574
C1    1    0.796751    0.351047    0.578989    11.00000    0.01765    0.02710 =
         0.01425    0.00457   -0.00048   -0.00125
C2    1    0.904850    0.220674    0.581705    11.00000    0.01496    0.02347 =
         0.02001    0.00214   -0.00210    0.00017
C5    1    0.550925    0.267241    0.414626    11.00000    0.02131    0.03172 =
         0.02037   -0.00024   -0.00745    0.00226
C6    1    1.447047    0.565934    0.996926    11.00000    0.01512    0.03042 =
         0.01473    0.00225   -0.00030    0.00159
C7    1    0.663270    0.143378    0.414367    11.00000    0.02660    0.02697 =
         0.01578    0.00203   -0.00903    0.00305
HKLF 4

REM  MH_140227_1_result
REM R1 =  0.0651 for    1502 Fo > 4sig(Fo)  and  0.0986 for all    2140 data
REM    109 parameters refined using      0 restraints

END

WGHT      0.1275      5.4307

REM No hydrogen bonds found for HTAB generation

REM Highest difference peak  2.666,  deepest hole -0.800,  1-sigma level  0.283
Q1    1   1.7518 -0.0047  0.9737  11.00000  0.05    2.67
Q2    1   1.6972  0.8836  0.9069  11.00000  0.05    2.44
Q3    1   1.3294  0.9363  0.8748  11.00000  0.05    1.97
Q4    1   0.9914  0.0855  0.1574  11.00000  0.05    1.79
Q5    1   1.5000  0.0000  1.0000  10.50000  0.05    1.47
Q6    1   0.3201  0.1102  0.1765  11.00000  0.05    1.06
Q7    1   0.6300  0.0796  0.3537  11.00000  0.05    0.85
Q8    1   1.2300  0.6770  0.9019  11.00000  0.05    0.83
Q9    1   1.2292  0.3035  0.7772  11.00000  0.05    0.73
Q10   1   0.4243  0.2902  0.3643  11.00000  0.05    0.72
Q11   1   1.1584  0.4783  0.8013  11.00000  0.05    0.71
Q12   1   0.8738  0.2872  0.5855  11.00000  0.05    0.65
Q13   1   0.4935  0.2395  0.3834  11.00000  0.05    0.62
Q14   1   1.5031  0.2276  0.9142  11.00000  0.05    0.62
Q15   1   0.6296  0.2243  0.4074  11.00000  0.05    0.62
Q16   1   1.5000  0.5000  1.0000  10.50000  0.05    0.60
Q17   1   0.9112  0.3336  0.5085  11.00000  0.05    0.55
Q18   1   0.5849  0.4322  0.4861  11.00000  0.05    0.53
Q19   1   1.0372  0.3381  0.8248  11.00000  0.05    0.52
Q20   1   0.8953  0.4000  0.6206  11.00000  0.05    0.51
Q21   1   0.9226  0.2154  0.4512  11.00000  0.05    0.50
Q22   1   1.9140  0.0934  0.9247  11.00000  0.05    0.47
Q23   1   1.1143  0.1102  0.7009  11.00000  0.05    0.46
Q24   1   0.3920  0.0859  0.2394  11.00000  0.05    0.46
Q25   1   1.1782  0.8035  0.9377  11.00000  0.05    0.45
;
_shelx_res_checksum              10736
_shelx_hkl_file
;
   0   0   1    1.53    0.11
   0   0   1    1.27    0.10
   0   0  -1    1.19    0.08
   0   0  -1    1.62    0.11
   0   0   2    0.71    0.13
   0   0   2    0.69    0.13
   0   0  -2    0.68    0.14
   0   0  -2    0.58    0.11
   0   0   3    9.58    0.40
   0   0   3    9.23    0.41
   0   0  -3    8.86    0.34
   0   0  -3    9.92    0.42
   0   0   4    3.31    0.31
   0   0   4    3.10    0.34
   0   0  -4    4.04    0.27
   0   0  -4    3.05    0.26
   0   0   5   16.21    0.61
   0   0   5   16.17    0.58
   0   0  -5   15.60    0.51
   0   0  -5   16.31    0.54
   0   0   6   -0.01    0.24
   0   0   6    0.15    0.24
   0   0  -6    0.08    0.21
   0   0  -6    0.13    0.26
   0   0   7   10.51    0.52
   0   0  -7   10.46    0.50
   0   0  -7   11.51    0.49
   0   0   8   10.00    0.59
   0   0   8    9.43    0.56
   0   0  -8   10.27    0.53
   0   0  -8   10.14    0.49
   0   0   9   66.55    1.85
   0   0  -9   66.01    1.74
   0   0  -9   65.36    1.70
   0   0  10  132.61    3.50
   0   0 -10  136.22    3.26
   0   0 -10  127.54    3.31
   0   0  11   17.91    0.85
   0   0 -11   17.68    0.77
   0   0 -11   19.54    0.77
   0   0  12    0.06    0.50
   0   0 -12    0.32    0.39
   0   0 -12    0.29    0.47
   0   0  13    2.11    0.60
   0   0 -13    1.39    0.53
   0   0  14   -0.06    0.65
   0   0 -14    0.61    0.57
   0   0  15    1.93    0.74
   0   0 -15    2.51    0.63
   0   0  16    0.83    0.80
   0   0 -16   -0.73    0.63
   0   1 -16    0.88    0.66
   0  -1  16    0.44    0.75
   0   1 -15    0.59    0.61
   0  -1  15    1.43    0.68
   0   1 -14    2.31    0.60
   0  -1  14    1.35    0.62
   0   1 -13    2.32    0.54
   0  -1  13    1.88    0.57
   0   1 -12    7.53    0.63
   0  -1  12    7.15    0.69
   0   1 -11    1.87    0.46
   0   1 -11    2.01    0.35
   0  -1  11    2.48    0.45
   0   1 -10   54.83    1.56
   0   1 -10   57.47    1.50
   0  -1  10   57.44    1.65
   0   1  -9    3.40    0.37
   0   1  -9    2.90    0.31
   0  -1   9    3.10    0.37
   0   1  -8   20.48    0.65
   0   1  -8   21.26    0.72
   0  -1   8   20.58    0.75
   0   1  -7    2.19    0.32
   0   1  -7    1.68    0.24
   0  -1   7    1.42    0.28
   0   1  -6    0.89    0.21
   0   1  -6    1.28    0.28
   0  -1   6    0.98    0.26
   0   1  -5    1.85    0.20
   0   1  -5    2.54    0.27
   0  -1   5    1.97    0.24
   0   1  -4    3.13    0.26
   0   1  -4    2.27    0.24
   0  -1   4    3.02    0.23
   0   1  -3   37.30    0.98
   0   1  -3   38.05    0.93
   0  -1   3   35.37    1.17
   0  -1   3   36.83    1.01
   0   1  -2   34.87    0.87
   0   1  -2   34.38    0.85
   0  -1   2   33.58    1.06
   0   1  -1  118.12    3.56
   0   1  -1  118.87    2.86
   0   1  -1  117.18    3.01
   0   1  -1  118.51    2.83
   0   1   0  107.27    3.14
   0   1   0  100.75    2.68
   0  -1   0  103.10    2.49
   0  -1   0  106.37    2.64
   0   1   1   31.54    1.03
   0   1   1   31.73    0.85
   0  -1  -1   29.28    0.78
   0  -1  -1   33.10    0.78
   0   1   2   29.37    0.83
   0   1   2   29.92    1.02
   0  -1  -2   28.85    0.78
   0  -1  -2   30.59    0.76
   0   1   3    6.82    0.51
   0   1   3    5.12    0.38
   0  -1  -3    4.98    0.28
   0   1   4    0.52    0.21
   0   1   4    0.57    0.30
   0  -1  -4    0.60    0.20
   0  -1  -4    0.83    0.21
   0   1   5    0.47    0.24
   0   1   5    0.66    0.33
   0  -1  -5    0.56    0.23
   0  -1  -5    0.18    0.21
   0   1   6    1.32    0.28
   0   1   6    1.40    0.37
   0  -1  -6    1.26    0.27
   0  -1  -6    1.25    0.26
   0   1   7   29.17    0.93
   0   1   7   27.96    1.09
   0  -1  -7   28.66    0.86
   0  -1  -7   29.57    0.86
   0   1   8    6.08    0.66
   0   1   8    6.56    0.54
   0  -1  -8    7.22    0.48
   0  -1  -8    7.24    0.47
   0   1   9  124.85    3.29
   0  -1  -9  122.27    3.10
   0  -1  -9  125.39    3.07
   0   1  10    5.50    0.53
   0  -1 -10    5.18    0.53
   0  -1 -10    5.12    0.46
   0   1  11   11.23    0.78
   0  -1 -11   11.19    0.67
   0  -1 -11   11.02    0.67
   0   1  12    0.07    0.56
   0  -1 -12    1.21    0.49
   0  -1 -12    0.50    0.41
   0   1  13   -0.16    0.62
   0  -1 -13    0.64    0.51
   0   1  14    2.86    0.74
   0  -1 -14    2.31    0.57
   0   1  15   -1.45    0.72
   0  -1 -15   -0.05    0.60
   0   1  16    0.68    0.83
   0   2 -16    9.19    0.85
   0  -2  16    8.61    0.90
   0   2 -15   21.76    1.02
   0  -2  15   20.07    1.07
   0   2 -14    1.08    0.59
   0  -2  14    1.99    0.61
   0   2 -13    3.61    0.57
   0  -2  13    3.87    0.60
   0   2 -12    0.84    0.48
   0  -2  12    0.64    0.48
   0   2 -11    0.50    0.43
   0   2 -11    0.21    0.30
   0  -2  11    0.24    0.41
   0   2 -10    0.39    0.28
   0   2 -10    0.95    0.39
   0  -2  10    0.55    0.37
   0   2  -9    3.27    0.30
   0   2  -9    3.93    0.39
   0  -2   9    3.42    0.37
   0   2  -8    8.32    0.41
   0   2  -8    8.36    0.49
   0  -2   8    8.42    0.52
   0   2  -7    2.44    0.31
   0   2  -7    2.27    0.23
   0  -2   7    2.14    0.29
   0   2  -6  149.79    3.69
   0   2  -6  149.51    3.62
   0  -2   6  154.62    4.50
   0  -2   6  150.91    3.88
   0   2  -5   12.76    0.49
   0   2  -5   12.06    0.41
   0  -2   5   12.48    0.51
   0  -2   5   10.27    0.55
   0   2  -4   24.16    0.70
   0   2  -4   23.70    0.66
   0  -2   4   23.80    0.82
   0  -2   4   23.83    0.72
   0   2  -3    1.57    0.42
   0   2  -3    1.86    0.23
   0   2  -3    1.89    0.22
   0   2  -3    1.55    0.17
   0   2  -2    6.29    0.35
   0   2  -2    6.10    0.37
   0   2  -2    7.69    0.57
   0   2  -2    6.17    0.33
   0   2  -1  152.60    3.64
   0   2  -1  147.47    3.83
   0   2  -1  155.36    4.56
   0   2  -1  149.02    3.61
   0   2   0    2.04    0.19
   0   2   0    2.74    0.44
   0  -2   0    1.87    0.16
   0  -2   0    2.75    0.19
   0   2   1    4.93    0.35
   0   2   1    6.97    0.57
   0  -2  -1    6.24    0.23
   0  -2  -1    6.09    0.34
   0   2   2   25.11    0.86
   0   2   2   32.07    1.14
   0  -2  -2   28.38    0.73
   0  -2  -2   27.99    0.79
   0   2   3    9.14    0.70
   0   2   3    9.38    0.47
   0  -2  -3    9.34    0.44
   0  -2  -3    9.92    0.36
   0   2   4  111.96    2.91
   0   2   4  111.96    3.43
   0  -2  -4  109.80    2.73
   0  -2  -4  114.08    2.72
   0   2   5    7.07    0.49
   0   2   5    7.29    0.73
   0  -2  -5    8.14    0.41
   0  -2  -5    6.50    0.46
   0   2   6    7.16    0.72
   0   2   6    6.90    0.52
   0  -2  -6    7.45    0.48
   0  -2  -6    7.86    0.43
   0   2   7    3.00    0.53
   0   2   7    3.10    0.39
   0  -2  -7    3.16    0.31
   0  -2  -7    3.09    0.33
   0   2   8   17.79    0.75
   0   2   8   13.77    0.95
   0  -2  -8   14.89    0.63
   0  -2  -8   16.16    0.62
   0   2   9   19.83    0.86
   0  -2  -9   19.23    0.77
   0  -2  -9   20.02    0.73
   0   2  10    3.01    0.54
   0  -2 -10    3.06    0.43
   0  -2 -10    3.32    0.46
   0   2  11    2.73    0.60
   0  -2 -11    3.67    0.47
   0  -2 -11    3.39    0.49
   0   2  12    1.04    0.60
   0  -2 -12    1.48    0.50
   0  -2 -12    0.88    0.47
   0   2  13    7.61    0.80
   0  -2 -13    7.07    0.69
   0  -2 -13    7.63    0.73
   0   2  14    0.62    0.76
   0  -2 -14    0.73    0.56
   0   2  15    1.31    0.84
   0   3 -16   35.30    1.36
   0  -3  16   34.23    1.38
   0   3 -15    7.19    0.75
   0  -3  15    6.17    0.75
   0   3 -14   10.78    0.81
   0  -3  14   11.45    0.83
   0   3 -13    1.37    0.55
   0  -3  13    0.59    0.54
   0   3 -12    0.53    0.48
   0  -3  12    0.21    0.47
   0   3 -11    8.14    0.63
   0   3 -11    9.15    0.50
   0  -3  11    8.44    0.66
   0   3 -10    0.30    0.38
   0   3 -10    0.01    0.24
   0  -3  10    0.10    0.36
   0   3  -9    6.00    0.51
   0   3  -9    5.73    0.41
   0  -3   9    6.14    0.53
   0   3  -8   23.67    0.79
   0   3  -8   24.20    0.72
   0  -3   8   24.10    0.83
   0  -3   8   22.43    0.88
   0   3  -7   65.60    1.72
   0   3  -7   66.02    1.65
   0  -3   7   65.77    2.06
   0  -3   7   66.70    1.80
   0   3  -6  189.13    4.54
   0   3  -6  183.65    4.46
   0  -3   6  190.36    5.55
   0  -3   6  185.14    4.77
   0   3  -5    3.68    0.29
   0   3  -5    2.99    0.30
   0   3  -4   50.46    1.30
   0   3  -4   50.14    1.35
   0   3  -4   48.84    1.74
   0   3  -4   50.68    1.27
   0   3  -3    2.71    0.25
   0   3  -3    2.56    0.23
   0   3  -3    2.54    0.53
   0   3  -3    3.32    0.34
   0   3  -2   50.48    1.31
   0   3  -2   53.58    1.83
   0   3  -2   51.89    1.33
   0   3  -2   53.43    1.40
   0   3  -1   37.26    1.04
   0   3  -1   37.41    1.46
   0   3   0    1.44    0.53
   0   3   0    1.22    0.21
   0  -3   0    1.70    0.21
   0  -3   0    1.10    0.12
   0   3   1   47.75    1.67
   0   3   1   46.17    1.28
   0  -3  -1   45.75    1.14
   0  -3  -1   47.10    1.19
   0   3   2    0.05    0.23
   0   3   2    0.51    0.48
   0  -3  -2   -0.08    0.11
   0  -3  -2    0.13    0.21
   0   3   3  269.08    8.05
   0   3   3  278.36    6.84
   0  -3  -3  264.98    6.40
   0  -3  -3  265.56    6.44
   0   3   4   46.84    1.34
   0   3   4   46.40    1.68
   0  -3  -4   45.42    1.17
   0  -3  -4   45.33    1.23
   0   3   5   30.71    1.29
   0   3   5   32.40    1.03
   0  -3  -5   31.78    0.94
   0  -3  -5   31.35    0.86
   0   3   6    5.55    0.62
   0   3   6    6.65    0.57
   0  -3  -6    6.75    0.41
   0  -3  -6    5.95    0.52
   0   3   7   -0.20    0.55
   0   3   7    0.14    0.38
   0  -3  -7   -0.18    0.27
   0  -3  -7    0.33    0.33
   0   3   8    5.51    0.73
   0   3   8    6.06    0.62
   0  -3  -8    6.91    0.52
   0  -3  -8    6.35    0.46
   0   3   9   -0.51    0.46
   0  -3  -9   -0.31    0.40
   0  -3  -9   -0.14    0.34
   0   3  10    2.20    0.59
   0  -3 -10    3.19    0.44
   0  -3 -10    3.82    0.49
   0   3  11    9.12    0.85
   0  -3 -11   10.39    0.65
   0  -3 -11   11.03    0.73
   0   3  12   13.63    0.97
   0  -3 -12   14.34    0.83
   0   3  13   39.13    1.56
   0  -3 -13   41.31    1.38
   0   3  14   -0.65    0.78
   0   3  15    1.80    0.92
   0   4 -16   11.50    0.98
   0  -4  16   10.42    0.93
   0   4 -15    0.07    0.68
   0  -4  15   -0.36    0.64
   0   4 -14   10.39    0.84
   0  -4  14    9.68    0.82
   0   4 -13    0.95    0.57
   0  -4  13    0.03    0.53
   0   4 -12    4.28    0.55
   0  -4  12    4.25    0.56
   0   4 -11   -0.04    0.45
   0  -4  11    0.33    0.42
   0   4 -10    2.44    0.28
   0   4 -10    3.00    0.43
   0  -4  10    2.04    0.41
   0   4  -9    9.28    0.45
   0   4  -9   10.66    0.60
   0  -4   9   10.84    0.62
   0   4  -8    0.68    0.31
   0   4  -8    0.68    0.22
   0  -4   8    0.25    0.32
   0  -4   8    0.47    0.31
   0   4  -7  162.50    3.90
   0   4  -7  163.54    3.98
   0  -4   7  159.15    4.17
   0  -4   7  164.37    4.86
   0   4  -6   12.95    0.51
   0   4  -6   13.51    0.57
   0  -4   6   15.00    0.63
   0   4  -5   18.09    0.63
   0   4  -5   16.75    1.06
   0   4  -5   19.29    0.66
   0   4  -5   19.07    0.61
   0   4  -4   12.28    0.97
   0   4  -4   13.18    0.53
   0   4  -4   13.46    0.52
   0   4  -4   13.54    0.52
   0   4  -3   12.32    0.52
   0   4  -3   13.81    1.01
   0   4  -3   13.29    0.48
   0   4  -3   13.38    0.54
   0   4  -2   26.80    1.24
   0   4  -2   26.13    0.80
   0   4  -2   27.11    0.84
   0   4  -2   27.00    0.74
   0   4  -1   10.04    0.92
   0   4  -1    8.58    0.46
   0  -4   1   10.47    0.34
   0  -4   1    9.85    0.42
   0   4   0   34.18    1.45
   0   4   0   35.16    1.01
   0  -4   0   34.53    0.87
   0  -4   0   34.23    0.93
   0   4   1   20.70    0.75
   0   4   1   22.56    1.18
   0  -4  -1   22.58    0.57
   0  -4  -1   22.26    0.68
   0   4   2   38.97    1.17
   0   4   2   40.85    1.59
   0  -4  -2   41.07    1.09
   0   4   3  239.27    7.27
   0   4   3  244.70    6.14
   0  -4  -3  237.97    5.74
   0   4   4    8.25    0.55
   0   4   4    9.30    0.95
   0  -4  -4    8.20    0.36
   0  -4  -4    8.95    0.50
   0   4   5    8.21    0.59
   0   4   5    7.20    0.76
   0  -4  -5    7.11    0.37
   0  -4  -5    8.19    0.52
   0   4   6    0.93    0.41
   0   4   6    0.77    0.65
   0  -4  -6    0.88    0.35
   0  -4  -6    0.82    0.26
   0   4   7    0.81    0.70
   0   4   7    0.75    0.45
   0  -4  -7    1.09    0.39
   0  -4  -7    0.71    0.29
   0   4   8    8.64    0.92
   0   4   8    9.65    0.74
   0  -4  -8    8.44    0.51
   0  -4  -8    8.99    0.62
   0   4   9    0.26    0.57
   0  -4  -9   -0.19    0.43
   0   4  10   20.75    1.07
   0  -4 -10   20.19    0.85
   0   4  11   -0.54    0.67
   0  -4 -11   -0.18    0.50
   0   4  12   44.52    1.66
   0  -4 -12   47.08    1.48
   0   4  13   17.33    1.21
   0  -4 -13   18.12    0.98
   0   4  14    8.47    0.99
   0   5 -16    0.56    0.76
   0  -5  16    0.29    0.71
   0   5 -15    2.52    0.72
   0  -5  15    2.45    0.68
   0   5 -14    5.34    0.74
   0  -5  14    3.94    0.67
   0   5 -13    2.27    0.63
   0  -5  13    1.30    0.57
   0   5 -12    9.04    0.72
   0  -5  12    9.00    0.70
   0   5 -11   -0.01    0.49
   0  -5  11    0.21    0.43
   0   5 -10   13.41    0.57
   0   5 -10   14.12    0.75
   0  -5  10   14.97    0.73
   0   5  -9    6.44    0.43
   0   5  -9    6.34    0.56
   0  -5   9    5.82    0.55
   0   5  -8    5.11    0.52
   0   5  -8    4.32    0.39
   0  -5   8    4.71    0.46
   0  -5   8    4.50    0.49
   0   5  -7   11.85    0.51
   0   5  -7   11.32    0.56
   0  -5   7   11.06    0.61
   0   5  -6    1.51    0.31
   0   5  -6    1.50    0.65
   0   5  -6    1.46    0.31
   0   5  -6    1.14    0.27
   0   5  -5   31.07    0.92
   0   5  -5   30.53    1.43
   0   5  -5   31.87    0.93
   0   5  -5   32.77    0.95
   0   5  -4    8.21    0.83
   0   5  -4    6.82    0.40
   0   5  -4    7.22    0.48
   0   5  -4    6.56    0.44
   0   5  -3    1.41    0.25
   0   5  -3    2.12    0.34
   0   5  -3    1.99    0.24
   0   5  -3    1.96    0.68
   0   5  -2    1.39    0.27
   0   5  -2    2.05    0.66
   0  -5   2    2.02    0.29
   0   5  -1   13.66    1.05
   0   5  -1   11.36    0.55
   0  -5   1   13.09    0.52
   0  -5   1   13.08    0.41
   0   5   0   23.57    0.81
   0   5   0   24.25    1.30
   0  -5   0   23.85    0.64
   0  -5   0   24.79    0.74
   0   5   1   -0.38    0.65
   0   5   1    0.24    0.28
   0  -5  -1    0.21    0.27
   0   5   2   39.90    1.69
   0   5   2   41.47    1.22
   0  -5  -2   40.26    1.11
   0   5   3    8.21    0.98
   0   5   3    7.75    0.57
   0  -5  -3    7.96    0.50
   0   5   4   17.11    1.18
   0   5   4   17.04    0.74
   0  -5  -4   17.89    0.68
   0  -5  -4   16.50    0.53
   0   5   5   14.59    1.17
   0   5   5   14.76    0.73
   0  -5  -5   14.03    0.65
   0   5   6   -0.12    0.73
   0   5   6    0.01    0.42
   0  -5  -6   -0.01    0.38
   0   5   7   -0.33    0.78
   0   5   7    0.49    0.48
   0  -5  -7    0.03    0.43
   0   5   8   -0.17    0.85
   0   5   8   -0.31    0.53
   0  -5  -8    0.30    0.45
   0   5   9   10.87    0.88
   0  -5  -9    8.21    0.69
   0   5  10    4.70    0.74
   0  -5 -10    3.54    0.56
   0   5  11    9.81    0.98
   0  -5 -11    8.13    0.75
   0   5  12   23.06    1.26
   0  -5 -12   21.95    1.03
   0   5  13    1.36    0.86
   0  -5 -13    0.21    0.64
   0   6 -15    9.21    0.93
   0  -6  15    8.24    0.78
   0   6 -14    1.08    0.68
   0  -6  14    0.83    0.61
   0   6 -13   24.06    1.06
   0  -6  13   21.55    0.99
   0   6 -12   16.31    0.87
   0  -6  12   14.49    0.81
   0   6 -11    7.49    0.70
   0  -6  11    6.97    0.66
   0   6 -10    9.33    0.69
   0  -6  10    9.21    0.67
   0   6  -9    1.94    0.35
   0   6  -9    1.71    0.46
   0  -6   9    1.37    0.43
   0   6  -8   10.54    0.61
   0   6  -8   10.78    0.56
   0  -6   8   10.34    0.67
   0   6  -7   -0.19    0.31
   0   6  -7    0.11    0.34
   0   6  -7    0.26    0.36
   0   6  -6    4.06    0.37
   0   6  -6    3.92    0.37
   0   6  -6    4.33    0.83
   0   6  -6    3.81    0.38
   0   6  -5   31.15    0.95
   0   6  -5   31.70    0.92
   0   6  -5   30.22    0.96
   0   6  -5   29.87    1.50
   0   6  -4   28.77    1.50
   0   6  -4   30.70    0.87
   0   6  -4   30.04    0.92
   0   6  -4   28.32    0.97
   0   6  -3   78.79    2.04
   0   6  -3   74.65    2.67
   0  -6   3   74.96    1.91
   0   6  -2    5.57    0.47
   0   6  -2    6.34    0.81
   0  -6   2    6.36    0.32
   0  -6   2    5.71    0.45
   0   6  -1   45.87    1.29
   0   6  -1   42.53    1.81
   0  -6   1   43.26    1.20
   0  -6   1   45.06    1.12
   0   6   0    1.66    0.71
   0   6   0    1.65    0.32
   0  -6   0    1.79    0.31
   0   6   1    0.11    0.71
   0   6   1    0.38    0.32
   0  -6  -1    0.14    0.30
   0   6   2    3.78    0.41
   0   6   2    4.08    0.84
   0  -6  -2    3.94    0.38
   0   6   3    1.51    0.38
   0   6   3    0.91    0.80
   0  -6  -3    1.93    0.36
   0   6   4   24.44    1.48
   0   6   4   24.63    0.95
   0  -6  -4   23.76    0.86
   0   6   5    3.07    0.50
   0   6   5    2.92    0.91
   0  -6  -5    3.17    0.42
   0   6   6   29.34    1.67
   0   6   6   29.75    1.10
   0  -6  -6   30.62    1.04
   0   6   7   13.92    0.82
   0   6   7   12.34    1.42
   0  -6  -7   14.07    0.78
   0   6   8    4.24    1.07
   0   6   8    4.33    0.62
   0  -6  -8    4.35    0.58
   0   6   9   10.87    0.87
   0  -6  -9   10.71    0.77
   0   6  10    1.85    0.66
   0  -6 -10    1.01    0.55
   0   6  11    1.23    0.71
   0  -6 -11    0.41    0.58
   0   6  12    1.44    0.74
   0  -6 -12    1.07    0.62
   0   7 -15    6.83    0.82
   0  -7  15    5.27    0.76
   0   7 -14    6.40    0.77
   0  -7  14    4.40    0.67
   0   7 -13   34.98    1.26
   0  -7  13   34.21    1.26
   0   7 -12    0.16    0.57
   0  -7  12    0.46    0.53
   0   7 -11   14.38    0.81
   0  -7  11   13.41    0.79
   0   7 -10    0.17    0.47
   0  -7  10    0.41    0.46
   0   7  -9    4.38    0.46
   0   7  -9    4.73    0.51
   0  -7   9    4.26    0.49
   0   7  -8    7.87    0.61
   0   7  -8    8.83    0.59
   0   7  -7   -0.12    0.38
   0   7  -7    0.51    0.40
   0   7  -7   -0.10    0.37
   0   7  -7    0.81    0.90
   0   7  -6   19.70    1.41
   0   7  -6   17.90    0.80
   0   7  -6   18.49    0.72
   0   7  -6   18.57    0.72
   0   7  -5    7.89    1.05
   0   7  -5    8.77    0.51
   0   7  -5    8.23    0.55
   0   7  -4   70.53    2.68
   0   7  -4   71.63    1.93
   0  -7   4   70.72    1.82
   0   7  -3   40.75    1.24
   0   7  -3   43.66    1.91
   0  -7   3   42.87    1.11
   0  -7   3   41.56    1.18
   0   7  -2   22.65    0.80
   0   7  -2   21.97    1.40
   0  -7   2   22.51    0.77
   0  -7   2   22.10    0.65
   0   7  -1    8.23    0.96
   0   7  -1    9.01    0.56
   0  -7   1    8.64    0.52
   0   7   0    0.13    0.77
   0   7   0   -0.09    0.34
   0  -7   0   -0.09    0.33
   0   7   1   20.35    0.83
   0   7   1   18.23    1.37
   0  -7  -1   20.87    0.76
   0   7   2    1.08    0.87
   0   7   2    2.17    0.43
   0  -7  -2    2.07    0.40
   0   7   3    5.79    0.54
   0   7   3    6.69    1.04
   0  -7  -3    6.69    0.56
   0   7   4   23.63    1.61
   0   7   4   23.40    0.98
   0  -7  -4   23.77    0.90
   0   7   5    4.80    1.10
   0   7   5    4.86    0.59
   0  -7  -5    5.73    0.53
   0   7   6   75.18    2.99
   0   7   6   79.39    2.27
   0  -7  -6   78.08    2.10
   0   7   7    0.58    0.55
   0   7   7    0.60    1.12
   0  -7  -7    1.19    0.55
   0   7   8   14.31    1.64
   0   7   8   12.77    0.87
   0  -7  -8   12.18    0.85
   0   7   9   -0.14    0.63
   0  -7  -9    0.00    0.58
   0   7  10    2.98    0.72
   0  -7 -10    2.31    0.64
   0   7  11    7.59    0.87
   0  -7 -11    6.11    0.72
   0   8 -14    4.81    0.74
   0  -8  14    5.22    0.69
   0   8 -13    2.18    0.64
   0  -8  13    1.63    0.60
   0   8 -12    0.71    0.59
   0  -8  12    1.56    0.57
   0   8 -11   11.87    0.79
   0  -8  11   10.79    0.75
   0   8 -10    3.87    0.56
   0  -8  10    2.94    0.52
   0   8  -9    3.16    0.52
   0   8  -8    1.76    0.48
   0   8  -8    1.79    0.50
   0   8  -8    1.02    0.46
   0   8  -7   11.82    1.48
   0   8  -7   10.53    0.66
   0   8  -7   10.00    0.63
   0   8  -7   10.64    0.80
   0   8  -6    8.57    1.20
   0   8  -6    9.04    0.61
   0   8  -5    9.60    0.62
   0   8  -5    9.65    1.24
   0  -8   5    9.81    0.61
   0   8  -4   40.47    1.22
   0   8  -4   38.65    2.02
   0  -8   4   41.27    1.19
   0   8  -3    0.33    0.39
   0   8  -3    0.80    0.99
   0  -8   3    0.77    0.41
   0   8  -2   14.11    0.68
   0   8  -2   14.50    1.44
   0  -8   2   13.83    0.67
   0   8  -1    3.90    0.44
   0   8  -1    3.57    0.98
   0  -8   1    4.70    0.47
   0   8   0    1.14    0.41
   0   8   0    1.41    0.96
   0  -8   0    0.59    0.42
   0   8   1    8.26    0.68
   0   8   1    8.69    1.14
   0  -8  -1    9.11    0.63
   0   8   2    1.55    0.50
   0   8   2    1.96    1.02
   0  -8  -2    2.75    0.47
   0   8   3   26.14    1.79
   0   8   3   29.73    1.13
   0  -8  -3   30.12    1.04
   0   8   4    1.01    1.08
   0   8   4    1.02    0.54
   0  -8  -4    0.11    0.45
   0   8   5   22.34    1.77
   0   8   5   22.99    1.06
   0  -8  -5   22.77    0.95
   0   8   6   17.66    0.99
   0   8   6   16.90    1.71
   0  -8  -6   17.64    0.90
   0   8   7    3.81    1.29
   0  -8  -7    4.10    0.64
   0   8   8    5.75    1.37
   0  -8  -8    6.35    0.72
   0  -8  -9    0.09    0.62
   0  -8 -10    3.02    0.69
   0   9 -13    0.46    0.69
   0  -9  13    0.95    0.61
   0   9 -12    4.93    0.70
   0  -9  12    2.81    0.62
   0   9 -11    4.51    0.66
   0  -9  11    3.17    0.58
   0   9 -10    7.09    0.72
   0  -9  10    4.97    0.57
   0   9  -9   14.71    0.81
   0   9  -8    2.90    0.53
   0   9  -8    2.94    0.51
   0   9  -7    6.66    1.31
   0   9  -7    7.93    0.63
   0  -9   7    6.04    0.60
   0   9  -6    0.38    1.19
   0   9  -6    0.40    0.43
   0  -9   6   -0.38    0.45
   0   9  -5    0.35    0.42
   0   9  -5    0.04    1.21
   0  -9   5   -0.05    0.46
   0   9  -4    1.39    1.24
   0   9  -4   -0.01    0.40
   0  -9   4   -0.28    0.45
   0   9  -3    2.16    0.44
   0   9  -3    2.26    1.22
   0  -9   3    2.48    0.48
   0   9  -2   10.70    1.36
   0  -9   2   13.61    0.71
   0   9  -1   -0.70    1.07
   0  -9   1   -0.18    0.46
   0   9   0   10.25    1.33
   0  -9   0   13.99    0.74
   0   9   1    1.89    1.12
   0  -9  -1    0.30    0.49
   0   9   2   13.21    1.56
   0  -9  -2   15.07    0.81
   0   9   3    2.10    1.19
   0  -9  -3    1.77    0.55
   0   9   4   -0.63    1.19
   0  -9  -4    0.27    0.53
   0   9   5    4.17    1.28
   0  -9  -5    1.37    0.59
   0   9   6   -0.77    1.24
   0  -9  -6   -1.47    0.59
   0   9   7    5.65    1.44
   0  -9  -7    4.05    0.72
   0   9   8    0.78    1.41
   0  -9  -8    2.02    0.71
   0  -9  -9    1.59    0.72
   0  10 -12    7.79    0.78
   0  10  -8    9.81    1.50
   0  10  -7    0.43    1.34
   0 -10   7   -0.43    0.50
   0  10  -6    0.21    1.32
   0 -10   6    0.75    0.51
   0  10  -5    5.62    1.43
   0 -10   5    8.13    0.70
   0  10  -4    0.47    1.36
   0 -10   4    1.08    0.52
   0  10  -3    5.33    1.45
   0 -10   3    4.77    0.58
   0  10  -2    6.77    1.42
   0 -10   2    7.10    0.64
   0  10  -1   26.78    1.98
   0 -10   1   29.01    1.08
   0  10   0   27.21    1.96
   0 -10   0   30.04    1.09
   0  10   1    0.45    1.27
   0 -10  -1    0.93    0.57
   0  10   2    6.27    1.41
   0 -10  -2    7.52    0.78
   0  10   3    0.45    1.32
   0 -10  -3    0.89    0.61
   0  10   4    3.30    1.40
   0 -10  -4    2.51    0.64
   0  10   5    1.88    1.44
   0 -10  -5    1.32    0.66
   0  10   6    2.02    1.46
   0 -10  -6   -1.77    0.64
   0  10   7    9.75    1.70
   0 -10  -7    9.26    0.95
   0  11  -8    4.07    1.53
   0  11  -7    0.70    1.51
   0  11  -6    3.70    1.54
   0 -11   6    4.41    0.64
   0  11  -5    3.01    1.53
   0 -11   5    1.16    0.58
   0  11  -4    2.91    1.54
   0 -11   4    1.82    0.60
   0  11  -3    7.08    1.66
   0 -11   3    8.20    0.80
   0  11  -2    2.88    1.52
   0 -11   2    1.06    0.61
   0  11  -1   34.90    2.38
   0 -11   1   42.77    1.38
   0  11   0    4.46    1.45
   0 -11   0    3.33    0.67
   0  11   1    6.10    1.54
   0 -11  -1    7.18    0.74
   0  11   2    1.00    1.46
   0 -11  -2    0.84    0.67
   0  11   3    0.65    1.47
   0 -11  -3   -0.23    0.64
   0  11   4    3.00    1.56
   0 -11  -4    4.64    0.74
   0  11   5    0.82    1.55
   0 -11  -5   -1.09    0.69
   0  12  -8    3.17    1.63
   0  12  -7    4.17    1.71
   0  12  -6    3.64    1.70
   0 -12   6    3.23    0.68
   0  12  -5    0.98    1.63
   0 -12   5    0.32    0.66
   0  12  -4    3.84    1.70
   0 -12   4    4.10    0.71
   0  12  -3   -0.80    1.62
   0 -12   3    0.24    0.67
   0  12  -2    1.52    1.70
   0 -12   2    1.55    0.68
   0  12  -1    4.69    1.73
   0 -12   1    8.14    0.79
   0  12   0    0.29    1.59
   0 -12   0    0.12    0.69
   0  12   1    0.24    1.61
   0 -12  -1    0.31    0.71
   0  12   2   -0.18    1.62
   0 -12  -2   -0.01    0.73
  -1  12   2    0.55    1.51
   1 -12  -1    0.09    0.67
  -1  12   1    0.65    1.48
   1 -12   0   -0.34    0.65
  -1  12   0   -0.73    1.48
   1 -12   1   -0.01    0.66
  -1  12  -1   -0.73    1.45
   1 -12   2    1.12    0.65
  -1  12  -2    1.37    1.52
   1 -12   3    4.77    0.72
  -1  12  -3    2.99    1.57
   1 -12   4    7.98    0.78
  -1  12  -4    7.77    1.73
   1 -12   5   19.51    1.01
  -1  12  -5   19.03    2.25
   1 -12   6    1.23    0.68
  -1  12  -6    0.85    1.66
   1 -12   7    2.82    0.68
   1 -11  -5   -0.21    0.70
  -1  11   5    0.24    1.54
   1 -11  -4    0.31    0.68
  -1  11   4    1.66    1.48
   1 -11  -3    2.01    0.67
  -1  11   3    2.44    1.48
   1 -11  -2    2.05    0.64
  -1  11   2   -0.60    1.37
   1 -11  -1   20.46    0.99
  -1  11   1   16.38    1.89
   1 -11   0    6.88    0.70
  -1  11   0    5.42    1.47
   1 -11   1   -0.15    0.57
  -1  11  -1    0.61    1.34
   1 -11   2    6.60    0.69
  -1  11  -2    2.93    1.44
   1 -11   3   -0.64    0.59
  -1  11  -3    0.64    1.37
   1 -11   4   -0.32    0.59
  -1  11  -4    0.11    1.39
   1 -11   5    0.93    0.60
  -1  11  -5    0.95    1.42
   1 -11   6    3.83    0.65
  -1  11  -6    5.60    1.52
  -1  11  -7    1.07    1.47
  -1  11  -9   11.29    1.08
  -1  11 -10    0.69    0.74
   1 -10  -7    0.52    0.70
  -1  10   7    0.37    1.49
   1 -10  -6    5.86    0.74
  -1  10   6    6.92    1.54
   1 -10  -5    0.54    0.65
  -1  10   5   -0.67    1.37
   1 -10  -4   -0.12    0.59
  -1  10   4    1.26    1.34
   1 -10  -3    9.04    0.78
  -1  10   3    7.63    1.47
   1 -10  -2    8.06    0.76
  -1  10   2    5.53    1.38
   1 -10  -1   54.88    1.58
  -1  10   1   48.54    2.52
   1 -10   0   -0.52    0.51
  -1  10   0   -1.29    1.24
   1 -10   1    9.42    0.73
  -1  10  -1    9.44    1.43
   1 -10   2   -0.12    0.53
  -1  10  -2    0.54    1.22
   1 -10   3    1.55    0.55
  -1  10  -3    1.31    1.26
   1 -10   4    3.23    0.58
  -1  10  -4    2.26    1.26
  -1  10  -5    0.68    1.22
  -1  10  -6    5.72    1.36
  -1  10  -6    6.26    0.79
  -1  10  -7    1.93    0.72
  -1  10  -7    1.72    1.31
   1 -10   8   34.03    1.12
  -1  10  -8   33.28    1.32
   1 -10   9   17.81    0.81
  -1  10  -9   17.64    1.01
   1 -10  10    2.75    0.54
  -1  10 -10    3.94    0.69
   1 -10  11    1.26    0.55
  -1  10 -11    0.68    0.64
   1 -10  12   -0.88    0.55
   1  -9  -9    6.11    0.82
  -1   9   9    7.13    1.55
   1  -9  -8   -1.21    0.66
  -1   9   8    1.32    1.36
   1  -9  -7    0.64    0.64
  -1   9   7    0.35    1.32
   1  -9  -6    1.30    0.61
  -1   9   6    1.38    1.29
   1  -9  -5   -0.07    0.57
  -1   9   5    0.43    1.23
   1  -9  -4   15.60    0.86
  -1   9   4   12.97    1.46
   1  -9  -3    0.11    0.52
  -1   9   3    1.00    1.15
   1  -9  -2   32.67    1.11
  -1   9   2   28.22    1.87
   1  -9  -1   26.09    0.95
  -1   9   1   22.60    1.74
   1  -9   0   10.00    0.70
  -1   9   0   10.02    1.30
   1  -9   1    6.65    0.57
  -1   9  -1    5.84    1.22
   1  -9   2   -0.05    0.46
  -1   9  -2    0.38    1.12
   1  -9   3   10.71    0.68
  -1   9  -3    9.02    1.29
   1  -9   4    0.38    0.30
  -1   9  -4    0.83    1.08
   1  -9   5    2.25    0.36
  -1   9  -5    3.14    1.11
  -1   9  -5    3.09    0.65
   1  -9   6   17.23    0.70
  -1   9  -6   15.55    1.53
  -1   9  -6   14.70    0.90
   1  -9   7    9.71    0.60
  -1   9  -7    9.55    0.79
  -1   9  -7    9.66    1.28
   1  -9   8   42.36    1.29
  -1   9  -8   43.23    1.41
   1  -9   9    0.58    0.47
  -1   9  -9    1.58    0.57
   1  -9  10   12.17    0.76
  -1   9 -10   12.25    0.80
  -1   9 -11   -0.67    0.52
   1  -8 -10    2.08    0.72
   1  -8  -9    5.55    0.72
  -1   8   9    5.89    1.43
   1  -8  -8   -0.78    0.60
  -1   8   8    0.41    1.30
   1  -8  -7    6.61    0.68
  -1   8   7    7.28    1.37
   1  -8  -6    0.86    0.56
  -1   8   6   -0.51    1.20
   1  -8  -5    4.68    0.58
  -1   8   5    5.06    1.22
   1  -8  -4   10.25    0.69
  -1   8   4    9.01    1.29
   1  -8  -3    0.81    0.47
  -1   8   3   -0.10    1.03
   1  -8  -2    6.34    0.59
  -1   8   2    6.25    1.12
   1  -8  -1    0.12    0.41
  -1   8   1   -0.27    0.94
   1  -8   0   14.41    0.71
  -1   8   0   13.82    1.40
   1  -8   1    2.25    0.43
   1  -8   1    3.98    0.40
  -1   8  -1    1.59    0.97
   1  -8   2    4.71    0.48
   1  -8   2    4.61    0.38
  -1   8  -2    4.53    1.04
   1  -8   3    5.52    0.42
  -1   8  -3    5.17    0.62
  -1   8  -3    5.57    1.06
   1  -8   4    0.74    0.30
  -1   8  -4    0.30    0.51
  -1   8  -4    0.28    0.93
   1  -8   5   14.27    0.61
  -1   8  -5   13.65    1.36
  -1   8  -5   13.63    0.78
   1  -8   6    2.25    0.38
  -1   8  -6    2.53    0.50
  -1   8  -6    2.52    0.95
   1  -8   7   12.59    0.64
  -1   8  -7   14.46    0.78
  -1   8  -7   13.60    1.39
   1  -8   8    7.30    0.59
  -1   8  -8    6.52    0.65
  -1   8  -9    5.30    0.56
  -1   8 -10    4.31    0.55
  -1   8 -11   -0.34    0.47
  -1   8 -12    0.06    0.49
  -1   8 -12    0.73    0.61
  -1   8 -13    0.80    0.66
  -1   8 -14    1.74    0.73
   1  -7 -11    0.20    0.62
   1  -7 -10    5.06    0.70
  -1   7  10    4.43    1.36
   1  -7  -9    1.89    0.62
  -1   7   9    1.07    1.27
   1  -7  -8   26.89    1.04
  -1   7   8   25.60    1.83
   1  -7  -7   23.13    0.94
  -1   7   7   23.06    1.71
   1  -7  -6    1.67    0.51
  -1   7   6    0.55    1.03
   1  -7  -5   31.93    1.05
  -1   7   5   28.89    1.73
   1  -7  -4    3.72    0.49
  -1   7   4    3.48    1.01
   1  -7  -3   19.61    0.78
   1  -7  -3   18.79    0.65
  -1   7   3   18.35    1.44
   1  -7  -2    0.88    0.26
   1  -7  -2    0.41    0.36
  -1   7   2    0.23    0.85
   1  -7  -1    5.77    0.45
   1  -7  -1    5.64    0.40
  -1   7   1    5.09    0.92
   1  -7   0   23.97    0.82
   1  -7   0   24.67    0.74
  -1   7   0   25.75    1.47
   1  -7   1    1.89    0.38
   1  -7   1    1.11    0.25
  -1   7  -1    2.26    0.81
   1  -7   2   63.71    1.63
  -1   7  -2   63.38    2.39
  -1   7  -2   63.09    1.79
   1  -7   3    8.55    0.44
  -1   7  -3    7.72    0.65
  -1   7  -3    8.82    0.96
   1  -7   4   18.66    0.67
  -1   7  -4   18.70    1.34
  -1   7  -4   19.48    0.80
   1  -7   5    9.11    0.49
  -1   7  -5    8.79    1.11
  -1   7  -5    9.16    0.62
   1  -7   6    1.73    0.36
  -1   7  -6    1.56    0.42
   1  -7   7   12.36    0.59
   1  -7   7   11.38    0.61
  -1   7  -7   12.50    1.18
  -1   7  -7   12.81    0.67
   1  -7   8    3.75    0.41
  -1   7  -8    3.89    0.47
   1  -7   9   27.03    0.93
  -1   7  -9   26.96    0.95
   1  -7  10    2.31    0.44
  -1   7 -10    2.49    0.54
  -1   7 -10    0.73    0.42
   1  -7  11    8.78    0.69
  -1   7 -11    7.00    0.74
  -1   7 -11    6.81    0.62
   1  -7  12   16.70    0.88
  -1   7 -12   14.58    0.86
  -1   7 -12   14.42    0.77
   1  -7  13    1.42    0.58
  -1   7 -13    1.42    0.65
   1  -7  14    7.90    0.75
  -1   7 -14    8.55    0.85
   1  -7  15   -0.16    0.65
  -1   7 -15   -0.33    0.69
   1  -6 -11    0.51    0.55
   1  -6 -10   15.83    0.88
  -1   6  10   12.15    1.55
   1  -6  -9    0.24    0.53
  -1   6   9    0.39    1.08
   1  -6  -8   60.79    1.66
  -1   6   8   55.73    2.41
   1  -6  -7    2.57    0.49
  -1   6   7    2.33    1.00
   1  -6  -6   20.80    0.84
  -1   6   6   17.99    1.40
   1  -6  -5    1.28    0.33
   1  -6  -5    1.95    0.42
  -1   6   5    1.14    0.88
   1  -6  -4    2.19    0.29
   1  -6  -4    2.51    0.40
  -1   6   4    1.95    0.82
   1  -6  -3   15.62    0.65
   1  -6  -3   14.58    0.55
  -1   6   3   15.43    1.21
   1  -6  -2    0.35    0.22
   1  -6  -2    0.03    0.31
  -1   6   2   -0.10    0.69
   1  -6  -1   15.21    0.62
   1  -6  -1   15.77    0.55
  -1   6   1   13.32    1.13
   1  -6   0   19.27    0.63
   1  -6   0   19.42    0.69
  -1   6   0   19.47    1.23
   1  -6   1   81.12    2.03
  -1   6  -1   81.83    2.78
  -1   6  -1   79.15    2.12
   1  -6   2   96.62    2.46
  -1   6  -2   99.58    3.29
  -1   6  -2  101.63    2.53
   1  -6   3   13.33    0.52
  -1   6  -3   13.82    0.63
  -1   6  -3   13.10    1.10
   1  -6   4   22.02    0.66
   1  -6   4   20.61    0.70
  -1   6  -4   20.29    1.23
  -1   6  -4   21.51    0.77
   1  -6   5    0.56    0.25
   1  -6   5   -0.14    0.28
  -1   6  -5    0.34    0.31
  -1   6  -5    0.66    0.66
   1  -6   6   17.09    0.63
   1  -6   6   15.42    0.64
  -1   6  -6   15.09    1.06
  -1   6  -6   18.37    0.68
   1  -6   7    4.30    0.36
  -1   6  -7    3.22    0.72
  -1   6  -7    3.48    0.39
   1  -6   8    0.77    0.32
  -1   6  -8    0.74    0.35
  -1   6  -8    0.66    0.40
   1  -6   9   23.01    0.84
  -1   6  -9   23.10    0.83
  -1   6  -9   20.69    0.87
   1  -6  10    1.60    0.42
  -1   6 -10    1.45    0.50
  -1   6 -10    1.37    0.39
   1  -6  11   76.78    2.15
  -1   6 -11   74.97    2.11
  -1   6 -11   75.18    2.01
   1  -6  12    7.24    0.74
  -1   6 -12    7.67    0.73
  -1   6 -12    6.27    0.59
   1  -6  13   10.84    0.85
  -1   6 -13   12.01    0.85
  -1   6 -13   10.77    0.67
   1  -6  14    0.73    0.62
  -1   6 -14    0.57    0.64
   1  -6  15    0.82    0.67
  -1   6 -15    1.62    0.70
   1  -5 -10    1.15    0.49
  -1   5  10   -0.84    1.01
  -1   5  10   -0.07    0.58
   1  -5  -9    7.53    0.66
   1  -5  -9    6.81    0.60
  -1   5   9    7.81    0.76
  -1   5   9    6.74    1.06
   1  -5  -8   12.84    0.64
   1  -5  -8   14.04    0.71
  -1   5   8   13.47    1.27
  -1   5   8   12.88    0.78
   1  -5  -7    4.47    0.46
   1  -5  -7    3.68    0.40
  -1   5   7    5.24    0.51
  -1   5   7    4.77    0.91
   1  -5  -6   21.70    0.81
   1  -5  -6   22.26    0.76
  -1   5   6   23.07    1.35
  -1   5   6   22.60    0.86
   1  -5  -5    1.09    0.36
   1  -5  -5    0.10    0.27
  -1   5   5   -0.20    0.69
  -1   5   5    1.02    0.35
   1  -5  -4    0.01    0.31
   1  -5  -4    0.17    0.24
  -1   5   4    0.71    0.67
  -1   5   4    0.03    0.27
   1  -5  -3    2.00    0.31
   1  -5  -3    2.13    0.25
  -1   5   3    2.53    0.68
  -1   5   3    1.96    0.27
   1  -5  -2    3.57    0.27
   1  -5  -2    4.40    0.35
  -1   5   2    3.68    0.69
  -1   5   2    3.22    0.35
   1  -5  -1   50.06    1.33
   1  -5  -1   50.86    1.31
  -1   5   1   50.18    1.88
   1  -5   0    7.60    0.39
  -1   5   0    7.42    0.59
  -1   5   0    7.23    0.92
   1  -5   1   48.01    1.24
  -1   5  -1   46.94    1.32
  -1   5  -1   47.48    1.79
   1  -5   2   15.91    0.55
  -1   5  -2   17.07    1.07
  -1   5  -2   15.79    0.63
   1  -5   3   48.12    1.25
   1  -5   3   47.39    1.26
  -1   5  -3   47.52    1.29
  -1   5  -3   45.51    1.77
   1  -5   4    5.69    0.36
   1  -5   4    4.80    0.37
  -1   5  -4    5.67    0.44
  -1   5  -4    5.75    0.65
   1  -5   5    0.11    0.26
   1  -5   5   -0.26    0.22
  -1   5  -5   -0.05    0.56
  -1   5  -5    0.17    0.25
   1  -5   6    6.58    0.41
  -1   5  -6    7.22    0.48
  -1   5  -6    6.76    0.79
   1  -5   7    0.60    0.28
  -1   5  -7    1.29    0.57
  -1   5  -7    0.88    0.29
  -1   5  -7    0.90    0.34
   1  -5   8   27.91    0.92
  -1   5  -8   28.09    0.95
  -1   5  -8   28.35    0.88
   1  -5   9   11.77    0.64
  -1   5  -9   10.63    0.56
  -1   5  -9   10.58    0.66
   1  -5  10   27.00    0.99
  -1   5 -10   25.67    0.97
  -1   5 -10   26.31    0.89
   1  -5  11   28.54    1.06
  -1   5 -11   29.03    0.95
  -1   5 -11   28.02    1.03
   1  -5  12    0.72    0.52
  -1   5 -12    2.32    0.54
  -1   5 -12    1.61    0.40
   1  -5  13   10.93    0.86
  -1   5 -13   10.29    0.66
  -1   5 -13   11.46    0.80
   1  -5  14   -0.41    0.59
  -1   5 -14    0.59    0.61
   1  -5  15    4.18    0.72
  -1   5 -15    2.51    0.67
  -1   4  14   18.06    1.20
  -1   4  13    3.87    0.81
   1  -4 -12    4.70    0.62
  -1   4  12    5.54    0.76
   1  -4 -11    3.28    0.55
  -1   4  11    4.80    0.65
   1  -4 -10    0.26    0.42
   1  -4 -10   -0.23    0.42
  -1   4  10   -1.11    0.85
  -1   4  10    0.29    0.54
   1  -4  -9    1.00    0.42
   1  -4  -9    0.36    0.40
  -1   4   9    0.86    0.48
  -1   4   9    0.34    0.82
   1  -4  -8   -0.32    0.39
   1  -4  -8   -0.22    0.35
  -1   4   8   -0.43    0.75
  -1   4   8   -0.20    0.41
   1  -4  -7    6.32    0.52
   1  -4  -7    6.68    0.48
  -1   4   7    6.89    0.58
  -1   4   7    6.05    0.81
   1  -4  -6   12.61    0.55
   1  -4  -6   12.62    0.60
  -1   4   6   12.33    0.62
  -1   4   6   12.41    1.00
   1  -4  -5   19.23    0.68
   1  -4  -5   19.75    0.67
  -1   4   5   20.40    0.72
  -1   4   5   21.36    1.11
   1  -4  -4   60.52    1.57
   1  -4  -4   60.27    1.58
  -1   4   4   61.25    2.13
  -1   4   4   63.62    1.67
   1  -4  -3    0.33    0.24
   1  -4  -3    0.09    0.20
  -1   4   3    0.26    0.53
  -1   4   3    0.28    0.24
   1  -4  -2   30.49    0.88
   1  -4  -2   30.62    0.87
  -1   4   2   31.90    1.31
   1  -4  -1    3.75    0.33
  -1   4   1    4.23    0.60
   1  -4   0    0.39    0.19
  -1   4   0    0.91    0.53
  -1   4   0    0.43    0.29
   1  -4   1    1.01    0.20
  -1   4  -1    0.77    0.51
  -1   4  -1    1.02    0.27
   1  -4   2    5.20    0.34
  -1   4  -2    6.72    0.78
  -1   4  -2    6.27    0.45
   1  -4   3   40.49    1.08
   1  -4   3   40.62    1.08
  -1   4  -3   40.56    1.09
  -1   4  -3   38.29    1.48
   1  -4   4    1.37    0.21
   1  -4   4    1.67    0.26
  -1   4  -4    1.07    0.25
  -1   4  -4    1.31    0.48
   1  -4   5   50.07    1.35
  -1   4  -5   49.40    1.31
  -1   4  -5   49.13    1.73
   1  -4   6   19.06    0.65
  -1   4  -6   17.22    0.89
  -1   4  -6   19.04    0.71
  -1   4  -6   18.65    0.64
   1  -4   7   11.94    0.55
  -1   4  -7   11.06    0.58
  -1   4  -7   11.14    0.53
   1  -4   8   14.79    0.65
  -1   4  -8   13.70    0.65
  -1   4  -8   13.95    0.62
   1  -4   9    0.69    0.37
  -1   4  -9    1.08    0.38
  -1   4  -9    0.81    0.31
   1  -4  10    5.86    0.64
  -1   4 -10    5.50    0.57
  -1   4 -10    5.99    0.54
   1  -4  11    1.77    0.49
  -1   4 -11    1.56    0.39
  -1   4 -11    1.78    0.47
   1  -4  12    7.45    0.74
  -1   4 -12    6.67    0.66
  -1   4 -12    8.25    0.62
   1  -4  13    5.39    0.65
  -1   4 -13    4.78    0.51
  -1   4 -13    5.13    0.61
   1  -4  14    0.69    0.62
  -1   4 -14    1.54    0.60
  -1   4 -14    0.39    0.47
   1  -4  15    4.06    0.74
  -1   4 -15    4.92    0.71
   1  -4  16   -0.47    0.75
  -1   4 -16    1.08    0.68
   1  -3 -14   25.86    1.13
  -1   3  14   29.70    1.30
   1  -3 -13   -0.67    0.54
  -1   3  13    0.06    0.64
   1  -3 -12    8.12    0.73
  -1   3  12    8.99    0.84
   1  -3 -11    1.03    0.51
  -1   3  11    1.22    0.56
   1  -3 -10    7.08    0.61
   1  -3 -10    7.20    0.56
  -1   3  10    7.06    0.86
  -1   3  10    8.56    0.71
   1  -3  -9    0.94    0.37
   1  -3  -9    0.81    0.40
  -1   3   9    0.43    0.68
  -1   3   9    1.33    0.45
   1  -3  -8    1.76    0.36
   1  -3  -8    1.48    0.36
  -1   3   8    1.91    0.40
  -1   3   8    1.37    0.63
   1  -3  -7   12.41    0.56
   1  -3  -7   12.96    0.58
  -1   3   7   12.94    0.91
  -1   3   7   14.49    0.64
   1  -3  -6    5.46    0.42
   1  -3  -6    6.20    0.45
  -1   3   6    6.36    0.47
  -1   3   6    5.63    0.62
   1  -3  -5  213.13    5.27
   1  -3  -5  225.16    5.22
  -1   3   5  215.98    6.58
  -1   3   5  220.20    5.55
   1  -3  -4   30.78    0.88
   1  -3  -4   31.75    0.87
  -1   3   4   30.02    0.91
  -1   3   4   31.47    1.24
   1  -3  -3   17.77    0.58
   1  -3  -3   17.32    0.58
  -1   3   3   17.60    0.58
  -1   3   3   18.39    0.92
   1  -3  -2   20.73    0.63
   1  -3  -2   20.57    0.63
  -1   3   2   21.24    0.96
   1  -3  -1    3.04    0.23
  -1   3   1    3.42    0.31
  -1   3   1    3.47    0.47
   1  -3   0   68.12    1.70
  -1   3   0   67.69    2.18
  -1   3   0   67.73    1.71
   1  -3   1    5.97    0.34
  -1   3  -1    6.41    0.62
  -1   3  -1    6.49    0.39
   1  -3   2   29.96    0.83
  -1   3  -2   30.01    1.14
  -1   3  -2   30.30    0.84
   1  -3   3   28.75    0.82
   1  -3   3   29.96    0.83
  -1   3  -3   29.24    0.82
  -1   3  -3   29.88    1.12
   1  -3   4   35.24    0.96
  -1   3  -4   32.48    1.25
  -1   3  -4   34.46    0.95
   1  -3   5  279.69    7.09
  -1   3  -5  277.69    6.77
  -1   3  -5  285.01    6.68
   1  -3   6   10.52    0.49
  -1   3  -6    9.07    0.51
  -1   3  -6    8.77    0.49
   1  -3   7   15.94    0.66
  -1   3  -7   17.18    0.62
  -1   3  -7   16.01    0.64
   1  -3   8    4.25    0.39
  -1   3  -8    3.18    0.37
  -1   3  -8    3.70    0.34
   1  -3   9    0.85    0.37
  -1   3  -9    1.54    0.37
  -1   3  -9    0.71    0.32
   1  -3  10    8.48    0.64
  -1   3 -10    7.79    0.53
  -1   3 -10    7.77    0.59
   1  -3  11    0.06    0.46
  -1   3 -11    0.64    0.37
  -1   3 -11    0.80    0.46
   1  -3  12   19.12    0.93
  -1   3 -12   19.18    0.86
  -1   3 -12   20.42    0.82
   1  -3  13   -0.12    0.57
  -1   3 -13    0.59    0.43
  -1   3 -13    0.84    0.55
   1  -3  14   29.21    1.27
  -1   3 -14   28.20    1.11
   1  -3  15   16.20    1.06
  -1   3 -15   14.10    0.92
   1  -3  16    8.10    0.92
  -1   3 -16    7.55    0.77
   1  -2 -15   15.32    1.00
  -1   2  15   18.11    1.13
   1  -2 -14    3.12    0.63
  -1   2  14    3.46    0.73
   1  -2 -13    7.77    0.74
  -1   2  13    8.14    0.86
   1  -2 -12    1.55    0.53
  -1   2  12    2.16    0.56
   1  -2 -11   -0.23    0.50
  -1   2  11    0.40    0.50
   1  -2 -10    0.31    0.43
  -1   2  10    1.19    0.44
  -1   2  10    0.14    0.64
   1  -2  -9    0.23    0.38
   1  -2  -9    0.43    0.31
  -1   2   9    1.08    0.40
  -1   2   9    0.60    0.58
   1  -2  -8    3.98    0.38
   1  -2  -8    3.59    0.34
  -1   2   8    3.97    0.39
  -1   2   8    3.47    0.60
   1  -2  -7   14.86    0.59
   1  -2  -7   14.35    0.57
  -1   2   7   13.50    0.84
  -1   2   7   14.63    0.61
   1  -2  -6   41.63    1.15
   1  -2  -6   41.16    1.12
  -1   2   6   41.63    1.19
  -1   2   6   42.20    1.50
   1  -2  -5  129.93    3.16
   1  -2  -5  129.94    3.11
  -1   2   5  130.42    3.95
  -1   2   5  125.76    3.31
   1  -2  -4    1.40    0.25
   1  -2  -4    1.93    0.24
  -1   2   4    1.69    0.42
  -1   2   4    1.97    0.23
   1  -2  -3   33.67    0.92
   1  -2  -3   34.61    0.90
  -1   2   3   35.52    1.24
  -1   2   3   33.52    0.94
   1  -2  -2   -0.14    0.18
  -1   2   2   -0.05    0.13
  -1   2   2   -0.08    0.32
   1  -2  -1    8.04    0.37
  -1   2   1    9.28    0.59
  -1   2   1    9.03    0.41
   1  -2   0    9.54    0.39
  -1   2   0    9.24    0.60
  -1   2   0    9.69    0.40
   1  -2   1    0.21    0.16
  -1   2  -1   -0.05    0.30
  -1   2  -1    0.11    0.17
   1  -2   2   58.24    1.51
   1  -2   2   61.46    1.57
  -1   2  -2   61.28    1.89
  -1   2  -2   60.40    1.51
   1  -2   3    0.74    0.20
   1  -2   3    1.17    0.18
  -1   2  -3    0.62    0.20
  -1   2  -3    0.72    0.28
   1  -2   4  323.09    8.14
  -1   2  -4  322.68    7.65
   1  -2   5   74.10    1.95
  -1   2  -5   75.06    1.85
  -1   2  -5   71.82    1.88
   1  -2   6   24.17    0.79
  -1   2  -6   23.92    0.74
  -1   2  -6   24.06    0.77
   1  -2   7    4.80    0.48
  -1   2  -7    4.40    0.42
  -1   2  -7    4.23    0.38
   1  -2   8   -0.07    0.32
  -1   2  -8    0.20    0.29
  -1   2  -8    0.78    0.33
   1  -2   9   12.12    0.66
  -1   2  -9   12.20    0.63
  -1   2  -9   11.57    0.58
   1  -2  10    0.51    0.42
  -1   2 -10    0.65    0.36
  -1   2 -10    0.27    0.41
   1  -2  11    4.53    0.57
  -1   2 -11    3.89    0.44
  -1   2 -11    4.45    0.54
   1  -2  12   15.45    0.91
  -1   2 -12   15.89    0.81
  -1   2 -12   16.60    0.78
   1  -2  13   17.81    0.99
  -1   2 -13   16.01    0.86
   1  -2  14   54.98    1.84
  -1   2 -14   54.78    1.68
   1  -2  15   -0.24    0.74
  -1   2 -15    0.46    0.61
   1  -2  16    3.40    0.87
  -1   2 -16    3.87    0.71
   1  -1 -15    2.61    0.68
  -1   1  15    2.71    0.73
   1  -1 -14   -0.80    0.58
  -1   1  14    0.09    0.63
   1  -1 -13    0.03    0.54
  -1   1  13   -0.20    0.58
   1  -1 -12    0.71    0.53
  -1   1  12    1.93    0.54
   1  -1 -11   23.25    0.94
  -1   1  11   23.92    0.95
   1  -1 -10   12.41    0.71
  -1   1  10   11.42    0.90
  -1   1  10   11.65    0.68
   1  -1  -9    5.97    0.52
   1  -1  -9    6.42    0.43
  -1   1   9    6.08    0.57
  -1   1   9    5.73    0.74
   1  -1  -8    7.26    0.52
   1  -1  -8    6.92    0.40
  -1   1   8    7.66    0.51
  -1   1   8    7.32    0.69
   1  -1  -7    2.93    0.26
   1  -1  -7    3.10    0.35
  -1   1   7    2.89    0.45
  -1   1   7    3.09    0.33
   1  -1  -6   40.39    1.10
   1  -1  -6   38.65    1.04
  -1   1   6   39.82    1.39
  -1   1   6   38.78    1.13
   1  -1  -5    4.32    0.35
   1  -1  -5    4.99    0.41
  -1   1   5    4.01    0.39
  -1   1   5    4.44    0.57
   1  -1  -4    9.23    0.37
   1  -1  -4    9.02    0.42
  -1   1   4    9.55    0.42
  -1   1   4    9.32    0.63
   1  -1  -3    6.58    0.35
   1  -1  -3    6.02    0.28
  -1   1   3    5.37    0.31
  -1   1   3    5.69    0.55
   1  -1  -2    0.06    0.17
   1  -1  -2    0.08    0.13
  -1   1   2    0.04    0.18
  -1   1   2   -0.39    0.31
   1  -1  -1  161.94    3.91
   1  -1  -1  157.29    4.12
  -1   1   1  164.32    3.87
  -1   1   1  166.81    4.85
   1  -1   0    0.15    0.14
   1  -1   0    0.41    0.17
  -1   1   0    0.27    0.15
  -1   1   0    0.27    0.27
   1  -1   1   11.44    0.40
   1  -1   1   11.44    0.42
  -1   1  -1   11.76    0.41
  -1   1  -1   11.31    0.55
   1  -1   2   23.53    0.71
   1  -1   2   23.93    0.65
  -1   1  -2   22.99    0.65
  -1   1  -2   21.70    0.81
   1  -1   3   12.97    0.54
   1  -1   3   13.89    0.46
  -1   1  -3   13.53    0.46
   1  -1   4  129.19    3.33
  -1   1  -4  129.34    3.13
  -1   1  -4  129.09    3.16
   1  -1   5    8.59    0.52
  -1   1  -5    8.67    0.46
  -1   1  -5    8.37    0.42
   1  -1   6   11.57    0.61
  -1   1  -6   12.77    0.53
  -1   1  -6   11.70    0.50
   1  -1   7    6.25    0.53
  -1   1  -7    6.49    0.46
  -1   1  -7    6.21    0.42
   1  -1   8    6.40    0.57
  -1   1  -8    6.20    0.50
  -1   1  -8    6.31    0.46
   1  -1   9    8.23    0.64
  -1   1  -9    6.40    0.50
  -1   1  -9    6.89    0.56
   1  -1  10    4.83    0.55
  -1   1 -10    5.06    0.46
  -1   1 -10    4.87    0.50
   1  -1  11    6.24    0.64
  -1   1 -11    6.44    0.57
  -1   1 -11    6.46    0.60
   1  -1  12    1.75    0.59
  -1   1 -12    1.85    0.52
  -1   1 -12    1.78    0.47
   1  -1  13   26.66    1.20
  -1   1 -13   26.35    1.05
   1  -1  14    8.68    0.85
  -1   1 -14    8.26    0.76
  -1   1 -14    9.10    0.79
   1  -1  15    3.07    0.84
  -1   1 -15    4.94    0.61
  -1   1 -15    5.62    0.70
   1  -1  16   -1.78    0.80
  -1   1 -16    0.99    0.66
   1   0 -16    2.41    0.72
  -1   0  16    2.44    0.76
   1   0 -15   -0.47    0.63
  -1   0  15    0.05    0.66
   1   0 -14   -0.18    0.60
  -1   0  14   -0.37    0.60
   1   0 -13    9.08    0.74
  -1   0  13    9.85    0.78
   1   0 -12    7.14    0.70
  -1   0  12    8.09    0.72
   1   0 -11   84.36    2.25
  -1   0  11   83.95    2.34
   1   0 -10    3.50    0.49
  -1   0  10    2.91    0.57
  -1   0  10    2.92    0.46
   1   0  -9   13.04    0.64
  -1   0   9   13.20    0.66
  -1   0   9   13.00    0.81
   1   0  -8   -0.02    0.20
   1   0  -8    0.00    0.31
  -1   0   8    0.01    0.29
  -1   0   8   -0.31    0.42
   1   0  -7    1.31    0.20
   1   0  -7    1.06    0.30
  -1   0   7    1.46    0.30
  -1   0   7    1.21    0.41
   1   0  -6    4.26    0.41
   1   0  -6    4.03    0.27
  -1   0   6    4.99    0.45
  -1   0   6    4.82    0.44
   1   0  -5   -0.16    0.14
   1   0  -5   -0.19    0.25
  -1   0   5   -0.18    0.34
  -1   0   5    0.00    0.23
   1   0  -4   27.43    0.79
   1   0  -4   28.47    0.82
  -1   0   4   26.77    1.05
   1   0  -3   14.54    0.48
   1   0  -3   13.38    0.49
  -1   0   3   13.00    0.67
   1   0  -2  262.92    6.34
   1   0  -2  270.43    6.68
  -1   0   2  261.78    7.83
   1   0  -1  181.84    4.53
   1   0  -1  183.15    4.30
  -1   0   1  180.11    5.32
  -1   0   1  170.71    4.24
   1   0   0   15.30    0.51
   1   0   0   15.58    0.45
  -1   0   0   14.88    0.65
  -1   0   0   13.94    0.43
   1   0   1   23.49    0.63
   1   0   1   23.49    0.72
  -1   0  -1   23.12    0.64
  -1   0  -1   22.91    0.84
   1   0   2    5.20    0.27
   1   0   2    4.56    0.41
  -1   0  -2    4.64    0.39
  -1   0  -2    4.95    0.31
   1   0   3    2.31    0.28
  -1   0  -3    2.02    0.23
   1   0   4    0.30    0.27
  -1   0  -4    0.32    0.21
  -1   0  -4   -0.15    0.21
   1   0   5    1.02    0.31
  -1   0  -5    1.12    0.25
  -1   0  -5    1.19    0.27
   1   0   6   35.93    1.10
  -1   0  -6   36.02    1.00
  -1   0  -6   33.97    1.02
   1   0   7    9.87    0.59
  -1   0  -7   10.46    0.51
  -1   0  -7    9.77    0.54
   1   0   8  130.04    3.42
  -1   0  -8  131.90    3.22
  -1   0  -8  125.99    3.20
   1   0   9    2.03    0.46
  -1   0  -9    2.45    0.41
  -1   0  -9    1.70    0.38
   1   0  10   10.56    0.75
  -1   0 -10   10.49    0.66
  -1   0 -10    9.85    0.64
   1   0  11    0.86    0.55
  -1   0 -11    1.07    0.48
  -1   0 -11    0.62    0.44
   1   0  12    1.68    0.62
  -1   0 -12    3.03    0.54
  -1   0 -12    1.92    0.49
   1   0  13   -0.44    0.66
  -1   0 -13    0.33    0.48
  -1   0 -13    0.35    0.55
   1   0  14   -0.63    0.73
  -1   0 -14    1.35    0.59
  -1   0 -14    0.63    0.52
   1   0  15    1.68    0.86
  -1   0 -15    3.99    0.68
  -1   0 -15    2.71    0.60
   1   1 -16    0.40    0.68
  -1  -1  16    0.39    0.71
   1   1 -15   -0.03    0.64
  -1  -1  15    0.09    0.67
   1   1 -14   -0.43    0.61
  -1  -1  14   -0.44    0.60
   1   1 -13    6.94    0.68
  -1  -1  13    8.45    0.79
   1   1 -12   66.74    1.90
  -1  -1  12   68.63    1.98
   1   1 -11   24.62    0.95
  -1  -1  11   24.08    0.96
   1   1 -10    8.91    0.64
  -1  -1  10    9.69    0.64
  -1  -1  10    9.32    0.82
   1   1  -9    4.19    0.47
  -1  -1   9    4.17    0.53
  -1  -1   9    4.80    0.52
   1   1  -8    0.02    0.33
  -1  -1   8   -0.25    0.29
  -1  -1   8    0.21    0.41
   1   1  -7    3.71    0.36
  -1  -1   7    3.23    0.33
  -1  -1   7    3.00    0.43
   1   1  -6    0.43    0.28
  -1  -1   6    0.29    0.35
   1   1  -5    4.49    0.41
   1   1  -5    4.84    0.41
  -1  -1   5    5.65    0.57
   1   1  -4    5.91    0.38
   1   1  -4    5.00    0.39
  -1  -1   4    5.31    0.57
   1   1  -3    0.35    0.20
   1   1  -3    0.02    0.20
  -1  -1   3   -0.53    0.29
   1   1  -2  964.86   23.23
   1   1  -2 1000.00   24.52
  -1  -1   2  962.83   28.57
   1   1  -1   13.80    0.52
   1   1  -1   13.75    0.41
  -1  -1   1   12.45    0.39
  -1  -1   1   13.53    0.62
   1   1   0    2.73    0.22
   1   1   0    3.01    0.26
  -1  -1   0    2.88    0.24
  -1  -1   0    3.75    0.30
   1   1   1    5.07    0.42
   1   1   1    5.46    0.24
  -1  -1  -1    5.13    0.41
  -1  -1  -1    5.23    0.32
   1   1   2    3.91    0.41
   1   1   2    3.82    0.23
  -1  -1  -2    3.45    0.36
  -1  -1  -2    3.64    0.32
   1   1   3   15.96    0.63
  -1  -1  -3   15.04    0.53
  -1  -1  -3   15.61    0.58
   1   1   4    0.05    0.32
  -1  -1  -4   -0.17    0.20
  -1  -1  -4   -0.05    0.23
   1   1   5   24.05    0.88
  -1  -1  -5   23.24    0.76
  -1  -1  -5   23.45    0.71
   1   1   6   10.61    0.64
  -1  -1  -6   10.04    0.54
  -1  -1  -6   10.50    0.49
   1   1   7  116.54    3.12
  -1  -1  -7  117.38    2.91
  -1  -1  -7  116.80    2.90
   1   1   8  158.52    4.13
  -1  -1  -8  156.95    3.85
  -1  -1  -8  154.68    3.86
   1   1   9   31.94    1.16
  -1  -1  -9   30.94    0.99
  -1  -1  -9   32.15    1.04
   1   1  10    0.10    0.52
  -1  -1 -10    0.23    0.43
  -1  -1 -10    0.71    0.43
   1   1  11    3.42    0.64
  -1  -1 -11    3.97    0.51
  -1  -1 -11    2.99    0.51
   1   1  12    1.59    0.68
  -1  -1 -12    1.54    0.52
  -1  -1 -12    2.55    0.52
   1   1  13    2.71    0.77
  -1  -1 -13    3.32    0.60
  -1  -1 -13    2.91    0.59
   1   1  14   -1.01    0.79
  -1  -1 -14    0.06    0.57
   1   1  15    7.19    1.00
  -1  -1 -15    7.46    0.71
   1   2 -16   -0.01    0.70
  -1  -2  16    0.57    0.72
   1   2 -15    2.44    0.69
  -1  -2  15    2.76    0.71
   1   2 -14    3.79    0.68
  -1  -2  14    4.27    0.68
   1   2 -13    0.71    0.59
  -1  -2  13    1.03    0.58
   1   2 -12   18.15    0.86
  -1  -2  12   18.06    0.86
   1   2 -11    0.28    0.48
  -1  -2  11    0.65    0.44
   1   2 -10    7.14    0.62
  -1  -2  10    6.50    0.62
  -1  -2  10    7.36    0.78
   1   2  -9    1.47    0.41
  -1  -2   9    1.15    0.36
  -1  -2   9    1.96    0.45
   1   2  -8    3.19    0.42
  -1  -2   8    2.98    0.46
  -1  -2   8    2.72    0.37
   1   2  -7    3.38    0.38
  -1  -2   7    3.50    0.45
   1   2  -6    0.83    0.30
   1   2  -6    0.64    0.27
  -1  -2   6    0.61    0.36
   1   2  -5   24.81    0.76
   1   2  -5   24.96    0.80
  -1  -2   5   24.68    0.98
   1   2  -4    4.98    0.38
   1   2  -4    4.12    0.41
  -1  -2   4    4.27    0.49
   1   2  -3  105.60    2.78
   1   2  -3  108.88    2.62
  -1  -2   3  107.81    3.27
   1   2  -2   68.05    1.66
   1   2  -2   68.05    1.80
  -1  -2   2   66.23    2.10
  -1  -2   2   65.70    1.62
   1   2  -1    4.70    0.43
   1   2  -1    4.85    0.25
  -1  -2   1    5.25    0.31
  -1  -2   1    4.13    0.45
   1   2   0   21.98    0.73
   1   2   0   21.87    0.57
  -1  -2   0   21.68    0.63
  -1  -2   0   21.56    0.82
   1   2   1    1.74    0.16
   1   2   1    2.16    0.29
  -1  -2  -1    1.93    0.21
  -1  -2  -1    2.00    0.29
   1   2   2    1.77    0.30
  -1  -2  -2    1.28    0.23
   1   2   3   -0.04    0.30
   1   2   3   -0.61    0.52
  -1  -2  -3   -0.28    0.23
   1   2   4    4.55    0.58
   1   2   4    5.03    0.41
  -1  -2  -4    4.67    0.34
  -1  -2  -4    4.51    0.34
   1   2   5   27.72    0.98
  -1  -2  -5   27.70    0.88
  -1  -2  -5   29.07    0.80
   1   2   6   15.69    0.80
  -1  -2  -6   15.52    0.66
  -1  -2  -6   15.62    0.57
   1   2   7  130.78    3.51
  -1  -2  -7  131.96    3.26
   1   2   8    2.83    0.51
  -1  -2  -8    2.98    0.38
  -1  -2  -8    3.28    0.44
   1   2   9    7.90    0.80
  -1  -2  -9    8.15    0.66
  -1  -2  -9    8.34    0.55
   1   2  10    1.18    0.60
  -1  -2 -10    1.16    0.50
  -1  -2 -10    0.85    0.43
   1   2  11    0.80    0.66
  -1  -2 -11    0.13    0.49
   1   2  12    0.88    0.72
  -1  -2 -12    1.14    0.56
   1   2  13   -0.25    0.78
  -1  -2 -13   -0.30    0.54
   1   2  14    4.51    0.92
  -1  -2 -14    4.98    0.69
   1   2  15    1.17    0.95
  -1  -2 -15    1.37    0.66
   1   3 -16    1.32    0.72
  -1  -3  16    1.01    0.73
   1   3 -15    1.25    0.69
  -1  -3  15    1.28    0.68
   1   3 -14   -0.99    0.60
  -1  -3  14    0.71    0.63
   1   3 -13   -0.12    0.57
  -1  -3  13    0.15    0.54
   1   3 -12   -0.52    0.54
  -1  -3  12    0.58    0.49
   1   3 -11    1.37    0.53
  -1  -3  11    1.93    0.48
   1   3 -10    7.08    0.61
  -1  -3  10    8.85    0.80
  -1  -3  10    6.02    0.61
   1   3  -9    0.12    0.40
  -1  -3   9    0.29    0.46
  -1  -3   9    0.51    0.38
   1   3  -8  110.24    2.82
  -1  -3   8  113.30    3.47
   1   3  -7    9.19    0.53
   1   3  -7    9.63    0.55
  -1  -3   7   11.04    0.69
   1   3  -6   14.89    0.61
   1   3  -6   13.87    0.59
  -1  -3   6   12.94    0.72
   1   3  -5    2.23    0.32
   1   3  -5    2.58    0.31
  -1  -3   5    2.81    0.41
   1   3  -4    0.20    0.27
   1   3  -4    0.18    0.24
  -1  -3   4    0.27    0.35
   1   3  -3    8.40    0.50
   1   3  -3    7.97    0.39
  -1  -3   3    7.97    0.59
   1   3  -2    1.21    0.30
   1   3  -2    1.52    0.19
  -1  -3   2    1.38    0.18
  -1  -3   2    1.26    0.33
   1   3  -1   12.96    0.40
   1   3  -1   11.93    0.57
  -1  -3   1   12.50    0.63
  -1  -3   1   13.52    0.46
   1   3   0   18.60    0.72
  -1  -3   0   19.43    0.61
   1   3   1   31.74    1.02
   1   3   1   31.15    1.37
  -1  -3  -1   32.01    0.90
   1   3   2  146.71    4.47
   1   3   2  142.92    3.76
  -1  -3  -2  143.27    3.49
   1   3   3   11.70    0.63
   1   3   3   12.57    0.94
  -1  -3  -3   11.73    0.57
   1   3   4    6.97    0.86
   1   3   4    6.32    0.55
  -1  -3  -4    7.04    0.50
   1   3   5    1.20    0.39
   1   3   5    1.68    0.64
  -1  -3  -5    2.14    0.22
  -1  -3  -5    1.95    0.34
   1   3   6    6.47    0.63
   1   3   6    6.77    0.87
  -1  -3  -6    6.41    0.40
  -1  -3  -6    6.16    0.53
   1   3   7    6.50    0.57
   1   3   7    4.84    0.74
  -1  -3  -7    6.48    0.57
  -1  -3  -7    6.25    0.44
   1   3   8    5.33    0.61
  -1  -3  -8    3.87    0.50
   1   3   9    8.71    0.87
  -1  -3  -9    8.41    0.71
   1   3  10    1.28    0.67
  -1  -3 -10    1.25    0.53
   1   3  11   21.90    1.22
  -1  -3 -11   21.22    1.02
   1   3  12    2.98    0.82
  -1  -3 -12    2.53    0.65
   1   3  13    6.97    0.97
  -1  -3 -13    6.73    0.72
   1   3  14    1.72    0.96
  -1  -3 -14    0.14    0.63
   1   4 -16    5.22    0.82
  -1  -4  16    5.59    0.80
   1   4 -15    0.32    0.69
  -1  -4  15   -0.59    0.66
   1   4 -14   -0.43    0.64
  -1  -4  14   -0.15    0.59
   1   4 -13    4.57    0.66
  -1  -4  13    4.77    0.63
   1   4 -12   -0.16    0.55
  -1  -4  12   -0.29    0.50
   1   4 -11    4.14    0.57
  -1  -4  11    3.54    0.52
   1   4 -10   13.56    0.75
  -1  -4  10   16.69    0.92
  -1  -4  10   12.05    0.68
   1   4  -9   42.13    1.27
  -1  -4   9   43.20    1.56
   1   4  -8   72.05    1.92
   1   4  -8   72.74    2.02
  -1  -4   8   73.99    2.36
   1   4  -7    6.04    0.48
   1   4  -7    6.34    0.51
  -1  -4   7    6.43    0.64
   1   4  -6   17.48    0.64
   1   4  -6   17.78    0.70
  -1  -4   6   17.27    0.85
  -1  -4   6   18.12    0.52
   1   4  -5    0.59    0.26
   1   4  -5    0.65    0.30
  -1  -4   5    0.53    0.18
  -1  -4   5    0.80    0.38
   1   4  -4    9.99    0.43
   1   4  -4   10.35    0.54
  -1  -4   4    9.28    0.39
  -1  -4   4    9.53    0.65
   1   4  -3    3.17    0.31
   1   4  -3    3.41    0.36
  -1  -4   3    3.61    0.40
  -1  -4   3    2.42    0.24
   1   4  -2    0.34    0.17
   1   4  -2   -0.29    0.32
   1   4  -1   38.88    1.20
   1   4  -1   41.22    1.67
  -1  -4   1   40.50    1.06
   1   4   0   -0.40    0.32
   1   4   0    0.18    0.69
  -1  -4   0    0.45    0.25
   1   4   1  214.59    5.59
   1   4   1  221.10    6.65
  -1  -4  -1  217.25    5.20
   1   4   2   22.76    1.26
   1   4   2   20.89    0.85
  -1  -4  -2   21.34    0.73
   1   4   3   25.76    1.31
   1   4   3   24.44    0.94
  -1  -4  -3   25.65    0.83
   1   4   4    2.53    0.75
   1   4   4    2.28    0.43
  -1  -4  -4    2.22    0.36
   1   4   5    0.49    0.42
   1   4   5    0.38    0.70
  -1  -4  -5    0.45    0.35
   1   4   6    9.36    0.70
   1   4   6    8.69    1.02
  -1  -4  -6   10.41    0.63
   1   4   7    0.74    0.50
   1   4   7   -0.41    0.77
  -1  -4  -7    0.52    0.42
   1   4   8    5.28    0.63
  -1  -4  -8    4.86    0.54
   1   4   9   14.89    0.92
  -1  -4  -9   13.15    0.80
   1   4  10   26.76    1.21
  -1  -4 -10   28.04    1.11
   1   4  11   53.15    1.85
  -1  -4 -11   55.46    1.70
   1   4  12    1.06    0.78
  -1  -4 -12    1.37    0.67
   1   4  13    3.36    0.88
  -1  -4 -13    3.80    0.74
   1   5 -15    1.63    0.76
  -1  -5  15    1.07    0.66
   1   5 -14    2.16    0.70
  -1  -5  14    1.21    0.62
   1   5 -13   -0.02    0.63
  -1  -5  13    0.13    0.59
   1   5 -12    2.64    0.59
  -1  -5  12    2.53    0.57
   1   5 -11    6.65    0.63
  -1  -5  11    6.42    0.65
   1   5 -10    0.73    0.49
   1   5  -9   64.35    1.78
   1   5  -9   64.45    1.87
  -1  -5   9   66.80    2.17
   1   5  -8    4.96    0.45
   1   5  -8    4.54    0.47
  -1  -5   8    7.60    0.71
   1   5  -7    7.91    0.51
   1   5  -7    7.62    0.56
  -1  -5   7    8.28    0.70
   1   5  -6    8.74    0.48
   1   5  -6    9.29    0.58
  -1  -5   6   10.00    0.41
  -1  -5   6    8.41    0.67
   1   5  -5    0.88    0.26
   1   5  -5    0.95    0.35
  -1  -5   5    0.97    0.23
  -1  -5   5    1.13    0.43
   1   5  -4   14.52    0.66
   1   5  -4   15.30    0.52
  -1  -5   4   13.67    0.51
  -1  -5   4   14.78    0.75
   1   5  -3    0.90    0.36
   1   5  -3    1.30    0.21
  -1  -5   3    1.23    0.25
   1   5  -2   32.06    1.58
   1   5  -2   31.51    0.84
   1   5  -2   31.45    1.06
  -1  -5   2   34.00    0.91
   1   5  -1    7.29    0.60
   1   5  -1    9.32    1.14
  -1  -5   1    9.50    0.47
   1   5   0   39.30    1.28
   1   5   0   41.83    1.77
  -1  -5   0   40.82    1.11
   1   5   1  132.33    4.24
   1   5   1  132.69    3.47
  -1  -5  -1  127.62    3.20
   1   5   2    8.47    0.97
   1   5   2    8.86    0.69
  -1  -5  -2    9.40    0.55
   1   5   3    6.11    0.64
   1   5   3    7.64    0.95
  -1  -5  -3    7.01    0.57
   1   5   4    2.24    0.85
   1   5   4    2.24    0.49
  -1  -5  -4    1.48    0.39
   1   5   5    1.73    0.86
   1   5   5    1.68    0.51
  -1  -5  -5    1.46    0.41
   1   5   6    8.66    0.75
   1   5   6    8.67    1.03
  -1  -5  -6    9.30    0.67
   1   5   7    0.97    0.92
   1   5   7    0.05    0.54
  -1  -5  -7    0.06    0.44
   1   5   8   27.19    1.15
  -1  -5  -8   26.42    1.02
   1   5   9    1.52    0.64
  -1  -5  -9    1.22    0.55
   1   5  10   52.27    1.81
  -1  -5 -10   53.78    1.64
   1   5  11   15.80    1.10
  -1  -5 -11   16.36    0.98
   1   5  12   10.88    1.04
  -1  -5 -12   10.67    0.94
   1   5  13    0.63    0.84
  -1  -5 -13    0.15    0.72
   1   6 -15    2.51    0.78
  -1  -6  15    1.63    0.69
   1   6 -14    7.43    0.81
  -1  -6  14    7.08    0.75
   1   6 -13    0.11    0.66
  -1  -6  13   -0.20    0.58
   1   6 -12    8.71    0.78
  -1  -6  12    8.00    0.73
   1   6 -11    1.03    0.56
  -1  -6  11    1.45    0.53
   1   6 -10    0.37    0.49
  -1  -6  10    1.41    0.54
   1   6  -9    1.44    0.46
   1   6  -9    0.90    0.48
  -1  -6   9    2.49    0.57
   1   6  -8    0.96    0.42
   1   6  -8    0.63    0.45
  -1  -6   8    2.00    0.56
   1   6  -7   14.69    0.63
   1   6  -7   14.92    0.72
  -1  -6   7   14.92    0.89
   1   6  -6    0.46    0.40
   1   6  -6    0.58    0.32
  -1  -6   6    0.29    0.50
   1   6  -5   12.57    0.66
   1   6  -5   12.53    0.51
  -1  -6   5   11.76    0.50
  -1  -6   5   12.30    0.76
   1   6  -4    8.70    0.42
   1   6  -4    8.28    0.60
  -1  -6   4    7.86    0.45
   1   6  -3   12.46    1.27
   1   6  -3   12.37    0.45
   1   6  -3   10.75    0.66
  -1  -6   3   11.34    0.51
   1   6  -2   14.37    0.73
   1   6  -2   16.33    1.34
  -1  -6   2   15.55    0.59
   1   6  -1   -0.12    0.86
   1   6  -1    0.25    0.39
  -1  -6   1    0.42    0.33
   1   6   0   11.94    0.74
   1   6   0   11.75    1.26
  -1  -6   0   11.04    0.57
   1   6   1    2.81    0.94
   1   6   1    2.55    0.46
  -1  -6  -1    2.61    0.38
   1   6   2   10.84    0.74
   1   6   2    9.81    1.13
  -1  -6  -2   10.22    0.61
   1   6   3    7.75    1.12
   1   6   3    9.98    0.75
  -1  -6  -3    9.81    0.65
   1   6   4    2.41    0.54
   1   6   4    1.72    1.00
  -1  -6  -4    2.79    0.48
   1   6   5    5.80    0.66
   1   6   5    5.06    1.09
  -1  -6  -5    5.33    0.53
   1   6   6   -0.11    0.58
   1   6   6    0.41    1.00
  -1  -6  -6    0.06    0.47
   1   6   7   11.04    0.88
   1   6   7    9.59    1.23
  -1  -6  -7   10.26    0.75
   1   6   8    1.65    0.67
  -1  -6  -8    1.34    0.55
   1   6   9    4.69    0.75
  -1  -6  -9    5.68    0.65
   1   6  10   11.69    0.98
  -1  -6 -10   11.99    0.87
   1   6  11    1.16    0.75
  -1  -6 -11    0.74    0.67
   1   6  12    4.30    0.86
  -1  -6 -12    4.89    0.81
   1   7 -14    7.06    0.81
  -1  -7  14    5.79    0.76
   1   7 -13    4.69    0.72
  -1  -7  13    4.06    0.68
   1   7 -12    3.46    0.65
  -1  -7  12    2.75    0.60
   1   7 -11    1.23    0.58
   1   7 -10    8.78    0.72
   1   7 -10    9.11    0.77
  -1  -7  10   11.33    0.89
   1   7  -9    0.37    0.46
   1   7  -9   -0.04    0.51
  -1  -7   9    1.79    0.63
   1   7  -8    3.33    0.47
   1   7  -8    2.77    0.52
  -1  -7   8    3.27    0.66
   1   7  -7   20.65    0.77
   1   7  -7   20.52    0.90
  -1  -7   7   20.23    1.08
   1   7  -6   15.25    0.79
   1   7  -6   15.59    0.64
  -1  -7   6   14.47    0.91
   1   7  -5   42.42    1.32
  -1  -7   5   42.18    1.17
  -1  -7   5   41.48    1.57
   1   7  -4    0.55    0.46
  -1  -7   4    0.39    0.34
   1   7  -3   23.50    1.64
   1   7  -3   23.94    0.96
  -1  -7   3   24.41    0.80
   1   7  -2    0.74    0.99
   1   7  -2    0.27    0.45
  -1  -7   2   -0.35    0.37
   1   7  -1   -0.07    0.46
   1   7  -1   -0.25    0.98
  -1  -7   1    0.11    0.40
   1   7   0    6.49    0.60
   1   7   0    6.22    1.13
  -1  -7   0    6.69    0.56
   1   7   1    1.25    1.08
   1   7   1    0.02    0.49
  -1  -7  -1    0.81    0.42
   1   7   2   27.65    1.13
   1   7   2   26.50    1.78
  -1  -7  -2   27.75    0.98
   1   7   3    1.80    0.60
   1   7   3    0.65    1.12
  -1  -7  -3    2.68    0.50
   1   7   4   31.48    1.94
   1   7   4   34.80    1.31
  -1  -7  -4   34.40    1.16
   1   7   5   12.03    0.87
   1   7   5   12.22    1.53
  -1  -7  -5   12.04    0.79
   1   7   6    5.78    1.28
   1   7   6    6.63    0.75
  -1  -7  -6    8.13    0.74
   1   7   7    5.10    1.28
   1   7   7    6.42    0.77
  -1  -7  -7    5.58    0.64
   1   7   8    0.32    0.69
  -1  -7  -8    1.15    0.60
   1   7   9    1.64    0.76
  -1  -7  -9    1.22    0.62
   1   7  10    0.02    0.77
  -1  -7 -10   -0.05    0.62
   1   7  11    0.31    0.81
  -1  -7 -11    0.23    0.70
   1   8 -14    0.30    0.78
  -1  -8  14   -0.42    0.68
   1   8 -13    7.02    0.81
  -1  -8  13    4.77    0.71
   1   8 -12    0.24    0.67
  -1  -8  12   -0.04    0.59
   1   8 -11    2.11    0.64
   1   8 -10    3.44    0.61
   1   8 -10    3.25    0.64
  -1  -8  10    4.26    0.73
   1   8  -9    0.02    0.55
   1   8  -9    0.80    0.51
  -1  -8   9    1.11    0.69
   1   8  -8   10.56    0.73
  -1  -8   8   10.57    0.99
   1   8  -7    1.18    0.55
  -1  -8   7    0.86    0.69
   1   8  -6   45.03    1.42
  -1  -8   6   44.73    1.71
   1   8  -5   20.93    0.93
  -1  -8   5   21.23    0.78
   1   8  -4   12.86    0.80
   1   8  -4   12.89    1.57
  -1  -8   4   13.17    0.65
   1   8  -3    3.92    1.21
   1   8  -3    3.75    0.56
  -1  -8   3    5.99    0.56
   1   8  -2    0.69    1.15
   1   8  -2    0.15    0.53
  -1  -8   2   -0.60    0.44
   1   8  -1   16.09    0.88
   1   8  -1   12.39    1.57
  -1  -8   1   17.09    0.79
   1   8   0   -0.67    1.15
   1   8   0   -1.26    0.54
  -1  -8   0   -0.01    0.48
   1   8   1    5.36    1.29
   1   8   1    5.70    0.68
  -1  -8  -1    5.26    0.57
   1   8   2   10.60    1.45
   1   8   2   11.54    0.86
  -1  -8  -2   12.70    0.77
   1   8   3    7.82    1.42
   1   8   3    8.45    0.87
  -1  -8  -3    9.70    0.75
   1   8   4   65.46    2.02
   1   8   4   58.48    2.76
  -1  -8  -4   65.28    1.82
   1   8   5    0.91    1.30
   1   8   5   -0.33    0.66
  -1  -8  -5    0.30    0.58
   1   8   6   10.64    0.97
   1   8   6    8.68    1.50
  -1  -8  -6    9.52    0.82
   1   8   7   -0.96    1.35
   1   8   7    0.23    0.70
  -1  -8  -7   -0.05    0.59
   1   8   8    3.00    0.82
  -1  -8  -8    4.02    0.68
   1   8   9    5.14    0.91
  -1  -8  -9    7.39    0.76
   1   9 -13    6.68    0.82
  -1  -9  13    6.36    0.75
   1   9 -10    0.85    0.61
  -1  -9  10    2.87    0.79
   1   9  -9    5.93    0.67
  -1  -9   9    7.59    0.97
   1   9  -8    2.73    0.62
  -1  -9   8    4.44    0.84
   1   9  -7    3.04    0.63
  -1  -9   7    3.47    0.81
   1   9  -6    9.45    0.77
  -1  -9   6    9.30    0.94
   1   9  -5    0.35    0.56
   1   9  -4    6.76    1.41
   1   9  -4    5.97    0.69
  -1  -9   4    8.77    0.65
   1   9  -3    1.22    1.31
   1   9  -3    1.83    0.61
  -1  -9   3    2.60    0.53
   1   9  -2    1.70    0.60
   1   9  -2    0.70    1.29
  -1  -9   2    2.25    0.55
   1   9  -1    2.51    1.32
   1   9  -1    2.29    0.63
  -1  -9   1    2.71    0.58
   1   9   0   -0.75    0.61
   1   9   0   -0.60    1.29
  -1  -9   0    0.62    0.55
   1   9   1   25.02    1.14
   1   9   1   20.72    1.88
  -1  -9  -1   23.53    0.98
   1   9   2    0.94    1.38
   1   9   2   -0.26    0.67
  -1  -9  -2   -0.57    0.57
   1   9   3   11.15    0.95
   1   9   3    9.33    1.57
  -1  -9  -3   10.84    0.83
   1   9   4    9.11    0.93
   1   9   4    7.97    1.55
  -1  -9  -4    7.67    0.73
   1   9   5    2.18    1.49
   1   9   5    2.69    0.77
  -1  -9  -5    2.52    0.67
   1   9   6    4.10    0.83
   1   9   6    3.51    1.57
  -1  -9  -6    4.61    0.70
   1   9   7    0.04    0.75
  -1  -9  -7    0.39    0.65
   1   9   8    0.35    0.78
  -1  -9  -8    1.85    0.69
   1  10 -11    8.09    0.87
   1  10 -10    3.88    0.69
  -1 -10  10    4.99    0.90
   1  10  -9    3.17    0.67
  -1 -10   9    2.88    0.92
   1  10  -8    0.11    0.63
  -1 -10   8   -0.66    0.85
   1  10  -7    0.47    0.64
  -1 -10   7   -0.10    0.86
   1  10  -6    0.20    0.61
  -1 -10   6   -1.84    0.86
   1  10  -5   -0.22    0.62
   1  10  -4    7.76    1.55
   1  10  -4    9.82    0.86
  -1 -10   4   11.49    0.79
   1  10  -3    0.57    0.64
   1  10  -3    0.80    1.43
  -1 -10   3    1.33    0.59
   1  10  -2   15.82    0.96
   1  10  -2   11.83    1.67
  -1 -10   2   16.60    0.91
   1  10  -1    3.30    1.43
   1  10  -1    1.95    0.68
  -1 -10   1    1.40    0.63
   1  10   0   11.62    0.92
   1  10   0    8.80    1.59
  -1 -10   0   10.00    0.82
   1  10   1    0.79    1.47
   1  10   1    0.04    0.70
  -1 -10  -1   -0.21    0.64
   1  10   2    0.90    0.75
   1  10   2    1.06    1.53
  -1 -10  -2   -1.11    0.65
   1  10   3    0.34    1.54
   1  10   3    0.07    0.75
  -1 -10  -3    0.28    0.67
   1  10   4   -1.16    1.55
   1  10   4    0.81    0.75
  -1 -10  -4   -0.88    0.68
   1  10   5    3.02    1.66
   1  10   5    4.10    0.82
  -1 -10  -5    4.38    0.75
   1  10   6    1.81    1.68
  -1 -10  -6    2.46    0.72
   1  11  -9    0.08    0.66
  -1 -11   9    0.17    0.97
   1  11  -8    0.10    0.67
  -1 -11   8    0.24    0.96
   1  11  -7    5.55    0.75
  -1 -11   7    3.75    1.02
   1  11  -6   -0.98    0.66
  -1 -11   6   -2.07    0.94
   1  11  -5    2.44    0.71
   1  11  -4    2.84    1.59
   1  11  -4    3.74    0.74
   1  11  -3   20.63    2.15
   1  11  -3   21.33    1.11
  -1 -11   3   22.55    1.07
   1  11  -2   18.49    1.07
   1  11  -2   11.61    1.79
  -1 -11   2   17.32    1.00
   1  11  -1    1.81    0.73
   1  11  -1    0.80    1.53
  -1 -11   1    1.46    0.70
   1  11   0    2.46    1.61
  -1 -11   0    2.30    0.73
   1  11   1    1.59    1.59
  -1 -11  -1   -0.71    0.71
   1  11   2    4.49    1.70
  -1 -11  -2    1.62    0.76
   1  11   3    1.23    1.67
  -1 -11  -3    1.30    0.76
   1  11   4    0.44    1.74
  -1 -11  -4   -1.03    0.74
  -1 -12   6    0.76    1.07
   1  12  -4    2.47    1.71
   1  12  -3   17.45    2.24
   1  12  -2    1.41    1.64
  -1 -12   2    1.35    0.76
   1  12  -1    3.95    1.76
  -1 -12   1    2.22    0.79
   1  12   0   -0.11    1.72
  -2  12  -1    2.76    1.65
  -2  12  -2    2.24    1.63
  -2  12  -3   39.73    2.62
  -2  12  -4    3.68    1.63
   2 -11  -3    0.02    0.69
  -2  11   3    0.44    1.53
   2 -11  -2    0.18    0.67
  -2  11   2    0.56    1.50
   2 -11  -1    0.68    0.64
  -2  11   1    1.73    1.45
   2 -11   0    1.70    0.67
  -2  11   0    1.22    1.44
   2 -11   1    3.93    0.69
  -2  11  -1    3.01    1.46
   2 -11   2    8.06    0.78
  -2  11  -2    6.82    1.58
   2 -11   3   14.35    0.87
  -2  11  -3   12.38    1.71
  -2  11  -4    0.59    1.42
  -2  11  -5    2.81    0.85
  -2  11  -5    1.32    1.43
  -2  11  -6    0.32    0.79
   2 -11   7    0.78    0.51
  -2  11  -7    0.49    0.76
   2 -11   8    0.11    0.54
  -2  11  -8    0.67    0.74
   2 -10  -6    0.58    0.69
  -2  10   6   -0.47    1.62
   2 -10  -5    2.68    0.69
  -2  10   5   -0.69    1.58
   2 -10  -4    1.40    0.66
  -2  10   4   -0.66    1.54
   2 -10  -3   26.03    1.07
  -2  10   3   19.56    2.01
   2 -10  -2    6.81    0.69
  -2  10   2    6.29    1.53
   2 -10  -1    1.74    0.61
  -2  10   1    0.68    1.40
   2 -10   0    6.57    0.69
  -2  10   0    3.62    1.40
   2 -10   1   -0.25    0.56
  -2  10  -1   -0.62    1.26
   2 -10   2    0.29    0.56
  -2  10  -2    0.31    1.26
   2 -10   3    0.60    0.42
  -2  10  -3   -0.23    1.26
   2 -10   4    4.66    0.51
  -2  10  -4    4.23    1.36
  -2  10  -4    5.93    0.82
   2 -10   5    2.64    0.48
  -2  10  -5    2.65    0.73
  -2  10  -5    2.52    1.30
   2 -10   6    1.40    0.49
  -2  10  -6    1.55    0.69
   2 -10   7   24.96    0.99
  -2  10  -7   24.40    1.18
   2 -10   8    0.20    0.53
  -2  10  -8    0.23    0.65
   2 -10   9    1.88    0.57
  -2  10  -9    2.11    0.68
   2 -10  10    1.93    0.60
  -2  10 -10    1.75    0.65
  -2   9   8    2.21    1.54
   2  -9  -7    0.24    0.66
  -2   9   7   -0.52    1.46
   2  -9  -6    1.28    0.65
  -2   9   6    0.15    1.41
   2  -9  -5   10.62    0.84
  -2   9   5    7.67    1.51
   2  -9  -4   13.26    0.83
  -2   9   4   10.27    1.52
   2  -9  -3   54.69    1.51
  -2   9   3   41.51    2.31
   2  -9  -2   -0.34    0.55
  -2   9   2   -0.43    1.22
   2  -9  -1    8.31    0.72
  -2   9   1    8.20    1.37
   2  -9   0   -0.41    0.51
   2  -9   0    0.10    0.38
  -2   9   0   -0.10    1.17
   2  -9   1    5.22    0.59
   2  -9   1    5.21    0.53
  -2   9  -1    4.35    1.25
   2  -9   2    4.23    0.45
  -2   9  -2    5.29    0.75
  -2   9  -2    3.73    1.22
   2  -9   3    0.58    0.39
  -2   9  -3    0.64    0.64
  -2   9  -3   -1.09    1.10
   2  -9   4   10.73    0.64
  -2   9  -4   10.68    0.90
  -2   9  -4   11.06    1.30
   2  -9   5    1.77    0.44
  -2   9  -5    2.05    1.14
  -2   9  -5    1.75    0.62
   2  -9   6   57.00    1.64
  -2   9  -6   54.98    1.73
   2  -9   7   21.11    0.90
  -2   9  -7   19.80    0.99
   2  -9   8    7.24    0.69
  -2   9  -8    7.42    0.76
   2  -9   9    1.47    0.54
  -2   9  -9    0.81    0.58
   2  -9  10    0.77    0.54
  -2   9 -10    0.26    0.57
   2  -9  11    5.08    0.61
  -2   9 -11    5.49    0.69
   2  -9  12    0.54    0.54
  -2   9 -12    0.36    0.61
  -2   8   9   -0.44    1.44
   2  -8  -8   -0.99    0.62
  -2   8   8   -1.58    1.35
   2  -8  -7    0.00    0.61
  -2   8   7   -1.32    1.27
   2  -8  -6   14.21    0.81
  -2   8   6   11.42    1.49
   2  -8  -5   -0.02    0.55
  -2   8   5   -0.02    1.22
   2  -8  -4   20.61    0.89
  -2   8   4   13.79    1.63
   2  -8  -3   12.49    0.74
   2  -8  -3   12.89    0.67
  -2   8   3   10.28    1.30
   2  -8  -2   11.58    0.71
   2  -8  -2   10.31    0.62
  -2   8   2    9.83    1.27
   2  -8  -1    5.05    0.55
   2  -8  -1    4.74    0.43
  -2   8   1    4.44    1.13
   2  -8   0    0.26    0.35
  -2   8   0    0.35    1.03
   2  -8   1    6.22    0.51
  -2   8  -1    5.92    1.10
  -2   8  -1    5.61    0.70
   2  -8   2    0.72    0.37
  -2   8  -2    0.40    0.56
  -2   8  -2    0.12    0.99
   2  -8   3    4.67    0.44
  -2   8  -3    5.06    1.11
  -2   8  -3    4.52    0.61
   2  -8   4   17.42    0.75
  -2   8  -4   17.43    1.50
  -2   8  -4   18.74    0.92
   2  -8   5   16.26    0.74
  -2   8  -5   16.19    0.83
  -2   8  -5   15.24    1.40
   2  -8   6   39.98    1.24
  -2   8  -6   40.15    1.31
   2  -8   7    0.62    0.44
  -2   8  -7   -0.11    0.49
   2  -8   8   17.59    0.83
  -2   8  -8   16.55    0.87
   2  -8   9    0.28    0.48
  -2   8  -9    0.02    0.50
   2  -8  10    2.66    0.52
  -2   8 -10    3.05    0.55
   2  -8  11    4.09    0.56
  -2   8 -11    5.03    0.61
   2  -8  12   -0.04    0.51
  -2   8 -12    0.55    0.53
   2  -8  13    9.79    0.79
  -2   8 -13   10.66    0.84
  -2   7  10   -1.17    1.28
  -2   7   9    7.07    1.41
   2  -7  -8   -0.27    0.57
  -2   7   8   -1.02    1.21
   2  -7  -7    5.75    0.61
   2  -7  -7    5.20    0.55
  -2   7   7    3.48    1.23
   2  -7  -6    4.05    0.56
   2  -7  -6    3.23    0.51
  -2   7   6    0.80    1.15
   2  -7  -5    0.91    0.49
   2  -7  -5   -0.18    0.42
  -2   7   5   -0.27    1.05
   2  -7  -4    2.06    0.41
   2  -7  -4    2.42    0.48
  -2   7   4    1.27    1.03
   2  -7  -3   -0.18    0.38
   2  -7  -3    0.65    0.45
  -2   7   3   -0.14    0.95
   2  -7  -2   11.83    0.66
   2  -7  -2   12.09    0.61
  -2   7   2   10.57    1.34
   2  -7  -1    2.99    0.38
   2  -7  -1    2.82    0.48
  -2   7   1    1.58    0.92
   2  -7   0    9.17    0.56
  -2   7   0   10.01    0.83
  -2   7   0    8.51    1.06
   2  -7   1   11.06    0.58
  -2   7  -1   10.62    0.79
  -2   7  -1   10.91    1.27
   2  -7   2    2.38    0.37
  -2   7  -2    1.15    0.90
  -2   7  -2    2.18    0.49
   2  -7   3   15.46    0.67
  -2   7  -3   15.70    0.78
  -2   7  -3   14.65    1.33
   2  -7   4    1.02    0.37
  -2   7  -4   -0.27    0.86
  -2   7  -4    1.24    0.43
   2  -7   5    6.39    0.55
  -2   7  -5    5.82    0.96
  -2   7  -5    6.82    0.64
   2  -7   6    5.07    0.48
  -2   7  -6    4.35    0.51
   2  -7   7    6.75    0.60
  -2   7  -7    7.10    0.63
   2  -7   8    6.19    0.59
  -2   7  -8    5.85    0.54
   2  -7   9    0.11    0.42
  -2   7  -9    0.22    0.46
   2  -7  10    3.60    0.50
  -2   7 -10    3.29    0.54
   2  -7  11   -0.01    0.47
  -2   7 -11    0.07    0.49
   2  -7  12    4.45    0.58
  -2   7 -12    5.59    0.62
   2  -7  13    3.63    0.58
  -2   7 -13    4.22    0.61
  -2   6  11    0.59    1.26
  -2   6  10   15.96    1.65
   2  -6  -9   15.23    0.82
  -2   6   9   12.92    1.55
   2  -6  -8    0.30    0.50
  -2   6   8    0.67    1.09
   2  -6  -7   18.27    0.79
   2  -6  -7   16.06    0.76
  -2   6   7   14.48    1.41
   2  -6  -6    2.58    0.48
   2  -6  -6    2.68    0.47
  -2   6   6    0.29    0.98
   2  -6  -5   25.42    0.89
   2  -6  -5   25.23    0.88
  -2   6   5   23.12    1.53
   2  -6  -4   -0.13    0.35
   2  -6  -4    0.30    0.41
  -2   6   4   -0.57    0.82
   2  -6  -3    5.96    0.49
   2  -6  -3    5.00    0.51
  -2   6   3    4.20    0.90
   2  -6  -2   25.20    0.83
   2  -6  -2   23.36    0.82
  -2   6   2   22.89    1.41
   2  -6  -1    4.56    0.39
  -2   6   1    4.33    0.84
  -2   6   1    4.90    0.58
   2  -6   0   74.82    1.98
  -2   6   0   79.08    2.08
  -2   6   0   76.26    2.68
   2  -6   1    5.24    0.48
  -2   6  -1    5.94    0.84
  -2   6  -1    6.20    0.61
   2  -6   2   20.29    0.73
  -2   6  -2   20.88    1.26
  -2   6  -2   20.57    0.80
   2  -6   3    5.96    0.47
  -2   6  -3    5.95    0.57
  -2   6  -3    5.26    0.81
   2  -6   4    0.28    0.31
  -2   6  -4    0.32    0.36
  -2   6  -4    0.42    0.71
   2  -6   5   25.02    0.86
  -2   6  -5   25.64    0.89
  -2   6  -5   22.94    1.33
   2  -6   6    3.96    0.43
  -2   6  -6    4.20    0.45
   2  -6   7   38.93    1.20
  -2   6  -7   38.20    1.20
   2  -6   8    3.15    0.43
  -2   6  -8    1.85    0.45
   2  -6   9   19.91    0.82
  -2   6  -9   21.22    0.86
   2  -6  10   30.85    1.08
  -2   6 -10   31.33    1.08
   2  -6  11    2.25    0.49
  -2   6 -11    1.79    0.49
   2  -6  12    5.82    0.59
  -2   6 -12    7.16    0.68
   2  -6  13   -0.40    0.49
  -2   6 -13    0.47    0.50
   2  -6  14   -0.75    0.52
  -2   6 -14    0.32    0.52
   2  -5 -12    5.31    0.72
   2  -5 -11   -0.57    0.59
  -2   5  11   -0.77    1.15
   2  -5 -10   29.42    1.07
  -2   5  10   27.74    1.75
   2  -5  -9    0.40    0.50
  -2   5   9   -1.26    0.97
   2  -5  -8   11.46    0.70
  -2   5   8    8.97    1.10
   2  -5  -7   -0.19    0.43
   2  -5  -7    0.03    0.41
  -2   5   7    1.07    0.87
   2  -5  -6    1.21    0.42
   2  -5  -6    1.73    0.41
  -2   5   6    0.87    0.81
   2  -5  -5    4.87    0.43
   2  -5  -5    4.18    0.43
  -2   5   5    4.19    0.84
   2  -5  -4    0.32    0.36
   2  -5  -4   -0.45    0.33
  -2   5   4    0.11    0.69
   2  -5  -3   16.72    0.68
   2  -5  -3   16.83    0.65
  -2   5   3   15.06    1.08
   2  -5  -2   12.41    0.58
  -2   5   2   12.46    0.99
   2  -5  -1   69.46    1.80
  -2   5   1   68.47    1.86
  -2   5   1   68.39    2.38
   2  -5   0   66.43    1.77
  -2   5   0   68.40    1.82
  -2   5   0   69.72    2.36
   2  -5   1   15.78    0.64
  -2   5  -1   15.44    0.67
  -2   5  -1   15.86    1.02
   2  -5   2   13.01    0.56
  -2   5  -2   13.45    0.99
  -2   5  -2   14.14    0.64
   2  -5   3    0.06    0.26
  -2   5  -3   -0.61    0.57
  -2   5  -3   -0.06    0.29
   2  -5   4   18.34    0.67
  -2   5  -4   18.40    0.71
  -2   5  -4   14.64    1.03
   2  -5   5    1.17    0.32
  -2   5  -5    0.47    0.57
  -2   5  -5    1.17    0.33
   2  -5   6    2.70    0.37
  -2   5  -6    2.65    0.38
   2  -5   7   28.63    0.96
  -2   5  -7   30.09    0.97
   2  -5   8    1.98    0.40
  -2   5  -8    2.14    0.41
   2  -5   9   94.42    2.52
  -2   5  -9   98.30    2.51
   2  -5  10    4.02    0.49
  -2   5 -10    3.95    0.49
   2  -5  11   16.99    0.90
   2  -5  11   15.47    0.78
  -2   5 -11   17.68    0.84
   2  -5  12    0.01    0.47
   2  -5  12   -1.30    0.59
  -2   5 -12   -0.13    0.49
   2  -5  13    2.84    0.71
  -2   5 -13    3.58    0.57
   2  -5  14    7.55    0.86
  -2   5 -14    8.47    0.77
   2  -4 -13    3.48    0.73
   2  -4 -12   -0.62    0.62
   2  -4 -11    0.59    0.57
  -2   4  11    0.42    1.00
   2  -4 -10    2.19    0.54
  -2   4  10    3.03    1.00
   2  -4  -9    1.44    0.50
  -2   4   9    1.90    0.91
   2  -4  -8   11.43    0.68
  -2   4   8    9.69    1.04
   2  -4  -7   -0.47    0.40
  -2   4   7   -0.28    0.78
   2  -4  -6    1.89    0.40
   2  -4  -6    1.17    0.36
  -2   4   6    0.61    0.75
   2  -4  -5    2.73    0.34
   2  -4  -5    1.96    0.37
  -2   4   5    1.94    0.72
   2  -4  -4    6.03    0.47
   2  -4  -4    4.71    0.47
  -2   4   4    5.50    0.74
   2  -4  -3   28.55    0.91
  -2   4   3   28.93    1.28
   2  -4  -2    6.67    0.46
  -2   4   2    7.73    0.59
  -2   4   2    7.70    0.80
   2  -4  -1   20.02    0.69
  -2   4   1   20.18    1.04
  -2   4   1   19.73    0.74
   2  -4   0    6.50    0.44
  -2   4   0    7.44    0.50
  -2   4   0    6.96    0.78
   2  -4   1   37.64    1.09
  -2   4  -1   39.14    1.09
  -2   4  -1   38.44    1.46
   2  -4   2    5.01    0.40
  -2   4  -2    5.80    0.73
  -2   4  -2    5.15    0.44
   2  -4   3    0.71    0.25
  -2   4  -3    0.62    0.28
  -2   4  -3    0.73    0.48
   2  -4   4    0.58    0.27
   2  -4   4    1.37    0.26
  -2   4  -4    1.12    0.29
  -2   4  -4    0.45    0.48
   2  -4   5    0.12    0.29
   2  -4   5    0.73    0.28
  -2   4  -5   -0.27    0.46
  -2   4  -5    0.26    0.29
   2  -4   6   35.07    1.09
   2  -4   6   35.40    1.06
  -2   4  -6   34.77    1.06
   2  -4   7    6.32    0.57
   2  -4   7    5.98    0.51
  -2   4  -7    6.95    0.56
   2  -4   8   33.32    1.13
   2  -4   8   33.65    1.07
  -2   4  -8   34.81    1.09
   2  -4   9   24.92    0.92
   2  -4   9   24.96    1.00
  -2   4  -9   25.91    0.94
   2  -4  10    1.77    0.55
   2  -4  10    1.25    0.44
  -2   4 -10    1.74    0.46
   2  -4  11   10.76    0.84
  -2   4 -11   12.98    0.76
   2  -4  12   -0.33    0.62
  -2   4 -12   -0.70    0.51
   2  -4  13    0.63    0.69
  -2   4 -13    1.18    0.56
   2  -4  14   -0.65    0.75
  -2   4 -14    0.15    0.55
   2  -3 -13   -0.74    0.66
   2  -3 -12   -0.95    0.59
   2  -3 -11    0.80    0.56
  -2   3  11    0.40    0.89
   2  -3 -10   -1.10    0.49
  -2   3  10   -0.47    0.85
   2  -3  -9    3.52    0.52
  -2   3   9    3.71    0.87
   2  -3  -8    8.16    0.62
  -2   3   8    8.06    0.90
   2  -3  -7   23.53    0.85
  -2   3   7   23.51    0.81
  -2   3   7   23.20    1.27
   2  -3  -6   50.84    1.36
   2  -3  -6   52.71    1.45
  -2   3   6   51.34    1.43
  -2   3   6   52.87    1.94
   2  -3  -5    1.02    0.27
   2  -3  -5    1.11    0.33
  -2   3   5    1.01    0.24
  -2   3   5    1.13    0.59
   2  -3  -4   19.16    0.69
   2  -3  -4   19.63    0.64
  -2   3   4   20.07    1.01
  -2   3   4   17.96    0.60
   2  -3  -3    0.31    0.29
  -2   3   3    0.33    0.51
   2  -3  -2    1.06    0.28
  -2   3   2    0.91    0.31
  -2   3   2    1.04    0.49
   2  -3  -1   -0.01    0.25
  -2   3   1   -0.11    0.26
  -2   3   1    0.18    0.45
   2  -3   0    3.17    0.29
  -2   3   0    3.26    0.30
  -2   3   0    3.14    0.50
   2  -3   1   31.27    0.91
  -2   3  -1   30.83    1.20
  -2   3  -1   30.85    0.89
   2  -3   2    0.19    0.23
  -2   3  -2    0.39    0.40
  -2   3  -2   -0.20    0.23
   2  -3   3   90.09    2.31
   2  -3   3   87.06    2.23
  -2   3  -3   87.76    2.77
  -2   3  -3   88.69    2.22
   2  -3   4   21.43    0.74
   2  -3   4   20.96    0.70
  -2   3  -4   20.62    0.91
  -2   3  -4   21.81    0.74
   2  -3   5   18.94    0.66
   2  -3   5   18.39    0.72
  -2   3  -5   18.66    0.69
  -2   3  -5   15.40    0.81
   2  -3   6   10.85    0.64
   2  -3   6   12.24    0.57
  -2   3  -6   12.01    0.62
   2  -3   7    0.27    0.40
   2  -3   7    0.35    0.33
  -2   3  -7    0.36    0.30
   2  -3   8   -0.25    0.44
   2  -3   8    0.59    0.36
  -2   3  -8   -0.04    0.34
   2  -3   9    0.52    0.39
   2  -3   9   -0.67    0.49
  -2   3  -9    0.40    0.38
   2  -3  10   11.22    0.82
  -2   3 -10    9.90    0.67
   2  -3  11    6.73    0.73
  -2   3 -11    7.53    0.66
   2  -3  12    2.72    0.71
  -2   3 -12    4.39    0.59
   2  -3  13   12.35    1.07
  -2   3 -13   15.34    0.85
   2  -3  14   -1.48    0.75
  -2   3 -14    0.77    0.56
   2  -3  15    3.52    0.92
  -2   3 -15    6.00    0.70
   2  -2 -14    2.45    0.78
   2  -2 -13   -1.78    0.65
  -2   2  13    0.55    0.60
   2  -2 -12    3.23    0.65
  -2   2  12    5.41    0.62
   2  -2 -11    0.13    0.56
  -2   2  11   -0.18    0.49
  -2   2  11    0.93    0.86
   2  -2 -10   -0.68    0.50
  -2   2  10    0.40    0.77
  -2   2  10    0.07    0.45
   2  -2  -9    6.95    0.60
  -2   2   9    9.46    1.02
  -2   2   9    8.55    0.63
   2  -2  -8    1.35    0.41
  -2   2   8    0.80    0.38
  -2   2   8    1.33    0.73
   2  -2  -7  122.49    3.10
  -2   2   7  123.03    3.20
  -2   2   7  122.48    3.90
   2  -2  -6   10.09    0.56
  -2   2   6   11.09    0.51
  -2   2   6   10.42    0.88
   2  -2  -5   11.47    0.44
   2  -2  -5   12.18    0.57
  -2   2   5   11.81    0.50
  -2   2   5   11.31    0.85
   2  -2  -4    5.59    0.36
   2  -2  -4    6.06    0.44
  -2   2   4    4.93    0.58
  -2   2   4    5.35    0.35
   2  -2  -3    0.44    0.27
  -2   2   3    0.72    0.26
  -2   2   3    0.66    0.46
   2  -2  -2   33.43    0.95
  -2   2   2   32.94    1.28
  -2   2   2   32.70    0.92
   2  -2  -1    1.75    0.28
   2  -2  -1    1.74    0.20
  -2   2   1    2.56    0.46
  -2   2   1    2.04    0.24
   2  -2   0   29.07    0.84
  -2   2   0   28.12    1.13
  -2   2   0   28.15    0.81
   2  -2   1   26.72    0.79
   2  -2   1   25.94    0.77
  -2   2  -1   24.99    0.77
  -2   2  -1   26.57    1.05
   2  -2   2   46.05    1.25
   2  -2   2   48.13    1.29
  -2   2  -2   46.34    1.25
  -2   2  -2   46.49    1.59
   2  -2   3  245.07    5.94
   2  -2   3  249.61    6.25
  -2   2  -3  244.38    5.89
  -2   2  -3  244.73    7.30
   2  -2   4   14.14    0.60
   2  -2   4   14.01    0.54
  -2   2  -4   12.98    0.56
  -2   2  -4   12.93    0.67
   2  -2   5   10.37    0.60
   2  -2   5    8.23    0.46
  -2   2  -5    8.56    0.49
   2  -2   6    1.11    0.31
   2  -2   6    1.12    0.38
  -2   2  -6    0.83    0.29
   2  -2   7    3.02    0.48
   2  -2   7    3.08    0.38
  -2   2  -7    2.67    0.37
   2  -2   8    9.26    0.75
   2  -2   8    9.34    0.57
  -2   2  -8    9.89    0.60
   2  -2   9    0.64    0.39
   2  -2   9    0.41    0.53
  -2   2  -9    0.20    0.39
   2  -2  10   31.35    1.25
  -2   2 -10   31.07    1.08
   2  -2  11   -0.95    0.61
  -2   2 -11   -0.19    0.47
   2  -2  12   55.68    1.89
  -2   2 -12   58.95    1.71
   2  -2  13   17.71    1.20
  -2   2 -13   21.00    0.97
   2  -2  14    8.83    0.97
  -2   2 -14   11.62    0.88
   2  -2  15   -1.95    0.81
  -2   2 -15   -0.05    0.60
   2  -1 -14   -1.53    0.73
  -2   1  14    0.03    0.65
   2  -1 -13   -0.07    0.66
  -2   1  13    0.50    0.61
   2  -1 -12   -0.26    0.60
  -2   1  12    0.44    0.55
   2  -1 -11   -0.41    0.54
  -2   1  11   -0.22    0.51
  -2   1  11   -0.58    0.81
   2  -1 -10    3.27    0.54
  -2   1  10    3.62    0.82
  -2   1  10    4.12    0.51
   2  -1  -9    6.57    0.60
  -2   1   9    7.41    0.85
  -2   1   9    6.77    0.61
   2  -1  -8   19.15    0.79
  -2   1   8   20.90    0.78
  -2   1   8   20.80    1.14
   2  -1  -7   44.04    1.28
  -2   1   7   45.60    1.72
  -2   1   7   43.84    1.29
   2  -1  -6    0.62    0.32
  -2   1   6    0.93    0.58
  -2   1   6    1.47    0.31
   2  -1  -5   14.72    0.59
   2  -1  -5   13.40    0.44
  -2   1   5   13.57    0.88
   2  -1  -4   -0.03    0.21
   2  -1  -4   -0.21    0.27
   2  -1  -3    0.03    0.24
   2  -1  -3    0.18    0.20
  -2   1   3    0.06    0.20
  -2   1   3   -1.26    0.43
   2  -1  -2   -0.14    0.21
   2  -1  -2   -0.26    0.24
  -2   1   2    0.15    0.18
  -2   1   2   -0.10    0.40
   2  -1  -1    0.46    0.24
   2  -1  -1    0.49    0.23
  -2   1   1    0.51    0.41
  -2   1   1    0.78    0.19
   2  -1   0   37.14    1.00
   2  -1   0   37.47    1.04
  -2   1   0   36.38    1.31
  -2   1   0   34.91    0.98
   2  -1   1    0.10    0.24
   2  -1   1   -0.06    0.23
  -2   1  -1    0.04    0.35
  -2   1  -1    0.06    0.22
   2  -1   2  199.21    4.78
   2  -1   2  197.23    5.05
  -2   1  -2  199.14    4.74
  -2   1  -2  195.10    5.90
   2  -1   3   31.04    0.87
   2  -1   3   31.02    0.96
  -2   1  -3   30.28    1.09
  -2   1  -3   29.27    0.88
   2  -1   4   19.30    0.63
   2  -1   4   19.32    0.72
  -2   1  -4   18.81    0.76
  -2   1  -4   18.31    0.65
   2  -1   5    6.36    0.41
   2  -1   5    6.02    0.54
  -2   1  -5    5.41    0.41
   2  -1   6    0.15    0.39
   2  -1   6   -0.02    0.28
  -2   1  -6   -0.47    0.29
   2  -1   7    7.09    0.49
   2  -1   7    8.37    0.74
  -2   1  -7    6.85    0.50
   2  -1   8    0.63    0.51
   2  -1   8   -0.26    0.34
  -2   1  -8   -0.37    0.36
   2  -1   9    7.69    0.80
  -2   1  -9    6.69    0.61
   2  -1  10   17.22    1.03
  -2   1 -10   16.97    0.81
   2  -1  11   25.31    1.21
  -2   1 -11   27.01    1.02
   2  -1  12   60.55    2.06
  -2   1 -12   64.73    1.83
   2  -1  13    0.40    0.78
  -2   1 -13    0.47    0.56
   2  -1  14    2.67    0.89
  -2   1 -14    3.50    0.65
   2   0 -15   -0.56    0.72
  -2   0  15   -0.28    0.70
   2   0 -14    0.55    0.73
  -2   0  14    1.88    0.68
   2   0 -13   16.14    0.98
  -2   0  13   20.04    0.99
   2   0 -12    6.68    0.71
  -2   0  12    7.72    0.76
   2   0 -11    2.98    0.58
  -2   0  11    2.17    0.84
  -2   0  11    3.41    0.56
   2   0 -10    1.57    0.50
  -2   0  10    1.45    0.49
  -2   0  10    0.96    0.76
   2   0  -9   -0.20    0.45
  -2   0   9    0.35    0.44
  -2   0   9    0.39    0.74
   2   0  -8    6.28    0.58
  -2   0   8    7.55    0.89
  -2   0   8    7.07    0.55
   2   0  -7    0.34    0.35
  -2   0   7    0.85    0.59
  -2   0   7    0.55    0.35
   2   0  -6    4.52    0.44
   2   0  -6    4.97    0.46
  -2   0   6    4.31    0.62
   2   0  -5    5.83    0.43
   2   0  -5    5.84    0.46
  -2   0   5    5.98    0.74
   2   0  -4    1.39    0.30
   2   0  -4    1.28    0.27
  -2   0   4   -0.96    0.46
   2   0  -3   98.94    2.51
   2   0  -3   97.96    2.40
  -2   0   3   95.63    3.03
  -2   0   3   92.11    2.31
   2   0  -2    1.67    0.27
   2   0  -2    1.19    0.27
  -2   0   2    1.59    0.42
  -2   0   2    1.27    0.16
   2   0  -1   10.84    0.46
   2   0  -1   10.35    0.51
  -2   0   1   11.37    0.74
  -2   0   1   10.45    0.41
   2   0   0    6.76    0.48
   2   0   0    6.88    0.38
  -2   0   0    6.93    0.36
  -2   0   0    6.35    0.64
   2   0   1    5.86    0.48
   2   0   1    6.33    0.37
  -2   0  -1    6.39    0.60
  -2   0  -1    6.13    0.37
   2   0   2   43.67    1.15
   2   0   2   43.53    1.27
  -2   0  -2   42.48    1.16
  -2   0  -2   43.78    1.47
   2   0   3    4.32    0.33
   2   0   3    4.88    0.50
  -2   0  -3    4.92    0.50
  -2   0  -3    3.84    0.38
   2   0   4    9.51    0.43
   2   0   4    9.15    0.55
  -2   0  -4    8.75    0.48
  -2   0  -4    9.73    0.56
   2   0   5    4.71    0.44
   2   0   5    3.80    0.37
  -2   0  -5    4.14    0.42
   2   0   6   19.35    0.65
   2   0   6   19.35    0.84
  -2   0  -6   18.20    0.71
   2   0   7   17.67    0.85
   2   0   7   16.39    0.63
  -2   0  -7   15.51    0.69
   2   0   8    9.95    0.81
   2   0   8    9.33    0.52
  -2   0  -8    8.35    0.58
   2   0   9    5.16    0.68
  -2   0  -9    5.20    0.52
   2   0  10    1.48    0.66
  -2   0 -10    0.47    0.47
   2   0  11   25.29    1.23
  -2   0 -11   23.71    0.99
   2   0  12    6.05    0.86
  -2   0 -12    5.86    0.65
   2   0  13    3.48    0.87
  -2   0 -13    2.76    0.63
   2   0  14    1.95    0.90
  -2   0 -14   -0.13    0.61
   2   1 -15    3.15    0.77
  -2  -1  15    4.49    0.78
   2   1 -14    6.87    0.81
  -2  -1  14    7.47    0.81
   2   1 -13   36.57    1.40
  -2  -1  13   42.43    1.41
   2   1 -12   -0.11    0.62
  -2  -1  12    0.24    0.55
   2   1 -11    5.52    0.63
  -2  -1  11    5.83    0.89
  -2  -1  11    7.32    0.72
   2   1 -10   -0.45    0.50
  -2  -1  10    0.64    0.50
  -2  -1  10    0.24    0.72
   2   1  -9    1.42    0.48
  -2  -1   9    1.25    0.72
  -2  -1   9    1.24    0.44
   2   1  -8    2.03    0.43
  -2  -1   8    2.61    0.67
   2   1  -7    0.06    0.33
   2   1  -7    0.20    0.35
  -2  -1   7   -0.27    0.52
   2   1  -6   11.23    0.57
   2   1  -6   12.59    0.57
  -2  -1   6   12.82    0.85
   2   1  -5    4.25    0.42
   2   1  -5    4.50    0.44
  -2  -1   5    5.83    0.58
   2   1  -4  159.28    4.09
   2   1  -4  157.28    3.88
  -2  -1   4  159.97    4.85
   2   1  -3   69.47    1.75
   2   1  -3   67.69    1.85
  -2  -1   3   67.95    2.24
   2   1  -2    7.38    0.39
   2   1  -2    8.13    0.50
  -2  -1   2    7.84    0.32
  -2  -1   2    7.63    0.67
   2   1  -1    7.92    0.39
   2   1  -1    7.93    0.51
  -2  -1   1    7.68    0.66
  -2  -1   1    7.40    0.36
   2   1   0    1.19    0.22
   2   1   0    1.23    0.33
  -2  -1   0    1.30    0.40
  -2  -1   0    1.21    0.22
   2   1   1    5.21    0.32
   2   1   1    4.80    0.50
  -2  -1  -1    5.72    0.59
  -2  -1  -1    4.77    0.39
   2   1   2    0.26    0.21
   2   1   2    0.40    0.34
  -2  -1  -2    0.52    0.33
  -2  -1  -2    0.61    0.26
   2   1   3    2.08    0.23
   2   1   3    1.89    0.39
  -2  -1  -3    2.23    0.34
  -2  -1  -3    2.12    0.30
   2   1   4   37.17    1.20
   2   1   4   38.47    1.02
  -2  -1  -4   37.38    1.10
  -2  -1  -4   37.93    1.28
   2   1   5   16.21    0.76
   2   1   5   16.35    0.57
  -2  -1  -5   16.07    0.69
  -2  -1  -5   17.08    0.71
   2   1   6  150.11    3.73
   2   1   6  152.64    4.05
  -2  -1  -6  155.32    3.77
   2   1   7    0.70    0.30
   2   1   7    0.51    0.47
  -2  -1  -7    0.42    0.40
   2   1   8    7.38    0.75
   2   1   8    6.26    0.49
  -2  -1  -8    8.11    0.65
   2   1   9    0.06    0.57
  -2  -1  -9    0.59    0.48
   2   1  10    1.13    0.65
  -2  -1 -10    1.00    0.50
   2   1  11    3.51    0.76
  -2  -1 -11    2.33    0.61
   2   1  12   -0.77    0.75
  -2  -1 -12   -0.09    0.56
   2   1  13    7.33    0.97
  -2  -1 -13    7.38    0.74
   2   1  14    3.94    0.95
  -2  -1 -14    3.76    0.71
   2   2 -15    3.10    0.76
  -2  -2  15    4.71    0.81
   2   2 -14   24.98    1.15
  -2  -2  14   26.94    1.14
   2   2 -13    8.25    0.80
  -2  -2  13    8.30    0.79
   2   2 -12    2.95    0.68
  -2  -2  12    3.07    0.63
   2   2 -11    0.76    0.60
  -2  -2  11    0.54    0.54
  -2  -2  11    0.07    0.78
   2   2 -10   -0.77    0.52
  -2  -2  10   -0.98    0.73
  -2  -2  10    0.20    0.50
   2   2  -9    0.52    0.46
  -2  -2   9    0.92    0.64
   2   2  -8    0.00    0.40
   2   2  -8   -0.53    0.42
  -2  -2   8    0.09    0.60
   2   2  -7    5.54    0.55
   2   2  -7    5.08    0.45
  -2  -2   7    5.25    0.64
   2   2  -6    6.80    0.50
   2   2  -6    5.75    0.51
  -2  -2   6    6.83    0.73
   2   2  -5    2.10    0.32
   2   2  -5    2.05    0.35
  -2  -2   5    1.49    0.48
   2   2  -4  240.51    6.20
   2   2  -4  243.87    5.87
  -2  -2   4  245.28    7.29
   2   2  -3    7.92    0.41
   2   2  -3    6.82    0.51
  -2  -2   3    7.02    0.63
   2   2  -2    2.23    0.26
   2   2  -2    1.83    0.36
  -2  -2   2    2.62    0.43
  -2  -2   2    2.48    0.21
   2   2  -1    0.88    0.20
   2   2  -1    0.80    0.33
  -2  -2   1    1.18    0.38
  -2  -2   1    1.17    0.21
   2   2   0    0.63    0.34
   2   2   0    0.49    0.19
  -2  -2   0    0.73    0.23
  -2  -2   0    0.56    0.35
   2   2   1    3.36    0.27
   2   2   1    3.16    0.40
  -2  -2  -1    3.58    0.30
  -2  -2  -1    3.11    0.40
   2   2   2    0.00    0.18
   2   2   2    0.03    0.36
  -2  -2  -2    0.15    0.32
  -2  -2  -2    0.10    0.26
   2   2   3   20.50    0.61
   2   2   3   20.25    0.86
  -2  -2  -3   21.32    0.84
  -2  -2  -3   20.47    0.74
   2   2   4    4.43    0.49
   2   2   4    3.93    0.30
  -2  -2  -4    3.79    0.48
  -2  -2  -4    4.37    0.39
   2   2   5  101.16    2.82
   2   2   5  101.40    2.54
  -2  -2  -5  103.72    3.14
  -2  -2  -5  105.16    2.61
   2   2   6  100.78    2.52
   2   2   6  102.11    2.81
  -2  -2  -6  101.83    2.59
   2   2   7   29.34    1.14
  -2  -2  -7   29.88    1.03
   2   2   8    1.70    0.57
  -2  -2  -8    1.02    0.48
   2   2   9    2.94    0.64
  -2  -2  -9    2.70    0.54
   2   2  10    1.59    0.69
  -2  -2 -10    1.44    0.57
   2   2  11    1.90    0.72
  -2  -2 -11    0.63    0.61
   2   2  12   -0.10    0.72
  -2  -2 -12    0.67    0.65
   2   2  13    8.55    0.97
  -2  -2 -13    9.61    0.84
   2   3 -15    0.02    0.77
  -2  -3  15    0.37    0.72
   2   3 -14    3.99    0.77
  -2  -3  14    4.72    0.75
   2   3 -13   -1.13    0.65
  -2  -3  13    0.15    0.64
   2   3 -12    3.50    0.67
  -2  -3  12    3.50    0.63
   2   3 -11    0.81    0.62
  -2  -3  11    0.79    0.76
  -2  -3  11    1.68    0.54
   2   3 -10    5.01    0.64
  -2  -3  10    4.68    0.81
   2   3  -9    4.89    0.56
   2   3  -9    5.87    0.63
  -2  -3   9    6.27    0.77
   2   3  -8    0.42    0.42
   2   3  -8   -0.25    0.45
  -2  -3   8    1.16    0.63
   2   3  -7    8.73    0.60
   2   3  -7    9.73    0.61
  -2  -3   7    8.88    0.84
   2   3  -6    0.67    0.36
   2   3  -6    0.26    0.37
  -2  -3   6    0.72    0.51
   2   3  -5   33.54    1.08
   2   3  -5   33.72    1.00
  -2  -3   5   33.62    1.33
   2   3  -4   14.09    0.66
   2   3  -4   14.09    0.56
  -2  -3   4   12.63    0.78
   2   3  -3    1.83    0.28
   2   3  -3    2.16    0.40
  -2  -3   3    1.75    0.43
  -2  -3   3    1.87    0.20
   2   3  -2   14.17    0.68
   2   3  -2   12.50    0.48
  -2  -3   2   12.88    0.48
  -2  -3   2   12.22    0.76
   2   3  -1    1.27    0.37
   2   3  -1    0.75    0.21
  -2  -3   1    0.03    0.39
  -2  -3   1    0.59    0.24
   2   3   0    7.16    0.33
   2   3   0    8.73    0.60
  -2  -3   0    7.87    0.64
  -2  -3   0    8.04    0.48
   2   3   1    0.52    0.39
   2   3   1    0.17    0.16
  -2  -3  -1    0.21    0.29
  -2  -3  -1    0.36    0.36
   2   3   2    6.39    0.63
   2   3   2    5.23    0.28
  -2  -3  -2    5.75    0.57
  -2  -3  -2    6.12    0.51
   2   3   3   14.48    0.47
   2   3   3   15.88    0.81
  -2  -3  -3   16.24    0.69
  -2  -3  -3   14.32    0.73
   2   3   4   11.57    0.78
  -2  -3  -4   11.39    0.64
  -2  -3  -4   11.78    0.67
   2   3   5   66.07    1.97
  -2  -3  -5   67.60    1.79
  -2  -3  -5   64.06    2.10
   2   3   6    0.18    0.51
  -2  -3  -6    0.72    0.44
   2   3   7    4.43    0.63
  -2  -3  -7    5.95    0.57
   2   3   8    2.79    0.63
  -2  -3  -8    2.15    0.56
   2   3   9    2.09    0.67
  -2  -3  -9    1.78    0.57
   2   3  10    0.76    0.68
  -2  -3 -10    0.56    0.59
   2   3  11    0.59    0.73
  -2  -3 -11   -1.15    0.61
   2   3  12    7.06    0.92
  -2  -3 -12    7.01    0.77
   2   3  13    1.32    0.84
  -2  -3 -13    0.41    0.69
   2   4 -15    2.10    0.81
  -2  -4  15   -0.04    0.72
   2   4 -14   -0.83    0.74
  -2  -4  14   -0.70    0.67
   2   4 -13   -1.04    0.67
  -2  -4  13    0.66    0.65
   2   4 -12    2.89    0.69
  -2  -4  12    3.94    0.63
   2   4 -11    0.98    0.61
  -2  -4  11   -0.28    0.77
   2   4 -10   52.20    1.65
   2   4 -10   55.30    1.62
  -2  -4  10   52.91    2.03
   2   4  -9    1.90    0.51
   2   4  -9    1.50    0.57
  -2  -4   9    1.46    0.70
   2   4  -8    9.09    0.69
   2   4  -8    8.70    0.65
  -2  -4   8    8.29    0.91
   2   4  -7    1.23    0.44
   2   4  -7    0.46    0.42
  -2  -4   7    1.06    0.59
   2   4  -6    0.82    0.37
   2   4  -6    0.41    0.41
  -2  -4   6    0.52    0.52
   2   4  -5   -0.31    0.32
   2   4  -5    0.17    0.38
  -2  -4   5    0.00    0.45
   2   4  -4    0.40    0.41
   2   4  -4    0.31    0.29
  -2  -4   4    0.18    0.48
   2   4  -3    8.16    0.64
   2   4  -3    7.50    0.43
  -2  -4   3    8.84    0.42
  -2  -4   3    7.83    0.69
   2   4  -2    8.18    0.65
   2   4  -2    8.49    0.41
  -2  -4   2    8.44    0.45
  -2  -4   2    8.07    0.72
   2   4  -1   28.97    0.82
   2   4  -1   30.64    1.08
  -2  -4   1   31.30    0.90
  -2  -4   1   29.64    1.19
   2   4   0   77.83    2.16
  -2  -4   0   74.00    1.93
  -2  -4   0   75.90    2.44
   2   4   1   11.31    0.75
  -2  -4  -1   12.21    0.60
  -2  -4  -1   11.31    0.73
   2   4   2    4.41    0.54
  -2  -4  -2    5.03    0.44
  -2  -4  -2    4.48    0.52
   2   4   3    0.27    0.47
  -2  -4  -3    0.29    0.41
  -2  -4  -3    0.02    0.44
   2   4   4    0.05    0.49
  -2  -4  -4    0.59    0.44
  -2  -4  -4    0.95    0.47
   2   4   5    0.41    0.55
  -2  -4  -5    0.84    0.48
  -2  -4  -5    0.79    0.47
   2   4   6    1.59    0.61
  -2  -4  -6    3.08    0.53
   2   4   7    9.12    0.87
  -2  -4  -7    9.52    0.77
   2   4   8    0.45    0.65
  -2  -4  -8   -0.11    0.55
   2   4   9   31.08    1.37
  -2  -4  -9   35.87    1.27
   2   4  10    4.51    0.79
  -2  -4 -10    4.79    0.74
   2   4  11    6.25    0.86
  -2  -4 -11    7.14    0.79
   2   4  12    1.37    0.79
  -2  -4 -12    0.33    0.69
   2   5 -14    0.22    0.76
  -2  -5  14   -0.01    0.69
   2   5 -13    3.78    0.76
  -2  -5  13    2.69    0.66
   2   5 -12    5.85    0.75
  -2  -5  12    5.28    0.66
   2   5 -11   23.78    1.04
  -2  -5  11   23.90    1.35
   2   5 -10   27.39    1.10
   2   5 -10   28.76    1.07
  -2  -5  10   28.16    1.40
   2   5  -9    2.83    0.56
   2   5  -9    2.83    0.56
  -2  -5   9    2.83    0.77
   2   5  -8    4.82    0.55
   2   5  -8    4.21    0.56
  -2  -5   8    5.41    0.75
   2   5  -7    0.15    0.46
   2   5  -7    0.61    0.48
  -2  -5   7    0.45    0.59
   2   5  -6    5.68    0.55
   2   5  -6    5.06    0.53
  -2  -5   6    6.17    0.71
   2   5  -5    0.62    0.35
   2   5  -5    1.03    0.46
  -2  -5   5    0.88    0.55
   2   5  -4    0.25    0.47
   2   5  -4    0.22    0.30
  -2  -5   4    0.87    0.52
   2   5  -3   23.14    0.97
  -2  -5   3   23.99    1.09
   2   5  -2    1.21    0.50
  -2  -5   2    1.85    0.51
  -2  -5   2    2.30    0.34
   2   5  -1  113.34    3.13
  -2  -5   1  116.55    3.61
  -2  -5   1  116.57    2.85
   2   5   0    7.18    0.74
  -2  -5   0    8.13    0.74
  -2  -5   0    8.90    0.57
   2   5   1   11.75    0.81
  -2  -5  -1   11.94    0.80
  -2  -5  -1   11.80    0.66
   2   5   2    0.25    0.51
  -2  -5  -2    0.35    0.43
  -2  -5  -2    0.50    0.51
   2   5   3   -0.23    0.53
  -2  -5  -3    0.05    0.46
  -2  -5  -3   -0.17    0.50
   2   5   4   10.99    0.88
  -2  -5  -4   10.09    0.77
  -2  -5  -4   10.98    0.74
   2   5   5   -0.14    0.58
  -2  -5  -5   -0.56    0.54
  -2  -5  -5    0.10    0.52
   2   5   6    7.58    0.79
  -2  -5  -6    8.06    0.77
   2   5   7   12.38    1.00
  -2  -5  -7   11.97    0.87
   2   5   8   26.10    1.30
  -2  -5  -8   28.98    1.16
   2   5   9   44.29    1.68
  -2  -5  -9   43.95    1.50
   2   5  10    2.71    0.82
  -2  -5 -10    2.95    0.73
   2   5  11    1.26    0.82
  -2  -5 -11    1.38    0.74
   2   6 -14    0.77    0.78
  -2  -6  14    1.82    0.72
   2   6 -13    2.28    0.75
  -2  -6  13    3.61    0.67
   2   6 -12   -0.06    0.66
   2   6 -11   14.94    0.91
   2   6 -11   16.20    0.91
  -2  -6  11   16.60    1.17
   2   6 -10    0.90    0.58
   2   6 -10    0.96    0.59
  -2  -6  10    0.63    0.81
   2   6  -9    2.94    0.59
   2   6  -9    3.49    0.56
  -2  -6   9    4.38    0.80
   2   6  -8    3.12    0.58
   2   6  -8    3.21    0.51
  -2  -6   8    3.05    0.73
   2   6  -7    0.08    0.43
   2   6  -7    0.98    0.54
  -2  -6   7    1.21    0.71
   2   6  -6    2.30    0.53
  -2  -6   6    0.91    0.64
   2   6  -5    0.09    0.53
  -2  -6   5    0.33    0.61
   2   6  -4   16.20    0.86
  -2  -6   4   15.63    0.97
   2   6  -3    1.56    0.56
  -2  -6   3    3.34    0.60
   2   6  -2   16.33    0.89
  -2  -6   2   18.35    1.00
  -2  -6   2   17.77    0.70
   2   6  -1   40.02    1.38
  -2  -6   1   40.31    1.18
  -2  -6   1   39.71    1.55
   2   6   0    5.76    0.65
  -2  -6   0    6.10    0.78
  -2  -6   0    6.96    0.60
   2   6   1    2.86    0.60
  -2  -6  -1    5.17    0.53
  -2  -6  -1    4.88    0.64
   2   6   2    0.36    0.57
  -2  -6  -2    0.26    0.58
  -2  -6  -2    0.05    0.51
   2   6   3    0.85    0.62
  -2  -6  -3    0.22    0.52
  -2  -6  -3   -0.18    0.61
   2   6   4    2.84    0.69
  -2  -6  -4    2.17    0.59
   2   6   5   -0.82    0.64
  -2  -6  -5    0.10    0.58
   2   6   6   16.85    1.09
  -2  -6  -6   18.92    0.96
   2   6   7    2.37    0.78
  -2  -6  -7    3.21    0.71
   2   6   8   35.57    1.56
  -2  -6  -8   39.81    1.42
   2   6   9    8.36    0.97
  -2  -6  -9    8.99    0.91
   2   6  10    6.82    0.99
  -2  -6 -10    6.26    0.82
   2   7 -13   -0.22    0.72
  -2  -7  13   -0.01    0.64
   2   7 -12    0.16    0.69
   2   7 -11   -0.48    0.64
   2   7 -11   -0.33    0.62
  -2  -7  11    1.02    0.87
   2   7 -10   -0.20    0.57
   2   7 -10    0.26    0.62
  -2  -7  10    0.31    0.83
   2   7  -9    7.18    0.76
  -2  -7   9    7.86    0.96
   2   7  -8    0.18    0.60
  -2  -7   8    0.45    0.79
   2   7  -7   10.07    0.77
  -2  -7   7    9.40    1.01
   2   7  -6    4.41    0.63
  -2  -7   6    4.90    0.81
   2   7  -5    8.59    0.78
  -2  -7   5    7.70    0.90
   2   7  -4    3.62    0.64
  -2  -7   4    4.02    0.72
   2   7  -3   -1.14    0.57
  -2  -7   3   -0.05    0.65
   2   7  -2    1.56    0.63
  -2  -7   2    1.99    0.48
  -2  -7   2    1.56    0.66
   2   7  -1    1.55    0.62
  -2  -7   1    0.64    0.48
  -2  -7   1    0.82    0.65
   2   7   0    4.10    0.69
  -2  -7   0    4.01    0.71
  -2  -7   0    4.36    0.56
   2   7   1    6.24    0.75
  -2  -7  -1    7.44    0.70
  -2  -7  -1    6.18    0.76
   2   7   2    2.98    0.70
  -2  -7  -2    2.47    0.58
  -2  -7  -2    2.72    0.74
   2   7   3    6.31    0.77
  -2  -7  -3    6.76    0.67
   2   7   4   -0.34    0.73
  -2  -7  -4    0.51    0.62
   2   7   5   10.39    1.05
  -2  -7  -5   11.01    0.87
   2   7   6   -0.55    0.75
  -2  -7  -6    0.58    0.66
   2   7   7    1.41    0.81
  -2  -7  -7    0.71    0.69
   2   7   8    3.19    0.87
  -2  -7  -8    3.72    0.76
   2   7   9    0.61    0.86
  -2  -7  -9    0.46    0.75
   2   8 -12    4.89    0.82
   2   8 -11   -1.01    0.68
  -2  -8  11    1.36    0.89
   2   8 -10    1.86    0.69
  -2  -8  10    2.35    0.87
   2   8  -9    7.74    0.82
  -2  -8   9    9.57    1.12
   2   8  -8    9.53    0.85
  -2  -8   8   10.74    1.11
   2   8  -7   19.49    1.01
  -2  -8   7   22.46    1.30
   2   8  -6   -0.37    0.63
  -2  -8   6    0.35    0.79
   2   8  -5    9.04    0.85
  -2  -8   5    8.97    0.99
   2   8  -4   -0.43    0.64
  -2  -8   4   -0.68    0.73
   2   8  -3    1.27    0.67
  -2  -8   3    1.59    0.76
   2   8  -2    6.88    0.78
  -2  -8   2    6.47    0.85
   2   8  -1   -1.00    0.67
  -2  -8   1   -0.31    0.73
  -2  -8   1   -0.05    0.54
   2   8   0   19.57    1.09
  -2  -8   0   18.18    1.15
  -2  -8   0   19.98    0.91
   2   8   1   -0.64    0.72
  -2  -8  -1   -0.15    0.77
  -2  -8  -1    0.42    0.58
   2   8   2   34.36    1.46
  -2  -8  -2   33.95    1.22
   2   8   3    9.65    1.03
  -2  -8  -3    9.81    0.83
   2   8   4    5.27    0.84
  -2  -8  -4    5.18    0.73
   2   8   5    2.11    0.85
  -2  -8  -5    1.57    0.71
   2   8   6    0.06    0.85
  -2  -8  -6    0.38    0.70
   2   8   7    2.77    0.92
  -2  -8  -7    3.29    0.76
   2   8   8   -0.03    0.90
   2   9 -11   -0.68    0.72
  -2  -9  11    1.16    0.94
   2   9 -10    4.04    0.76
  -2  -9  10    5.99    1.04
   2   9  -9    0.46    0.71
  -2  -9   9    1.14    0.94
   2   9  -8   15.68    1.03
  -2  -9   8   18.14    1.28
   2   9  -7    5.09    0.77
  -2  -9   7    5.91    0.99
   2   9  -6    5.55    0.80
  -2  -9   6    4.87    0.94
   2   9  -5    1.08    0.74
  -2  -9   5    0.67    0.86
   2   9  -4    0.30    0.73
  -2  -9   4    1.50    0.86
   2   9  -3    5.23    0.81
  -2  -9   3    4.08    0.91
   2   9  -2   -0.74    0.72
  -2  -9   2   -1.36    0.83
   2   9  -1    5.42    0.87
  -2  -9   1    4.81    0.67
  -2  -9   1    4.28    0.89
   2   9   0    5.02    0.88
  -2  -9   0    7.22    0.71
  -2  -9   0    5.42    0.95
   2   9   1    4.84    0.88
  -2  -9  -1    5.51    0.69
   2   9   2   31.75    1.42
  -2  -9  -2   30.54    1.21
   2   9   3    0.76    0.85
  -2  -9  -3    0.44    0.68
   2   9   4    5.89    0.92
  -2  -9  -4    7.03    0.80
   2   9   5   -0.63    0.86
  -2  -9  -5    0.33    0.75
   2   9   6    3.38    0.93
  -2  -9  -6    2.84    0.81
   2  10  -9    1.12    0.78
  -2 -10   9    0.91    1.00
   2  10  -8    1.98    0.80
  -2 -10   8    2.75    1.04
   2  10  -7   -0.62    0.76
  -2 -10   7    0.53    0.96
   2  10  -6    2.32    0.81
  -2 -10   6    2.48    1.01
   2  10  -5    0.99    0.81
  -2 -10   5    0.53    0.95
   2  10  -4    1.18    0.81
  -2 -10   4    1.71    0.99
   2  10  -3   -0.70    0.78
  -2 -10   3    0.46    0.94
   2  10  -2   -0.24    0.82
  -2 -10   2   -0.48    0.91
   2  10  -1   11.12    1.09
  -2 -10   1   10.78    1.16
   2  10   0   -0.24    0.86
  -2 -10   0    1.26    0.70
  -2 -10   0    0.17    0.95
   2  10   1    3.98    0.94
  -2 -10  -1    4.76    0.75
   2  10   2    2.15    0.90
  -2 -10  -2    4.93    0.76
   2  10   3    2.31    0.92
  -2 -10  -3    2.28    0.76
   2  11  -6    3.97    0.88
  -2 -11   6    3.94    1.12
   2  11  -5    1.63    0.86
  -2 -11   5    1.09    1.10
   2  11  -4   11.48    1.06
  -2 -11   4   12.13    1.32
   2  11  -3    1.07    0.90
  -2 -11   3    1.24    1.05
   2  11  -2    5.61    0.97
  -2 -11   2    4.71    1.10
   2  11  -1   -0.40    0.87
  -2 -11   1   -0.24    1.01
   2  11   0   -1.00    0.90
  -2 -11   0   -1.51    1.04
   3 -10  -2    2.24    0.70
  -3  10   2    1.70    1.57
   3 -10  -1    2.66    0.70
  -3  10   1   -0.08    1.47
   3 -10   0    3.96    0.57
   3 -10   0    5.39    0.73
  -3  10   0    4.20    1.48
   3 -10   1    6.04    0.61
  -3  10  -1    5.72    1.50
   3 -10   2    0.94    0.53
  -3  10  -2   -0.03    0.83
  -3  10  -2    0.16    1.41
   3 -10   3    2.39    0.55
  -3  10  -3    0.47    1.40
  -3  10  -3    2.83    0.84
   3 -10   4    0.38    0.53
  -3  10  -4   -0.04    0.79
   3 -10   5    0.89    0.55
  -3  10  -5    1.63    0.79
   3 -10   6    0.20    0.53
  -3  10  -6    0.60    0.77
   3 -10   7    0.15    0.54
  -3  10  -7    1.02    0.77
  -3   9   5   17.32    1.94
   3  -9  -4    3.83    0.67
   3  -9  -4    2.65    0.58
  -3   9   4    2.89    1.52
   3  -9  -3    1.63    0.55
   3  -9  -3    2.23    0.66
  -3   9   3    0.02    1.41
   3  -9  -2    1.15    0.54
   3  -9  -2    3.08    0.65
  -3   9   2    0.54    1.38
   3  -9  -1   -0.45    0.59
   3  -9  -1   -0.30    0.49
  -3   9   1   -0.22    1.30
   3  -9   0    2.81    0.53
  -3   9   0    1.76    1.31
   3  -9   1    0.24    0.48
  -3   9  -1   -1.51    1.24
  -3   9  -1   -0.10    0.76
   3  -9   2    5.10    0.56
  -3   9  -2    2.19    1.30
  -3   9  -2    5.27    0.83
   3  -9   3    3.69    0.55
  -3   9  -3    4.09    0.78
  -3   9  -3    4.04    1.26
   3  -9   4    3.99    0.58
  -3   9  -4    5.02    0.77
   3  -9   5   33.04    1.19
  -3   9  -5   32.95    1.34
   3  -9   6    0.38    0.51
  -3   9  -6    0.00    0.62
   3  -9   7    2.24    0.56
  -3   9  -7    2.23    0.66
   3  -9   8    1.56    0.55
  -3   9  -8    1.42    0.65
   3  -9   9    1.04    0.57
  -3   9  -9    0.59    0.66
   3  -8  -7    3.86    0.70
  -3   8   7    6.08    1.60
   3  -8  -6    5.79    0.68
  -3   8   6    5.57    1.54
  -3   8   5   22.73    1.89
   3  -8  -4    0.13    0.52
   3  -8  -4   -0.07    0.58
  -3   8   4   -1.14    1.30
   3  -8  -3    3.92    0.58
   3  -8  -3    6.14    0.64
  -3   8   3    2.23    1.32
   3  -8  -2   -0.12    0.48
   3  -8  -2   -0.60    0.55
  -3   8   2   -1.60    1.19
   3  -8  -1    4.32    0.53
  -3   8   1    4.04    1.25
   3  -8   0    1.99    0.49
  -3   8   0    0.54    1.14
  -3   8   0    2.58    0.74
   3  -8   1   -0.16    0.44
  -3   8  -1   -1.00    0.65
  -3   8  -1   -0.24    1.10
   3  -8   2   11.23    0.69
  -3   8  -2   10.89    1.30
  -3   8  -2   11.11    0.91
   3  -8   3    0.99    0.49
  -3   8  -3   -1.48    1.08
  -3   8  -3    0.41    0.63
   3  -8   4   56.65    1.65
  -3   8  -4   54.63    1.72
   3  -8   5   14.87    0.80
  -3   8  -5   15.50    0.91
   3  -8   6    7.76    0.67
  -3   8  -6    8.31    0.80
   3  -8   7    0.24    0.48
  -3   8  -7    0.21    0.58
   3  -8   8    0.54    0.51
  -3   8  -8    0.18    0.57
   3  -8   9    8.04    0.71
  -3   8  -9    6.85    0.71
   3  -8  10    0.60    0.54
  -3   8 -10    0.41    0.59
   3  -7  -8    8.52    0.82
  -3   7   8    7.10    1.52
  -3   7   7   -1.37    1.33
   3  -7  -6    5.48    0.64
  -3   7   6    4.37    1.33
   3  -7  -5    2.99    0.57
  -3   7   5    2.26    1.23
   3  -7  -4    6.92    0.66
   3  -7  -4    7.61    0.69
  -3   7   4    7.18    1.26
   3  -7  -3    3.25    0.54
   3  -7  -3    2.21    0.54
  -3   7   3    1.75    1.13
   3  -7  -2    0.37    0.45
  -3   7   2   -0.46    1.04
   3  -7  -1    1.70    0.47
  -3   7   1    1.18    1.03
  -3   7   1    1.94    0.69
   3  -7   0    0.48    0.43
  -3   7   0    0.08    0.99
  -3   7   0    0.73    0.62
   3  -7   1    6.00    0.59
  -3   7  -1    5.85    1.09
  -3   7  -1    6.00    0.68
   3  -7   2   12.64    0.71
  -3   7  -2   14.31    0.85
  -3   7  -2   11.10    1.34
   3  -7   3   14.65    0.75
  -3   7  -3   13.26    0.84
  -3   7  -3   11.85    1.36
   3  -7   4   23.12    0.91
  -3   7  -4   24.70    1.01
  -3   7  -4   18.35    1.50
   3  -7   5   -0.27    0.42
  -3   7  -5   -0.21    0.52
   3  -7   6   14.04    0.76
  -3   7  -6   14.54    0.84
   3  -7   7    0.10    0.46
  -3   7  -7    1.10    0.52
   3  -7   8    2.10    0.50
  -3   7  -8    1.53    0.56
   3  -7   9    1.26    0.51
  -3   7  -9    1.53    0.58
   3  -7  10   -0.03    0.51
  -3   7 -10    0.51    0.57
   3  -7  11   11.02    0.79
  -3   7 -11   12.47    0.88
   3  -6  -9    3.46    0.72
  -3   6   9    3.39    1.33
   3  -6  -8   -0.37    0.60
  -3   6   8   -1.28    1.19
   3  -6  -7   -0.61    0.53
  -3   6   7   -0.71    1.16
   3  -6  -6   -0.22    0.52
  -3   6   6   -1.08    1.07
   3  -6  -5   -0.07    0.50
  -3   6   5   -0.19    1.03
   3  -6  -4    7.29    0.65
   3  -6  -4    8.04    0.65
  -3   6   4    7.77    1.16
   3  -6  -3    1.42    0.49
   3  -6  -3    2.72    0.50
  -3   6   3    1.50    0.98
   3  -6  -2   12.54    0.69
  -3   6   2   12.09    0.91
  -3   6   2   11.84    1.28
   3  -6  -1    9.96    0.64
  -3   6   1   11.52    0.82
  -3   6   1   10.49    1.22
   3  -6   0    2.94    0.45
  -3   6   0    3.33    0.58
  -3   6   0    2.68    0.90
   3  -6   1    9.64    0.63
  -3   6  -1    9.05    1.14
  -3   6  -1    9.96    0.74
   3  -6   2   -0.44    0.39
  -3   6  -2    0.25    0.48
  -3   6  -2   -0.87    0.80
   3  -6   3    0.61    0.41
  -3   6  -3    0.99    0.50
  -3   6  -3    0.30    0.81
   3  -6   4    1.45    0.43
  -3   6  -4    1.82    0.49
  -3   6  -4    1.00    0.83
   3  -6   5    7.08    0.59
  -3   6  -5    8.13    0.69
   3  -6   6    6.44    0.61
  -3   6  -6    6.97    0.70
   3  -6   7    0.02    0.44
  -3   6  -7   -0.51    0.48
   3  -6   8    8.98    0.67
  -3   6  -8    9.97    0.75
   3  -6   9    0.11    0.48
  -3   6  -9    0.05    0.52
   3  -6  10    8.31    0.72
  -3   6 -10    9.23    0.76
   3  -6  11    2.91    0.57
  -3   6 -11    3.34    0.61
   3  -6  12    0.78    0.56
  -3   6 -12    1.25    0.58
   3  -5 -10    0.22    0.66
  -3   5  10   -0.23    1.18
   3  -5  -9    5.46    0.72
  -3   5   9    4.98    1.24
   3  -5  -8    0.80    0.58
  -3   5   8    0.44    1.14
   3  -5  -7   15.94    0.82
  -3   5   7   15.46    1.46
   3  -5  -6   -0.38    0.50
  -3   5   6   -0.10    1.04
   3  -5  -5    3.22    0.53
  -3   5   5    3.13    1.02
   3  -5  -4   16.91    0.80
  -3   5   4   15.39    1.29
   3  -5  -3    5.44    0.56
  -3   5   3    7.27    1.01
   3  -5  -2   54.90    1.58
  -3   5   2   57.32    1.65
  -3   5   2   54.61    2.16
   3  -5  -1    0.66    0.41
  -3   5   1    0.50    0.83
  -3   5   1    1.00    0.49
   3  -5   0   16.17    0.72
  -3   5   0   15.93    0.77
  -3   5   0   14.73    1.16
   3  -5   1    1.86    0.38
  -3   5  -1    1.38    0.46
  -3   5  -1    2.51    0.78
   3  -5   2    0.44    0.38
  -3   5  -2   -0.03    0.42
  -3   5  -2    0.07    0.69
   3  -5   3   22.37    0.85
  -3   5  -3   20.93    1.23
  -3   5  -3   23.28    0.89
   3  -5   4    3.86    0.45
  -3   5  -4    3.54    0.49
  -3   5  -4    2.30    0.71
   3  -5   5   36.54    1.17
  -3   5  -5   38.18    1.21
   3  -5   6    1.63    0.42
  -3   5  -6    1.25    0.47
   3  -5   7   33.01    1.10
  -3   5  -7   33.17    1.13
   3  -5   8   32.92    1.13
  -3   5  -8   33.08    1.15
   3  -5   9    3.75    0.53
  -3   5  -9    3.62    0.56
   3  -5  10    5.07    0.58
  -3   5 -10    5.78    0.62
   3  -5  11    0.28    0.52
  -3   5 -11   -0.61    0.55
   3  -5  12    3.22    0.60
  -3   5 -12    4.28    0.66
   3  -4 -11   -0.99    0.66
  -3   4  11   -0.64    1.18
   3  -4 -10    4.25    0.71
  -3   4  10    4.57    1.23
   3  -4  -9   -0.37    0.61
  -3   4   9   -0.89    1.07
   3  -4  -8    0.25    0.55
  -3   4   8   -0.32    1.04
   3  -4  -7    0.44    0.50
  -3   4   7    0.13    1.00
   3  -4  -6   -0.56    0.49
  -3   4   6   -0.72    0.89
   3  -4  -5   10.69    0.69
  -3   4   5   11.98    1.21
   3  -4  -4    3.25    0.49
  -3   4   4    4.26    0.89
   3  -4  -3   37.11    1.19
  -3   4   3   37.16    1.68
  -3   4   3   38.19    1.24
   3  -4  -2   30.59    1.02
  -3   4   2   28.34    1.43
  -3   4   2   29.72    1.02
   3  -4  -1   10.30    0.61
  -3   4   1    9.61    0.63
  -3   4   1   10.28    1.03
   3  -4   0    5.27    0.54
  -3   4   0    5.76    0.55
  -3   4   0    5.57    0.79
   3  -4   1   -0.16    0.34
  -3   4  -1    0.20    0.37
  -3   4  -1   -0.25    0.64
   3  -4   2   11.67    0.62
  -3   4  -2   11.90    0.63
  -3   4  -2   11.08    0.93
   3  -4   3    0.07    0.35
  -3   4  -3    0.38    0.60
  -3   4  -3    0.05    0.39
   3  -4   4    5.50    0.55
  -3   4  -4    5.64    0.57
  -3   4  -4    5.86    0.69
   3  -4   5   24.79    0.90
  -3   4  -5   24.69    0.92
   3  -4   6    4.07    0.47
  -3   4  -6    3.64    0.49
   3  -4   7   79.72    2.16
  -3   4  -7   81.01    2.17
   3  -4   8    1.86    0.46
  -3   4  -8    1.94    0.51
   3  -4   9   15.95    0.80
  -3   4  -9   15.32    0.85
   3  -4  10   -0.03    0.50
  -3   4 -10    0.08    0.52
   3  -4  11    3.73    0.58
  -3   4 -11    3.72    0.61
   3  -4  12    6.93    0.67
  -3   4 -12    7.09    0.71
   3  -4  13    0.33    0.58
   3  -3 -12   -0.47    0.71
  -3   3  12   -0.76    1.20
   3  -3 -11   -0.51    0.66
  -3   3  11    0.14    1.11
   3  -3 -10    4.38    0.70
  -3   3  10    3.68    1.12
   3  -3  -9   -0.47    0.58
  -3   3   9    0.04    1.05
   3  -3  -8    2.84    0.57
  -3   3   8    3.23    1.04
   3  -3  -7    0.62    0.52
  -3   3   7    1.45    0.94
   3  -3  -6    4.25    0.55
  -3   3   6    4.65    0.96
   3  -3  -5   11.77    0.69
  -3   3   5   11.90    1.13
   3  -3  -4    2.34    0.45
  -3   3   4    3.27    0.82
   3  -3  -3    4.16    0.49
  -3   3   3    4.12    0.79
   3  -3  -2    1.69    0.41
  -3   3   2    1.45    0.39
  -3   3   2    1.70    0.72
   3  -3  -1   21.06    0.80
  -3   3   1   20.66    1.18
  -3   3   1   19.52    0.75
   3  -3   0    3.52    0.41
  -3   3   0    3.18    0.66
  -3   3   0    3.15    0.38
   3  -3   1    2.89    0.38
  -3   3  -1    2.09    0.62
  -3   3  -1    2.86    0.39
   3  -3   2    1.83    0.38
  -3   3  -2    2.09    0.37
  -3   3  -2    1.99    0.58
   3  -3   3   -0.33    0.34
  -3   3  -3   -0.18    0.52
  -3   3  -3   -0.45    0.35
   3  -3   4   23.49    0.83
  -3   3  -4   22.35    1.07
  -3   3  -4   23.83    0.87
   3  -3   5    3.06    0.40
  -3   3  -5    2.80    0.44
   3  -3   6   19.02    0.77
  -3   3  -6   19.46    0.84
   3  -3   7   10.69    0.65
  -3   3  -7   11.80    0.75
   3  -3   8    0.95    0.44
  -3   3  -8    1.27    0.50
   3  -3   9   12.32    0.72
  -3   3  -9   12.08    0.80
   3  -3  10   -0.04    0.49
  -3   3 -10   -0.78    0.53
   3  -3  11    0.92    0.53
  -3   3 -11   -0.14    0.56
   3  -3  12    0.25    0.54
  -3   3 -12   -0.27    0.60
   3  -3  13    1.40    0.60
  -3   3 -13    1.66    0.66
   3  -2 -12   -1.49    0.70
  -3   2  12   -1.43    1.13
   3  -2 -11    0.30    0.66
  -3   2  11    1.61    1.13
   3  -2 -10    4.48    0.67
  -3   2  10    5.49    1.16
   3  -2  -9   15.74    0.85
  -3   2   9   17.30    1.41
   3  -2  -8   25.05    0.99
   3  -2  -7    0.79    0.49
  -3   2   7    1.01    0.89
   3  -2  -6    7.00    0.62
  -3   2   6    5.78    0.95
   3  -2  -5   -0.88    0.42
  -3   2   5   -0.46    0.74
   3  -2  -4    2.52    0.44
  -3   2   4    2.87    0.76
   3  -2  -3    0.23    0.42
  -3   2   3    1.58    0.72
   3  -2  -2    1.61    0.40
  -3   2   2    1.91    0.33
  -3   2   2    1.04    0.66
   3  -2  -1   17.81    0.72
  -3   2   1   20.38    1.11
  -3   2   1   17.91    0.66
   3  -2   0    0.02    0.34
  -3   2   0   -0.59    0.58
  -3   2   0   -0.51    0.30
   3  -2   1   75.52    1.99
  -3   2  -1   75.65    1.95
  -3   2  -1   75.86    2.55
   3  -2   2    8.62    0.54
  -3   2  -2    9.41    0.58
  -3   2  -2    8.14    0.81
   3  -2   3   16.08    0.68
  -3   2  -3   14.65    0.92
  -3   2  -3   16.31    0.72
   3  -2   4    3.72    0.40
  -3   2  -4    3.51    0.54
  -3   2  -4    4.20    0.46
   3  -2   5    0.11    0.35
  -3   2  -5    0.51    0.39
   3  -2   6    1.68    0.49
   3  -2   6    0.97    0.39
  -3   2  -6    1.88    0.43
   3  -2   7    0.62    0.40
   3  -2   7    0.13    0.48
  -3   2  -7   -0.08    0.43
   3  -2   8   11.25    0.80
   3  -2   8   12.85    0.69
  -3   2  -8   12.05    0.74
   3  -2   9    8.29    0.67
   3  -2   9    9.47    0.80
  -3   2  -9    7.45    0.71
   3  -2  10    9.65    0.72
   3  -2  10   10.85    0.89
  -3   2 -10    7.73    0.76
   3  -2  11   25.25    1.03
  -3   2 -11   26.20    1.10
   3  -2  12    2.02    0.56
  -3   2 -12    0.61    0.63
   3  -2  13    5.22    0.65
   3  -2  13    5.01    0.85
  -3   2 -13    4.95    0.73
   3  -1 -12   -0.87    0.70
  -3   1  12    1.16    1.17
   3  -1 -11    4.99    0.73
  -3   1  11    2.93    1.13
   3  -1 -10   -0.31    0.58
  -3   1  10   -0.22    1.04
   3  -1  -9   52.33    1.60
   3  -1  -8    2.44    0.56
  -3   1   8    1.99    0.96
   3  -1  -7    5.19    0.53
  -3   1   7    5.25    0.98
   3  -1  -6   -0.16    0.44
   3  -1  -5   -0.20    0.43
  -3   1   5   -1.66    0.73
   3  -1  -4   11.58    0.66
  -3   1   4   12.99    1.05
   3  -1  -3    0.68    0.31
   3  -1  -3    0.48    0.39
  -3   1   3    1.07    0.66
   3  -1  -2   14.25    0.64
   3  -1  -2   15.64    0.68
  -3   1   2   16.31    1.05
   3  -1  -1   10.85    0.58
   3  -1  -1    9.37    0.57
  -3   1   1   12.40    0.90
  -3   1   1   10.81    0.49
   3  -1   0   37.10    1.16
   3  -1   0   38.54    1.13
  -3   1   0   38.68    1.52
  -3   1   0   38.26    1.08
   3  -1   1  125.02    3.13
   3  -1   1  124.64    3.28
  -3   1  -1  124.03    3.08
  -3   1  -1  126.09    3.91
   3  -1   2    8.33    0.51
   3  -1   2    8.60    0.59
  -3   1  -2    8.37    0.54
  -3   1  -2    8.71    0.80
   3  -1   3    2.94    0.38
   3  -1   3    2.71    0.44
  -3   1  -3    2.97    0.54
  -3   1  -3    2.96    0.39
   3  -1   4   -0.03    0.33
   3  -1   4    0.45    0.43
  -3   1  -4    0.42    0.36
  -3   1  -4   -0.15    0.45
   3  -1   5    4.23    0.55
   3  -1   5    5.03    0.49
  -3   1  -5    5.16    0.48
   3  -1   6    6.65    0.53
   3  -1   6    6.50    0.62
  -3   1  -6    6.52    0.60
   3  -1   7    0.47    0.38
   3  -1   7   -0.18    0.52
  -3   1  -7    0.47    0.44
   3  -1   8   27.34    1.14
   3  -1   8   28.25    0.98
  -3   1  -8   28.04    1.04
   3  -1   9    0.85    0.62
   3  -1   9    0.92    0.45
  -3   1  -9    0.77    0.53
   3  -1  10   62.89    1.79
   3  -1  10   61.28    2.01
  -3   1 -10   63.58    1.85
   3  -1  11   14.96    0.83
   3  -1  11   16.08    1.06
  -3   1 -11   16.24    0.95
   3  -1  12   11.77    1.06
  -3   1 -12   11.22    0.93
   3   0 -13   -1.29    0.73
  -3   0  13   -1.21    1.15
   3   0 -12    0.66    0.71
  -3   0  12    0.25    1.14
   3   0 -11    0.61    0.65
  -3   0  11    1.83    1.09
   3   0 -10    5.62    0.67
  -3   0  10    7.51    1.15
  -3   0  10    6.65    0.69
   3   0  -9   11.18    0.80
  -3   0   9   12.96    0.74
  -3   0   9   11.75    1.26
   3   0  -8    0.14    0.50
  -3   0   8    0.01    0.90
   3   0  -7    3.72    0.47
   3   0  -7    2.62    0.50
  -3   0   7    3.19    0.89
   3   0  -6    0.17    0.44
   3   0  -6    0.99    0.40
  -3   0   6   -2.17    0.74
   3   0  -5    1.96    0.40
   3   0  -5    1.02    0.43
  -3   0   5    0.06    0.75
   3   0  -4    0.89    0.42
   3   0  -4    1.14    0.36
  -3   0   4    1.84    0.69
   3   0  -3    1.50    0.36
   3   0  -3    0.78    0.37
  -3   0   3    1.77    0.67
   3   0  -2   15.04    0.67
   3   0  -2   15.35    0.68
  -3   0   2   15.60    1.00
   3   0  -1   -0.91    0.36
   3   0  -1   -1.21    0.34
  -3   0   1    0.32    0.26
  -3   0   1    0.11    0.54
   3   0   0   67.64    1.79
   3   0   0   67.90    1.90
  -3   0   0   67.51    1.75
  -3   0   0   69.59    2.30
   3   0   1    5.33    0.47
   3   0   1    5.96    0.58
  -3   0  -1    6.15    0.62
  -3   0  -1    5.10    0.47
   3   0   2    7.79    0.48
   3   0   2    8.27    0.63
  -3   0  -2    7.34    0.52
  -3   0  -2    7.97    0.77
   3   0   3    2.32    0.36
   3   0   3    3.47    0.50
  -3   0  -3    3.29    0.39
  -3   0  -3    3.13    0.52
   3   0   4    0.42    0.48
   3   0   4    0.24    0.32
  -3   0  -4    0.22    0.37
  -3   0  -4    0.43    0.46
   3   0   5    0.76    0.34
   3   0   5    1.18    0.53
  -3   0  -5    0.58    0.41
   3   0   6    0.62    0.55
   3   0   6    0.20    0.34
  -3   0  -6   -0.20    0.41
   3   0   7    8.56    0.58
   3   0   7    8.77    0.82
  -3   0  -7    9.51    0.68
   3   0   8   10.62    0.64
   3   0   8   10.78    0.87
  -3   0  -8   10.99    0.75
   3   0   9   24.57    0.92
   3   0   9   23.35    1.16
  -3   0  -9   24.45    1.02
   3   0  10   38.72    1.52
  -3   0 -10   41.63    1.39
   3   0  11    1.69    0.74
  -3   0 -11    0.61    0.62
   3   0  12    3.00    0.84
  -3   0 -12    2.44    0.69
   3   1 -13    0.62    0.75
  -3  -1  13    1.89    1.18
  -3  -1  13    2.42    0.71
   3   1 -12   -1.28    0.67
  -3  -1  12   -0.36    1.13
  -3  -1  12    0.64    0.67
   3   1 -11   -1.03    0.65
  -3  -1  11    0.37    0.60
  -3  -1  11   -0.94    1.04
   3   1 -10   -0.13    0.60
  -3  -1  10    0.37    0.99
  -3  -1  10    0.86    0.53
   3   1  -9   -0.90    0.53
  -3  -1   9    0.37    0.91
   3   1  -8    2.20    0.55
   3   1  -8    2.51    0.52
  -3  -1   8    1.63    0.89
   3   1  -7    3.84    0.49
   3   1  -7    3.42    0.52
  -3  -1   7    3.36    0.90
   3   1  -6    2.46    0.45
   3   1  -6    2.34    0.46
  -3  -1   6    0.48    0.77
   3   1  -5   51.13    1.51
   3   1  -5   49.71    1.46
  -3  -1   5   52.18    1.95
   3   1  -4    1.60    0.41
   3   1  -4    1.69    0.41
  -3  -1   4    1.98    0.66
   3   1  -3    4.80    0.43
   3   1  -3    5.16    0.48
  -3  -1   3    5.26    0.72
   3   1  -2    0.71    0.33
   3   1  -2    0.93    0.42
  -3  -1   2    0.54    0.59
   3   1  -1    1.48    0.43
   3   1  -1    0.75    0.34
  -3  -1   1    1.45    0.58
   3   1   0    8.33    0.64
   3   1   0    7.94    0.50
  -3  -1   0    8.88    0.81
  -3  -1   0    8.44    0.49
   3   1   1    0.94    0.31
   3   1   1    1.16    0.47
  -3  -1  -1    1.03    0.33
  -3  -1  -1    1.24    0.55
   3   1   2    6.17    0.68
   3   1   2    6.41    0.46
  -3  -1  -2    6.63    0.51
  -3  -1  -2    6.58    0.75
   3   1   3    2.13    0.53
   3   1   3    2.09    0.34
  -3  -1  -3    2.27    0.41
  -3  -1  -3    2.74    0.55
   3   1   4   24.98    1.04
   3   1   4   22.87    0.79
  -3  -1  -4   22.83    1.07
  -3  -1  -4   23.20    0.86
   3   1   5   14.69    0.61
   3   1   5   15.30    0.91
  -3  -1  -5   14.92    0.73
   3   1   6    9.06    0.88
   3   1   6    9.29    0.54
  -3  -1  -6    8.68    0.67
   3   1   7    1.40    0.65
  -3  -1  -7    1.52    0.53
   3   1   8    0.70    0.67
  -3  -1  -8    0.13    0.53
   3   1   9   10.71    0.98
  -3  -1  -9   10.72    0.82
   3   1  10    1.39    0.75
  -3  -1 -10    1.91    0.64
   3   1  11    2.21    0.82
  -3  -1 -11    2.46    0.70
   3   1  12    1.89    0.84
  -3  -1 -12    0.83    0.73
   3   2 -13    0.26    0.79
  -3  -2  13    2.15    0.73
  -3  -2  13    1.52    1.15
   3   2 -12   -1.27    0.70
  -3  -2  12   -1.31    1.04
  -3  -2  12   -0.85    0.65
   3   2 -11   -0.04    0.65
  -3  -2  11   -0.17    1.01
  -3  -2  11    0.27    0.59
   3   2 -10    0.60    0.62
  -3  -2  10    0.74    0.95
   3   2  -9   -0.87    0.56
   3   2  -9    0.03    0.56
  -3  -2   9    0.18    0.91
   3   2  -8    5.32    0.59
   3   2  -8    5.12    0.59
  -3  -2   8    5.50    0.93
   3   2  -7    2.36    0.51
   3   2  -7    2.25    0.51
  -3  -2   7    2.58    0.83
   3   2  -6   73.44    1.97
   3   2  -6   71.82    2.06
  -3  -2   6   72.82    2.57
   3   2  -5   19.37    0.84
   3   2  -5   19.40    0.78
  -3  -2   5   20.09    1.21
   3   2  -4    4.13    0.43
   3   2  -4    4.19    0.49
  -3  -2   4    5.00    0.74
   3   2  -3    1.45    0.37
   3   2  -3    0.88    0.45
  -3  -2   3    1.51    0.62
   3   2  -2    0.51    0.45
   3   2  -2   -0.27    0.32
  -3  -2   2    0.21    0.59
   3   2  -1    5.36    0.54
   3   2  -1    4.49    0.43
  -3  -2   1    5.37    0.68
   3   2   0   -0.16    0.31
   3   2   0   -0.18    0.47
  -3  -2   0    0.29    0.31
  -3  -2   0   -0.39    0.55
   3   2   1    0.63    0.30
   3   2   1    0.87    0.52
  -3  -2  -1    1.54    0.59
  -3  -2  -1    1.43    0.35
   3   2   2   19.92    0.93
   3   2   2   18.39    0.67
  -3  -2  -2   20.55    1.03
  -3  -2  -2   20.11    0.73
   3   2   3   16.59    0.93
  -3  -2  -3   16.19    0.95
  -3  -2  -3   16.89    0.73
   3   2   4  108.28    3.02
  -3  -2  -4  107.24    2.75
  -3  -2  -4  107.45    3.39
   3   2   5    0.52    0.61
  -3  -2  -5    0.78    0.52
   3   2   6    3.08    0.68
  -3  -2  -6    4.12    0.61
   3   2   7   -0.08    0.69
  -3  -2  -7   -0.40    0.58
   3   2   8    0.59    0.72
  -3  -2  -8   -0.20    0.56
   3   2   9    3.42    0.81
  -3  -2  -9    3.92    0.67
   3   2  10    0.26    0.79
  -3  -2 -10   -0.34    0.62
   3   2  11    7.36    0.97
  -3  -2 -11    8.49    0.81
   3   3 -13   -1.24    0.79
  -3  -3  13    0.81    0.71
  -3  -3  13    0.06    1.09
   3   3 -12   -1.15    0.74
  -3  -3  12   -1.55    1.05
  -3  -3  12    0.78    0.63
   3   3 -11   -0.96    0.67
  -3  -3  11   -0.97    0.99
   3   3 -10   -1.00    0.61
   3   3 -10   -0.71    0.61
  -3  -3  10   -1.34    0.89
   3   3  -9    2.74    0.62
   3   3  -9    3.26    0.62
  -3  -3   9    2.67    0.94
   3   3  -8    2.24    0.55
   3   3  -8    2.58    0.57
  -3  -3   8    3.88    0.90
   3   3  -7    2.00    0.50
   3   3  -7    1.33    0.53
  -3  -3   7    2.09    0.82
   3   3  -6   70.31    1.94
   3   3  -6   72.54    2.07
  -3  -3   6   72.49    2.56
   3   3  -5    2.54    0.44
   3   3  -5    3.21    0.53
  -3  -3   5    3.56    0.74
   3   3  -4    0.57    0.50
   3   3  -4    1.18    0.38
  -3  -3   4    1.22    0.67
   3   3  -3    0.33    0.35
   3   3  -3    0.06    0.49
  -3  -3   3   -0.15    0.61
   3   3  -2    0.17    0.32
   3   3  -2   -0.23    0.49
  -3  -3   2   -0.02    0.60
   3   3  -1   -0.44    0.30
   3   3  -1   -0.01    0.51
  -3  -3   1   -0.23    0.59
   3   3   0    0.70    0.55
  -3  -3   0    0.14    0.35
  -3  -3   0   -0.14    0.57
   3   3   1   10.66    0.84
  -3  -3  -1   11.83    0.87
  -3  -3  -1   12.27    0.63
   3   3   2   -0.03    0.58
  -3  -3  -2    2.02    0.44
  -3  -3  -2    2.03    0.59
   3   3   3   58.56    1.87
  -3  -3  -3   57.80    2.03
  -3  -3  -3   59.55    1.64
   3   3   4   46.18    1.62
  -3  -3  -4   46.17    1.69
  -3  -3  -4   47.01    1.40
   3   3   5   14.73    1.02
  -3  -3  -5   15.71    0.83
   3   3   6    1.63    0.71
  -3  -3  -6    2.74    0.61
   3   3   7    1.60    0.75
  -3  -3  -7    2.07    0.64
   3   3   8    0.86    0.77
  -3  -3  -8    0.09    0.66
   3   3   9    2.15    0.85
  -3  -3  -9    0.67    0.69
   3   3  10    1.43    0.87
  -3  -3 -10    0.86    0.72
   3   3  11    7.01    1.02
   3   4 -12    4.37    0.85
  -3  -4  12    3.19    1.08
   3   4 -11    2.39    0.75
   3   4 -11    4.54    0.75
  -3  -4  11    3.38    1.02
   3   4 -10    0.31    0.65
   3   4 -10   -0.33    0.66
  -3  -4  10   -0.23    0.94
   3   4  -9    2.06    0.61
   3   4  -9    2.88    0.63
  -3  -4   9    2.56    0.92
   3   4  -8    0.49    0.57
   3   4  -8   -0.90    0.54
  -3  -4   8    0.85    0.86
   3   4  -7    5.74    0.58
   3   4  -7    7.34    0.75
  -3  -4   7    8.25    0.96
   3   4  -6    1.38    0.48
   3   4  -6    1.21    0.56
  -3  -4   6    2.36    0.80
   3   4  -5   -0.03    0.52
   3   4  -5   -0.03    0.41
  -3  -4   5    0.77    0.71
   3   4  -4    4.19    0.44
   3   4  -4    5.18    0.62
  -3  -4   4    5.13    0.78
   3   4  -3    0.33    0.58
  -3  -4   3    1.06    0.67
   3   4  -2    9.06    0.79
  -3  -4   2    8.73    0.86
   3   4  -1   -0.98    0.56
  -3  -4   1   -0.14    0.60
   3   4   0    3.48    0.65
  -3  -4   0    3.47    0.64
   3   4   1    4.45    0.68
  -3  -4  -1    4.69    0.67
  -3  -4  -1    4.54    0.46
   3   4   2    3.54    0.71
  -3  -4  -2    5.56    0.69
  -3  -4  -2    4.66    0.51
   3   4   3   21.05    1.12
  -3  -4  -3   19.76    0.86
  -3  -4  -3   18.26    1.05
   3   4   4    0.39    0.71
  -3  -4  -4    0.16    0.52
   3   4   5    3.37    0.77
  -3  -4  -5    3.13    0.62
   3   4   6    2.69    0.78
  -3  -4  -6    3.30    0.66
   3   4   7    3.09    0.81
  -3  -4  -7    3.64    0.69
   3   4   8   -0.26    0.80
  -3  -4  -8    1.49    0.70
   3   4   9    0.19    0.87
  -3  -4  -9    0.66    0.72
   3   4  10    3.77    0.96
  -3  -4 -10    4.06    0.83
   3   5 -12   19.60    1.14
  -3  -5  12   22.10    1.53
   3   5 -11    0.39    0.71
   3   5 -11   -0.50    0.74
  -3  -5  11    1.14    0.99
   3   5 -10    3.52    0.71
   3   5 -10    1.97    0.74
  -3  -5  10    4.03    1.02
   3   5  -9   -0.32    0.62
   3   5  -9   -0.42    0.62
  -3  -5   9    0.47    0.91
   3   5  -8    0.88    0.61
   3   5  -8   -0.59    0.58
  -3  -5   8    0.49    0.89
   3   5  -7   -0.27    0.59
  -3  -5   7   -0.22    0.83
   3   5  -6   -0.06    0.58
  -3  -5   6   -0.66    0.78
   3   5  -5    4.29    0.67
  -3  -5   5    4.34    0.81
   3   5  -4    4.28    0.67
  -3  -5   4    4.20    0.77
   3   5  -3   21.58    1.03
  -3  -5   3   17.75    1.09
   3   5  -2   31.31    1.27
  -3  -5   2   31.47    1.40
   3   5  -1    6.62    0.75
  -3  -5   1    7.00    0.87
   3   5   0    1.00    0.66
  -3  -5   0    0.71    0.72
   3   5   1   -0.22    0.66
  -3  -5  -1   -0.13    0.46
  -3  -5  -1   -0.05    0.67
   3   5   2    1.11    0.72
  -3  -5  -2    0.64    0.66
  -3  -5  -2    0.07    0.50
   3   5   3    0.00    0.71
  -3  -5  -3    0.22    0.56
  -3  -5  -3   -0.56    0.63
   3   5   4    0.39    0.75
  -3  -5  -4    0.97    0.63
   3   5   5    6.27    0.91
  -3  -5  -5    7.61    0.75
   3   5   6    0.10    0.81
  -3  -5  -6    0.48    0.69
   3   5   7   28.26    1.44
  -3  -5  -7   29.45    1.22
   3   5   8    1.00    0.89
  -3  -5  -8    0.61    0.73
   3   5   9    5.53    1.02
  -3  -5  -9    7.32    0.86
   3   6 -11    1.85    0.75
  -3  -6  11    2.59    1.07
   3   6 -10    1.27    0.71
  -3  -6  10    1.02    1.01
   3   6  -9    0.64    0.68
  -3  -6   9    1.23    0.96
   3   6  -8    1.57    0.68
  -3  -6   8    1.41    0.93
   3   6  -7   -0.17    0.64
  -3  -6   7    0.36    0.85
   3   6  -6    0.50    0.64
  -3  -6   6    0.71    0.82
   3   6  -5    8.59    0.86
  -3  -6   5    9.09    0.98
   3   6  -4    2.18    0.70
  -3  -6   4    1.47    0.79
   3   6  -3   48.84    1.66
  -3  -6   3   47.94    1.90
   3   6  -2    1.93    0.71
  -3  -6   2    2.13    0.82
   3   6  -1    4.08    0.75
  -3  -6   1    4.94    0.83
   3   6   0    0.11    0.71
  -3  -6   0   -0.47    0.74
   3   6   1    0.34    0.75
  -3  -6  -1    0.11    0.74
   3   6   2    6.73    0.88
  -3  -6  -2    8.45    0.78
  -3  -6  -2    6.95    0.87
   3   6   3   -0.15    0.80
  -3  -6  -3   -0.94    0.61
  -3  -6  -3    0.04    0.73
   3   6   4    8.59    0.96
  -3  -6  -4    7.19    0.76
   3   6   5    5.03    0.93
  -3  -6  -5    6.84    0.79
   3   6   6   20.24    1.33
  -3  -6  -6   23.28    1.17
   3   6   7   29.56    1.55
  -3  -6  -7   29.44    1.31
   3   7 -10    0.61    0.73
  -3  -7  10    1.50    1.05
   3   7  -9    1.41    0.72
  -3  -7   9   -0.24    0.99
   3   7  -8    0.10    0.71
  -3  -7   8   -0.64    0.94
   3   7  -7    0.55    0.70
  -3  -7   7    1.01    0.90
   3   7  -6    6.39    0.81
  -3  -7   6    7.94    0.96
   3   7  -5    0.70    0.74
  -3  -7   5    0.99    0.86
   3   7  -4    4.76    0.80
  -3  -7   4    5.44    0.96
   3   7  -3    9.85    0.96
  -3  -7   3    9.77    1.07
   3   7  -2    2.15    0.79
  -3  -7   2    2.52    0.87
   3   7  -1    1.43    0.77
  -3  -7   1    2.55    0.87
   3   7   0    0.23    0.78
  -3  -7   0   -1.57    0.82
   3   7   1    0.48    0.81
  -3  -7  -1    0.25    0.84
   3   7   2   -0.03    0.83
  -3  -7  -2    0.17    0.84
  -3  -7  -2   -0.12    0.65
   3   7   3    0.58    0.89
  -3  -7  -3    0.61    0.82
  -3  -7  -3    0.56    0.71
   3   7   4    7.66    1.00
  -3  -7  -4    8.68    0.86
   3   7   5    0.95    0.92
  -3  -7  -5    2.03    0.79
   3   7   6   14.34    1.26
  -3  -7  -6   13.47    1.06
   3   8  -9    6.68    0.87
  -3  -8   9    6.41    1.14
   3   8  -8    2.03    0.79
  -3  -8   8    2.25    1.03
   3   8  -7    2.28    0.79
  -3  -8   7    3.51    0.99
   3   8  -6    0.35    0.77
  -3  -8   6    0.99    0.96
   3   8  -5   -0.60    0.77
  -3  -8   5    0.51    0.96
   3   8  -4   -0.97    0.78
  -3  -8   4    0.46    0.94
   3   8  -3   -0.50    0.80
  -3  -8   3   -0.04    0.92
   3   8  -2    1.40    0.85
  -3  -8   2    2.98    0.95
   3   8  -1    3.59    0.89
  -3  -8   1    4.85    1.00
   3   8   0    2.42    0.88
  -3  -8   0    1.83    0.94
   3   8   1    3.76    0.94
  -3  -8  -1    4.35    0.99
   3   8   2   -0.21    0.92
  -3  -8  -2    1.01    0.91
   3   8   3    6.45    1.04
  -3  -8  -3    8.28    0.88
  -3  -8  -3    7.22    1.01
   3   8   4    0.46    0.96
  -3  -8  -4    0.53    0.81
   3   9  -6    0.17    0.81
  -3  -9   6    0.50    1.09
   3   9  -5    0.69    0.86
  -3  -9   5    1.06    1.03
   3   9  -4    1.44    0.89
  -3  -9   4    3.03    1.05
   3   9  -3   -0.13    0.87
  -3  -9   3    0.83    1.04
   3   9  -2    9.02    1.03
  -3  -9   2   10.61    1.22
   3   9  -1    1.26    0.91
  -3  -9   1    0.54    1.02
   3   9   0   17.03    1.28
  -3  -9   0   18.48    1.37
   3   9   1    3.91    0.99
  -3  -9  -1    4.73    1.06
   4  -8  -1   -0.41    0.59
  -4   8   1   -1.94    1.32
   4  -8   0    2.10    0.62
  -4   8   0    4.49    0.86
  -4   8   0    0.46    1.33
   4  -8   1    3.54    0.65
  -4   8  -1    3.86    0.83
  -4   8  -1    0.81    1.30
   4  -8   2    5.54    0.67
  -4   8  -2    7.37    0.86
   4  -8   3   22.41    1.02
  -4   8  -3   25.69    1.26
   4  -8   4    0.50    0.56
  -4   8  -4    0.78    0.71
   4  -7  -4    0.26    0.62
  -4   7   4   -2.99    1.31
   4  -7  -3    2.87    0.66
  -4   7   3    0.79    1.31
   4  -7  -2   -0.09    0.62
  -4   7   2   -0.86    1.22
   4  -7  -1   -0.45    0.56
  -4   7   1   -0.83    1.16
   4  -7   0    7.56    0.77
  -4   7   0    6.63    1.27
  -4   7   0   10.37    0.94
   4  -7   1   -0.25    0.56
  -4   7  -1   -0.59    1.12
  -4   7  -1   -0.09    0.68
   4  -7   2   35.44    1.25
  -4   7  -2   30.64    1.95
  -4   7  -2   38.29    1.37
   4  -7   3    5.52    0.62
  -4   7  -3    6.81    0.77
   4  -7   4    5.25    0.63
  -4   7  -4    6.80    0.78
   4  -7   5   -0.01    0.55
  -4   7  -5   -0.96    0.66
   4  -7   6    0.57    0.57
  -4   7  -6    2.12    0.68
  -4   7  -7    7.05    0.76
   4  -6  -6    2.93    0.71
   4  -6  -5    0.82    0.65
  -4   6   5    0.50    1.33
   4  -6  -4   -1.12    0.58
  -4   6   4   -0.34    1.26
   4  -6  -3   -0.48    0.59
  -4   6   3   -1.46    1.18
   4  -6  -2   -0.78    0.59
  -4   6   2   -0.33    1.13
   4  -6  -1    3.60    0.61
  -4   6   1    4.29    1.17
   4  -6   0    5.57    0.64
  -4   6   0    6.02    0.72
  -4   6   0    5.22    1.14
   4  -6   1    7.22    0.74
  -4   6  -1    7.09    0.71
  -4   6  -1    6.68    1.14
   4  -6   2    6.78    0.70
  -4   6  -2    5.53    1.10
  -4   6  -2    7.35    0.72
   4  -6   3    0.62    0.51
  -4   6  -3   -0.38    0.60
   4  -6   4    8.43    0.72
  -4   6  -4    9.98    0.86
   4  -6   5   -0.11    0.53
  -4   6  -5    0.02    0.61
   4  -6   6    0.82    0.55
  -4   6  -6   -0.20    0.62
   4  -6   7    0.24    0.54
  -4   6  -7   -0.25    0.61
   4  -6   8   -0.35    0.54
  -4   6  -8    0.13    0.62
   4  -5  -7    0.00    0.67
  -4   5   7   -0.64    1.36
   4  -5  -6    4.68    0.72
  -4   5   6    2.91    1.34
   4  -5  -5    1.05    0.63
  -4   5   5   -0.54    1.23
   4  -5  -4    9.10    0.78
  -4   5   4    8.67    1.33
   4  -5  -3    5.01    0.67
  -4   5   3    5.82    1.21
   4  -5  -2    2.76    0.62
  -4   5   2    2.99    1.09
   4  -5  -1    3.65    0.59
  -4   5   1    3.27    1.06
   4  -5   0   -0.56    0.50
  -4   5   0   -0.41    0.96
   4  -5   1    0.80    0.53
  -4   5  -1   -0.75    0.92
  -4   5  -1    0.21    0.54
   4  -5   2    0.42    0.49
  -4   5  -2    0.60    0.55
  -4   5  -2   -0.18    0.90
   4  -5   3    6.53    0.64
  -4   5  -3    5.87    0.64
   4  -5   4    4.80    0.58
  -4   5  -4    6.21    0.66
   4  -5   5    0.00    0.51
  -4   5  -5    0.27    0.57
   4  -5   6   14.93    0.86
  -4   5  -6   14.59    0.91
   4  -5   7   -0.32    0.51
  -4   5  -7   -0.60    0.57
   4  -5   8    7.94    0.75
  -4   5  -8    6.62    0.71
   4  -5   9    1.10    0.56
   4  -4  -8   -1.04    0.69
  -4   4   8   -0.44    1.31
   4  -4  -7    1.97    0.69
  -4   4   7    0.20    1.23
   4  -4  -6    8.59    0.85
  -4   4   6    8.71    1.33
   4  -4  -5    4.19    0.67
  -4   4   5    4.79    1.22
   4  -4  -4   26.92    1.09
  -4   4   4   29.07    1.72
   4  -4  -3   -0.34    0.58
  -4   4   3    0.59    1.02
   4  -4  -2    6.22    0.67
  -4   4   2    5.46    1.07
   4  -4  -1   -0.03    0.53
  -4   4   1   -1.43    0.89
   4  -4   0    0.16    0.52
  -4   4   0   -0.62    0.87
   4  -4   1   12.08    0.77
  -4   4  -1   12.26    0.73
  -4   4  -1   11.95    1.21
   4  -4   2    2.20    0.52
  -4   4  -2    2.13    0.54
  -4   4  -2    2.85    0.86
   4  -4   3   24.17    0.96
  -4   4  -3   25.06    0.98
   4  -4   4    0.94    0.50
  -4   4  -4    0.78    0.54
   4  -4   5   30.61    1.14
  -4   4  -5   30.91    1.14
   4  -4   6   19.72    0.91
  -4   4  -6   19.60    0.92
   4  -4   7    4.77    0.59
  -4   4  -7    4.79    0.63
   4  -4   8    3.48    0.57
  -4   4  -8    2.00    0.60
   4  -4   9    0.18    0.54
  -4   4  -9   -0.65    0.58
   4  -3  -8   -1.49    0.64
  -4   3   8   -1.31    1.22
   4  -3  -7    5.65    0.73
  -4   3   7    5.99    1.30
   4  -3  -6    0.89    0.65
  -4   3   6    0.66    1.16
   4  -3  -5   12.83    0.88
  -4   3   5   11.37    1.39
   4  -3  -4    8.02    0.77
  -4   3   4    8.84    1.18
   4  -3  -3    4.72    0.63
  -4   3   3    4.43    1.05
   4  -3  -2    1.38    0.56
  -4   3   2    0.92    0.94
   4  -3  -1   -0.30    0.50
  -4   3   1   -0.85    0.89
   4  -3   0    3.08    0.54
  -4   3   0    3.04    0.91
   4  -3   1    0.35    0.49
  -4   3  -1   -0.47    0.79
   4  -3   2    5.33    0.57
  -4   3  -2    6.82    0.63
  -4   3  -2    6.01    0.88
   4  -3   3   13.15    0.73
  -4   3  -3   13.31    0.75
   4  -3   4    2.97    0.52
  -4   3  -4    3.39    0.53
   4  -3   5   41.56    1.36
  -4   3  -5   42.99    1.36
   4  -3   6    0.48    0.50
  -4   3  -6    0.23    0.55
   4  -3   7    8.14    0.71
  -4   3  -7    8.07    0.79
   4  -3   8    0.37    0.51
  -4   3  -8   -0.44    0.55
   4  -3   9    1.77    0.56
  -4   3  -9    2.64    0.65
   4  -2  -9   -0.74    0.72
  -4   2   9   -0.87    1.28
   4  -2  -8    2.79    0.69
  -4   2   8    1.89    1.26
   4  -2  -7    2.36    0.67
  -4   2   7    1.77    1.18
   4  -2  -6    0.72    0.61
  -4   2   6    0.41    1.10
   4  -2  -5    0.48    0.58
  -4   2   5   -0.20    1.05
   4  -2  -4    0.46    0.55
  -4   2   4   -0.08    0.99
   4  -2  -3    7.07    0.69
  -4   2   3    8.92    1.10
   4  -2  -2    0.83    0.55
  -4   2   2   -0.23    0.91
   4  -2  -1    3.68    0.56
  -4   2   1    2.59    0.92
   4  -2   0    4.64    0.56
  -4   2   0    3.81    0.89
   4  -2   1   -0.27    0.47
  -4   2  -1   -0.77    0.76
   4  -2   2   10.58    0.70
  -4   2  -2   10.10    0.67
  -4   2  -2    9.88    1.08
   4  -2   3    0.38    0.45
  -4   2  -3   -0.28    0.46
   4  -2   4    5.26    0.54
  -4   2  -4    6.20    0.59
   4  -2   5    2.35    0.51
  -4   2  -5    2.01    0.54
   4  -2   6    0.56    0.50
  -4   2  -6    0.44    0.53
   4  -2   7    9.07    0.71
  -4   2  -7    9.17    0.81
   4  -2   8    0.35    0.49
  -4   2  -8   -0.71    0.59
   4  -2   9    0.95    0.53
  -4   2  -9    1.23    0.62
   4  -1  -9    0.57    0.71
  -4   1   9   -0.81    1.24
   4  -1  -8    0.32    0.66
  -4   1   8    0.13    1.20
   4  -1  -7    0.61    0.60
  -4   1   7   -1.65    1.11
   4  -1  -6    3.02    0.64
  -4   1   6    3.70    1.15
   4  -1  -5    0.58    0.57
  -4   1   5   -1.44    1.01
   4  -1  -4    0.35    0.55
  -4   1   4    0.58    0.97
   4  -1  -3    9.52    0.74
  -4   1   3    9.63    1.22
   4  -1  -2   -1.25    0.51
  -4   1   2   -0.32    0.87
   4  -1  -1   46.84    1.45
  -4   1   1   47.94    1.98
   4  -1   0    2.73    0.52
  -4   1   0    1.76    0.81
   4  -1   1    8.08    0.64
  -4   1  -1    7.77    0.90
   4  -1   2    0.34    0.47
  -4   1  -2    0.69    0.45
  -4   1  -2    0.58    0.74
   4  -1   3   -0.11    0.44
  -4   1  -3   -0.48    0.44
   4  -1   4    2.60    0.48
  -4   1  -4    3.17    0.54
   4  -1   5    0.02    0.46
  -4   1  -5   -0.47    0.48
   4  -1   6    8.61    0.69
  -4   1  -6    8.10    0.72
   4  -1   7    5.58    0.57
  -4   1  -7    4.68    0.62
  -4   1  -8   10.88    0.84
  -4   1  -9   24.63    1.11
   4   0 -10   -1.04    0.72
  -4   0  10   -0.75    1.26
   4   0  -9    0.62    0.71
  -4   0   9   -0.52    1.26
   4   0  -8   -0.88    0.65
  -4   0   8   -2.33    1.11
   4   0  -7   -0.77    0.58
  -4   0   7   -2.15    1.05
   4   0  -6    1.89    0.59
  -4   0   6    1.42    1.04
   4   0  -5   -0.82    0.55
  -4   0   5    0.07    0.95
   4   0  -4    7.31    0.73
  -4   0   4    8.45    1.06
   4   0  -3    3.73    0.58
  -4   0   3    4.30    0.95
   4   0  -2   17.34    0.85
  -4   0   2   19.14    1.32
   4   0  -1   43.41    1.37
  -4   0   1   44.92    1.88
   4   0   0    4.79    0.54
  -4   0   0    4.93    0.86
   4   0   1   -0.35    0.46
  -4   0  -1   -0.63    0.73
   4   0   2   -0.37    0.44
  -4   0  -2   -0.45    0.72
   4   0   3    1.90    0.47
  -4   0  -3    1.89    0.48
   4   0   4    2.34    0.47
  -4   0  -4    2.09    0.49
  -4   0  -5   -0.26    0.48
  -4   0  -6   17.82    0.87
  -4   0  -7    0.65    0.57
  -4   0  -8   44.02    1.47
  -4   0  -9    8.00    0.75
   4   1 -10   -2.35    0.70
  -4  -1  10   -0.61    1.24
   4   1  -9   -0.41    0.69
  -4  -1   9   -0.69    1.16
   4   1  -8   -1.05    0.62
  -4  -1   8   -2.96    1.09
   4   1  -7    1.61    0.63
  -4  -1   7    1.42    1.07
   4   1  -6   -0.46    0.54
  -4  -1   6   -0.19    1.01
   4   1  -5    0.12    0.54
  -4  -1   5    0.68    0.96
   4   1  -4    4.33    0.59
  -4  -1   4    5.03    1.00
   4   1  -3   -1.31    0.50
  -4  -1   3   -0.61    0.86
   4   1  -2   19.08    0.85
  -4  -1   2   18.74    1.25
   4   1  -1    1.35    0.48
  -4  -1   1    1.02    0.81
   4   1   0    1.83    0.49
  -4  -1   0    3.55    0.81
   4   1   1    1.45    0.46
   4   1   1    1.87    0.61
  -4  -1  -1    1.37    0.75
   4   1   2    0.68    0.63
  -4  -1  -2   -0.03    0.71
   4   1   3    1.27    0.68
  -4  -1  -3    0.50    0.45
   4   1   4    0.79    0.68
  -4  -1  -4    0.50    0.48
   4   1   5    5.31    0.80
  -4  -1  -5    5.35    0.59
   4   1   6    3.84    0.82
  -4  -1  -6    4.58    0.60
   4   1   7   13.57    1.13
  -4  -1  -7   13.61    0.87
   4   1   8   16.89    1.23
  -4  -1  -8   16.47    0.94
   4   2 -10   -0.66    0.75
  -4  -2  10   -0.09    1.17
   4   2  -9    0.30    0.67
  -4  -2   9    0.50    1.16
   4   2  -8    2.37    0.68
  -4  -2   8    2.71    1.15
   4   2  -7   22.30    1.06
  -4  -2   7   25.06    1.54
   4   2  -6    0.57    0.57
   4   2  -6    0.55    0.58
  -4  -2   6    0.45    0.97
   4   2  -5    0.76    0.56
   4   2  -5    0.53    0.52
  -4  -2   5    0.92    0.91
   4   2  -4   -0.06    0.49
   4   2  -4    0.39    0.55
  -4  -2   4    0.37    0.87
   4   2  -3   -0.65    0.56
   4   2  -3   -0.34    0.49
  -4  -2   3   -0.06    0.85
   4   2  -2    0.02    0.46
   4   2  -2    0.83    0.60
  -4  -2   2    1.22    0.84
   4   2  -1    0.52    0.60
  -4  -2   1    0.70    0.81
   4   2   0    2.53    0.66
  -4  -2   0    3.08    0.83
   4   2   1   -0.41    0.65
  -4  -2  -1   -0.20    0.76
   4   2   2   21.32    1.13
  -4  -2  -2   21.63    1.26
   4   2   3    9.34    1.00
   4   2   4    6.57    0.85
  -4  -2  -4    6.55    0.67
   4   2   5    0.25    0.77
  -4  -2  -5    0.58    0.53
   4   2   6    0.15    0.80
  -4  -2  -6   -0.80    0.55
   4   2   7    3.45    0.88
  -4  -2  -7    2.61    0.65
   4   2   8    0.66    0.85
  -4  -2  -8    0.27    0.66
   4   3  -9   -0.83    0.70
   4   3  -9    0.66    0.70
  -4  -3   9    0.75    1.16
   4   3  -8   28.07    1.18
   4   3  -8   25.44    1.13
  -4  -3   8   26.85    1.59
   4   3  -7    3.18    0.64
   4   3  -7    4.28    0.67
  -4  -3   7    3.24    1.06
   4   3  -6    0.59    0.61
   4   3  -6    0.56    0.56
  -4  -3   6    1.00    0.97
   4   3  -5   -0.29    0.60
  -4  -3   5    0.51    0.93
   4   3  -4   -0.95    0.62
  -4  -3   4    0.14    0.89
   4   3  -3    0.49    0.64
  -4  -3   3    1.98    0.88
   4   3  -2   -1.33    0.65
  -4  -3   2   -0.14    0.83
   4   3  -1   -0.40    0.66
  -4  -3   1    1.62    0.85
   4   3   0    9.10    0.94
  -4  -3   0   10.88    1.07
   4   3   1    9.63    0.97
  -4  -3  -1    8.89    1.06
   4   3   2   48.35    1.73
  -4  -3  -2   48.70    1.93
   4   3   3    1.01    0.81
   4   3   4    0.22    0.81
  -4  -3  -4    0.83    0.56
   4   3   5    0.37    0.82
  -4  -3  -5    0.39    0.58
   4   3   6    0.98    0.88
  -4  -3  -6    0.27    0.64
   4   3   7    2.79    0.95
  -4  -3  -7    1.82    0.70
   4   4  -9    0.81    0.72
   4   4  -8   18.08    1.05
  -4  -4   8   18.80    1.44
   4   4  -7    0.30    0.69
  -4  -4   7    2.00    1.06
   4   4  -6   -0.12    0.66
  -4  -4   6    1.14    0.98
   4   4  -5   -0.71    0.66
  -4  -4   5    0.12    0.95
   4   4  -4   -1.30    0.69
  -4  -4   4    0.90    0.93
  -4  -4   3   -0.03    0.89
   4   4  -2   -2.10    0.72
  -4  -4   2   -0.25    0.87
   4   4  -1    1.99    0.77
  -4  -4   1    4.88    0.94
   4   4   0   -0.41    0.75
  -4  -4   0    0.49    0.87
   4   4   1   24.62    1.29
  -4  -4  -1   25.34    1.41
   4   4   2   13.53    1.13
  -4  -4  -2   13.40    1.15
   4   4   3    5.64    0.94
   4   4   4    0.52    0.89
   4   4   5    1.42    0.92
  -4  -4  -5    0.17    0.63
   4   4   6    0.21    0.92
   4   5  -8   -0.14    0.73
   4   5  -7   -0.77    0.70
  -4  -5   7    0.05    1.02
   4   5  -6    0.83    0.73
  -4  -5   6    2.68    1.05
   4   5  -5    0.74    0.73
  -4  -5   5    1.83    1.00
   4   5  -4    7.64    0.88
  -4  -5   4    7.29    1.09
   4   5  -3   -0.54    0.75
  -4  -5   3   -0.40    0.94
   4   5  -2    1.50    0.79
  -4  -5   2    1.76    0.94
   4   5  -1    1.13    0.79
  -4  -5   1    0.31    0.91
   4   5   0    0.50    0.80
  -4  -5   0    1.42    0.92
   4   5   1    3.67    0.87
  -4  -5  -1    3.93    0.96
   4   5   2    0.18    0.86
   4   5   3    0.45    0.89
   4   5   4    1.47    0.96
   4   6  -6    0.74    0.80
  -4  -6   6    2.27    1.09
   4   6  -5   10.07    1.03
  -4  -6   5   10.58    1.29
   4   6  -4   10.94    1.04
  -4  -6   4   12.52    1.30
   4   6  -3    4.95    0.88
  -4  -6   3    2.37    1.04
   4   6  -2   -0.54    0.82
  -4  -6   2   -0.15    0.97
   4   6  -1   -1.27    0.81
  -4  -6   1    1.10    0.95
   4   6   0   -1.14    0.85
  -4  -6   0    0.52    0.93
   4   6   1   -1.32    0.85
  -4  -6  -1    0.43    0.93
   4   6   2    0.90    0.94
   5  -1   0    2.86    0.69
  -5   1   0    2.64    1.09
;
_shelx_hkl_checksum              97891
loop_
_space_group_symop_id
_space_group_symop_operation_xyz
1 +X,+Y,+Z
2 -X,-Y,-Z
loop_
_atom_site_label
_atom_site_type_symbol
_atom_site_fract_x
_atom_site_fract_y
_atom_site_fract_z
_atom_site_U_iso_or_equiv
_atom_site_adp_type
_atom_site_occupancy
_atom_site_site_symmetry_order
_atom_site_calc_flag
Ni1 Ni 1.1746(3) 0.39077(11) 0.79007(8) 0.0191(4) Uani 1 1 d
S1 S 1.2308(5) 0.5888(2) 0.89106(15) 0.0212(5) Uani 1 1 d
S2 S 0.8939(5) 0.4819(2) 0.68175(15) 0.0205(5) Uani 1 1 d
S3 S 1.4592(6) 0.3050(2) 0.90033(16) 0.0236(5) Uani 1 1 d
S4 S 1.1193(5) 0.1924(2) 0.68842(15) 0.0210(5) Uani 1 1 d
N2 N 0.8418(18) 0.1203(8) 0.4987(6) 0.0241(16) Uani 1 1 d
N8 N 0.6177(17) 0.3701(7) 0.4967(5) 0.0197(15) Uani 1 1 d
C1 C 0.797(2) 0.3510(9) 0.5790(6) 0.0198(17) Uani 1 1 d
C2 C 0.905(2) 0.2207(9) 0.5817(6) 0.0199(17) Uani 1 1 d
C5 C 0.551(2) 0.2672(10) 0.4146(7) 0.0253(19) Uani 1 1 d
C6 C 1.447(2) 0.5659(9) 0.9969(6) 0.0204(17) Uani 1 1 d
C7 C 0.663(2) 0.1434(9) 0.4144(6) 0.0235(19) Uani 1 1 d
loop_
_atom_site_aniso_label
_atom_site_aniso_U_11
_atom_site_aniso_U_22
_atom_site_aniso_U_33
_atom_site_aniso_U_23
_atom_site_aniso_U_13
_atom_site_aniso_U_12
Ni1 0.0200(6) 0.0210(6) 0.0156(6) 0.0020(4) -0.0084(4) 0.0033(4)
S1 0.0236(11) 0.0222(11) 0.0170(10) 0.0020(8) -0.0094(8) 0.0039(8)
S2 0.0226(11) 0.0215(11) 0.0165(10) 0.0020(8) -0.0078(8) 0.0033(8)
S3 0.0292(12) 0.0222(11) 0.0184(10) 0.0011(8) -0.0122(8) 0.0057(9)
S4 0.0227(11) 0.0218(11) 0.0180(10) 0.0027(8) -0.0088(8) 0.0044(8)
N2 0.022(4) 0.024(4) 0.025(4) 0.001(3) -0.010(3) 0.003(3)
N8 0.020(4) 0.026(4) 0.013(3) 0.003(3) -0.004(3) 0.006(3)
C1 0.018(4) 0.027(5) 0.014(4) 0.005(3) 0.000(3) -0.001(3)
C2 0.015(4) 0.023(4) 0.020(4) 0.002(3) -0.002(3) 0.000(3)
C5 0.021(4) 0.032(5) 0.020(4) 0.000(4) -0.007(3) 0.002(4)
C6 0.015(4) 0.030(5) 0.015(4) 0.002(3) 0.000(3) 0.002(3)
C7 0.027(5) 0.027(5) 0.016(4) 0.002(3) -0.009(3) 0.003(4)
loop_
_atom_type_symbol
_atom_type_description
_atom_type_scat_dispersion_real
_atom_type_scat_dispersion_imag
_atom_type_scat_source
C C 0.0033 0.0016
;
International Tables for Crystallography
(Vol. C, Tables 4.2.6.8 and 6.1.1.4)
;
H H 0.0000 0.0000
;
International Tables for Crystallography
(Vol. C, Table 6.1.1.4)
;
N N 0.0061 0.0033
;
International Tables for Crystallography
(Vol. C, Tables 4.2.6.8 and 6.1.1.4)
;
Ni Ni 0.3393 1.1124
;
International Tables for Crystallography
(Vol. C, Tables 4.2.6.8 and 6.1.1.4)
;
S S 0.1246 0.1234
;
International Tables for Crystallography
(Vol. C, Tables 4.2.6.8 and 6.1.1.4)
;
loop_
_geom_angle_atom_site_label_1
_geom_angle_atom_site_label_2
_geom_angle_atom_site_label_3
_geom_angle
_geom_angle_site_symmetry_1
_geom_angle_site_symmetry_3
S3 Ni1 S1 91.25(10) . .
S3 Ni1 S2 178.52(10) . .
S1 Ni1 S2 87.31(10) . .
S3 Ni1 S4 88.82(10) . .
S1 Ni1 S4 179.83(11) . .
S2 Ni1 S4 92.62(9) . .
C6 S1 Ni1 104.8(3) . .
C1 S2 Ni1 103.6(3) . .
C6 S3 Ni1 105.3(3) 2_867 .
C2 S4 Ni1 103.3(3) . .
C2 N2 C7 119.5(8) . .
C1 N8 C5 120.0(8) . .
N8 C1 C2 119.8(8) . .
N8 C1 S2 120.4(7) . .
C2 C1 S2 119.8(6) . .
N2 C2 C1 119.3(7) . .
N2 C2 S4 120.0(7) . .
C1 C2 S4 120.6(6) . .
N8 C5 C7 120.9(8) . .
C6 C6 S1 120.4(8) 2_867 .
C6 C6 S3 118.2(8) 2_867 2_867
S1 C6 S3 121.4(5) . 2_867
C5 C7 N2 120.3(8) . .
loop_
_geom_bond_atom_site_label_1
_geom_bond_atom_site_label_2
_geom_bond_distance
_geom_bond_site_symmetry_2
Ni1 S3 2.169(2) .
Ni1 S1 2.170(3) .
Ni1 S2 2.174(2) .
Ni1 S4 2.176(3) .
S1 C6 1.684(8) .
S2 C1 1.711(8) .
S3 C6 1.698(9) 2_867
S4 C2 1.709(8) .
N2 C2 1.342(11) .
N2 C7 1.371(10) .
N8 C1 1.335(10) .
N8 C5 1.351(11) .
C1 C2 1.425(13) .
C5 C7 1.362(13) .
C6 C6 1.446(18) 2_867
C6 S3 1.698(9) 2_867
loop_
_geom_torsion_atom_site_label_1
_geom_torsion_atom_site_label_2
_geom_torsion_atom_site_label_3
_geom_torsion_atom_site_label_4
_geom_torsion
_geom_torsion_site_symmetry_4
C5 N8 C1 C2 -2.6(12) .
C5 N8 C1 S2 178.0(7) .
Ni1 S2 C1 N8 179.2(6) .
Ni1 S2 C1 C2 -0.2(7) .
C7 N2 C2 C1 -2.5(13) .
C7 N2 C2 S4 178.6(6) .
N8 C1 C2 N2 3.8(13) .
S2 C1 C2 N2 -176.8(6) .
N8 C1 C2 S4 -177.3(6) .
S2 C1 C2 S4 2.1(10) .
Ni1 S4 C2 N2 176.1(6) .
Ni1 S4 C2 C1 -2.7(8) .
C1 N8 C5 C7 0.1(13) .
Ni1 S1 C6 C6 0.6(10) 2_867
Ni1 S1 C6 S3 -178.3(4) 2_867
N8 C5 C7 N2 1.2(14) .
C2 N2 C7 C5 0.1(13) .
