#------------------------------------------------------------------------------
#$Date: 2019-11-23 20:45:32 +0200 (Sat, 23 Nov 2019) $
#$Revision: 234916 $
#$URL: file:///home/coder/svn-repositories/cod/cif/4/34/96/4349609.cif $
#------------------------------------------------------------------------------
#
# This file is available in the Crystallography Open Database (COD),
# http://www.crystallography.net/
#
# All data on this site have been placed in the public domain by the
# contributors.
#
data_4349609
loop_
_publ_author_name
'Felder, Justin'
'Yeon, Jeongho'
'Smith, Mark'
'zur Loye, Hans-Conrad'
_publ_section_title
;
 Application of a mild hydrothermal method to the synthesis of mixed
 transition-metal(ii)/uranium(iv) fluorides
;
_journal_issue                   2
_journal_name_full               'Inorganic Chemistry Frontiers'
_journal_page_first              368
_journal_paper_doi               10.1039/C6QI00491A
_journal_volume                  4
_journal_year                    2017
_chemical_formula_moiety         'F6 H6 O3 U Zn'
_chemical_formula_sum            'F6 H6 O3 U Zn'
_chemical_formula_weight         471.45
_space_group_crystal_system      monoclinic
_space_group_IT_number           15
_space_group_name_Hall           '-C 2yc'
_space_group_name_H-M_alt        'C 1 2/c 1'
_atom_sites_solution_hydrogens   difmap
_audit_creation_method           SHELXL-2014/7
_audit_update_record
;
2016-11-07 deposited with the CCDC.
2016-12-26 downloaded from the CCDC.
;
_cell_angle_alpha                90
_cell_angle_beta                 92.9113(15)
_cell_angle_gamma                90
_cell_formula_units_Z            4
_cell_length_a                   12.1137(7)
_cell_length_b                   6.9186(4)
_cell_length_c                   7.9813(4)
_cell_measurement_reflns_used    9915
_cell_measurement_temperature    100(2)
_cell_measurement_theta_max      32.596
_cell_measurement_theta_min      3.368
_cell_volume                     668.05(6)
_computing_cell_refinement       'SAINT Version 8.34a (Bruker, 2014)'
_computing_data_collection       'Bruker APEXII v2014.9-0 (Bruker, 2014)'
_computing_data_reduction        'SAINT Version 8.34a (Bruker, 2014)'
_computing_molecular_graphics    various
_computing_publication_material  various
_computing_structure_refinement  'SHELXL-2014/7 (Sheldrick, 2014)'
_computing_structure_solution    'SHELXS (Sheldrick, 2008)'
_diffrn_ambient_temperature      100(2)
_diffrn_detector_area_resol_mean 10.4
_diffrn_measured_fraction_theta_full 1.000
_diffrn_measured_fraction_theta_max 1.000
_diffrn_measurement_device_type  'Bruker D8 QUEST'
_diffrn_measurement_method       '\w and \f scans'
_diffrn_radiation_type           MoK\a
_diffrn_radiation_wavelength     0.71073
_diffrn_reflns_av_R_equivalents  0.0445
_diffrn_reflns_av_unetI/netI     0.0168
_diffrn_reflns_Laue_measured_fraction_full 1.000
_diffrn_reflns_Laue_measured_fraction_max 1.000
_diffrn_reflns_limit_h_max       18
_diffrn_reflns_limit_h_min       -18
_diffrn_reflns_limit_k_max       10
_diffrn_reflns_limit_k_min       -10
_diffrn_reflns_limit_l_max       11
_diffrn_reflns_limit_l_min       -12
_diffrn_reflns_number            14520
_diffrn_reflns_point_group_measured_fraction_full 1.000
_diffrn_reflns_point_group_measured_fraction_max 1.000
_diffrn_reflns_theta_full        32.605
_diffrn_reflns_theta_max         32.606
_diffrn_reflns_theta_min         3.368
_diffrn_source                   'microfocus sealed X-ray tube'
_exptl_absorpt_coefficient_mu    27.884
_exptl_absorpt_correction_T_max  0.0725
_exptl_absorpt_correction_T_min  0.0313
_exptl_absorpt_correction_type   multi-scan
_exptl_absorpt_process_details   'SADABS Version 2014/4 (Bruker, 2014)'
_exptl_crystal_colour            'light green'
_exptl_crystal_density_diffrn    4.687
_exptl_crystal_description       needle
_exptl_crystal_F_000             824
_exptl_crystal_preparation       ', Magnetic properties'
_exptl_crystal_recrystallization_method 'Hydrothermal Growth'
_exptl_crystal_size_max          0.100
_exptl_crystal_size_mid          0.070
_exptl_crystal_size_min          0.040
_refine_diff_density_max         1.281
_refine_diff_density_min         -0.840
_refine_diff_density_rms         0.133
_refine_ls_extinction_coef       0.01040(16)
_refine_ls_extinction_expression Fc^*^=kFc[1+0.001xFc^2^\l^3^/sin(2\q)]^-1/4^
_refine_ls_extinction_method     'SHELXL-2014/7 (Sheldrick 2014'
_refine_ls_goodness_of_fit_ref   1.130
_refine_ls_hydrogen_treatment    refall
_refine_ls_matrix_type           full
_refine_ls_number_parameters     66
_refine_ls_number_reflns         1221
_refine_ls_number_restraints     0
_refine_ls_restrained_S_all      1.130
_refine_ls_R_factor_all          0.0102
_refine_ls_R_factor_gt           0.0100
_refine_ls_shift/su_max          0.001
_refine_ls_shift/su_mean         0.000
_refine_ls_structure_factor_coef Fsqd
_refine_ls_weighting_details
'w=1/[\s^2^(Fo^2^)+(0.0002P)^2^+1.4014P] where P=(Fo^2^+2Fc^2^)/3'
_refine_ls_weighting_scheme      calc
_refine_ls_wR_factor_gt          0.0235
_refine_ls_wR_factor_ref         0.0235
_reflns_number_gt                1211
_reflns_number_total             1221
_reflns_threshold_expression     'I > 2\s(I)'
_cod_data_source_file            c6qi00491a2.cif
_cod_data_source_block           jwj1026a
_cod_original_sg_symbol_H-M      'C 2/c'
_cod_database_code               4349609
_shelx_shelxl_version_number     2014/7
_shelx_space_group_comment
; 
The symmetry employed for this shelxl refinement is uniquely defined 
by the following loop, which should always be used as a source of 
symmetry information in preference to the above space-group names. 
They are only intended as comments. 
;
_shelx_estimated_absorpt_t_min   0.167
_shelx_estimated_absorpt_t_max   0.402
_shelx_res_file
; 
  
    JWJ1026A.res created by SHELXL-2014/7 
  
  
TITL JWJ1026A in C2/c 
CELL 0.71073  12.11370   6.91860   7.98130  90.0000  92.9113  90.0000 
ZERR    4.00   0.00070   0.00040   0.00040   0.0000   0.0015   0.0000 
LATT  7 
SYMM -X, Y, 0.5-Z 
SFAC O H F ZN U 
UNIT 12 24 24 4 4 
LIST 4 
TEMP -173.150 
SIZE 0.04 0.07 0.10 
REM 9915 refl / 2th = 6.736 - 65.193 
REM sadabs 0.0313  0.0725 
REM light green needle 
L.S. 7 
BOND 
EQIV $1 -x+1/2, y+1/2, -z+1/2 
HTAB O1 F1_$1 
HTAB O1 F2_$1 
EQIV $2 x, -y+1, z-1/2 
HTAB O1 F3_$2 
HTAB O2 O1 
ACTA 65.21 
FMAP 2 
PLAN 9 
WGHT    0.000200    1.401400 
EXTI    0.010399 
FVAR       0.09318 
U1    5    0.000000    0.018071    0.250000    10.50000    0.00791    0.00744 = 
         0.00876    0.00000    0.00096    0.00000 
ZN1   4    0.250000    0.250000    0.000000    10.50000    0.00918    0.00978 = 
         0.00928    0.00002    0.00101   -0.00126 
F1    3    0.169885    0.144664    0.197449    11.00000    0.01127    0.01369 = 
         0.01312    0.00126    0.00212   -0.00117 
F2    3    0.380765    0.286535    0.161738    11.00000    0.01303    0.01185 = 
         0.01220   -0.00002   -0.00025   -0.00205 
F3    3    0.068567    0.135791    0.506012    11.00000    0.01425    0.01393 = 
         0.01158   -0.00130    0.00120   -0.00327 
O1    1    0.182119    0.518530    0.065849    11.00000    0.01555    0.01065 = 
         0.01605   -0.00086   -0.00113    0.00114 
H1A   2    0.214820    0.570823    0.137406    11.00000    0.02523 
H1B   2    0.156565    0.603610    0.008140    11.00000    0.04138 
O2    1    0.000000    0.384598    0.250000    10.50000    0.02315    0.01034 = 
         0.03581    0.00000    0.01525    0.00000 
H2    2    0.044475    0.455976    0.209252    11.00000    0.04011 
HKLF 4 
  
REM  JWJ1026A in C2/c 
REM R1 =  0.0100 for    1211 Fo > 4sig(Fo)  and  0.0102 for all    1221 data 
REM     66 parameters refined using      0 restraints 
  
END 
  
WGHT      0.0000      1.3996 
  
REM Highest difference peak  1.281,  deepest hole -0.840,  1-sigma level  0.133 
Q1    1  -0.0219  0.0119  0.1621  11.00000  0.05    1.28 
Q2    1   0.0642  0.0229  0.2568  11.00000  0.05    0.68 
Q3    1  -0.0205  0.0524  0.5662  11.00000  0.05    0.67 
Q4    1   0.0000  0.1332  0.2500  10.50000  0.05    0.67 
Q5    1   0.0301  0.0984  0.4344  11.00000  0.05    0.61 
Q6    1   0.0000 -0.0905  0.2500  10.50000  0.05    0.54 
Q7    1   0.2327  0.2564 -0.0875  11.00000  0.05    0.51 
Q8    1   0.1084  0.1481  0.2073  11.00000  0.05    0.48 
Q9    1   0.0900  0.1205  0.6064  11.00000  0.05    0.44 
;
_shelx_res_checksum              30158
_shelx_hkl_file
; 
  -2   0   0  237.98   12.03 
  -2   0   0  215.00   12.07 
  -2   0   0  275.69   12.11 
  -2   0   0  251.59   12.05 
   2   0   0  236.68   12.04 
   2   0   0  249.73   12.06 
   2   0   0  267.02   12.11 
   2   0   0  233.14   12.04 
   2   0   0  222.44   12.03 
  -2   0   0  226.21   12.04 
   4   0   0  480.90   25.62 
   4   0   0  565.14   25.78 
   4   0   0  492.49   25.64 
   4   0   0  495.87   25.62 
   4   0   0  487.37   25.70 
   4   0   0  577.23   25.87 
  -4   0   0  541.35   25.62 
  -4   0   0  504.81   25.63 
  -4   0   0  483.29   25.62 
  -4   0   0  463.22   25.69 
  -4   0   0  577.86   25.65 
   6   0   0  283.82   15.10 
   6   0   0  287.80   15.09 
  -6   0   0  323.21   15.10 
   6   0   0  320.38   15.07 
   6   0   0  300.44   15.09 
   6   0   0  284.18   15.07 
   6   0   0  304.32   15.20 
  -6   0   0  278.78   15.17 
  -6   0   0  304.14   15.06 
  -6   0   0  296.91   15.08 
  -6   0   0  316.99   15.07 
  -6   0   0  313.51   15.05 
   8   0   0  456.89   22.43 
  -8   0   0  505.51   22.48 
  -8   0   0  443.96   22.42 
   8   0   0  452.61   22.46 
   8   0   0  429.48   22.42 
   8   0   0  438.07   22.47 
   8   0   0  449.92   22.42 
  -8   0   0  441.04   22.44 
  -8   0   0  478.93   22.44 
   8   0   0  428.39   22.59 
  -8   0   0  418.62   22.56 
  10   0   0  136.00    7.37 
 -10   0   0  134.96    7.52 
  10   0   0  149.70    7.35 
 -10   0   0  145.02    7.32 
  10   0   0  146.10    7.37 
  10   0   0  138.23    7.31 
  10   0   0  141.77    7.32 
 -10   0   0  146.27    7.35 
 -10   0   0  155.21    7.41 
  10   0   0  134.78    7.57 
 -10   0   0  155.28    7.35 
  12   0   0  380.66   20.74 
  12   0   0  433.07   20.67 
  12   0   0  423.35   20.84 
 -12   0   0  439.32   20.86 
  12   0   0  394.71   20.82 
  12   0   0  460.25   20.76 
 -12   0   0  411.56   20.75 
 -12   0   0  375.00   20.96 
  14   0   0   65.22    3.67 
 -14   0   0   63.83    4.02 
  14   0   0   75.31    3.50 
  14   0   0   65.46    3.80 
  14   0   0   64.36    3.77 
 -14   0   0   69.76    3.70 
  16   0   0  260.29   13.19 
  16   0   0  246.35   13.29 
 -16   0   0  266.35   13.56 
  16   0   0  257.18   13.28 
 -16   0   0  270.86   13.19 
 -18   0   0   70.07    4.57 
  18   0   0   66.29    4.17 
  18   0   0   67.66    3.90 
  18   0   0   64.91    4.12 
   1  -1   0  491.47   23.91 
  -1  -1   0  487.19   23.87 
  -1  -1   0  503.25   24.02 
   1  -1   0  429.87   23.81 
  -1  -1   0  487.79   23.96 
  -1  -1   0  508.51   23.89 
   1  -1   0  459.10   23.86 
   1  -1   0  486.73   23.96 
   1  -1   0  505.22   23.91 
  -1  -1   0  497.02   23.91 
   1   1   0  484.01   23.89 
  -1   1   0  524.21   23.90 
  -1   1   0  502.93   23.83 
  -1   1   0  526.36   23.85 
  -1   1   0  497.80   23.91 
   1   1   0  423.75   23.84 
  -1   1   0  447.48   23.78 
   1   1   0  433.47   23.80 
  -1   1   0  457.57   23.97 
   1   1   0  430.64   23.81 
   1   1   0  455.02   23.89 
   3  -1   0  412.10   22.62 
  -3  -1   0  467.99   22.65 
  -3  -1   0  464.98   22.60 
  -3  -1   0  476.04   22.59 
  -3  -1   0  494.50   22.74 
   3  -1   0  470.16   22.69 
   3  -1   0  450.94   22.59 
   3  -1   0  436.33   22.61 
  -3  -1   0  404.63   22.64 
   3  -1   0  425.74   22.58 
  -3  -1   0  470.64   22.69 
  -3   1   0  406.85   22.61 
   3   1   0  404.44   22.59 
  -3   1   0  466.87   22.59 
  -3   1   0  508.86   22.62 
  -3   1   0  484.52   22.70 
  -3   1   0  501.51   22.59 
  -3   1   0  441.96   22.61 
   3   1   0  399.82   22.63 
   3   1   0  441.39   22.65 
   3   1   0  429.84   22.58 
   3   1   0  523.98   22.77 
  -5  -1   0  280.03   13.88 
   5  -1   0  268.94   13.97 
  -5  -1   0  284.67   13.90 
   5  -1   0  308.29   13.86 
  -5  -1   0  270.63   13.86 
   5  -1   0  258.25   13.88 
  -5  -1   0  245.09   13.97 
  -5  -1   0  278.51   13.92 
   5  -1   0  290.48   13.85 
   5  -1   0  273.28   13.87 
   5  -1   0  258.51   13.90 
  -5  -1   0  266.07   13.87 
   5  -1   0  268.45   13.91 
  -5   1   0  293.13   13.91 
   5   1   0  275.99   13.87 
  -5   1   0  280.46   13.91 
  -5   1   0  297.85   13.88 
   5   1   0  284.31   13.88 
   5   1   0  296.34   13.96 
   5   1   0  286.08   13.88 
   5   1   0  255.00   13.89 
  -5   1   0  283.37   13.88 
   7  -1   0  336.12   16.20 
  -7  -1   0  324.20   16.22 
   7  -1   0  300.93   16.24 
  -7  -1   0  314.07   16.20 
   7  -1   0  320.34   16.34 
   7  -1   0  305.74   16.23 
   7  -1   0  352.02   16.16 
  -7  -1   0  329.71   16.19 
  -7  -1   0  346.93   16.24 
  -7  -1   0  348.32   16.21 
   7  -1   0  337.64   16.15 
  -7  -1   0  279.83   16.32 
   7  -1   0  314.15   16.19 
  -7   1   0  326.07   16.23 
   7   1   0  314.83   16.33 
   7   1   0  310.74   16.18 
  -7   1   0  345.06   16.20 
   7   1   0  342.80   16.29 
   7   1   0  321.89   16.20 
   7   1   0  325.48   16.21 
  -7   1   0  318.25   16.19 
  -7   1   0  303.43   16.30 
   7   1   0  295.66   16.22 
  -7   1   0  359.40   16.25 
   9  -1   0  239.80   12.75 
  -9  -1   0  232.12   12.87 
   9  -1   0  248.43   12.75 
   9  -1   0  274.20   12.65 
   9  -1   0  256.68   12.91 
   9  -1   0  240.65   12.69 
  -9  -1   0  272.10   12.72 
  -9  -1   0  245.41   12.69 
  -9  -1   0  237.43   12.69 
   9  -1   0  265.69   12.62 
  -9  -1   0  273.73   12.76 
  -9  -1   0  245.29   12.68 
   9  -1   0  256.64   12.69 
  -9   1   0  229.74   12.82 
  -9   1   0  250.23   12.69 
   9   1   0  251.22   12.69 
   9   1   0  237.09   12.73 
  -9   1   0  271.30   12.77 
   9   1   0  272.72   12.80 
   9   1   0  254.74   12.71 
   9   1   0  238.53   12.69 
  -9   1   0  248.87   12.73 
  -9   1   0  269.31   12.76 
  11  -1   0  220.18   10.22 
  11  -1   0  200.13   10.33 
 -11  -1   0  199.27   10.34 
 -11  -1   0  201.97   10.32 
 -11  -1   0  217.41   10.43 
  11  -1   0  223.46   10.26 
 -11  -1   0  194.56   10.57 
  11  -1   0  199.79   10.40 
  11  -1   0  199.76   10.36 
  11  -1   0  198.61   10.41 
 -11  -1   0  198.88   10.32 
  11   1   0  218.89   10.44 
 -11   1   0  201.34   10.34 
 -11   1   0  193.62   10.51 
  11   1   0  203.63   10.33 
 -11   1   0  219.25   10.43 
  11   1   0  190.93   10.38 
  11   1   0  193.53   10.34 
 -11   1   0  212.51   10.34 
  11   1   0  200.59   10.36 
  13  -1   0  202.28   10.17 
  13  -1   0  191.32   10.16 
  13  -1   0  194.34   10.06 
 -13  -1   0  209.11   10.09 
 -13  -1   0  192.38   10.37 
  13   1   0  193.87   10.15 
  13   1   0  206.20   10.14 
 -13   1   0  195.95   10.30 
  13   1   0  200.52   10.08 
 -13   1   0  199.76   10.07 
  15  -1   0  131.05    7.05 
 -15  -1   0  121.89    7.27 
  15  -1   0  132.02    6.91 
  15  -1   0  134.06    7.04 
 -15  -1   0  138.14    6.93 
  15   1   0  136.43    6.94 
  15   1   0  135.76    7.01 
 -15   1   0  136.76    7.25 
 -15   1   0  138.63    6.93 
  15   1   0  129.59    7.05 
  17  -1   0  102.57    5.78 
 -17  -1   0  105.76    6.16 
 -17  -1   0  106.47    5.62 
  17  -1   0   99.71    5.72 
  17  -1   0  101.07    5.56 
  17   1   0  102.83    5.72 
 -17   1   0  104.51    6.03 
  17   1   0   99.76    5.57 
 -17   1   0  109.85    5.61 
  17   1   0  106.03    5.75 
   0  -2   0  171.62    9.24 
   0  -2   0  177.98    9.31 
   0  -2   0  184.93    9.22 
   0  -2   0  187.69    9.17 
   0  -2   0  177.98    9.20 
   0  -2   0  188.13    9.23 
   0  -2   0  187.72    9.21 
   0  -2   0  186.57    9.20 
   0   2   0  181.70    9.23 
   0   2   0  190.91    9.32 
   0   2   0  183.49    9.24 
   0   2   0  182.67    9.21 
   0   2   0  184.99    9.21 
   0   2   0  183.64    9.21 
   2  -2   0  643.13   30.91 
   2  -2   0  616.63   30.69 
   2  -2   0  549.65   30.69 
  -2  -2   0  612.37   30.66 
   2  -2   0  607.37   30.71 
  -2  -2   0  616.44   30.65 
   2  -2   0  637.96   30.67 
  -2  -2   0  629.94   30.78 
  -2  -2   0  544.69   30.65 
  -2  -2   0  638.66   30.68 
  -2  -2   0  586.78   30.68 
   2   2   0  544.74   30.66 
  -2   2   0  597.29   30.71 
  -2   2   0  598.33   30.73 
  -2   2   0  689.15   30.80 
   2   2   0  596.09   30.65 
  -2   2   0  696.59   30.78 
   2   2   0  655.18   30.66 
  -2   2   0  698.87   30.71 
   2   2   0  570.28   30.64 
   2   2   0  603.68   30.77 
   2   2   0  573.10   30.69 
   2   2   0  617.06   30.75 
  -2   2   0  676.21   30.70 
  -4  -2   0  299.66   15.14 
   4  -2   0  290.30   15.16 
   4  -2   0  303.60   15.18 
   4  -2   0  291.99   15.19 
  -4  -2   0  310.78   15.17 
  -4  -2   0  304.28   15.14 
  -4   2   0  294.36   15.16 
  -4   2   0  325.61   15.15 
   4   2   0  284.55   15.16 
  -4   2   0  303.23   15.15 
   4   2   0  317.02   15.31 
   4   2   0  299.18   15.15 
   4   2   0  266.38   15.25 
   4   2   0  329.45   15.13 
  -4   2   0  295.88   15.15 
   4   2   0  304.15   15.14 
  -4   2   0  328.66   15.20 
  -6  -2   0  675.88   33.93 
  -6  -2   0  598.70   34.06 
  -6  -2   0  660.52   34.04 
   6  -2   0  703.33   33.95 
   6  -2   0  678.84   34.04 
  -6  -2   0  704.64   33.96 
   6  -2   0  652.05   33.95 
   6  -2   0  645.25   34.00 
   6  -2   0  633.05   33.99 
  -6  -2   0  695.84   33.98 
  -6  -2   0  676.58   33.95 
   6  -2   0  698.82   33.98 
   6   2   0  744.45   33.97 
  -6   2   0  780.63   34.02 
  -6   2   0  693.86   34.00 
  -6   2   0  686.85   33.95 
  -6   2   0  748.47   33.95 
  -6   2   0  607.84   33.99 
   6   2   0  664.48   34.10 
   6   2   0  618.43   33.97 
   6   2   0  743.51   33.94 
   6   2   0  705.76   34.10 
  -8  -2   0   73.91    3.81 
  -8  -2   0   68.19    4.01 
  -8  -2   0   72.33    3.79 
   8  -2   0   81.84    3.76 
   8  -2   0   77.94    4.02 
   8  -2   0   72.60    3.75 
  -8  -2   0   74.85    3.84 
   8  -2   0   70.59    3.88 
  -8  -2   0   68.84    3.88 
   8  -2   0   66.83    3.80 
  -8  -2   0   76.39    3.87 
   8  -2   0   65.82    3.87 
   8  -2   0   70.71    3.82 
   8   2   0   81.51    4.05 
  -8   2   0   67.60    3.89 
   8   2   0   72.01    3.82 
   8   2   0   70.73    3.82 
   8   2   0   65.83    3.84 
  -8   2   0   78.43    3.82 
  -8   2   0   78.95    3.91 
   8   2   0   72.53    3.80 
  -8   2   0   74.11    3.91 
  -8   2   0   71.37    3.81 
   8   2   0   78.91    4.05 
 -10  -2   0  401.58   20.99 
  10  -2   0  396.34   20.94 
  10  -2   0  432.77   21.14 
 -10  -2   0  374.16   21.13 
 -10  -2   0  424.39   20.94 
  10  -2   0  423.62   21.16 
  10  -2   0  455.01   20.84 
 -10  -2   0  405.57   20.93 
  10  -2   0  388.68   21.01 
  10  -2   0  404.50   20.94 
 -10  -2   0  445.41   21.01 
 -10   2   0  482.40   21.05 
  10   2   0  418.31   20.96 
 -10   2   0  453.81   20.96 
 -10   2   0  383.87   21.05 
  10   2   0  410.77   20.94 
  10   2   0  385.22   20.98 
  10   2   0  423.24   20.95 
  10   2   0  451.35   21.13 
 -10   2   0  421.76   20.95 
  12  -2   0  106.19    6.02 
  12  -2   0  115.48    6.05 
 -12  -2   0  116.89    5.95 
 -12  -2   0  110.31    6.26 
  12  -2   0  112.90    5.93 
 -12  -2   0  121.39    6.10 
 -12  -2   0  110.68    5.96 
  12   2   0  130.22    6.24 
  12   2   0  117.54    5.97 
  12   2   0  108.20    6.00 
  12   2   0  117.06    5.96 
 -12   2   0  116.77    5.95 
 -12   2   0  109.78    6.23 
  14  -2   0  224.88   11.56 
 -14  -2   0  214.69   11.42 
 -14  -2   0  234.30   11.46 
 -14  -2   0  225.84   11.79 
  14  -2   0  227.53   11.45 
  14  -2   0  224.02   11.57 
 -14   2   0  242.20   11.46 
 -14   2   0  202.78   11.85 
  14   2   0  211.89   11.52 
  14   2   0  239.73   11.50 
  14   2   0  233.31   11.46 
  16  -2   0   54.02    3.45 
  16  -2   0   57.27    3.23 
 -16  -2   0   49.80    3.79 
  16  -2   0   56.65    3.46 
 -16  -2   0   58.69    3.25 
  16   2   0   52.08    3.35 
  16   2   0   55.50    3.23 
  16   2   0   52.69    3.39 
 -16   2   0   55.59    3.61 
  18  -2   0  103.99    5.92 
  18  -2   0  107.54    6.21 
 -18   2   0  116.32    6.39 
  18   2   0  112.25    6.09 
  18   2   0  109.44    5.96 
   1  -3   0  188.46    9.22 
  -1  -3   0  182.50    9.27 
  -1  -3   0  178.24    9.31 
  -1  -3   0  186.89    9.30 
   1  -3   0  174.42    9.45 
   1  -3   0  160.05    9.36 
  -1  -3   0  183.26    9.30 
   1  -3   0  189.68    9.22 
  -1  -3   0  189.38    9.49 
  -1  -3   0  188.21    9.29 
   1  -3   0  176.57    9.33 
  -1  -3   0  200.01    9.35 
   1  -3   0  197.45    9.36 
   1  -3   0  176.95    9.37 
  -1  -3   0  170.27    9.36 
  -1   3   0  180.17    9.34 
  -1   3   0  196.61    9.37 
   1   3   0  190.42    9.47 
   1   3   0  190.46    9.31 
  -1   3   0  180.62    9.38 
   1   3   0  180.18    9.32 
   1   3   0  184.90    9.25 
   1   3   0  189.64    9.36 
   1   3   0  189.76    9.30 
  -1   3   0  192.66    9.31 
   1   3   0  184.94    9.31 
  -1   3   0  187.57    9.32 
   3  -3   0  574.62   31.25 
  -3  -3   0  651.25   31.21 
   3  -3   0  618.12   31.28 
  -3  -3   0  562.91   31.22 
  -3  -3   0  615.18   31.37 
  -3  -3   0  649.74   31.19 
   3  -3   0  646.87   31.20 
   3  -3   0  601.37   31.23 
  -3  -3   0  630.59   31.22 
   3  -3   0  607.96   31.15 
  -3  -3   0  537.38   31.19 
  -3   3   0  671.20   31.20 
   3   3   0  625.10   31.19 
   3   3   0  614.37   31.18 
  -3   3   0  708.07   31.28 
  -3   3   0  674.05   31.22 
   3   3   0  641.58   31.37 
  -3   3   0  655.23   31.19 
   3   3   0  575.08   31.21 
   3   3   0  656.78   31.20 
   3   3   0  630.06   31.26 
  -3   3   0  613.43   31.25 
  -3   3   0  678.47   31.25 
   3   3   0  618.04   31.19 
  -3   3   0  613.66   31.27 
  -5  -3   0  327.41   17.12 
   5  -3   0  309.63   17.18 
  -5  -3   0  310.14   17.20 
  -5  -3   0  363.95   17.16 
   5  -3   0  335.40   17.12 
  -5  -3   0  356.53   17.14 
  -5  -3   0  327.39   17.28 
   5  -3   0  356.00   17.14 
   5  -3   0  313.52   17.16 
   5  -3   0  340.59   17.16 
  -5  -3   0  349.55   17.12 
  -5   3   0  370.99   17.19 
  -5   3   0  347.47   17.14 
  -5   3   0  339.49   17.19 
   5   3   0  331.47   17.15 
  -5   3   0  372.43   17.20 
  -5   3   0  372.57   17.13 
   5   3   0  321.72   17.12 
   5   3   0  353.79   17.10 
  -5   3   0  327.79   17.11 
   5   3   0  371.95   17.33 
   5   3   0  349.58   17.17 
   5   3   0  333.16   17.11 
  -5   3   0  336.25   17.14 
  -7  -3   0  305.19   16.26 
  -7  -3   0  305.50   16.27 
   7  -3   0  346.98   16.21 
   7  -3   0  318.27   16.12 
   7  -3   0  320.00   16.13 
  -7  -3   0  339.76   16.18 
   7  -3   0  291.80   16.18 
   7  -3   0  300.54   16.19 
   7   3   0  334.55   16.10 
   7   3   0  332.68   16.23 
   7   3   0  346.06   16.35 
   7   3   0  314.64   16.14 
  -7   3   0  357.98   16.14 
   7   3   0  307.77   16.16 
  -7   3   0  318.93   16.13 
  -7   3   0  313.12   16.16 
   7   3   0  307.32   16.11 
  -7   3   0  343.85   16.20 
  -7   3   0  313.66   16.09 
   9  -3   0  392.19   16.99 
   9  -3   0  312.44   17.10 
  -9  -3   0  306.36   17.21 
   9  -3   0  328.67   17.04 
   9  -3   0  318.40   17.03 
   9  -3   0  368.93   17.18 
  -9  -3   0  336.57   17.03 
   9  -3   0  316.62   17.11 
   9  -3   0  341.07   16.98 
  -9  -3   0  324.82   17.15 
  -9  -3   0  358.08   17.09 
  -9   3   0  338.22   17.03 
   9   3   0  365.67   17.28 
   9   3   0  339.49   17.04 
  -9   3   0  332.51   17.10 
  -9   3   0  374.45   17.14 
  -9   3   0  374.76   17.04 
   9   3   0  316.64   17.07 
   9   3   0  344.86   17.02 
   9   3   0  320.63   17.17 
   9   3   0  327.59   17.05 
 -11  -3   0  153.79    7.49 
  11  -3   0  141.35    7.48 
 -11  -3   0  150.94    7.82 
 -11  -3   0  140.62    7.75 
  11  -3   0  134.74    7.57 
  11  -3   0  139.92    7.59 
 -11  -3   0  141.36    7.58 
  11   3   0  148.46    7.48 
  11   3   0  147.73    7.51 
 -11   3   0  147.80    7.49 
  11   3   0  144.01    7.54 
  11   3   0  143.68    7.55 
 -11   3   0  150.72    7.61 
  11   3   0  162.58    7.85 
  13  -3   0  154.98    8.01 
 -13  -3   0  151.03    8.07 
  13  -3   0  132.93    8.23 
  13  -3   0  153.16    8.13 
 -13  -3   0  156.20    8.01 
 -13  -3   0  153.32    8.36 
 -13   3   0  162.62    8.16 
  13   3   0  147.37    8.10 
  13   3   0  182.08    8.68 
 -13   3   0  161.24    8.02 
  13   3   0  162.35    8.02 
  15  -3   0  108.73    6.02 
  15  -3   0  110.88    5.85 
 -15  -3   0  112.73    6.34 
 -15  -3   0  104.93    5.87 
  15  -3   0  107.52    6.01 
 -15  -3   0  115.51    5.87 
  15   3   0  107.05    6.00 
 -15   3   0  111.07    5.89 
 -15   3   0  113.79    6.06 
  15   3   0  113.47    5.89 
  15   3   0  111.24    5.88 
  17  -3   0   53.86    3.40 
 -17  -3   0   56.86    4.20 
  17  -3   0   51.63    3.60 
  17  -3   0   54.87    3.71 
  17   3   0   54.86    3.43 
  17   3   0   54.98    3.50 
 -17   3   0   58.29    3.46 
 -17   3   0   59.01    3.75 
   0  -4   0  406.68   21.88 
   0  -4   0  454.41   21.70 
   0  -4   0  436.44   21.70 
   0  -4   0  395.66   21.77 
   0  -4   0  451.59   21.61 
   0  -4   0  443.73   21.70 
   0  -4   0  427.92   21.61 
   0  -4   0  402.69   21.71 
   0  -4   0  456.11   21.76 
   0   4   0  448.65   21.71 
   0   4   0  437.56   21.71 
   0   4   0  419.05   21.73 
   0   4   0  430.73   21.97 
   0   4   0  442.11   21.70 
   0   4   0  465.41   21.78 
   2  -4   0   66.62    3.68 
   2  -4   0   76.17    3.79 
  -2  -4   0   70.98    3.68 
  -2  -4   0   73.56    3.74 
   2  -4   0   62.90    3.76 
   2  -4   0   65.42    3.85 
   2  -4   0   61.77    3.70 
  -2  -4   0   67.66    3.92 
  -2  -4   0   69.86    3.65 
  -2  -4   0   67.48    3.69 
  -2   4   0   71.20    3.68 
   2   4   0   72.02    3.67 
  -2   4   0   75.23    3.79 
   2   4   0   76.52    3.96 
  -2   4   0   78.06    3.90 
   2   4   0   69.92    3.69 
   2   4   0   68.31    3.70 
  -2   4   0   77.14    3.75 
  -2   4   0   71.99    3.74 
  -2   4   0   72.24    3.71 
   2   4   0   69.75    3.61 
   2   4   0   68.41    3.76 
   2   4   0   65.17    3.68 
  -4  -4   0  460.35   22.51 
   4  -4   0  442.36   22.57 
   4  -4   0  458.28   22.40 
  -4  -4   0  446.57   22.48 
   4  -4   0  415.56   22.50 
   4  -4   0  420.76   22.55 
  -4  -4   0  424.67   22.68 
   4  -4   0  473.36   22.48 
  -4  -4   0  460.38   22.46 
  -4  -4   0  433.44   22.47 
  -4  -4   0  396.59   22.49 
  -4   4   0  509.58   22.57 
  -4   4   0  446.61   22.56 
   4   4   0  448.26   22.46 
   4   4   0  464.91   22.70 
   4   4   0  441.58   22.47 
  -4   4   0  444.06   22.40 
  -4   4   0  504.69   22.50 
   4   4   0  411.40   22.48 
  -4   4   0  441.78   22.53 
   4   4   0  456.64   22.45 
   4   4   0  470.03   22.55 
  -4   4   0  460.56   22.49 
  -4   4   0  476.25   22.54 
  -4   4   0  442.83   22.46 
   4   4   0  453.43   22.46 
  -6  -4   0  100.25    5.62 
   6  -4   0   98.07    5.50 
  -6  -4   0  107.73    5.45 
  -6  -4   0  112.38    5.47 
  -6  -4   0  102.52    5.41 
  -6  -4   0   99.94    5.52 
   6  -4   0   99.56    5.47 
   6  -4   0  104.28    5.48 
   6  -4   0  104.27    5.43 
  -6  -4   0  108.15    5.40 
   6   4   0   91.26    5.52 
  -6   4   0  100.69    5.42 
  -6   4   0   96.56    5.42 
   6   4   0  115.09    5.40 
  -6   4   0  109.23    5.52 
   6   4   0  106.75    5.37 
   6   4   0  110.38    5.74 
   6   4   0  104.76    5.46 
   6   4   0  117.68    5.55 
  -6   4   0  102.20    5.45 
  -6   4   0  115.01    5.44 
   6   4   0  106.21    5.41 
  -6   4   0  104.63    5.50 
   6   4   0  103.31    5.41 
  -8  -4   0  438.63   21.45 
  -8  -4   0  384.99   21.58 
  -8  -4   0  418.63   21.46 
   8  -4   0  433.04   21.47 
  -8  -4   0  441.92   21.51 
   8  -4   0  471.02   21.50 
   8  -4   0  408.09   21.52 
  -8  -4   0  404.08   21.63 
   8  -4   0  420.93   21.45 
   8  -4   0  403.42   21.55 
   8   4   0  406.04   21.49 
   8   4   0  420.92   21.53 
   8   4   0  451.62   21.73 
  -8   4   0  414.67   21.42 
  -8   4   0  476.49   21.57 
  -8   4   0  429.78   21.46 
   8   4   0  440.79   21.41 
  -8   4   0  436.99   21.54 
   8   4   0  420.85   21.46 
  -8   4   0  462.25   21.46 
   8   4   0  422.98   21.44 
  -8   4   0  429.38   21.45 
 -10  -4   0   99.20    5.13 
  10  -4   0  104.49    5.27 
  10  -4   0  105.66    5.09 
 -10  -4   0   91.57    5.36 
  10  -4   0   90.27    5.24 
  10  -4   0   99.79    5.27 
 -10  -4   0  109.03    5.29 
 -10  -4   0   95.96    5.32 
 -10  -4   0   96.43    5.20 
 -10   4   0   99.48    5.15 
 -10   4   0   99.89    5.27 
  10   4   0   98.12    5.20 
  10   4   0   93.91    5.13 
  10   4   0   91.17    5.19 
  10   4   0   97.30    5.09 
 -10   4   0   96.44    5.16 
 -12  -4   0  155.20    8.74 
  12  -4   0  158.46    8.47 
 -12  -4   0  188.66    8.78 
  12  -4   0  162.29    8.48 
 -12  -4   0  154.49    8.48 
 -12  -4   0  168.33    8.34 
  12   4   0  157.55    8.42 
 -12   4   0  163.68    8.39 
  12   4   0  163.63    8.30 
  12   4   0  153.29    8.46 
 -12   4   0  163.11    8.34 
  14  -4   0   24.74    2.29 
 -14  -4   0   31.96    2.10 
 -14  -4   0   30.09    2.72 
  14  -4   0   30.32    2.31 
 -14  -4   0   26.07    2.21 
 -14   4   0   30.09    2.10 
 -14   4   0   29.41    2.18 
  14   4   0   29.16    2.27 
  14   4   0   29.25    2.05 
  14   4   0   30.62    2.09 
 -16  -4   0  136.71    7.75 
  16  -4   0  129.20    7.39 
  16  -4   0  132.69    7.38 
  16   4   0  134.77    7.25 
  16   4   0  141.34    7.22 
 -16   4   0  137.70    7.34 
 -16   4   0  143.00    7.24 
   1  -5   0  242.50   12.94 
  -1  -5   0  223.89   12.91 
  -1  -5   0  237.93   12.84 
   1  -5   0  236.64   12.86 
  -1  -5   0  252.85   12.83 
  -1  -5   0  242.46   12.81 
  -1  -5   0  271.24   12.90 
  -1  -5   0  268.84   12.73 
  -1  -5   0  231.61   13.04 
   1  -5   0  250.45   12.80 
   1  -5   0  268.43   12.91 
  -1  -5   0  264.13   12.82 
   1  -5   0  237.04   13.01 
   1  -5   0  256.99   12.82 
  -1   5   0  267.24   13.07 
   1   5   0  254.07   12.84 
  -1   5   0  278.03   12.87 
  -1   5   0  276.59   12.94 
  -1   5   0  259.13   12.84 
   1   5   0  266.77   12.93 
  -1   5   0  262.67   12.86 
  -1   5   0  244.30   12.86 
   1   5   0  262.66   12.83 
   1   5   0  247.22   12.85 
   1   5   0  260.43   12.85 
   1   5   0  260.39   13.09 
   3  -5   0  229.64   12.76 
  -3  -5   0  242.12   12.67 
  -3  -5   0  238.46   12.91 
  -3  -5   0  251.16   12.64 
  -3  -5   0  242.69   12.66 
  -3  -5   0  274.07   12.74 
  -3  -5   0  252.49   12.64 
   3  -5   0  248.79   12.84 
   3  -5   0  256.11   12.66 
   3  -5   0  236.06   12.70 
   3   5   0  254.70   12.76 
   3   5   0  269.42   12.65 
  -3   5   0  240.52   12.71 
   3   5   0  272.01   12.97 
   3   5   0  243.32   12.66 
   3   5   0  244.42   12.59 
  -3   5   0  276.00   12.79 
  -3   5   0  246.32   12.81 
  -3   5   0  259.21   12.72 
  -3   5   0  250.23   12.66 
   3   5   0  244.29   12.69 
  -3   5   0  261.38   12.70 
   3   5   0  252.92   12.68 
  -5  -5   0  157.21    8.17 
  -5  -5   0  165.16    8.01 
  -5  -5   0  157.63    7.92 
   5  -5   0  156.04    7.95 
   5  -5   0  156.91    8.09 
   5  -5   0  146.16    7.99 
  -5  -5   0  154.37    7.99 
   5  -5   0  143.74    8.03 
  -5  -5   0  142.15    8.20 
  -5  -5   0  156.13    7.96 
   5  -5   0  170.32    7.83 
   5   5   0  147.35    7.92 
  -5   5   0  151.04    8.05 
  -5   5   0  153.71    7.83 
   5   5   0  151.24    7.94 
  -5   5   0  147.32    8.00 
  -5   5   0  153.47    7.97 
  -5   5   0  160.23    8.06 
  -5   5   0  157.72    8.04 
   5   5   0  167.61    7.92 
   5   5   0  151.75    7.97 
   5   5   0  155.94    7.92 
  -5   5   0  150.75    7.92 
   5   5   0  162.36    8.29 
  -5   5   0  167.13    7.99 
   5   5   0  166.58    8.08 
   5   5   0  157.22    7.90 
   7  -5   0  220.55   12.13 
  -7  -5   0  232.68   12.34 
   7  -5   0  221.20   12.18 
  -7  -5   0  230.16   12.18 
  -7  -5   0  233.19   12.10 
   7  -5   0  266.20   12.02 
  -7  -5   0  236.56   12.07 
   7  -5   0  243.19   12.17 
  -7  -5   0  248.02   12.14 
   7   5   0  262.14   12.25 
  -7   5   0  266.35   12.35 
   7   5   0  238.66   12.02 
   7   5   0  230.90   12.08 
   7   5   0  221.76   12.11 
   7   5   0  236.21   12.07 
   7   5   0  249.41   12.05 
  -7   5   0  237.64   12.05 
  -7   5   0  236.37   12.15 
  -7   5   0  242.07   12.10 
  -7   5   0  234.60   12.00 
   7   5   0  231.40   12.10 
  -7   5   0  253.67   12.10 
  -7   5   0  229.28   12.12 
   9  -5   0  247.46   10.92 
   9  -5   0  224.89   10.95 
   9  -5   0  209.84   11.00 
   9  -5   0  209.01   11.04 
  -9  -5   0  199.98   11.13 
  -9  -5   0  194.03   11.03 
  -9  -5   0  217.23   10.90 
  -9  -5   0  220.63   11.00 
  -9   5   0  213.44   10.91 
   9   5   0  231.89   11.12 
  -9   5   0  203.87   10.89 
  -9   5   0  220.56   11.01 
  -9   5   0  214.46   10.86 
   9   5   0  206.65   10.93 
   9   5   0  219.13   10.85 
   9   5   0  230.45   10.90 
   9   5   0  203.93   10.91 
   9   5   0  201.68   10.95 
  11  -5   0  103.16    4.90 
 -11  -5   0   84.33    5.15 
  11  -5   0   88.43    5.10 
 -11  -5   0   88.57    5.22 
 -11  -5   0   96.97    5.24 
  11  -5   0   93.72    5.10 
 -11  -5   0   95.56    4.94 
  11  -5   0  106.30    5.12 
  11   5   0   86.95    5.03 
  11   5   0   90.50    4.87 
 -11   5   0   94.38    4.98 
 -11   5   0   93.93    5.16 
 -11   5   0   90.40    4.92 
  11   5   0   87.50    4.95 
 -13  -5   0   76.57    4.73 
  13  -5   0   81.31    4.53 
 -13  -5   0   83.28    4.35 
  13  -5   0   74.78    4.50 
  13   5   0   72.58    4.45 
  13   5   0   81.97    4.26 
  13   5   0   75.00    4.33 
 -13   5   0   80.52    4.32 
  15  -5   0   76.31    4.63 
  15  -5   0   75.39    4.56 
 -15  -5   0   70.56    4.51 
 -15  -5   0   74.31    4.93 
  15   5   0   74.78    4.36 
 -15   5   0   83.23    4.39 
  15   5   0   79.05    4.33 
 -15   5   0   75.26    4.35 
   0  -6   0   93.89    5.49 
   0  -6   0  113.40    5.50 
   0  -6   0   96.87    5.35 
   0  -6   0   95.63    5.37 
   0  -6   0   98.83    5.38 
   0  -6   0   94.96    5.59 
   0  -6   0  106.65    5.32 
   0   6   0  104.11    5.50 
   0   6   0  108.95    5.40 
   0   6   0  106.46    5.38 
   0   6   0  104.37    5.36 
   0   6   0  107.80    5.94 
   0   6   0  100.18    5.39 
  -2  -6   0  275.20   13.09 
  -2  -6   0  275.61   13.17 
   2  -6   0  262.73   13.15 
   2  -6   0  246.01   13.18 
   2  -6   0  276.96   13.31 
  -2  -6   0  244.15   13.17 
   2  -6   0  245.33   13.32 
   2  -6   0  241.98   13.22 
  -2  -6   0  276.64   13.27 
   2  -6   0  249.95   13.39 
   2   6   0  251.76   13.21 
  -2   6   0  255.25   13.23 
   2   6   0  267.27   13.22 
   2   6   0  256.84   13.30 
  -2   6   0  276.00   13.25 
  -2   6   0  270.86   13.32 
  -2   6   0  261.32   13.19 
  -2   6   0  266.79   13.22 
   2   6   0  268.74   13.18 
   2   6   0  267.18   13.21 
  -2   6   0  250.87   13.40 
   4  -6   0   44.95    2.83 
  -4  -6   0   44.16    2.69 
  -4  -6   0   47.03    2.56 
   4  -6   0   42.02    2.64 
  -4  -6   0   45.23    2.57 
   4  -6   0   44.07    2.76 
  -4   6   0   46.10    2.76 
   4   6   0   47.11    2.86 
  -4   6   0   44.48    2.62 
   4   6   0   46.79    2.61 
   4   6   0   44.31    2.48 
   4   6   0   45.76    2.57 
  -4   6   0   47.06    2.66 
   4   6   0   46.09    2.64 
  -4   6   0   43.54    2.95 
  -4   6   0   57.92    3.46 
  -4   6   0   43.05    2.56 
  -6  -6   0  270.31   14.48 
  -6  -6   0  305.67   14.18 
   6  -6   0  296.33   14.34 
   6  -6   0  269.32   14.22 
  -6  -6   0  291.39   14.24 
  -6  -6   0  280.32   14.20 
   6  -6   0  306.07   13.98 
   6  -6   0  271.11   14.29 
  -6   6   0  268.41   14.22 
   6   6   0  270.04   14.13 
   6   6   0  284.58   14.32 
  -6   6   0  260.79   14.26 
  -6   6   0  287.70   14.20 
   6   6   0  296.27   14.13 
   6   6   0  269.97   14.20 
   6   6   0  295.38   14.13 
   6   6   0  271.84   14.15 
  -6   6   0  271.21   14.14 
   6   6   0  270.60   14.17 
  -8  -6   0   19.53    1.64 
   8  -6   0   19.64    1.28 
   8  -6   0   16.98    1.59 
  -8  -6   0   16.97    1.50 
   8  -6   0   17.95    1.77 
   8  -6   0   20.86    1.71 
  -8  -6   0   18.06    1.91 
  -8  -6   0   19.66    1.79 
   8   6   0   19.59    1.35 
  -8   6   0   17.35    1.52 
  -8   6   0   19.32    1.39 
   8   6   0   20.80    1.57 
   8   6   0   15.59    1.85 
  -8   6   0   19.63    1.72 
   8   6   0   19.56    1.47 
   8   6   0   17.29    1.51 
  -8   6   0   18.96    1.88 
  -8   6   0   19.33    1.27 
  10  -6   0  154.79    8.21 
 -10  -6   0  155.02    8.24 
 -10  -6   0  158.92    8.03 
  10  -6   0  166.99    8.08 
  10  -6   0  151.69    8.15 
 -10   6   0  154.71    8.05 
  10   6   0  152.62    8.05 
  10   6   0  151.69    8.10 
 -10   6   0  146.66    8.18 
 -10   6   0  162.71    7.96 
 -10   6   0  155.56    7.98 
  10   6   0  155.94    7.96 
 -12  -6   0   39.92    3.11 
 -12  -6   0   38.59    3.08 
  12  -6   0   42.26    2.87 
  12  -6   0   40.68    3.01 
  12   6   0   45.04    2.57 
 -12   6   0   44.33    2.59 
 -12   6   0   41.36    2.72 
 -12   6   0   43.83    2.56 
  12   6   0   41.78    2.70 
  12   6   0   44.35    2.88 
 -14  -6   0   86.00    5.39 
  14  -6   0   91.06    5.31 
  14  -6   0   91.68    5.44 
 -14  -6   0   93.55    5.62 
 -14   6   0   95.70    5.13 
 -14   6   0   97.89    5.00 
  14   6   0   91.47    5.14 
   1  -7   0  104.26    6.03 
  -1  -7   0  112.63    6.17 
   1  -7   0  125.73    6.00 
   1  -7   0  100.27    5.94 
   1  -7   0  104.97    5.83 
   1  -7   0  111.54    5.74 
  -1  -7   0  114.59    5.76 
  -1  -7   0  101.87    5.82 
  -1  -7   0  104.33    6.07 
  -1   7   0  103.88    5.82 
   1   7   0  118.42    5.85 
  -1   7   0  117.52    5.84 
   1   7   0  107.81    5.82 
   1   7   0  112.86    5.81 
  -1   7   0  113.18    5.79 
  -3  -7   0  115.84    5.83 
  -3  -7   0   90.15    5.93 
   3  -7   0  107.37    5.89 
   3  -7   0  119.01    5.64 
   3  -7   0  100.06    5.70 
   3  -7   0  104.72    5.84 
  -3  -7   0  114.61    5.54 
  -3  -7   0  112.03    5.65 
  -3   7   0  106.17    5.70 
   3   7   0  106.14    5.72 
   3   7   0  109.35    5.70 
  -3   7   0  107.09    5.64 
  -3   7   0  109.34    5.70 
   3   7   0  102.96    5.66 
   5  -7   0  111.89    5.34 
  -5  -7   0  103.61    5.55 
   5  -7   0  107.14    5.61 
   5  -7   0  100.15    5.44 
  -5  -7   0   90.21    5.74 
  -5  -7   0  107.80    5.37 
   5  -7   0   98.66    5.53 
  -5  -7   0  105.74    5.39 
   5   7   0   94.50    5.41 
   5   7   0  104.98    5.32 
  -5   7   0  103.87    5.42 
   5   7   0   97.87    5.51 
  -5   7   0  100.07    5.33 
  -5   7   0   95.84    5.44 
   7  -7   0   53.41    3.37 
  -7  -7   0   59.25    3.23 
   7  -7   0   52.59    3.25 
   7  -7   0   57.19    3.38 
  -7  -7   0   48.20    3.59 
  -7  -7   0   57.74    3.17 
   7   7   0   55.62    3.05 
  -7   7   0   58.69    3.20 
   7   7   0   54.48    3.21 
  -7   7   0   54.50    3.33 
  -7   7   0   54.63    3.08 
   7   7   0   49.59    3.12 
  -9  -7   0   35.39    2.49 
   9  -7   0   34.21    2.42 
  -9  -7   0   35.84    2.30 
   9  -7   0   32.58    2.56 
   9  -7   0   37.42    2.49 
  -9  -7   0   34.25    2.84 
   9   7   0   34.66    2.37 
  -9   7   0   33.36    2.22 
   9   7   0   32.44    2.12 
  -9   7   0   33.36    2.36 
   9   7   0   32.07    2.27 
 -11  -7   0   51.54    4.05 
  11  -7   0   61.95    3.84 
  11  -7   0   60.64    3.73 
 -11  -7   0   61.34    3.82 
 -11   7   0   61.44    3.60 
 -11   7   0   59.54    3.37 
  11   7   0   61.47    3.35 
  11   7   0   57.42    3.50 
  13  -7   0   70.84    4.35 
 -13  -7   0   73.50    4.55 
  13  -7   0   68.23    4.52 
 -13  -7   0   64.08    4.61 
 -13   7   0   77.21    4.20 
  13   7   0   62.53    4.12 
 -13   7   0   71.73    3.94 
   0  -8   0  181.80    9.94 
   0  -8   0  175.48    9.78 
   0  -8   0  203.25    9.71 
   0   8   0  184.39    9.75 
   0   8   0  186.82    9.79 
   0   8   0  205.17    9.81 
  -2  -8   0   23.22    1.78 
   2  -8   0   20.61    2.06 
   2  -8   0   20.28    2.10 
   2  -8   0   21.91    1.73 
  -2  -8   0   17.49    2.18 
   2  -8   0   19.26    1.82 
  -2   8   0   25.35    1.86 
   2   8   0   19.98    1.75 
  -2   8   0   21.41    1.98 
   2   8   0   21.97    1.87 
  -2   8   0   20.38    1.72 
  -4  -8   0  131.50    6.58 
   4  -8   0  128.00    6.84 
  -4  -8   0  115.69    6.96 
   4  -8   0  128.07    6.66 
   4  -8   0  126.76    6.80 
  -4  -8   0  131.02    6.42 
  -4   8   0  115.82    6.78 
   4   8   0  122.26    6.64 
  -4   8   0  128.95    6.62 
   4   8   0  124.68    6.59 
  -4   8   0  121.83    6.56 
   6  -8   0   23.18    1.96 
  -6  -8   0   18.82    2.47 
   6  -8   0   24.28    2.21 
  -6  -8   0   23.29    1.73 
   6  -8   0   22.83    2.11 
   6   8   0   20.12    2.16 
   6   8   0   21.42    1.87 
  -6   8   0   20.64    2.01 
   6   8   0   23.21    2.02 
  -6   8   0   21.00    1.75 
   8  -8   0   74.24    4.29 
  -8  -8   0   63.94    4.59 
  -8  -8   0   72.64    4.01 
   8  -8   0   75.26    4.25 
   8  -8   0   71.58    4.15 
   8   8   0   64.44    3.97 
   8   8   0   69.66    3.84 
  -8   8   0   68.69    3.88 
  -8   8   0   67.83    4.03 
 -10  -8   0   14.36    1.56 
 -10  -8   0   13.34    2.07 
  10  -8   0   15.15    1.83 
  10  -8   0   11.96    1.53 
 -10   8   0   15.88    1.55 
 -10   8   0   13.96    1.64 
  10   8   0   13.77    1.33 
  10   8   0   16.60    1.50 
   1  -9   0   35.92    2.62 
   1  -9   0   36.43    2.94 
   1  -9   0   33.49    2.89 
  -1  -9   0   34.07    2.93 
  -1   9   0   32.47    2.64 
   1   9   0   37.65    2.45 
  -1   9   0   30.46    2.44 
   3  -9   0   30.91    2.75 
   3  -9   0   28.25    2.43 
  -3  -9   0   28.82    2.84 
   3  -9   0   35.20    2.80 
   3   9   0   31.90    2.36 
  -3   9   0   28.57    2.46 
  -3   9   0   30.95    2.24 
   5  -9   0   13.31    1.52 
   5  -9   0   15.52    1.83 
   5  -9   0   14.27    1.67 
  -5  -9   0   13.97    1.91 
   5   9   0   16.96    1.87 
  -5   9   0   18.25    1.97 
  -5   9   0   16.01    1.74 
   7  -9   0   29.66    2.74 
   7  -9   0   27.56    2.54 
  -7  -9   0   22.63    3.10 
   7  -9   0   25.61    2.78 
   7   9   0   27.39    2.29 
  -7   9   0   24.80    2.18 
  -7   9   0   27.75    2.45 
   7   9   0   27.04    2.10 
  -9  -9   0   25.97    3.52 
   9  -9   0   32.48    2.87 
   9  -9   0   37.80    3.06 
  -9   9   0   32.08    2.40 
   9   9   0   28.53    2.55 
  -9   9   0   28.48    2.70 
   0 -10   0    1.72    1.45 
   0  10   0    6.29    1.36 
   0  10   0    1.47    1.08 
   2 -10   0   48.44    3.80 
  -2 -10   0   44.29    3.74 
   2 -10   0   46.42    3.44 
   2 -10   0   44.58    3.65 
  -2  10   0   49.28    3.41 
   2  10   0   45.43    3.20 
  -2  10   0   48.68    3.20 
   2  10   0   50.59    3.42 
   4 -10   0    2.92    1.61 
   4 -10   0    2.35    1.29 
  -4 -10   0    4.98    1.76 
   4 -10   0    4.02    1.61 
   4  10   0    3.86    1.13 
  -4  10   0    2.08    1.15 
   4  10   0    4.27    1.16 
  -4  10   0    2.36    1.33 
  18   0  -1   -0.97    0.86 
  18   0  -1    0.58    1.22 
 -18   0   1    0.11    1.51 
  16   0  -1   -0.11    0.82 
 -16   0   1   -0.83    1.25 
  16   0  -1    0.04    0.70 
  16   0  -1    0.81    0.85 
 -16   0   1    0.37    0.79 
  14   0  -1    0.40    0.66 
 -14   0   1    0.94    0.64 
  14   0  -1   -0.21    0.69 
  14   0  -1    0.37    0.50 
  14   0  -1   -0.01    0.47 
 -14   0   1   -0.47    0.95 
 -12   0   1    0.33    0.80 
  12   0  -1    1.51    0.70 
  12   0  -1    0.80    0.48 
  12   0  -1    0.41    0.40 
  12   0  -1    1.00    0.67 
 -12   0   1    0.95    0.49 
 -12   0   1   -0.41    0.68 
  12   0  -1    0.41    0.43 
 -10   0   1    0.53    0.42 
 -10   0   1    0.12    0.58 
 -10   0   1    0.39    0.51 
  10   0  -1    0.27    0.48 
  10   0  -1    0.44    0.83 
  10   0  -1    0.06    0.35 
  10   0  -1    0.94    0.40 
  10   0  -1   -0.07    0.28 
 -10   0   1    0.08    0.36 
 -10   0   1    0.29    0.47 
   8   0  -1    0.50    0.42 
  -8   0   1    0.40    0.45 
  -8   0   1    0.96    0.45 
   8   0  -1    0.60    0.65 
   8   0  -1   -0.21    0.23 
   8   0  -1    0.30    0.31 
  -8   0   1    0.23    0.33 
   8   0  -1   -0.18    0.29 
   6   0  -1    1.02    0.26 
   6   0  -1    0.17    0.21 
   6   0  -1    0.23    0.38 
   6   0  -1    0.21    0.18 
  -6   0   1    0.37    0.35 
  -6   0   1    0.03    0.26 
  -6   0   1    0.13    0.25 
   6   0  -1    1.36    0.28 
   6   0  -1   -0.03    0.26 
   4   0  -1    0.44    0.16 
  -4   0   1   -0.24    0.21 
   4   0  -1   -0.14    0.15 
  -4   0   1   -0.11    0.12 
  -4   0   1   -0.30    0.16 
   4   0  -1    0.46    0.21 
  -4   0   1    0.05    0.19 
   4   0  -1   -0.07    0.18 
   4   0  -1    0.39    0.29 
   2   0  -1   -0.30    0.09 
  -2   0   1    0.22    0.12 
  -2   0   1   -0.51    0.15 
   2   0  -1   -0.16    0.07 
   2   0  -1   -0.05    0.09 
   2   0  -1    0.03    0.15 
  -2   0   1   -0.08    0.10 
   2   0  -1   -0.47    0.13 
  -2   0   1   -0.29    0.08 
   2   0  -1    0.09    0.11 
   0   0  -1    0.05    0.10 
   0   0  -1   -0.15    0.05 
   0   0   1    0.04    0.10 
   0   0   1    0.04    0.05 
  -2   0  -1    0.05    0.09 
   2   0   1    0.71    0.11 
  -2   0  -1    0.08    0.09 
  -2   0  -1    0.39    0.10 
   2   0   1    0.23    0.07 
   2   0   1    0.03    0.10 
   2   0   1    0.12    0.08 
  -2   0  -1    0.49    0.15 
   2   0   1    0.06    0.12 
  -4   0  -1   -0.52    0.14 
  -4   0  -1    0.29    0.17 
   4   0   1    0.47    0.14 
  -4   0  -1   -0.10    0.12 
  -4   0  -1   -0.25    0.15 
  -4   0  -1   -0.26    0.21 
   4   0   1   -0.19    0.15 
  -4   0  -1   -0.15    0.11 
   4   0   1   -0.45    0.25 
   4   0   1    0.17    0.14 
   4   0   1    0.16    0.19 
   4   0   1    0.13    0.16 
   6   0   1    0.57    0.24 
  -6   0  -1    0.04    0.14 
  -6   0  -1   -0.42    0.25 
  -6   0  -1    0.01    0.27 
   6   0   1    0.23    0.19 
   6   0   1    0.22    0.37 
   6   0   1   -0.16    0.19 
   6   0   1    0.39    0.21 
  -6   0  -1   -0.01    0.28 
   6   0   1    0.26    0.23 
  -6   0  -1   -0.08    0.16 
  -8   0  -1    0.16    0.19 
  -8   0  -1    0.33    0.23 
   8   0   1    0.36    0.28 
  -8   0  -1   -0.21    0.37 
  -8   0  -1    1.13    0.41 
   8   0   1    0.62    0.30 
  -8   0  -1    0.20    0.45 
  -8   0  -1   -0.48    0.31 
   8   0   1    0.09    0.29 
   8   0   1    0.28    0.31 
   8   0   1    0.49    0.53 
   8   0   1    0.07    0.27 
 -10   0  -1    0.28    0.32 
  10   0   1   -0.72    0.75 
 -10   0  -1    0.36    0.46 
 -10   0  -1    0.09    0.51 
  10   0   1    0.12    0.30 
  10   0   1    0.06    0.38 
  10   0   1    0.16    0.39 
  10   0   1   -0.11    0.31 
 -10   0  -1   -0.22    0.48 
 -10   0  -1    1.63    0.59 
  10   0   1    0.42    0.42 
  12   0   1    0.68    0.56 
 -12   0  -1   -0.02    0.72 
  12   0   1    0.88    0.52 
  12   0   1    0.41    0.44 
 -12   0  -1    0.79    0.47 
 -14   0  -1   -0.15    0.54 
 -14   0  -1   -0.26    0.81 
  14   0   1    0.45    0.61 
  14   0   1    0.66    0.65 
  16   0   1    0.28    0.84 
 -16   0  -1    1.83    1.23 
  16   0   1    0.11    0.91 
  16   0   1    0.55    0.72 
  18   0   1    0.83    1.22 
  18   0   1   -0.05    1.20 
 -18   0  -1   -0.15    1.60 
  18   0   1   -0.76    0.96 
 -18   0  -1    0.42    1.04 
 -17  -1   1    0.34    1.41 
  17  -1  -1    0.70    1.00 
  17  -1  -1    1.44    0.81 
  17  -1  -1    0.87    1.03 
  17   1  -1   -0.49    1.03 
 -17   1   1    0.52    1.00 
 -17   1   1    1.25    1.29 
  17   1  -1    0.67    0.79 
  17   1  -1    1.43    1.23 
  15  -1  -1   21.23    1.61 
 -15  -1   1   23.27    2.42 
  15  -1  -1   20.32    1.85 
 -15  -1   1   20.40    1.72 
  15  -1  -1   20.89    1.87 
 -15   1   1   24.16    2.19 
  15   1  -1   25.01    1.88 
 -15   1   1   23.21    1.71 
  15   1  -1   23.06    1.64 
  15   1  -1   18.55    1.83 
  13  -1  -1    3.06    0.69 
 -13  -1   1    2.44    0.59 
  13  -1  -1    2.36    0.68 
  13  -1  -1    4.21    0.79 
  13  -1  -1    2.92    0.52 
  13  -1  -1    2.69    0.53 
 -13  -1   1    2.55    0.90 
 -13  -1   1    1.89    0.94 
 -13   1   1    2.18    0.82 
  13   1  -1    2.80    0.64 
  13   1  -1    2.79    1.07 
  13   1  -1    3.69    0.60 
  13   1  -1    2.28    0.75 
 -13   1   1    3.09    0.65 
 -11  -1   1   43.97    2.97 
  11  -1  -1   45.76    2.72 
  11  -1  -1   45.87    2.74 
 -11  -1   1   48.99    2.71 
 -11  -1   1   50.08    2.81 
  11  -1  -1   44.87    2.73 
 -11  -1   1   46.91    2.66 
  11  -1  -1   49.98    2.60 
 -11  -1   1   47.53    2.76 
  11  -1  -1   54.99    2.71 
  11  -1  -1   46.38    2.62 
 -11   1   1   52.70    2.67 
 -11   1   1   45.79    2.90 
  11   1  -1   55.32    2.89 
  11   1  -1   47.97    2.69 
 -11   1   1   48.23    2.66 
  11   1  -1   45.54    2.74 
  11   1  -1   45.47    2.70 
 -11   1   1   49.03    2.83 
  11   1  -1   48.78    2.63 
  -9  -1   1   74.74    4.20 
   9  -1  -1   75.04    4.22 
   9  -1  -1   81.47    4.16 
   9  -1  -1   92.25    4.21 
  -9  -1   1   86.50    4.26 
  -9  -1   1   78.99    4.20 
  -9  -1   1   82.68    4.19 
  -9  -1   1   80.40    4.16 
   9  -1  -1   77.34    4.14 
   9  -1  -1   83.40    4.48 
   9  -1  -1   75.43    4.23 
  -9  -1   1   72.96    4.40 
   9  -1  -1   80.32    4.20 
  -9   1   1   77.41    4.36 
   9   1  -1   75.01    4.21 
  -9   1   1   83.75    4.27 
  -9   1   1   76.16    4.16 
  -9   1   1   90.17    4.17 
   9   1  -1   76.84    4.46 
   9   1  -1   77.80    4.20 
  -9   1   1   81.97    4.26 
   9   1  -1   80.47    4.18 
   9   1  -1   78.37    4.15 
   9   1  -1   89.80    4.32 
   7  -1  -1  128.65    6.63 
  -7  -1   1  143.79    6.71 
  -7  -1   1  128.43    6.66 
   7  -1  -1  138.11    6.66 
  -7  -1   1  128.37    6.85 
   7  -1  -1  138.40    6.83 
   7  -1  -1  130.46    6.70 
   7  -1  -1  150.54    6.70 
  -7  -1   1  135.68    6.65 
  -7  -1   1  125.19    6.64 
   7  -1  -1  134.27    6.67 
  -7  -1   1  123.10    6.70 
   7   1  -1  126.78    6.64 
  -7   1   1  112.80    6.70 
  -7   1   1  129.32    6.72 
   7   1  -1  131.77    6.68 
  -7   1   1  138.81    6.63 
   7   1  -1  131.62    6.83 
   7   1  -1  123.80    6.63 
  -7   1   1  127.19    6.80 
   7   1  -1  140.20    6.75 
  -7   1   1  131.58    6.70 
   7   1  -1  121.30    6.68 
   5  -1  -1   27.40    1.44 
  -5  -1   1   29.01    1.51 
   5  -1  -1   28.20    1.49 
  -5  -1   1   27.17    1.50 
  -5  -1   1   26.90    1.54 
   5  -1  -1   25.07    1.52 
  -5  -1   1   25.40    1.63 
   5  -1  -1   28.30    1.49 
  -5  -1   1   27.32    1.48 
   5  -1  -1   28.10    1.62 
   5  -1  -1   25.16    1.50 
  -5   1   1   30.91    1.53 
  -5   1   1   25.63    1.47 
  -5   1   1   24.01    1.58 
  -5   1   1   25.10    1.52 
  -5   1   1   26.95    1.43 
   5   1  -1   25.55    1.45 
   5   1  -1   28.55    1.62 
   5   1  -1   28.72    1.57 
   5   1  -1   24.94    1.48 
   5   1  -1   26.55    1.48 
   3  -1  -1  180.53    9.45 
   3  -1  -1  179.90    9.38 
  -3  -1   1  187.58    9.48 
   3  -1  -1  191.33    9.45 
  -3  -1   1  192.10    9.42 
  -3  -1   1  201.98    9.42 
   3  -1  -1  190.00    9.44 
  -3  -1   1  179.32    9.40 
  -3  -1   1  169.00    9.48 
  -3  -1   1  194.23    9.42 
   3  -1  -1  186.27    9.43 
   3  -1  -1  201.84    9.50 
  -3   1   1  191.02    9.45 
  -3   1   1  188.75    9.38 
   3   1  -1  181.80    9.40 
  -3   1   1  186.57    9.43 
  -3   1   1  188.10    9.42 
  -3   1   1  189.64    9.45 
  -3   1   1  182.41    9.47 
   3   1  -1  192.74    9.41 
   3   1  -1  185.65    9.47 
   3   1  -1  200.36    9.49 
   3   1  -1  189.09    9.42 
   3   1  -1  190.46    9.42 
  -1  -1   1   56.23    2.87 
   1  -1  -1   53.69    2.93 
   1  -1  -1   56.44    2.86 
  -1  -1   1   54.71    2.86 
  -1  -1   1   54.16    2.88 
   1  -1  -1   56.08    2.88 
   1  -1  -1   58.63    2.92 
  -1  -1   1   57.41    2.91 
   1  -1  -1   56.22    2.90 
  -1  -1   1   58.34    2.94 
  -1  -1   1   57.53    2.87 
  -1   1   1   56.70    2.92 
   1   1  -1   57.16    2.89 
   1   1  -1   56.21    2.87 
  -1   1   1   57.47    2.92 
  -1   1   1   57.30    2.93 
  -1   1   1   57.54    2.93 
   1   1  -1   56.74    2.86 
  -1   1   1   55.13    2.85 
  -1   1   1   58.37    2.90 
   1   1  -1   62.84    2.94 
   1   1  -1   55.99    2.87 
  -1   1   1   56.48    2.88 
   1   1  -1   58.49    2.91 
   1  -1   1  155.99    8.06 
   1  -1   1  165.23    8.03 
  -1  -1  -1  156.21    8.08 
   1  -1   1  176.47    8.08 
  -1  -1  -1  163.83    8.05 
  -1  -1  -1  159.49    8.06 
   1  -1   1  154.53    8.03 
  -1  -1  -1  153.49    8.12 
  -1  -1  -1  167.89    8.08 
  -1  -1  -1  156.31    8.02 
   1  -1   1  163.94    8.06 
   1  -1   1  167.41    8.09 
  -1  -1  -1  154.84    8.06 
  -1   1  -1  167.76    8.08 
   1   1   1  160.85    8.05 
  -1   1  -1  159.04    8.05 
   1   1   1  164.48    8.09 
   1   1   1  169.77    8.03 
  -1   1  -1  165.46    8.08 
  -1   1  -1  157.16    8.05 
   1   1   1  161.58    8.06 
   1   1   1  159.76    8.08 
   1   1   1  152.70    8.11 
  -1   1  -1  155.91    8.04 
  -1   1  -1  157.33    8.05 
  -3  -1  -1   55.00    2.93 
  -3  -1  -1   60.07    2.95 
  -3  -1  -1   60.80    3.02 
  -3  -1  -1   57.38    2.89 
  -3  -1  -1   55.48    3.00 
   3  -1   1   57.41    2.97 
  -3  -1  -1   59.29    2.94 
   3  -1   1   57.34    2.95 
   3  -1   1   59.80    2.89 
   3  -1   1   59.27    2.98 
   3  -1   1   56.94    2.91 
   3  -1   1   54.18    2.94 
   3   1   1   60.01    2.96 
  -3   1  -1   58.06    2.97 
  -3   1  -1   57.87    2.89 
  -3   1  -1   55.54    2.93 
   3   1   1   58.68    2.94 
  -3   1  -1   56.29    2.91 
  -3   1  -1   56.53    2.96 
   3   1   1   57.11    2.90 
   3   1   1   55.54    3.01 
  -5  -1  -1  140.63    6.91 
   5  -1   1  138.37    6.96 
   5  -1   1  139.88    6.92 
   5  -1   1  137.51    6.98 
   5  -1   1  126.67    7.10 
  -5  -1  -1  137.70    7.06 
  -5  -1  -1  144.62    6.96 
   5  -1   1  136.23    6.97 
  -5  -1  -1  128.01    6.98 
   5   1   1  140.25    6.94 
   5   1   1  136.07    6.92 
  -5   1  -1  141.34    6.99 
  -5   1  -1  145.49    6.96 
   5   1   1  133.16    6.95 
  -5   1  -1  135.67    6.93 
  -5   1  -1  147.43    6.97 
   5   1   1  135.47    7.02 
  -7  -1  -1   32.44    1.79 
   7  -1   1   31.95    1.85 
  -7  -1  -1   34.63    1.86 
   7  -1   1   31.75    1.84 
   7  -1   1   32.65    1.82 
  -7  -1  -1   31.75    1.80 
  -7  -1  -1   32.57    1.77 
  -7  -1  -1   31.07    1.98 
   7  -1   1   33.96    2.02 
  -7  -1  -1   35.13    1.85 
   7  -1   1   31.67    1.78 
  -7   1  -1   32.27    1.93 
  -7   1  -1   30.44    1.77 
   7   1   1   32.56    1.81 
  -7   1  -1   33.88    1.84 
   7   1   1   31.85    1.83 
   7   1   1   32.74    1.81 
   7   1   1   34.99    2.05 
   7   1   1   34.15    1.92 
   7   1   1   31.63    1.79 
  -7   1  -1   34.05    1.84 
  -7   1  -1   34.27    1.87 
   9  -1   1   45.73    2.47 
   9  -1   1   44.06    2.77 
   9  -1   1   45.29    2.45 
   9  -1   1   40.27    2.48 
   9  -1   1   43.28    2.50 
  -9  -1  -1   46.44    2.44 
  -9  -1  -1   47.89    2.54 
  -9  -1  -1   46.84    2.51 
  -9  -1  -1   43.83    2.43 
  -9  -1  -1   42.60    2.68 
  -9  -1  -1   45.14    2.42 
   9   1   1   43.96    2.46 
  -9   1  -1   42.35    2.60 
   9   1   1   47.81    2.83 
  -9   1  -1   50.36    2.54 
   9   1   1   46.17    2.55 
  -9   1  -1   47.52    2.53 
   9   1   1   44.06    2.45 
  -9   1  -1   46.84    2.53 
   9   1   1   43.70    2.47 
  -9   1  -1   44.40    2.42 
   9   1   1   47.06    2.50 
  11  -1   1    0.40    0.43 
 -11  -1  -1   -0.05    0.60 
  11  -1   1    0.67    0.41 
 -11  -1  -1    0.38    0.66 
 -11  -1  -1    0.93    0.52 
 -11  -1  -1    0.91    0.38 
 -11  -1  -1    0.61    0.38 
  11  -1   1    0.25    0.46 
  11   1   1    0.49    0.47 
 -11   1  -1    0.28    0.53 
  11   1   1    0.65    0.44 
 -11   1  -1    0.30    0.35 
  11   1   1    0.79    0.43 
 -11   1  -1    0.66    0.62 
 -13  -1  -1   56.54    3.62 
  13  -1   1   60.76    3.41 
  13  -1   1   59.94    3.41 
 -13  -1  -1   63.76    3.31 
  13  -1   1   59.23    3.30 
 -13   1  -1   60.18    3.57 
 -13   1  -1   64.36    3.31 
  13   1   1   60.21    3.41 
  13   1   1   59.73    3.33 
  13   1   1   59.81    3.35 
 -15  -1  -1   11.38    1.47 
  15  -1   1   13.89    1.36 
  15  -1   1   15.00    1.65 
 -15  -1  -1   14.02    1.39 
 -15   1  -1   12.67    1.31 
 -15   1  -1   14.11    1.53 
  15   1   1   11.77    1.23 
  15   1   1   12.60    1.31 
  15   1   1   13.38    1.34 
  17  -1   1    8.81    1.14 
  17  -1   1    8.82    1.36 
  17  -1   1    9.66    1.38 
 -17  -1  -1    9.61    1.13 
 -17  -1  -1    9.49    1.67 
  17   1   1    9.83    1.33 
  17   1   1   11.19    1.19 
 -17   1  -1    9.23    1.13 
 -17   1  -1   12.21    1.71 
  17   1   1    8.08    1.28 
  18  -2  -1    7.92    1.48 
  18  -2  -1    7.39    1.13 
  18  -2  -1    8.01    1.76 
  18   2  -1    6.40    1.37 
  18   2  -1    8.49    1.22 
 -18   2   1    8.52    1.68 
 -16  -2   1    8.51    1.21 
  16  -2  -1    6.78    1.12 
  16  -2  -1    6.71    0.96 
 -16  -2   1    6.45    1.52 
  16   2  -1    4.00    1.09 
  16   2  -1    6.82    1.15 
  16   2  -1    7.14    0.96 
 -16   2   1    7.08    1.35 
 -16   2   1    7.04    0.99 
  14  -2  -1    1.45    0.80 
  14  -2  -1    3.11    0.63 
  14  -2  -1    2.77    0.75 
 -14  -2   1    2.81    1.18 
 -14  -2   1    2.14    0.70 
  14   2  -1    1.90    0.71 
  14   2  -1    2.14    0.82 
  14   2  -1    2.23    0.86 
 -14   2   1    2.12    0.69 
 -12  -2   1    7.34    1.00 
 -12  -2   1    6.11    1.05 
  12  -2  -1    9.55    1.14 
 -12  -2   1    6.71    0.87 
  12  -2  -1    6.43    0.68 
  12  -2  -1    9.89    1.21 
 -12  -2   1    9.15    0.99 
  12  -2  -1    5.70    0.82 
  12   2  -1    7.31    0.87 
  12   2  -1    7.92    0.75 
  12   2  -1    8.03    0.98 
 -12   2   1    6.96    1.04 
 -12   2   1    7.39    0.93 
 -12   2   1    8.83    0.97 
  12   2  -1    9.12    1.30 
  12   2  -1    5.53    0.79 
 -10  -2   1    1.61    0.49 
  10  -2  -1    1.58    0.49 
 -10  -2   1    2.08    0.46 
  10  -2  -1    1.55    0.59 
  10  -2  -1    1.09    0.88 
 -10  -2   1    0.82    0.70 
 -10  -2   1    1.98    0.54 
 -10  -2   1    1.19    0.59 
 -10  -2   1    2.40    0.57 
  10  -2  -1    2.33    0.41 
  10  -2  -1    1.81    0.50 
  10  -2  -1    1.22    0.53 
  10   2  -1    2.63    0.81 
 -10   2   1    2.29    0.69 
 -10   2   1    1.78    0.47 
  10   2  -1    1.81    0.46 
 -10   2   1    1.22    0.44 
 -10   2   1    2.34    0.62 
  10   2  -1    1.57    0.47 
  10   2  -1    0.93    0.39 
  10   2  -1    1.28    0.46 
  -8  -2   1    0.99    0.53 
   8  -2  -1    1.52    0.46 
   8  -2  -1    2.17    0.47 
   8  -2  -1    2.69    0.48 
   8  -2  -1    1.51    0.33 
   8  -2  -1    2.39    0.66 
   8  -2  -1    1.86    0.47 
  -8  -2   1    2.35    0.38 
   8  -2  -1    1.83    0.37 
  -8  -2   1    1.67    0.45 
  -8  -2   1    1.85    0.42 
  -8  -2   1    1.29    0.46 
   8   2  -1    2.88    0.76 
   8   2  -1    1.46    0.36 
   8   2  -1    1.49    0.60 
   8   2  -1    2.01    0.44 
  -8   2   1    1.55    0.45 
   8   2  -1    1.27    0.38 
  -8   2   1    1.15    0.34 
  -8   2   1    1.64    0.46 
  -8   2   1    1.76    0.49 
  -8   2   1    2.34    0.42 
   8   2  -1    2.57    0.39 
   6  -2  -1   86.03    4.50 
  -6  -2   1   85.54    4.55 
  -6  -2   1   76.54    4.60 
  -6  -2   1   93.65    4.46 
  -6  -2   1   90.07    4.46 
   6  -2  -1  100.13    4.61 
   6  -2  -1   88.51    4.47 
   6  -2  -1   81.74    4.42 
  -6  -2   1   86.69    4.43 
   6  -2  -1   77.93    4.52 
   6  -2  -1   92.73    4.48 
   6   2  -1   86.82    4.57 
   6   2  -1   88.76    4.44 
  -6   2   1   87.74    4.50 
   6   2  -1   82.38    4.46 
  -6   2   1   80.78    4.52 
  -6   2   1   91.05    4.42 
  -6   2   1   71.92    4.50 
   6   2  -1   87.53    4.45 
   6   2  -1   92.01    4.60 
  -6   2   1   91.00    4.53 
   6   2  -1   88.45    4.45 
   4  -2  -1   94.22    4.93 
  -4  -2   1   99.57    4.91 
  -4  -2   1   92.82    5.01 
   4  -2  -1   94.90    4.92 
   4  -2  -1   91.13    4.96 
  -4  -2   1   95.33    4.88 
   4  -2  -1  102.62    4.98 
  -4  -2   1  106.69    4.92 
   4  -2  -1   99.40    4.95 
  -4   2   1   91.05    4.91 
   4   2  -1   93.81    4.88 
   4   2  -1   93.94    4.90 
  -4   2   1   91.60    4.93 
   4   2  -1   94.50    4.91 
   4   2  -1  102.62    5.02 
  -4   2   1   95.03    4.93 
  -4   2   1  100.96    4.87 
   4   2  -1   94.88    4.91 
   4   2  -1   98.24    4.97 
  -4   2   1   94.56    4.95 
   2  -2  -1    1.85    0.31 
   2  -2  -1    0.90    0.21 
  -2  -2   1    0.63    0.21 
  -2  -2   1    1.68    0.35 
   2  -2  -1    1.18    0.28 
  -2  -2   1    1.63    0.25 
  -2  -2   1    0.99    0.24 
   2  -2  -1    0.91    0.24 
   2  -2  -1    0.69    0.23 
  -2   2   1    1.23    0.25 
   2   2  -1    0.73    0.22 
  -2   2   1    1.13    0.22 
  -2   2   1    0.36    0.23 
   2   2  -1    1.13    0.19 
   2   2  -1    0.67    0.17 
   2   2  -1    1.33    0.21 
  -2   2   1    1.74    0.30 
  -2   2   1    0.53    0.20 
  -2   2   1    1.01    0.18 
   2   2  -1    0.91    0.24 
  -2   2   1    0.79    0.30 
   2   2  -1    0.64    0.17 
   2   2  -1    1.05    0.22 
   2   2  -1    1.79    0.35 
   0  -2  -1   45.35    2.36 
   0  -2   1   46.52    2.39 
   0  -2  -1   47.97    2.39 
   0  -2   1   47.30    2.32 
   0  -2  -1   42.16    2.48 
   0  -2  -1   46.87    2.42 
   0  -2  -1   43.74    2.44 
   0  -2   1   48.04    2.36 
   0  -2   1   45.00    2.40 
   0  -2  -1   46.45    2.39 
   0  -2   1   46.34    2.48 
   0  -2   1   47.95    2.35 
   0  -2   1   44.63    2.41 
   0  -2   1   43.26    2.38 
   0  -2  -1   45.05    2.37 
   0   2  -1   46.98    2.37 
   0   2   1   44.11    2.48 
   0   2  -1   46.55    2.39 
   0   2  -1   47.85    2.40 
   0   2   1   50.20    2.38 
   0   2  -1   44.98    2.36 
   0   2  -1   45.03    2.40 
   0   2  -1   46.00    2.32 
   0   2   1   41.05    2.41 
   0   2  -1   50.89    2.48 
   0   2   1   46.67    2.43 
   0   2  -1   45.65    2.35 
   0   2   1   43.85    2.38 
  -2  -2  -1    0.64    0.19 
  -2  -2  -1    0.93    0.31 
   2  -2   1    1.09    0.23 
   2  -2   1    1.13    0.15 
   2  -2   1    0.83    0.17 
  -2  -2  -1    1.65    0.24 
   2  -2   1    1.22    0.25 
  -2  -2  -1    0.86    0.22 
  -2  -2  -1    1.52    0.25 
  -2   2  -1    1.31    0.28 
  -2   2  -1    1.49    0.19 
  -2   2  -1    1.16    0.24 
  -2   2  -1    1.32    0.23 
  -2   2  -1    1.17    0.20 
   2   2   1    0.46    0.33 
  -2   2  -1    2.30    0.32 
  -2   2  -1    1.46    0.28 
   2   2   1    0.64    0.23 
   2   2   1    0.55    0.18 
   2   2   1    0.67    0.14 
   2   2   1    0.87    0.22 
   4  -2   1    9.87    0.74 
  -4  -2  -1   10.10    0.70 
   4  -2   1   10.97    0.74 
  -4  -2  -1   10.33    0.82 
  -4  -2  -1    9.83    0.74 
   4  -2   1   10.81    0.70 
   4  -2   1    9.34    0.73 
  -4  -2  -1   10.37    0.69 
   4  -2   1    9.48    0.64 
   4  -2   1   10.44    0.77 
  -4   2  -1   10.43    0.68 
   4   2   1   10.22    0.72 
   4   2   1    9.62    0.60 
   4   2   1   10.29    0.81 
  -4   2  -1   11.54    0.74 
  -4   2  -1    9.45    0.66 
  -4   2  -1   10.53    0.69 
  -4   2  -1   11.55    0.80 
   4   2   1   11.11    0.70 
  -4   2  -1    9.98    0.72 
   4   2   1   10.28    0.95 
  -6  -2  -1   24.38    1.43 
  -6  -2  -1   24.37    1.39 
   6  -2   1   22.65    1.43 
   6  -2   1   24.34    1.51 
   6  -2   1   24.99    1.37 
  -6  -2  -1   25.52    1.33 
  -6  -2  -1   23.52    1.51 
   6  -2   1   21.36    1.41 
   6  -2   1   23.33    1.46 
  -6  -2  -1   27.50    1.43 
  -6   2  -1   23.43    1.43 
   6   2   1   23.96    1.41 
  -6   2  -1   25.48    1.51 
  -6   2  -1   25.59    1.44 
   6   2   1   26.69    1.60 
   6   2   1   25.16    1.34 
   6   2   1   22.76    1.39 
  -6   2  -1   22.46    1.35 
  -6   2  -1   24.67    1.44 
   6   2   1   26.15    1.65 
   6   2   1   22.67    1.43 
   8  -2   1    4.11    0.51 
   8  -2   1    4.39    0.50 
  -8  -2  -1    5.71    0.79 
  -8  -2  -1    4.65    0.61 
   8  -2   1    5.41    0.62 
  -8  -2  -1    5.54    0.62 
   8  -2   1    4.65    0.61 
  -8  -2  -1    4.89    0.57 
  -8  -2  -1    4.71    0.58 
   8  -2   1    4.80    0.71 
  -8   2  -1    4.98    0.60 
   8   2   1    4.83    0.58 
   8   2   1    3.06    0.45 
   8   2   1    5.63    0.57 
  -8   2  -1    5.07    0.67 
   8   2   1    6.64    0.84 
   8   2   1    4.69    0.57 
  -8   2  -1    5.87    0.65 
  -8   2  -1    5.19    0.58 
   8   2   1    4.70    0.79 
  -8   2  -1    5.31    0.61 
 -10  -2  -1   14.51    1.21 
  10  -2   1   12.98    1.11 
  10  -2   1   14.06    1.59 
 -10  -2  -1   11.68    1.04 
 -10  -2  -1   12.76    1.37 
  10  -2   1   11.58    1.14 
 -10  -2  -1   13.40    1.04 
  10  -2   1   14.03    1.06 
 -10  -2  -1   13.31    1.02 
 -10   2  -1   14.81    1.19 
  10   2   1   12.03    1.10 
  10   2   1   13.57    1.00 
 -10   2  -1   13.59    1.25 
 -10   2  -1   12.76    0.98 
  10   2   1   12.05    1.02 
 -10   2  -1   13.33    1.40 
 -10   2  -1   12.97    1.20 
  10   2   1   14.83    1.46 
  10   2   1   14.41    1.24 
 -12  -2  -1   40.97    2.35 
  12  -2   1   39.07    2.43 
 -12  -2  -1   37.74    2.65 
 -12  -2  -1   38.96    2.28 
 -12  -2  -1   41.97    2.31 
  12  -2   1   37.39    2.39 
  12  -2   1   38.79    2.30 
 -12   2  -1   42.07    2.29 
  12   2   1   44.31    2.69 
  12   2   1   39.97    2.34 
 -12   2  -1   38.19    2.49 
  12   2   1   40.04    2.32 
  12   2   1   37.96    2.39 
 -14  -2  -1    3.94    0.67 
  14  -2   1    3.61    1.13 
  14  -2   1    4.01    0.82 
  14  -2   1    2.59    1.51 
 -14  -2  -1    3.98    1.07 
 -14  -2  -1    3.33    0.76 
  14   2   1    4.79    0.80 
 -14   2  -1    4.53    0.75 
  14   2   1    2.78    0.82 
  14   2   1    3.23    0.72 
 -16  -2  -1    1.26    0.90 
  16  -2   1    0.82    0.83 
  16  -2   1    0.54    0.97 
  16  -2   1    0.59    1.00 
 -16  -2  -1   -0.03    1.24 
 -16   2  -1   -0.24    0.84 
  16   2   1   -0.11    0.82 
 -16   2  -1    1.33    1.15 
  16   2   1    0.84    0.97 
  17  -3  -1   48.15    3.53 
 -17  -3   1   51.42    4.11 
  17  -3  -1   52.84    3.57 
 -17   3   1   58.52    3.71 
 -17   3   1   48.82    3.48 
  17   3  -1   54.73    3.46 
  17   3  -1   53.43    3.33 
  15  -3  -1    0.48    0.93 
  15  -3  -1    1.10    0.89 
 -15  -3   1   -0.23    0.89 
 -15  -3   1    2.53    1.39 
 -15  -3   1    0.73    0.81 
  15   3  -1    0.61    0.84 
 -15   3   1    0.34    0.81 
  15   3  -1    0.37    0.74 
  15   3  -1    0.38    0.82 
 -15   3   1    1.25    0.99 
  13  -3  -1   49.52    3.14 
 -13  -3   1   53.19    3.00 
  13  -3  -1   52.52    3.12 
  13  -3  -1   49.44    2.93 
  13  -3  -1   57.80    2.84 
 -13  -3   1   46.73    3.56 
 -13  -3   1   51.35    3.46 
 -13  -3   1   55.73    3.39 
  13   3  -1   50.98    3.09 
  13   3  -1   53.82    2.98 
 -13   3   1   54.33    3.01 
 -13   3   1   52.91    3.16 
  13   3  -1   52.58    3.03 
  11  -3  -1    1.35    0.61 
  11  -3  -1    0.59    0.55 
  11  -3  -1    0.03    0.79 
 -11  -3   1    1.62    0.68 
 -11  -3   1    0.63    0.54 
 -11  -3   1    1.26    0.59 
  11  -3  -1    0.07    0.54 
  11  -3  -1    1.06    0.46 
 -11  -3   1    0.50    0.80 
 -11   3   1    0.83    0.60 
 -11   3   1    2.09    0.59 
 -11   3   1    1.66    0.91 
  11   3  -1    0.53    0.47 
  11   3  -1    1.30    0.57 
 -11   3   1    0.99    0.56 
  11   3  -1    0.09    0.69 
  11   3  -1    0.98    0.48 
  11   3  -1    1.18    1.06 
  -9  -3   1  119.42    6.59 
  -9  -3   1  126.07    6.50 
   9  -3  -1  114.94    6.51 
  -9  -3   1  118.24    6.69 
   9  -3  -1  122.33    6.56 
   9  -3  -1  121.09    6.50 
   9  -3  -1  130.92    6.47 
  -9  -3   1  134.14    6.52 
   9  -3  -1  146.23    6.67 
  -9  -3   1  129.11    6.48 
   9   3  -1  129.29    6.73 
  -9   3   1  136.16    6.59 
  -9   3   1  117.25    6.52 
  -9   3   1  121.03    6.46 
   9   3  -1  124.89    6.45 
   9   3  -1  124.68    6.45 
   9   3  -1  128.48    6.46 
  -9   3   1  138.59    6.43 
   9   3  -1  108.89    6.62 
  -7  -3   1    4.17    0.55 
  -7  -3   1    2.35    0.60 
  -7  -3   1    2.79    0.52 
  -7  -3   1    2.88    0.39 
   7  -3  -1    2.66    0.51 
   7  -3  -1    4.43    0.66 
   7  -3  -1    4.19    0.62 
  -7  -3   1    3.36    0.68 
   7  -3  -1    2.69    0.48 
   7  -3  -1    3.63    0.54 
   7   3  -1    3.35    0.46 
   7   3  -1    3.72    0.45 
  -7   3   1    2.65    0.45 
  -7   3   1    3.02    0.61 
   7   3  -1    3.55    0.74 
  -7   3   1    3.31    0.43 
  -7   3   1    2.58    0.55 
   7   3  -1    3.19    0.49 
  -7   3   1    4.36    0.55 
  -7   3   1    2.32    0.49 
   7   3  -1    3.65    0.66 
   5  -3  -1  172.55    9.62 
   5  -3  -1  172.38    9.66 
   5  -3  -1  194.03    9.62 
  -5  -3   1  182.31    9.75 
  -5  -3   1  200.69    9.62 
  -5  -3   1  193.24    9.57 
  -5  -3   1  165.68    9.68 
   5  -3  -1  186.14    9.67 
  -5  -3   1  195.88    9.59 
  -5  -3   1  200.00    9.62 
   5   3  -1  191.81    9.64 
   5   3  -1  192.17    9.59 
  -5   3   1  179.87    9.61 
   5   3  -1  191.78    9.60 
  -5   3   1  191.24    9.69 
  -5   3   1  209.42    9.57 
  -5   3   1  202.02    9.69 
  -5   3   1  208.01    9.66 
   5   3  -1  203.31    9.78 
  -5   3   1  189.77    9.61 
  -5   3   1  182.05    9.64 
   5   3  -1  189.77    9.57 
   5   3  -1  186.88    9.61 
   3  -3  -1    2.24    0.43 
  -3  -3   1    2.04    0.34 
   3  -3  -1    2.51    0.46 
  -3  -3   1    2.26    0.29 
  -3  -3   1    3.77    0.44 
   3  -3  -1    2.35    0.35 
  -3  -3   1    2.96    0.40 
  -3  -3   1    1.13    0.38 
  -3  -3   1    2.55    0.33 
   3  -3  -1    1.93    0.36 
  -3   3   1    2.98    0.47 
   3   3  -1    2.81    0.35 
  -3   3   1    1.82    0.35 
  -3   3   1    2.35    0.47 
   3   3  -1    3.00    0.35 
   3   3  -1    2.40    0.51 
  -3   3   1    2.89    0.40 
   3   3  -1    1.60    0.34 
  -3   3   1    2.34    0.35 
   3   3  -1    2.50    0.34 
  -3   3   1    2.28    0.30 
   3   3  -1    2.68    0.38 
  -3   3   1    3.25    0.52 
   3   3  -1    2.32    0.36 
  -1  -3   1  415.54   21.00 
  -1  -3   1  396.59   21.07 
  -1  -3   1  389.14   21.08 
   1  -3  -1  408.81   21.17 
   1  -3  -1  421.42   21.06 
   1  -3  -1  398.07   21.12 
   1  -3  -1  419.74   21.02 
   1  -3  -1  398.80   21.05 
   1  -3  -1  447.49   21.03 
   1  -3  -1  443.34   21.11 
  -1  -3   1  426.11   21.21 
  -1  -3   1  413.99   21.03 
  -1  -3   1  432.62   21.06 
  -1  -3   1  423.78   21.06 
  -1   3   1  438.95   21.19 
   1   3  -1  415.26   20.98 
   1   3  -1  430.46   21.18 
   1   3  -1  413.58   21.06 
   1   3  -1  406.91   21.02 
  -1   3   1  443.94   21.08 
   1   3  -1  411.88   21.04 
  -1   3   1  427.97   21.11 
   1   3  -1  421.12   21.06 
   1   3  -1  425.38   21.08 
  -1   3   1  442.59   21.13 
   1   3  -1  393.04   21.03 
  -1   3   1  475.54   21.07 
  -1   3   1  447.34   21.04 
  -1  -3  -1    0.80    0.28 
  -1  -3  -1    1.07    0.27 
   1  -3   1    0.11    0.40 
  -1  -3  -1    0.44    0.22 
  -1  -3  -1    1.09    0.25 
   1  -3   1    0.84    0.28 
  -1  -3  -1    1.21    0.35 
   1  -3   1    0.89    0.21 
   1  -3   1    0.75    0.32 
  -1  -3  -1    1.21    0.26 
   1  -3   1    1.10    0.25 
  -1  -3  -1    0.50    0.38 
   1   3   1    0.41    0.23 
  -1   3  -1    1.49    0.33 
  -1   3  -1    1.33    0.25 
  -1   3  -1    0.60    0.25 
  -1   3  -1    2.51    0.33 
   1   3   1    1.36    0.32 
   1   3   1    1.40    0.26 
  -1   3  -1    1.03    0.24 
   1   3   1    1.44    0.49 
   1   3   1    0.57    0.25 
  -3  -3  -1  131.70    6.08 
  -3  -3  -1  120.97    6.06 
   3  -3   1  112.01    6.14 
  -3  -3  -1  115.05    6.10 
  -3  -3  -1  113.07    6.24 
   3  -3   1  106.84    6.08 
   3  -3   1  116.87    5.97 
  -3  -3  -1  128.63    6.11 
  -3  -3  -1  120.41    6.06 
   3  -3   1  121.08    6.03 
   3   3   1  114.19    6.08 
   3   3   1  116.71    6.09 
  -3   3  -1  116.57    5.97 
   3   3   1  117.24    6.05 
   3   3   1  119.14    6.28 
  -3   3  -1  125.04    6.09 
  -3   3  -1  119.09    6.13 
  -3   3  -1  134.46    6.14 
  -3   3  -1  116.82    6.08 
   3   3   1  124.64    6.14 
  -3   3  -1  124.54    6.09 
   3   3   1  113.63    6.05 
   3   3   1  120.01    6.00 
  -3   3  -1  114.94    6.04 
  -5  -3  -1    3.34    0.55 
  -5  -3  -1    2.52    0.42 
   5  -3   1    1.91    0.40 
   5  -3   1    2.55    0.44 
   5  -3   1    2.35    0.45 
   5  -3   1    2.53    0.37 
  -5  -3  -1    2.08    0.38 
  -5  -3  -1    1.66    0.41 
  -5  -3  -1    2.86    0.42 
  -5  -3  -1    1.88    0.50 
   5  -3   1    2.32    0.37 
   5   3   1    2.43    0.40 
   5   3   1    3.11    0.41 
   5   3   1    3.97    0.76 
  -5   3  -1    3.64    0.49 
   5   3   1    2.58    0.34 
  -5   3  -1    3.83    0.41 
  -5   3  -1    2.48    0.46 
  -5   3  -1    3.02    0.46 
  -5   3  -1    1.82    0.38 
  -5   3  -1    3.74    0.43 
  -5   3  -1    2.86    0.41 
   5   3   1    2.81    0.30 
   5   3   1    2.66    0.46 
   7  -3   1  195.40   10.66 
  -7  -3  -1  214.89   10.62 
  -7  -3  -1  199.73   10.74 
  -7  -3  -1  219.29   10.66 
   7  -3   1  210.02   10.58 
   7  -3   1  197.48   10.66 
  -7  -3  -1  196.86   10.74 
  -7  -3  -1  206.36   10.60 
   7  -3   1  214.51   10.56 
   7  -3   1  230.27   10.67 
   7   3   1  209.62   10.72 
  -7   3  -1  216.89   10.63 
  -7   3  -1  224.02   10.71 
   7   3   1  233.62   10.89 
   7   3   1  211.84   10.61 
  -7   3  -1  198.16   10.52 
  -7   3  -1  201.76   10.61 
   7   3   1  208.64   10.62 
   7   3   1  200.98   10.65 
   7   3   1  216.51   10.55 
  -7   3  -1  202.65   10.59 
  -7   3  -1  223.39   10.67 
  -9  -3  -1    4.03    0.79 
   9  -3   1    3.35    0.57 
   9  -3   1    6.08    0.80 
   9  -3   1    4.37    0.64 
  -9  -3  -1    3.77    0.70 
   9  -3   1    4.35    0.60 
  -9  -3  -1    5.70    0.62 
  -9  -3  -1    3.37    0.59 
  -9   3  -1    4.29    0.54 
   9   3   1    4.88    0.64 
   9   3   1    5.56    1.04 
  -9   3  -1    5.44    0.69 
  -9   3  -1    4.70    0.71 
   9   3   1    2.82    0.49 
   9   3   1    4.42    0.50 
   9   3   1    4.57    0.69 
  -9   3  -1    3.69    0.59 
  11  -3   1   88.74    4.87 
  11  -3   1   98.50    5.05 
 -11  -3  -1   91.22    4.76 
 -11  -3  -1   94.52    4.93 
  11  -3   1   89.01    4.78 
 -11  -3  -1   87.11    5.04 
  11  -3   1   87.50    4.85 
 -11  -3  -1   89.66    4.86 
 -11   3  -1   86.11    4.84 
  11   3   1   88.58    4.71 
  11   3   1   89.65    4.86 
 -11   3  -1   88.38    4.73 
  11   3   1   98.80    5.19 
  11   3   1   92.68    4.79 
  13  -3   1    0.82    0.71 
 -13  -3  -1    1.69    0.68 
 -13  -3  -1    1.31    0.67 
  13  -3   1    0.51    0.61 
 -13  -3  -1    0.23    0.90 
  13   3   1    0.97    0.65 
  13   3   1    0.62    1.69 
 -13   3  -1    1.06    0.74 
  13   3   1    1.50    0.77 
 -13   3  -1    0.56    0.59 
  13   3   1    1.14    0.63 
 -15  -3  -1   51.12    3.01 
  15  -3   1   50.34    3.23 
  15  -3   1   52.19    3.07 
 -15  -3  -1   53.08    3.04 
  15  -3   1   50.07    3.20 
 -15  -3  -1   50.90    3.59 
  15   3   1   52.75    3.10 
  15   3   1   47.12    3.16 
 -15   3  -1   49.67    3.30 
 -15   3  -1   51.32    3.01 
  15   3   1   51.64    3.04 
  17  -3   1    1.44    1.15 
  17  -3   1    0.97    1.26 
  17  -3   1    1.46    1.09 
 -17  -3  -1    0.91    1.54 
 -17   3  -1    2.40    1.30 
  17   3   1   -0.01    1.27 
  17   3   1    0.24    1.05 
 -17   3  -1    1.89    1.04 
 -16  -4   1   21.19    2.35 
 -16  -4   1   25.21    3.13 
  16  -4  -1   22.77    2.41 
  16  -4  -1   23.52    2.43 
 -16   4   1   23.71    2.23 
  16   4  -1   24.39    2.13 
 -16   4   1   23.73    2.33 
  16   4  -1   23.16    2.15 
 -14  -4   1   22.93    1.87 
  14  -4  -1   21.81    2.10 
 -14  -4   1   18.22    2.49 
 -14  -4   1   20.63    1.95 
  14  -4  -1   21.59    2.02 
  14   4  -1   21.65    1.78 
  14   4  -1   23.12    2.01 
  14   4  -1   23.65    1.81 
 -14   4   1   20.92    1.85 
  12  -4  -1   23.65    1.57 
 -12  -4   1   25.30    2.15 
 -12  -4   1   20.67    2.12 
  12  -4  -1   20.25    1.82 
 -12  -4   1   20.61    1.82 
 -12  -4   1   21.17    1.63 
  12  -4  -1   19.35    1.78 
  12   4  -1   21.64    1.70 
  12   4  -1   19.42    1.85 
 -12   4   1   21.61    1.68 
 -12   4   1   21.33    1.72 
  12   4  -1   19.87    1.56 
  10  -4  -1   58.99    3.62 
  10  -4  -1   67.40    3.51 
 -10  -4   1   63.45    3.80 
  10  -4  -1   58.96    3.59 
 -10  -4   1   70.48    3.64 
 -10  -4   1   58.82    3.68 
 -10  -4   1   62.78    3.51 
  10  -4  -1   74.19    3.75 
  10   4  -1   60.25    3.47 
  10   4  -1   60.71    3.53 
  10   4  -1   63.86    3.55 
 -10   4   1   66.49    3.51 
  10   4  -1   63.56    3.46 
 -10   4   1   61.96    3.52 
 -10   4   1   72.02    3.51 
   8  -4  -1   83.29    4.02 
   8  -4  -1   72.42    3.98 
  -8  -4   1   71.43    3.91 
   8  -4  -1   66.34    4.00 
  -8  -4   1   76.03    3.85 
  -8  -4   1   76.09    3.96 
  -8  -4   1   67.68    4.10 
   8  -4  -1   75.79    3.95 
   8  -4  -1   74.53    3.97 
  -8  -4   1   66.03    4.07 
   8   4  -1   71.43    3.88 
  -8   4   1   82.23    4.08 
   8   4  -1   79.41    4.29 
   8   4  -1   72.13    3.92 
   8   4  -1   72.50    3.89 
  -8   4   1   70.95    3.89 
   8   4  -1   69.98    3.85 
  -8   4   1   72.49    4.02 
  -8   4   1   70.66    3.89 
  -8   4   1   79.91    3.87 
   8   4  -1   70.37    4.03 
  -8   4   1   70.77    3.93 
   6  -4  -1   25.03    1.47 
  -6  -4   1   21.70    1.67 
   6  -4  -1   19.81    1.52 
  -6  -4   1   22.12    1.43 
  -6  -4   1   22.71    1.52 
   6  -4  -1   21.68    1.47 
  -6  -4   1   20.33    1.31 
   6  -4  -1   20.92    1.48 
  -6  -4   1   21.00    1.42 
   6  -4  -1   18.68    1.44 
  -6  -4   1   20.41    1.55 
   6   4  -1   21.53    1.40 
  -6   4   1   20.78    1.54 
  -6   4   1   24.08    1.39 
   6   4  -1   22.72    1.47 
   6   4  -1   22.03    1.38 
  -6   4   1   23.79    1.60 
  -6   4   1   22.19    1.31 
  -6   4   1   23.11    1.37 
   6   4  -1   21.52    1.47 
   6   4  -1   21.05    1.35 
   6   4  -1   23.53    1.59 
  -6   4   1   21.25    1.51 
   6   4  -1   20.18    1.37 
  -6   4   1   20.87    1.40 
  -4  -4   1   53.20    2.77 
  -4  -4   1   50.59    2.73 
  -4  -4   1   48.74    2.97 
   4  -4  -1   47.10    2.76 
   4  -4  -1   55.55    2.73 
  -4  -4   1   50.96    2.80 
   4  -4  -1   48.13    2.85 
  -4  -4   1   51.77    2.69 
   4  -4  -1   47.38    2.85 
  -4  -4   1   48.91    2.77 
   4   4  -1   49.62    2.71 
  -4   4   1   54.26    2.82 
  -4   4   1   51.10    2.70 
   4   4  -1   51.70    3.03 
  -4   4   1   49.18    2.83 
   4   4  -1   53.54    2.84 
  -4   4   1   49.92    2.70 
  -4   4   1   52.68    2.89 
   4   4  -1   52.24    2.75 
  -4   4   1   51.62    2.74 
  -4   4   1   48.31    2.87 
   4   4  -1   48.25    2.73 
  -4   4   1   52.65    2.78 
   4   4  -1   50.46    2.70 
   2  -4  -1   94.25    4.44 
  -2  -4   1   86.50    4.51 
  -2  -4   1   90.76    4.45 
   2  -4  -1   92.16    4.60 
   2  -4  -1   80.90    4.62 
  -2  -4   1   86.95    4.46 
   2  -4  -1   84.97    4.50 
  -2  -4   1   89.44    4.51 
   2  -4  -1   78.60    4.58 
   2  -4  -1   83.58    4.49 
  -2  -4   1   82.37    4.44 
   2   4  -1   90.43    4.50 
   2   4  -1   82.25    4.44 
  -2   4   1   86.53    4.47 
  -2   4   1   87.43    4.52 
   2   4  -1   83.41    4.49 
   2   4  -1   85.30    4.54 
   2   4  -1   89.85    4.71 
   2   4  -1   84.23    4.47 
   2   4  -1   83.93    4.39 
  -2   4   1   85.29    4.56 
  -2   4   1   85.95    4.66 
   2   4  -1   85.86    4.48 
  -2   4   1   91.78    4.61 
  -2   4   1   94.60    4.53 
   0  -4  -1   95.56    5.17 
   0  -4   1   96.24    5.19 
   0  -4   1   94.38    5.23 
   0  -4  -1  101.42    5.16 
   0  -4  -1  107.35    5.26 
   0  -4   1  104.22    5.41 
   0  -4   1   94.26    5.21 
   0  -4   1  102.77    5.15 
   0  -4  -1   98.16    5.36 
   0  -4   1  105.26    5.22 
   0  -4  -1  108.27    5.15 
   0  -4  -1   92.25    5.28 
   0  -4  -1  101.61    5.18 
   0  -4  -1  101.15    5.19 
   0  -4  -1  102.35    5.12 
   0   4  -1  102.32    5.20 
   0   4  -1   96.91    5.17 
   0   4   1  113.79    5.20 
   0   4   1   98.07    5.17 
   0   4   1   98.73    5.21 
   0   4  -1  109.26    5.37 
   0   4   1  100.97    5.27 
   0   4   1   99.76    5.24 
   0   4  -1   96.37    5.19 
   0   4  -1   97.97    5.17 
   0   4  -1  104.24    5.24 
   0   4   1  101.80    5.40 
  -2  -4  -1   83.94    4.08 
   2  -4   1   81.26    3.96 
   2  -4   1   80.91    4.08 
  -2  -4  -1   73.61    3.97 
  -2  -4  -1   78.73    4.02 
   2  -4   1   71.21    4.05 
  -2  -4  -1   77.33    4.00 
   2  -4   1   74.73    4.07 
   2  -4   1   78.70    3.97 
  -2  -4  -1   70.07    4.22 
  -2  -4  -1   76.92    4.00 
   2  -4   1   70.11    4.15 
   2   4   1   72.19    4.03 
  -2   4  -1   81.87    4.07 
  -2   4  -1   73.76    4.01 
  -2   4  -1   75.86    4.01 
   2   4   1   77.72    4.10 
  -2   4  -1   83.57    4.07 
  -2   4  -1   75.21    4.15 
  -2   4  -1   75.40    4.00 
   2   4   1   79.14    4.31 
   2   4   1   79.41    3.99 
   4  -4   1   44.90    2.45 
   4  -4   1   50.08    2.66 
   4  -4   1   42.77    2.54 
   4  -4   1   46.95    2.32 
  -4  -4  -1   44.53    2.49 
  -4  -4  -1   47.09    2.51 
  -4  -4  -1   46.23    2.54 
  -4  -4  -1   45.77    2.54 
   4  -4   1   45.83    2.54 
  -4  -4  -1   41.74    2.75 
  -4   4  -1   43.62    2.51 
   4   4   1   50.17    2.90 
  -4   4  -1   47.02    2.60 
  -4   4  -1   44.09    2.33 
   4   4   1   45.08    2.40 
   4   4   1   45.28    2.48 
  -4   4  -1   45.28    2.54 
  -4   4  -1   43.70    2.48 
   4   4   1   41.26    2.45 
  -4   4  -1   45.27    2.57 
  -4   4  -1   48.19    2.56 
   4   4   1   45.02    2.59 
   4   4   1   47.19    2.48 
   4   4   1   43.61    2.52 
  -4   4  -1   45.19    2.47 
   6  -4   1   73.55    3.64 
   6  -4   1   67.31    3.78 
  -6  -4  -1   65.31    4.25 
  -6  -4  -1   76.71    3.80 
  -6  -4  -1   68.47    3.76 
   6  -4   1   65.05    3.79 
  -6  -4  -1   69.97    3.74 
   6  -4   1   68.28    3.79 
   6  -4   1   68.42    3.70 
  -6  -4  -1   66.92    3.83 
  -6  -4  -1   67.11    3.70 
   6   4   1   74.10    3.65 
   6   4   1   75.29    3.79 
   6   4   1   65.49    3.71 
  -6   4  -1   71.26    3.71 
   6   4   1   72.93    3.74 
   6   4   1   71.25    3.63 
  -6   4  -1   76.55    3.87 
  -6   4  -1   64.24    3.77 
   6   4   1   68.39    3.77 
   6   4   1   76.21    4.16 
  -6   4  -1   73.70    3.81 
  -6   4  -1   65.49    3.76 
  -6   4  -1   73.45    3.78 
  -6   4  -1   68.74    3.64 
   6   4   1   79.13    3.88 
  -8  -4  -1   73.15    3.76 
  -8  -4  -1   75.37    3.88 
   8  -4   1   63.67    3.85 
   8  -4   1   69.34    3.85 
  -8  -4  -1   64.56    3.95 
  -8  -4  -1   68.23    3.80 
   8  -4   1   78.99    3.75 
  -8  -4  -1   69.36    3.95 
   8  -4   1   78.46    3.78 
  -8   4  -1   71.90    3.76 
  -8   4  -1   69.16    3.73 
   8   4   1   71.35    3.68 
   8   4   1   66.19    3.80 
  -8   4  -1   66.24    3.67 
   8   4   1   66.38    3.91 
   8   4   1   64.82    3.76 
   8   4   1   80.13    4.32 
   8   4   1   78.53    3.72 
  -8   4  -1   71.39    3.85 
  -8   4  -1   72.82    3.85 
   8   4   1   67.42    3.82 
 -10  -4  -1   33.08    2.21 
  10  -4   1   34.16    2.21 
  10  -4   1   30.61    2.18 
 -10  -4  -1   34.93    2.08 
 -10  -4  -1   35.46    2.28 
 -10  -4  -1   30.85    2.35 
 -10  -4  -1   38.63    2.38 
  10  -4   1   39.71    2.24 
 -10   4  -1   33.63    2.02 
  10   4   1   32.99    1.96 
 -10   4  -1   33.74    2.20 
 -10   4  -1   31.36    2.15 
  10   4   1   31.04    2.07 
  10   4   1   40.99    3.15 
  10   4   1   33.78    2.32 
  12  -4   1   14.48    1.53 
 -12  -4  -1   15.61    1.58 
  12  -4   1   15.19    1.59 
 -12  -4  -1   17.45    2.03 
 -12  -4  -1   18.41    1.44 
  12   4   1   14.58    1.50 
 -12   4  -1   14.75    1.34 
  12   4   1   17.09    1.45 
 -12   4  -1   15.96    1.46 
  12   4   1   16.69    1.30 
  14  -4   1   20.53    2.01 
 -14  -4  -1   26.23    1.89 
  14  -4   1   23.09    2.12 
 -14  -4  -1   22.61    2.46 
 -14  -4  -1   23.01    1.99 
  14   4   1   26.97    1.83 
  14   4   1   23.21    1.92 
 -14   4  -1   24.47    2.00 
 -14   4  -1   23.25    1.82 
  14   4   1   23.64    2.05 
  16  -4   1   25.84    2.45 
 -16  -4  -1   24.74    3.03 
  16  -4   1   25.19    2.49 
 -16   4  -1   25.03    2.12 
  16   4   1   25.07    2.45 
 -16   4  -1   27.02    2.34 
  16   4   1   23.18    2.25 
  15  -5  -1   62.02    4.18 
  15  -5  -1   68.69    4.17 
 -15  -5   1   72.47    4.73 
 -15  -5   1   60.89    4.16 
  15   5  -1   70.57    3.94 
 -15   5   1   71.45    4.01 
 -15   5   1   73.14    4.04 
  15   5  -1   68.67    3.99 
 -13  -5   1   16.99    2.29 
  13  -5  -1   14.12    1.77 
 -13  -5   1   18.32    1.99 
  13  -5  -1   16.74    1.90 
  13   5  -1   17.28    1.60 
 -13   5   1   18.40    1.74 
  13   5  -1   17.77    1.66 
 -13   5   1   19.17    1.64 
  13   5  -1   18.03    1.86 
 -11  -5   1   91.71    5.38 
  11  -5  -1  104.33    5.16 
  11  -5  -1  101.85    5.30 
  11  -5  -1   96.24    5.34 
 -11  -5   1   94.32    5.56 
 -11  -5   1  102.43    5.13 
  11   5  -1   94.10    5.14 
 -11   5   1  101.36    5.16 
  11   5  -1   89.83    5.18 
  11   5  -1   88.01    5.29 
  11   5  -1   96.81    5.10 
 -11   5   1   96.29    5.13 
 -11   5   1   99.05    5.34 
   9  -5  -1   17.47    1.55 
  -9  -5   1   18.48    1.35 
  -9  -5   1   16.45    1.74 
   9  -5  -1   18.18    1.52 
  -9  -5   1   18.86    1.67 
   9  -5  -1   17.30    1.63 
  -9  -5   1   17.68    1.70 
   9  -5  -1   20.12    1.63 
  -9   5   1   15.61    1.66 
  -9   5   1   19.58    1.53 
  -9   5   1   18.24    1.33 
  -9   5   1   18.91    1.43 
  -9   5   1   16.98    1.61 
   9   5  -1   18.54    1.31 
  -9   5   1   18.35    1.27 
   9   5  -1   16.88    1.48 
   9   5  -1   16.92    1.58 
   9   5  -1   16.25    1.36 
  -7  -5   1  173.85    9.18 
   7  -5  -1  162.74    9.11 
   7  -5  -1  194.15    8.99 
   7  -5  -1  174.31    9.09 
  -7  -5   1  175.18    9.11 
  -7  -5   1  179.04    8.96 
   7  -5  -1  201.93    9.47 
  -7  -5   1  161.66    9.23 
   7  -5  -1  174.11    9.07 
  -7   5   1  183.38    9.15 
  -7   5   1  173.29    8.95 
   7   5  -1  164.76    8.96 
  -7   5   1  170.23    9.10 
   7   5  -1  187.05    9.14 
  -7   5   1  173.42    8.93 
  -7   5   1  172.58    9.01 
   7   5  -1  176.42    9.02 
   7   5  -1  181.16    9.00 
   7   5  -1  173.16    8.99 
  -7   5   1  168.58    9.08 
   7   5  -1  166.98    9.01 
  -7   5   1  191.21    8.99 
   7   5  -1  187.17    8.98 
  -5  -5   1    1.71    0.53 
   5  -5  -1    1.41    0.61 
  -5  -5   1    1.69    0.69 
  -5  -5   1    2.02    0.41 
   5  -5  -1    2.18    0.62 
  -5  -5   1    1.10    0.52 
  -5  -5   1    1.30    0.73 
   5  -5  -1    1.91    0.58 
   5  -5  -1    1.81    0.50 
   5  -5  -1    3.44    0.49 
  -5  -5   1    2.31    0.52 
   5   5  -1    1.94    0.50 
  -5   5   1    2.18    0.43 
  -5   5   1    1.21    0.72 
   5   5  -1    2.90    1.00 
  -5   5   1    1.69    0.51 
  -5   5   1    3.01    0.58 
  -5   5   1    2.39    0.57 
   5   5  -1    2.78    0.50 
   5   5  -1    2.37    0.55 
  -5   5   1    1.87    0.70 
   5   5  -1    2.44    0.47 
   5   5  -1    3.56    0.55 
   5   5  -1    2.06    0.50 
   5   5  -1    2.25    0.67 
  -5   5   1    1.38    0.72 
  -3  -5   1  207.94   11.70 
   3  -5  -1  212.68   11.58 
   3  -5  -1  248.18   11.39 
  -3  -5   1  237.47   11.43 
  -3  -5   1  223.89   11.44 
   3  -5  -1  215.03   11.48 
   3  -5  -1  219.49   11.62 
   3  -5  -1  230.64   11.48 
  -3  -5   1  232.29   11.49 
  -3  -5   1  247.60   11.52 
  -3  -5   1  197.17   11.52 
  -3   5   1  231.94   11.55 
   3   5  -1  223.90   11.46 
   3   5  -1  225.26   11.37 
  -3   5   1  229.14   11.50 
  -3   5   1  221.85   11.63 
   3   5  -1  232.61   11.71 
   3   5  -1  225.58   11.47 
   3   5  -1  229.38   11.54 
   3   5  -1  218.23   11.42 
  -3   5   1  250.21   11.60 
   3   5  -1  208.88   11.46 
  -3   5   1  249.42   11.52 
   3   5  -1  232.99   11.46 
  -3   5   1  226.99   11.44 
  -1  -5   1    4.32    0.62 
   1  -5  -1    2.84    0.61 
   1  -5  -1    3.65    0.50 
  -1  -5   1    4.67    0.54 
  -1  -5   1    4.47    0.44 
  -1  -5   1    3.78    0.59 
   1  -5  -1    5.20    0.67 
  -1  -5   1    4.03    0.56 
   1  -5  -1    4.62    0.74 
   1  -5  -1    4.78    0.55 
   1  -5  -1    3.79    0.61 
   1  -5  -1    4.25    0.54 
   1  -5  -1    4.80    0.49 
   1  -5  -1    4.58    0.58 
  -1  -5   1    3.73    0.75 
   1   5  -1    3.95    0.51 
   1   5  -1    6.13    0.99 
  -1   5   1    6.06    0.79 
  -1   5   1    4.06    0.62 
  -1   5   1    6.29    0.66 
   1   5  -1    3.47    0.63 
  -1   5   1    4.09    0.84 
   1   5  -1    3.92    0.54 
   1   5  -1    4.48    0.57 
  -1   5   1    4.45    0.54 
  -1   5   1    6.06    0.63 
   1   5  -1    3.61    0.50 
   1  -5   1  168.04    8.68 
   1  -5   1  163.54    8.75 
  -1  -5  -1  157.44    8.89 
   1  -5   1  154.83    8.86 
   1  -5   1  177.64    8.73 
  -1  -5  -1  157.67    8.65 
  -1  -5  -1  169.66    8.66 
  -1  -5  -1  190.71    8.63 
   1  -5   1  168.49    8.63 
  -1  -5  -1  171.07    8.62 
   1  -5   1  164.90    8.72 
  -1  -5  -1  177.95    8.68 
  -1  -5  -1  152.90    8.78 
  -1  -5  -1  164.45    8.67 
   1   5   1  183.16    8.66 
  -1   5  -1  176.16    8.69 
  -1   5  -1  165.57    8.86 
  -1   5  -1  179.06    8.74 
   1   5   1  174.79    8.67 
  -1   5  -1  175.24    8.68 
  -1   5  -1  168.45    8.68 
   1   5   1  180.62    8.98 
   1   5   1  170.33    8.72 
   1   5   1  177.93    8.70 
   1   5   1  173.19    8.78 
  -1   5  -1  172.96    8.71 
   3  -5   1   90.47    4.78 
  -3  -5  -1   86.74    4.59 
  -3  -5  -1   86.21    4.56 
  -3  -5  -1   89.60    4.59 
  -3  -5  -1   92.57    4.65 
   3  -5   1   89.22    4.53 
  -3  -5  -1   76.00    4.81 
   3  -5   1   89.45    4.51 
   3  -5   1   81.77    4.65 
   3  -5   1   83.99    4.63 
   3   5   1   89.54    4.59 
  -3   5  -1   86.99    4.57 
   3   5   1   88.72    4.51 
  -3   5  -1   83.49    4.58 
   3   5   1   82.92    4.55 
   3   5   1   95.44    5.02 
   3   5   1   79.94    4.60 
   3   5   1   91.76    4.71 
  -3   5  -1   86.43    4.57 
  -3   5  -1   89.35    4.65 
  -3   5  -1   91.99    4.68 
  -3   5  -1   89.79    4.77 
  -5  -5  -1  234.67   11.64 
  -5  -5  -1  215.24   11.65 
  -5  -5  -1  218.01   11.91 
  -5  -5  -1  230.77   11.66 
   5  -5   1  213.09   11.71 
  -5  -5  -1  221.64   11.69 
   5  -5   1  217.15   11.70 
   5  -5   1  245.62   11.80 
   5  -5   1  226.83   11.62 
  -5  -5  -1  248.51   11.72 
  -5   5  -1  230.66   11.73 
   5   5   1  218.20   11.63 
   5   5   1  220.26   11.64 
  -5   5  -1  225.94   11.68 
   5   5   1  253.88   12.07 
  -5   5  -1  247.66   11.71 
   5   5   1  248.36   11.58 
   5   5   1  232.86   11.65 
   5   5   1  237.47   11.57 
  -5   5  -1  226.16   11.64 
   5   5   1  216.16   11.68 
   5   5   1  248.19   11.77 
  -5   5  -1  232.93   11.72 
  -5   5  -1  226.24   11.65 
   7  -5   1    3.84    0.74 
  -7  -5  -1    2.36    0.80 
   7  -5   1    1.93    0.40 
  -7  -5  -1    1.27    0.65 
  -7  -5  -1    3.80    0.78 
  -7  -5  -1    1.79    0.56 
   7  -5   1    2.28    0.63 
   7  -5   1    1.61    0.57 
  -7  -5  -1    1.88    0.62 
   7   5   1    2.42    0.69 
   7   5   1    1.98    0.71 
   7   5   1    2.50    0.42 
  -7   5  -1    2.18    0.43 
  -7   5  -1    1.91    0.50 
   7   5   1    2.59    0.63 
   7   5   1    2.76    0.48 
   7   5   1    2.27    0.82 
  -7   5  -1    3.81    0.69 
  -7   5  -1    4.03    0.60 
   7   5   1    2.47    0.52 
  -7   5  -1    1.78    0.63 
  -9  -5  -1  150.60    7.67 
  -9  -5  -1  140.55    7.73 
  -9  -5  -1  151.02    7.80 
   9  -5   1  143.76    7.79 
  -9  -5  -1  141.00    7.84 
   9  -5   1  164.04    7.62 
  -9  -5  -1  142.97    7.91 
   9  -5   1  163.40    7.67 
   9  -5   1  145.17    7.76 
   9   5   1  145.38    7.69 
   9   5   1  153.23    7.58 
   9   5   1  164.71    7.95 
  -9   5  -1  143.14    7.74 
   9   5   1  158.62    7.61 
  -9   5  -1  146.05    7.66 
  -9   5  -1  148.51    7.60 
  -9   5  -1  140.19    7.60 
   9   5   1  145.27    7.74 
 -11  -5  -1    2.49    0.73 
 -11  -5  -1    2.91    1.09 
  11  -5   1    3.49    0.89 
  11  -5   1    4.73    0.90 
 -11  -5  -1    1.90    0.93 
 -11   5  -1    4.82    1.13 
  11   5   1    2.61    0.77 
 -11   5  -1    2.70    0.65 
 -11   5  -1    3.56    0.74 
  11   5   1    3.59    0.61 
  11   5   1    2.46    0.70 
  11   5   1    2.95    1.37 
  13  -5   1   63.82    3.76 
 -13  -5  -1   59.64    3.80 
  13  -5   1   63.13    3.75 
 -13  -5  -1   63.26    3.60 
 -13  -5  -1   62.01    3.99 
  13   5   1   59.16    3.69 
  13   5   1   59.80    3.60 
 -13   5  -1   65.66    3.58 
  13   5   1   63.69    3.45 
 -13   5  -1   63.95    3.55 
 -15  -5  -1   13.60    2.07 
 -15  -5  -1   15.25    2.01 
  15  -5   1    9.77    1.40 
  15  -5   1   12.05    1.64 
 -15   5  -1   14.32    1.45 
 -15   5  -1   16.15    1.83 
  15   5   1   11.63    1.71 
  15   5   1   13.31    1.44 
  14  -6  -1   63.39    3.99 
 -14  -6   1   61.96    4.14 
 -14  -6   1   65.30    4.45 
  14  -6  -1   64.62    4.15 
 -14   6   1   67.14    3.61 
  14   6  -1   62.26    3.81 
  14   6  -1   63.82    3.73 
 -14   6   1   63.65    3.86 
 -12  -6   1   58.48    3.72 
 -12  -6   1   54.20    3.74 
  12  -6  -1   55.43    3.46 
  12  -6  -1   55.25    3.59 
  12   6  -1   58.06    3.24 
 -12   6   1   54.72    3.24 
 -12   6   1   61.61    3.36 
 -12   6   1   54.33    3.13 
  12   6  -1   51.48    3.28 
  10  -6  -1   80.02    4.56 
  10  -6  -1   76.20    4.44 
  10  -6  -1   86.78    4.46 
 -10  -6   1   75.43    4.68 
 -10  -6   1   75.65    4.42 
 -10  -6   1   80.52    4.55 
 -10   6   1   82.30    4.22 
 -10   6   1   82.53    4.38 
 -10   6   1   78.41    4.24 
  10   6  -1   77.00    4.38 
  10   6  -1   81.04    4.26 
 -10   6   1   77.54    4.53 
  10   6  -1   77.51    4.33 
   8  -6  -1   90.01    4.16 
   8  -6  -1   76.33    4.42 
  -8  -6   1   74.94    4.59 
  -8  -6   1   81.90    4.17 
  -8  -6   1   83.01    4.37 
   8  -6  -1   79.60    4.37 
  -8  -6   1   78.90    4.34 
   8  -6  -1   73.56    4.28 
  -8   6   1   71.36    4.39 
  -8   6   1   77.76    4.11 
   8   6  -1   75.03    4.25 
  -8   6   1   77.42    4.11 
   8   6  -1   78.21    4.14 
   8   6  -1   74.25    4.18 
   8   6  -1   73.82    4.45 
  -8   6   1   74.62    4.36 
  -8   6   1   78.87    4.24 
  -6  -6   1   85.41    4.25 
  -6  -6   1   76.09    4.64 
   6  -6  -1   84.49    4.48 
   6  -6  -1   75.40    4.33 
  -6  -6   1   81.06    4.33 
   6  -6  -1   78.30    4.45 
  -6   6   1   82.59    4.22 
   6   6  -1   78.36    4.23 
   6   6  -1   76.49    4.27 
   6   6  -1   79.88    4.29 
  -6   6   1   83.45    4.33 
  -6   6   1   84.20    4.34 
  -6   6   1   76.18    4.42 
   6   6  -1   82.96    4.26 
  -6   6   1   74.71    4.51 
   6   6  -1   80.57    4.30 
   6   6  -1   81.70    4.32 
  -4  -6   1  121.25    6.34 
  -4  -6   1  129.09    6.46 
   4  -6  -1  120.42    6.41 
   4  -6  -1  120.34    6.58 
   4  -6  -1  134.65    6.24 
  -4  -6   1  129.88    6.35 
  -4  -6   1  114.60    6.70 
   4  -6  -1  118.60    6.55 
  -4   6   1  117.37    6.64 
  -4   6   1  129.52    6.45 
   4   6  -1  120.23    6.40 
  -4   6   1  128.19    6.36 
   4   6  -1  124.34    6.39 
   4   6  -1  118.81    6.27 
  -4   6   1  129.71    6.59 
   4   6  -1  120.67    6.38 
  -4   6   1  119.99    6.48 
  -2  -6   1   75.80    3.89 
   2  -6  -1   69.65    4.10 
   2  -6  -1   67.71    4.22 
  -2  -6   1   78.21    4.00 
   2  -6  -1   67.00    4.04 
  -2  -6   1   80.27    4.14 
   2  -6  -1   83.29    4.25 
   2  -6  -1   80.20    3.85 
   2  -6  -1   81.46    3.89 
   2  -6  -1   79.08    4.03 
  -2  -6   1   66.83    4.33 
   2  -6  -1   74.63    4.32 
  -2   6   1   78.61    4.04 
  -2   6   1   79.64    4.10 
   2   6  -1   75.16    4.06 
   2   6  -1   76.32    4.08 
   2   6  -1   72.86    4.05 
  -2   6   1   78.77    4.13 
  -2   6   1   73.50    4.14 
  -2   6   1   74.88    4.42 
  -2   6   1   78.14    4.29 
   2   6  -1   73.70    4.19 
   0  -6  -1   70.85    3.89 
   0  -6   1   63.27    4.12 
   0  -6   1   78.10    3.98 
   0  -6   1   67.21    3.93 
   0  -6  -1   71.03    3.92 
   0  -6  -1   76.86    3.71 
   0  -6  -1   69.97    4.14 
   0  -6  -1   75.04    3.86 
   0  -6  -1   64.88    4.04 
   0  -6  -1   78.10    3.74 
   0  -6  -1   79.32    4.07 
   0  -6   1   67.05    3.98 
   0  -6  -1   67.06    3.87 
   0   6   1   74.10    4.06 
   0   6   1   76.57    3.87 
   0   6   1   77.10    3.90 
   0   6  -1   73.43    3.88 
   0   6  -1   70.97    4.01 
   0   6  -1   72.38    4.28 
   0   6  -1   68.05    3.87 
   0   6   1   73.96    3.92 
   0   6  -1   69.52    3.94 
   0   6  -1   69.09    3.87 
  -2  -6  -1  191.53    9.42 
   2  -6   1  193.60    9.59 
   2  -6   1  191.66    9.75 
   2  -6   1  168.19    9.59 
  -2  -6  -1  209.25    9.44 
  -2  -6  -1  172.51    9.76 
  -2  -6  -1  205.23    9.63 
  -2  -6  -1  178.74    9.63 
  -2  -6  -1  176.25    9.51 
   2  -6   1  170.05    9.55 
   2  -6   1  191.98    9.45 
  -2   6  -1  177.42    9.73 
  -2   6  -1  183.90    9.51 
   2   6   1  186.30    9.63 
   2   6   1  189.05    9.53 
   2   6   1  189.96    9.49 
  -2   6  -1  187.41    9.51 
   2   6   1  180.41    9.55 
   2   6   1  195.79    9.47 
  -2   6  -1  189.51    9.51 
  -4  -6  -1  190.17    9.33 
   4  -6   1  186.83    9.54 
  -4  -6  -1  167.85    9.62 
   4  -6   1  171.79    9.39 
  -4  -6  -1  171.83    9.34 
   4  -6   1  193.01    9.27 
  -4  -6  -1  199.95    9.44 
  -4  -6  -1  189.52    9.32 
   4  -6   1  177.28    9.43 
  -4   6  -1  180.41    9.33 
   4   6   1  198.64    9.28 
  -4   6  -1  180.30    9.35 
   4   6   1  194.28    9.49 
  -4   6  -1  177.91    9.32 
   4   6   1  176.04    9.32 
  -4   6  -1  177.10    9.49 
   4   6   1  178.73    9.38 
  -6  -6  -1   88.31    4.69 
  -6  -6  -1   80.45    4.99 
   6  -6   1   92.15    4.85 
   6  -6   1   86.61    4.75 
  -6  -6  -1   86.94    4.86 
  -6  -6  -1   91.49    4.66 
   6  -6   1   84.36    4.73 
  -6  -6  -1   94.45    4.80 
  -6   6  -1   85.57    4.62 
   6   6   1   84.80    4.64 
   6   6   1   94.13    4.56 
  -6   6  -1   82.83    4.77 
   6   6   1   93.27    4.92 
   6   6   1   82.81    4.64 
   6   6   1   92.79    4.55 
  -6   6  -1   89.13    4.66 
  -6   6  -1   80.97    4.65 
   6   6   1   84.54    4.69 
   8  -6   1   64.93    2.95 
   8  -6   1   54.27    3.34 
  -8  -6  -1   56.80    3.19 
  -8  -6  -1   58.31    3.46 
  -8  -6  -1   55.12    3.56 
  -8  -6  -1   56.16    3.33 
   8  -6   1   60.34    3.33 
   8  -6   1   53.85    3.26 
   8   6   1   60.40    3.11 
  -8   6  -1   56.23    2.96 
   8   6   1   61.81    3.69 
  -8   6  -1   56.99    3.15 
   8   6   1   52.39    3.17 
  -8   6  -1   53.40    3.18 
   8   6   1   57.85    3.04 
   8   6   1   50.32    3.24 
  -8   6  -1   54.85    3.30 
  -8   6  -1   52.13    3.61 
  10  -6   1   59.51    3.15 
 -10  -6  -1   55.15    3.40 
 -10  -6  -1   56.90    3.16 
  10  -6   1   53.66    3.29 
  10  -6   1   53.53    3.41 
 -10   6  -1   52.82    3.12 
  10   6   1   54.85    3.27 
  10   6   1   50.13    3.16 
 -10   6  -1   55.13    3.18 
 -10   6  -1   54.45    2.97 
  10   6   1   55.17    3.00 
  12  -6   1   53.96    3.37 
 -12  -6  -1   56.14    3.26 
  12  -6   1   52.83    3.46 
 -12  -6  -1   50.23    3.55 
 -12  -6  -1   53.73    3.63 
 -12   6  -1   52.81    3.19 
  12   6   1   53.61    3.24 
  12   6   1   49.34    3.30 
  12   6   1   58.81    3.06 
 -12   6  -1   54.75    3.14 
 -14  -6  -1   35.65    3.26 
 -14  -6  -1   32.55    3.00 
  14  -6   1   40.20    2.91 
  14  -6   1   35.37    2.99 
 -14   6  -1   37.85    2.60 
  14   6   1   36.57    2.66 
 -13  -7   1   97.15    5.60 
  13  -7  -1   91.52    5.54 
 -13  -7   1   83.87    5.56 
  13  -7  -1   95.10    5.38 
 -13   7   1   96.32    4.98 
  13   7  -1   94.36    5.08 
  13   7  -1   88.06    5.16 
 -13   7   1   94.42    5.25 
  11  -7  -1   24.55    2.41 
 -11  -7   1   19.21    2.12 
  11  -7  -1   23.75    2.17 
 -11  -7   1   17.93    2.56 
  11   7  -1   22.55    1.94 
 -11   7   1   20.90    1.68 
 -11   7   1   20.14    2.03 
   9  -7  -1  119.49    6.54 
   9  -7  -1  124.57    6.67 
  -9  -7   1  117.08    6.89 
   9  -7  -1  128.15    6.63 
  -9  -7   1  125.02    6.70 
   9   7  -1  121.66    6.38 
  -9   7   1  124.95    6.50 
   9   7  -1  118.18    6.44 
  -9   7   1  121.75    6.34 
   7  -7  -1   34.92    2.50 
  -7  -7   1   30.97    2.73 
   7  -7  -1   32.40    2.50 
   7  -7  -1   34.25    2.25 
  -7  -7   1   33.38    2.23 
  -7  -7   1   34.89    2.13 
  -7   7   1   34.36    2.06 
  -7   7   1   32.67    2.35 
  -7   7   1   31.12    2.39 
   7   7  -1   31.34    2.19 
   7   7  -1   34.31    2.12 
   7   7  -1   31.93    2.40 
   5  -7  -1  142.99    7.75 
  -5  -7   1  152.01    7.54 
  -5  -7   1  156.44    7.71 
  -5  -7   1  136.51    7.94 
   5  -7  -1  141.08    7.62 
   5  -7  -1  146.44    7.81 
  -5  -7   1  156.12    7.55 
  -5   7   1  149.38    7.54 
   5   7  -1  155.13    7.57 
   5   7  -1  136.27    7.45 
  -5   7   1  142.46    7.68 
  -5   7   1  156.11    7.66 
   5   7  -1  140.00    7.60 
   5   7  -1  143.70    7.60 
   3  -7  -1   23.50    2.06 
   3  -7  -1   25.06    2.10 
   3  -7  -1   27.62    1.72 
  -3  -7   1   26.64    1.71 
  -3  -7   1   25.58    1.50 
  -3  -7   1   20.31    2.14 
  -3  -7   1   27.98    1.98 
   3  -7  -1   22.58    1.76 
  -3   7   1   23.70    2.08 
   3   7  -1   24.30    1.76 
   3   7  -1   25.42    1.81 
   3   7  -1   25.98    1.78 
  -3   7   1   24.34    1.83 
  -3   7   1   24.29    1.70 
   1  -7  -1  226.22   10.76 
   1  -7  -1  204.64   10.82 
   1  -7  -1  221.40   10.56 
  -1  -7   1  223.46   10.69 
   1  -7  -1  227.50   10.33 
   1  -7  -1  178.96   10.55 
   1  -7  -1  178.85   10.70 
  -1  -7   1  195.90   10.85 
  -1   7   1  218.69   10.62 
  -1   7   1  196.65   10.91 
   1   7  -1  198.18   10.56 
   1   7  -1  208.88   10.59 
   1   7  -1  211.83   10.58 
   1  -7   1   23.47    1.95 
  -1  -7  -1   22.19    2.04 
   1  -7   1   23.84    2.08 
  -1  -7  -1   25.76    2.18 
  -1  -7  -1   23.64    1.72 
   1  -7   1   20.81    1.79 
   1  -7   1   24.80    1.64 
   1  -7   1   22.09    1.89 
  -1  -7  -1   20.74    1.70 
  -1  -7  -1   22.37    2.07 
   1   7   1   25.30    1.71 
   1   7   1   22.91    1.98 
  -1   7  -1   24.68    1.70 
  -1   7  -1   23.27    1.71 
  -1   7  -1   27.97    1.74 
   1   7   1   24.97    1.79 
   1   7   1   27.26    1.85 
  -3  -7  -1  205.59   11.25 
  -3  -7  -1  237.11   11.11 
   3  -7   1  198.43   11.00 
   3  -7   1  213.83   11.18 
  -3  -7  -1  225.44   10.96 
  -3  -7  -1  236.38   10.87 
   3  -7   1  198.73   11.05 
   3  -7   1  226.15   10.88 
  -3  -7  -1  223.16   10.84 
  -3   7  -1  209.08   10.94 
   3   7   1  214.43   10.97 
   3   7   1  198.47   10.98 
   3   7   1  220.77   10.91 
   3   7   1  213.05   10.93 
  -3   7  -1  202.57   10.95 
  -3   7  -1  212.36   10.94 
   5  -7   1   29.76    2.18 
  -5  -7  -1   33.02    2.47 
   5  -7   1   35.51    1.98 
  -5  -7  -1   32.50    2.12 
   5  -7   1   31.60    2.19 
  -5  -7  -1   26.70    2.51 
  -5  -7  -1   31.76    2.02 
   5  -7   1   32.53    2.37 
  -5   7  -1   32.34    2.07 
   5   7   1   31.53    1.92 
   5   7   1   29.92    2.11 
  -5   7  -1   29.80    2.15 
  -5   7  -1   30.30    2.03 
   5   7   1   30.20    2.06 
   5   7   1   34.10    2.07 
  -7  -7  -1  121.41    7.13 
  -7  -7  -1  123.18    7.60 
   7  -7   1  120.53    6.85 
  -7  -7  -1  137.93    6.80 
   7  -7   1  127.55    6.83 
  -7  -7  -1  131.30    6.74 
   7  -7   1  137.32    6.92 
  -7   7  -1  125.15    6.70 
  -7   7  -1  136.05    6.78 
   7   7   1  135.95    6.61 
   7   7   1  122.28    6.78 
   7   7   1  125.61    6.73 
   9  -7   1   24.75    2.17 
   9  -7   1   24.23    2.16 
  -9  -7  -1   25.46    2.00 
  -9  -7  -1   23.15    2.51 
  -9  -7  -1   24.54    2.14 
   9  -7   1   28.15    2.13 
   9   7   1   25.74    1.96 
  -9   7  -1   24.06    1.96 
   9   7   1   25.51    2.02 
  -9   7  -1   27.31    1.87 
   9   7   1   28.09    1.69 
  11  -7   1   94.42    5.17 
 -11  -7  -1   87.41    5.41 
 -11  -7  -1   92.74    5.20 
  11  -7   1   97.06    5.15 
 -11   7  -1   91.23    4.98 
 -11   7  -1   88.97    4.88 
  11   7   1   86.45    4.94 
  11   7   1   82.88    5.17 
 -13  -7  -1   14.95    1.98 
  13  -7   1   14.62    1.71 
  13  -7   1   16.05    1.87 
 -13  -7  -1   14.05    1.87 
 -13   7  -1   14.54    1.49 
  13   7   1   14.53    1.54 
 -13   7  -1   14.22    1.37 
  10  -8  -1   90.75    4.85 
  10  -8  -1   84.63    4.92 
 -10  -8   1   82.47    4.70 
 -10  -8   1   74.33    5.15 
  10   8  -1   78.43    4.54 
 -10   8   1   76.00    4.57 
  10   8  -1   75.81    4.39 
 -10   8   1   79.48    4.35 
  -8  -8   1   71.75    4.10 
   8  -8  -1   68.65    4.16 
  -8  -8   1   66.13    4.70 
   8  -8  -1   76.59    4.42 
   8  -8  -1   81.46    4.37 
   8   8  -1   70.80    4.07 
  -8   8   1   59.16    4.62 
  -8   8   1   71.74    3.93 
   6  -8  -1   95.61    5.35 
   6  -8  -1   91.97    5.28 
   6  -8  -1   93.63    5.13 
  -6  -8   1   86.89    5.54 
  -6  -8   1   95.56    4.96 
   6   8  -1   93.24    5.01 
   6   8  -1   92.24    5.07 
  -6   8   1   95.18    5.15 
  -6   8   1   92.76    4.97 
   4  -8  -1  115.18    5.55 
   4  -8  -1  105.51    5.89 
  -4  -8   1  104.39    5.55 
   4  -8  -1  107.54    5.88 
  -4  -8   1   88.34    5.93 
   4   8  -1   99.01    5.75 
  -4   8   1  111.23    5.66 
   4   8  -1  105.78    5.60 
  -4   8   1  104.18    5.69 
  -4   8   1  103.22    5.53 
   2  -8  -1   90.93    5.31 
   2  -8  -1   91.92    5.10 
   2  -8  -1  106.12    5.04 
  -2  -8   1   86.51    5.40 
   2   8  -1   95.73    5.14 
   2   8  -1   97.63    5.10 
  -2   8   1   89.70    5.18 
  -2   8   1   96.11    5.14 
   2   8  -1   97.89    5.09 
  -2   8   1   83.08    5.02 
   0  -8   1  165.15    8.05 
   0  -8   1  145.40    8.13 
   0  -8  -1  143.41    8.06 
   0  -8  -1  149.16    8.30 
   0  -8  -1  162.66    8.04 
   0  -8  -1  153.84    8.35 
   0   8   1  160.87    8.03 
   0   8   1  149.84    8.12 
   0   8  -1  162.25    8.09 
   0   8   1  166.93    8.15 
   0   8  -1  152.79    8.08 
   0   8  -1  147.42    8.08 
  -2  -8  -1   88.21    4.78 
  -2  -8  -1   94.63    4.50 
   2  -8   1   84.39    4.94 
  -2  -8  -1   82.42    5.08 
   2  -8   1   88.15    5.06 
  -2   8  -1   85.56    4.75 
  -2   8  -1   79.79    4.90 
   2   8   1   86.10    4.83 
  -2   8  -1   87.28    4.88 
   2   8   1   90.18    4.84 
  -4  -8  -1   47.52    2.70 
   4  -8   1   47.03    3.02 
   4  -8   1   46.16    3.10 
  -4  -8  -1   54.14    2.99 
  -4  -8  -1   45.46    3.34 
   4  -8   1   43.97    3.17 
   4   8   1   46.78    3.03 
  -4   8  -1   48.97    2.98 
  -4   8  -1   44.80    2.85 
   4   8   1   50.49    2.88 
  -6  -8  -1  124.50    6.30 
   6  -8   1  121.71    6.50 
  -6  -8  -1  110.62    6.80 
   6  -8   1  118.15    6.51 
  -6  -8  -1  122.11    6.39 
   6  -8   1  120.13    6.58 
  -6   8  -1  115.99    6.31 
   6   8   1  117.61    6.44 
   6   8   1  121.67    6.37 
   6   8   1  128.18    6.23 
  -6   8  -1  119.05    6.38 
   8  -8   1   90.32    4.97 
   8  -8   1   85.79    4.92 
   8  -8   1   90.14    4.95 
  -8  -8  -1   78.58    5.28 
  -8  -8  -1   88.54    4.78 
  -8   8  -1   80.35    4.74 
   8   8   1   86.72    4.76 
  -8   8  -1   81.37    4.67 
   8   8   1   89.82    4.55 
  10  -8   1   62.00    3.78 
 -10  -8  -1   59.54    3.71 
 -10  -8  -1   53.64    4.15 
  10  -8   1   59.50    3.80 
 -10   8  -1   56.10    3.42 
  10   8   1   54.58    3.52 
 -10   8  -1   58.00    3.55 
  -9  -9   1   16.94    2.41 
   9  -9  -1   23.83    2.74 
   9  -9  -1   25.15    2.60 
  -9   9   1   21.46    2.01 
   9   9  -1   21.16    2.20 
   9   9  -1   22.27    2.27 
  -9   9   1   22.41    2.44 
   7  -9  -1  151.56    7.94 
  -7  -9   1  132.71    8.43 
   7  -9  -1  150.82    8.12 
   7  -9  -1  163.60    8.24 
  -7   9   1  140.86    7.92 
   7   9  -1  148.82    7.87 
  -7   9   1  150.89    7.75 
   7   9  -1  152.87    7.80 
   5  -9  -1   48.21    3.48 
   5  -9  -1   49.17    3.42 
   5  -9  -1   46.65    3.07 
  -5  -9   1   40.50    3.55 
   5   9  -1   47.79    3.00 
  -5   9   1   45.86    2.87 
  -5   9   1   44.71    3.11 
   5   9  -1   42.86    2.94 
   3  -9  -1  153.06    8.34 
   3  -9  -1  155.12    8.59 
  -3  -9   1  145.86    8.66 
   3  -9  -1  162.54    8.60 
  -3   9   1  175.61    8.29 
   3   9  -1  161.68    8.32 
  -3   9   1  157.37    8.48 
   1  -9  -1   64.46    3.95 
   1  -9  -1   63.95    4.26 
  -1  -9   1   67.07    4.31 
   1  -9  -1   54.18    5.41 
   1   9  -1   65.85    3.91 
  -1   9   1   69.47    3.85 
   1   9  -1   71.28    3.98 
  -1   9   1   70.81    4.05 
   1  -9   1  129.11    7.94 
   1  -9   1  145.89    8.07 
  -1  -9  -1  151.38    8.16 
   1  -9   1  141.07    7.90 
   1   9   1  155.06    7.87 
  -1   9  -1  154.76    7.82 
   1   9   1  155.15    7.76 
  -1   9  -1  151.10    7.80 
   3  -9   1   24.94    2.47 
   3  -9   1   22.85    2.47 
   3  -9   1   22.95    2.23 
  -3  -9  -1   21.17    2.68 
  -3   9  -1   26.12    2.15 
  -3   9  -1   24.19    2.05 
   3   9   1   25.27    2.05 
   5  -9   1  134.18    7.22 
  -5  -9  -1  125.82    7.44 
   5  -9   1  124.00    7.09 
   5  -9   1  131.23    7.06 
  -5   9  -1  127.79    6.90 
   5   9   1  129.50    6.92 
  -5   9  -1  130.88    6.95 
   5   9   1  138.97    6.82 
  -7  -9  -1   36.47    3.59 
   7  -9   1   42.19    3.17 
   7  -9   1   43.70    3.16 
   7  -9   1   36.63    3.29 
  -7   9  -1   41.06    2.94 
  -7   9  -1   41.86    2.77 
   7   9   1   37.69    2.78 
   9  -9   1  119.93    6.57 
  -9  -9  -1  104.71    7.00 
   9  -9   1  119.68    6.65 
   9   9   1  114.27    6.39 
  -9   9  -1  118.97    6.26 
  -9   9  -1  119.91    6.38 
   4 -10  -1  100.98    5.99 
   4 -10  -1  100.19    6.00 
  -4 -10   1   89.33    6.10 
   4 -10  -1   95.52    5.65 
   4  10  -1  109.62    5.58 
  -4  10   1  104.71    5.70 
  -4  10   1  100.29    5.49 
   4  10  -1   92.13    5.54 
   2 -10  -1   64.20    3.93 
  -2 -10   1   52.83    4.31 
   2 -10  -1   58.41    4.26 
   2 -10  -1   59.81    4.32 
  -2  10   1   64.45    3.72 
   2  10  -1   59.65    3.80 
  -2  10   1   63.67    4.07 
   2  10  -1   64.69    3.93 
   0 -10  -1   74.83    4.96 
   0 -10   1   70.15    4.80 
   0  10   1   74.75    4.33 
   0  10  -1   69.45    4.37 
   0  10  -1   80.15    4.52 
   0  10   1   77.08    4.59 
   2 -10   1   71.33    4.66 
  -2 -10  -1   71.90    5.01 
   2 -10   1   73.57    4.83 
  -2  10  -1   75.26    4.53 
  -2  10  -1   80.47    4.50 
   2  10   1   82.63    4.68 
   2  10   1   72.18    4.38 
   4 -10   1   58.53    4.12 
   4 -10   1   57.99    3.92 
   4 -10   1   58.64    4.09 
  -4 -10  -1   57.37    4.43 
  -4  10  -1   62.30    3.86 
   4  10   1   59.20    3.73 
  -4  10  -1   55.58    3.65 
  18   0  -2  163.24    8.45 
  18   0  -2  151.64    8.19 
 -18   0   2  161.77    8.79 
  16   0  -2   62.21    3.62 
 -16   0   2   63.34    3.56 
  16   0  -2   60.94    3.43 
 -16   0   2   61.16    4.09 
  16   0  -2   57.60    3.65 
  14   0  -2  179.94    9.92 
  14   0  -2  207.51    9.84 
  14   0  -2  188.50    9.79 
 -14   0   2  188.74   10.17 
 -14   0   2  200.44    9.85 
  12   0  -2   96.70    5.29 
 -12   0   2  108.62    5.43 
 -12   0   2   99.78    5.20 
  12   0  -2   97.09    5.29 
  12   0  -2  116.43    5.42 
  12   0  -2   92.17    5.29 
 -12   0   2   94.55    5.53 
 -12   0   2   99.89    5.23 
  12   0  -2   98.35    5.17 
 -10   0   2  623.88   31.56 
  10   0  -2  578.01   31.53 
 -10   0   2  693.47   31.66 
 -10   0   2  604.44   31.82 
  10   0  -2  589.40   31.62 
  10   0  -2  729.23   31.69 
  10   0  -2  603.87   31.62 
 -10   0   2  645.54   31.54 
 -10   0   2  625.93   31.63 
  10   0  -2  646.39   31.58 
   8   0  -2  229.94   11.36 
   8   0  -2  247.23   11.25 
   8   0  -2  212.98   11.17 
  -8   0   2  226.68   11.10 
  -8   0   2  218.19   11.13 
   8   0  -2  208.52   11.09 
   8   0  -2  207.43   11.23 
   8   0  -2  209.55   11.18 
  -8   0   2  233.10   11.19 
  -8   0   2  213.86   11.34 
  -8   0   2  226.25   11.18 
  -6   0   2  646.91   32.48 
   6   0  -2  739.39   32.55 
   6   0  -2  601.36   32.47 
   6   0  -2  666.62   32.60 
  -6   0   2  641.68   32.40 
   6   0  -2  639.76   32.44 
  -6   0   2  575.64   32.58 
  -6   0   2  723.66   32.50 
   6   0  -2  659.38   32.48 
  -6   0   2  644.18   32.43 
   6   0  -2  633.58   32.40 
  -4   0   2  367.01   17.29 
   4   0  -2  340.83   17.50 
   4   0  -2  336.20   17.28 
   4   0  -2  343.26   17.26 
  -4   0   2  314.42   17.33 
   4   0  -2  366.21   17.29 
  -4   0   2  353.03   17.26 
   4   0  -2  394.39   17.37 
  -4   0   2  300.43   17.36 
   4   0  -2  353.41   17.22 
  -4   0   2  338.87   17.22 
  -2   0   2  682.27   31.91 
  -2   0   2  619.54   31.87 
   2   0  -2  589.36   31.90 
   2   0  -2  602.21   31.89 
  -2   0   2  623.37   31.92 
   2   0  -2  725.89   32.08 
   2   0  -2  679.15   31.85 
   2   0  -2  688.88   32.02 
   2   0  -2  584.60   31.84 
  -2   0   2  605.80   31.83 
   0   0  -2  241.29   11.54 
   0   0   2  215.62   11.53 
   0   0   2  226.60   11.54 
   0   0   2  233.01   11.53 
   0   0  -2  245.73   11.63 
   0   0  -2  241.14   11.54 
   0   0  -2  233.61   11.51 
   0   0   2  212.31   11.60 
   0   0  -2  229.17   11.52 
  -2   0  -2  668.33   35.05 
   2   0   2  707.87   35.14 
   2   0   2  730.92   35.04 
  -2   0  -2  736.87   35.03 
  -2   0  -2  748.62   35.11 
   2   0   2  689.56   35.15 
  -2   0  -2  636.71   35.08 
  -2   0  -2  718.75   35.06 
  -2   0  -2  699.36   35.13 
   4   0   2   84.44    4.24 
   4   0   2   85.83    4.27 
  -4   0  -2   80.04    4.34 
  -4   0  -2   87.65    4.26 
  -4   0  -2   83.76    4.27 
   4   0   2   82.12    4.29 
  -4   0  -2   81.68    4.25 
   4   0   2   79.98    4.26 
   4   0   2   87.05    4.24 
  -4   0  -2   82.21    4.24 
  -6   0  -2  960.56   43.78 
  -6   0  -2  756.52   43.84 
   6   0   2  741.90   43.78 
  -6   0  -2  878.73   43.78 
  -6   0  -2  865.28   43.74 
   6   0   2  975.74   43.82 
   6   0   2  890.00   43.88 
   6   0   2  924.88   43.74 
   6   0   2  809.73   43.77 
  -6   0  -2  933.20   43.94 
   6   0   2  831.86   43.77 
  -6   0  -2 1000.00   43.80 
  -8   0  -2  355.09   16.33 
  -8   0  -2  330.50   16.28 
  -8   0  -2  318.65   16.27 
  -8   0  -2  298.98   16.41 
   8   0   2  328.35   16.47 
   8   0   2  308.04   16.31 
   8   0   2  313.42   16.31 
  -8   0  -2  362.10   16.33 
   8   0   2  338.50   16.27 
   8   0   2  302.14   16.29 
 -10   0  -2  323.72   15.02 
  10   0   2  286.44   14.97 
  10   0   2  285.35   14.97 
 -10   0  -2  316.81   14.96 
 -10   0  -2  286.85   15.12 
  10   0   2  290.00   15.00 
 -10   0  -2  299.02   14.94 
 -12   0  -2   99.46    5.20 
  12   0   2   98.32    5.22 
 -12   0  -2  101.31    5.40 
  12   0   2   99.07    5.18 
  12   0   2   96.16    5.20 
 -12   0  -2   99.87    5.13 
 -14   0  -2  229.36   12.24 
  14   0   2  237.65   12.10 
  14   0   2  236.97   12.05 
  14   0   2  231.82   12.06 
 -14   0  -2  249.85   12.00 
  16   0   2   43.17    2.94 
 -16   0  -2   43.92    3.22 
 -16   0  -2   46.83    2.71 
  16   0   2   46.04    2.75 
  16   0   2   41.45    2.93 
 -17  -1   2  119.68    6.82 
  17  -1  -2  116.76    6.39 
  17  -1  -2  115.19    6.14 
  17  -1  -2  111.29    6.61 
 -17   1   2  124.19    6.68 
  17   1  -2  118.95    6.38 
  17   1  -2  115.90    6.17 
  15  -1  -2   96.88    4.72 
 -15  -1   2   94.31    5.31 
  15  -1  -2   85.29    4.70 
 -15  -1   2   89.88    4.80 
  15  -1  -2   89.99    4.92 
  15  -1  -2   84.39    4.91 
  15   1  -2   83.74    4.91 
  15   1  -2   89.03    4.89 
  15   1  -2   86.91    4.85 
 -15   1   2   91.86    5.16 
 -15   1   2   91.92    4.81 
  13  -1  -2  135.89    7.46 
 -13  -1   2  146.57    7.58 
  13  -1  -2  167.91    7.54 
  13  -1  -2  131.95    7.48 
 -13  -1   2  137.98    7.77 
  13  -1  -2  133.07    7.32 
 -13  -1   2  145.29    7.41 
  13  -1  -2  152.55    7.38 
 -13   1   2  139.62    7.67 
  13   1  -2  140.26    7.45 
 -13   1   2  142.90    7.40 
  13   1  -2  149.43    7.55 
  13   1  -2  133.31    7.46 
  13   1  -2  158.78    7.69 
 -13   1   2  145.16    7.61 
  13   1  -2  141.74    7.36 
  11  -1  -2  264.64   14.31 
 -11  -1   2  305.79   14.35 
 -11  -1   2  290.66   14.24 
 -11  -1   2  244.87   14.50 
  11  -1  -2  274.39   14.28 
  11  -1  -2  267.90   14.33 
 -11  -1   2  288.17   14.25 
  11  -1  -2  274.42   14.20 
  11  -1  -2  293.24   14.27 
  11   1  -2  264.02   14.30 
 -11   1   2  291.62   14.26 
  11   1  -2  284.32   14.31 
  11   1  -2  286.32   14.27 
  11   1  -2  276.16   14.22 
 -11   1   2  302.17   14.21 
  11   1  -2  312.31   14.43 
 -11   1   2  281.48   14.47 
 -11   1   2  301.98   14.36 
   9  -1  -2  274.39   12.48 
   9  -1  -2  246.08   12.22 
   9  -1  -2  229.19   12.14 
   9  -1  -2  248.76   12.22 
   9  -1  -2  233.54   12.26 
  -9  -1   2  244.23   12.23 
   9  -1  -2  233.13   12.25 
  -9  -1   2  242.58   12.17 
  -9  -1   2  245.86   12.19 
  -9  -1   2  249.72   12.32 
  -9  -1   2  225.47   12.44 
  -9  -1   2  223.43   12.25 
   9   1  -2  229.80   12.24 
  -9   1   2  257.14   12.15 
  -9   1   2  263.42   12.29 
  -9   1   2  238.00   12.24 
   9   1  -2  239.11   12.16 
  -9   1   2  229.16   12.20 
   9   1  -2  244.13   12.44 
  -9   1   2  235.53   12.38 
   9   1  -2  238.93   12.19 
   9   1  -2  270.27   12.34 
   9   1  -2  241.85   12.23 
   7  -1  -2  415.64   20.61 
  -7  -1   2  442.85   20.64 
  -7  -1   2  406.60   20.57 
  -7  -1   2  408.53   20.58 
  -7  -1   2  390.18   20.67 
   7  -1  -2  380.85   20.63 
   7  -1  -2  415.45   20.64 
   7  -1  -2  456.77   20.78 
   7  -1  -2  378.58   20.64 
  -7  -1   2  415.10   20.62 
  -7   1   2  380.51   20.73 
   7   1  -2  419.57   20.57 
   7   1  -2  425.39   20.77 
   7   1  -2  383.72   20.61 
   7   1  -2  404.34   20.62 
  -7   1   2  411.90   20.60 
   7   1  -2  451.86   20.71 
  -7   1   2  424.34   20.55 
  -7   1   2  436.03   20.66 
   7   1  -2  404.36   20.58 
  -5  -1   2  501.41   24.15 
  -5  -1   2  478.89   24.23 
   5  -1  -2  484.15   24.15 
   5  -1  -2  503.23   24.28 
   5  -1  -2  458.88   24.16 
   5  -1  -2  456.43   24.18 
  -5  -1   2  490.15   24.12 
   5  -1  -2  467.51   24.08 
  -5  -1   2  479.68   24.15 
  -5  -1   2  492.29   24.12 
  -5   1   2  462.00   24.25 
  -5   1   2  523.21   24.19 
   5   1  -2  517.09   24.24 
  -5   1   2  489.35   24.17 
  -5   1   2  481.46   24.14 
   5   1  -2  495.21   24.16 
   5   1  -2  452.46   24.14 
   5   1  -2  495.75   24.26 
   5   1  -2  504.14   24.12 
  -5   1   2  480.59   24.08 
   5   1  -2  464.05   24.11 
   3  -1  -2  230.83   11.20 
  -3  -1   2  219.11   11.15 
   3  -1  -2  210.44   11.19 
  -3  -1   2  197.04   11.26 
   3  -1  -2  242.82   11.29 
   3  -1  -2  223.39   11.25 
  -3  -1   2  219.24   11.26 
  -3  -1   2  216.16   11.17 
  -3  -1   2  225.71   11.19 
   3  -1  -2  209.06   11.21 
   3   1  -2  211.38   11.15 
   3   1  -2  232.20   11.28 
  -3   1   2  223.41   11.11 
  -3   1   2  206.61   11.26 
   3   1  -2  215.18   11.17 
  -3   1   2  233.48   11.20 
  -3   1   2  232.57   11.22 
  -3   1   2  233.09   11.20 
   3   1  -2  229.96   11.16 
   3   1  -2  252.94   11.29 
   3   1  -2  218.68   11.21 
  -1  -1   2  480.27   22.59 
  -1  -1   2  426.78   22.58 
  -1  -1   2  462.24   22.61 
   1  -1  -2  395.79   22.50 
   1  -1  -2  405.22   22.54 
   1  -1  -2  436.65   22.61 
   1  -1  -2  460.26   22.62 
   1  -1  -2  482.29   22.66 
   1  -1  -2  412.89   22.57 
  -1   1   2  453.06   22.53 
  -1   1   2  502.72   22.54 
   1   1  -2  460.86   22.54 
   1   1  -2  503.26   22.62 
   1   1  -2  467.29   22.56 
  -1   1   2  452.41   22.61 
  -1   1   2  415.09   22.61 
   1   1  -2  467.37   22.59 
  -1   1   2  423.04   22.58 
   1   1  -2  497.43   22.58 
  -1  -1  -2  336.33   17.00 
   1  -1   2  349.35   17.02 
   1  -1   2  323.23   16.97 
  -1  -1  -2  327.55   16.98 
   1  -1   2  342.78   17.02 
  -1  -1  -2  345.93   16.96 
  -1  -1  -2  327.24   17.06 
  -1  -1  -2  338.66   16.97 
   1   1   2  341.75   17.02 
  -1   1  -2  367.49   17.03 
  -1   1  -2  356.70   17.02 
  -1   1  -2  361.08   17.01 
   1   1   2  344.42   16.97 
  -1   1  -2  340.26   17.01 
   1   1   2  323.46   17.00 
   1   1   2  326.28   17.05 
   3  -1   2  253.06   11.84 
   3  -1   2  246.80   11.83 
  -3  -1  -2  251.65   11.80 
  -3  -1  -2  258.94   11.81 
  -3  -1  -2  233.27   11.73 
   3  -1   2  204.81   11.84 
  -3  -1  -2  197.96   11.81 
  -3  -1  -2  222.80   11.87 
   3  -1   2  248.67   11.74 
   3   1   2  241.06   11.80 
   3   1   2  251.46   11.74 
   3   1   2  228.28   11.84 
  -3   1  -2  216.43   11.78 
  -3   1  -2  231.07   11.82 
  -3   1  -2  247.69   11.77 
   3   1   2  227.71   11.92 
   3   1   2  234.02   11.79 
   3   1   2  222.68   11.81 
  -3   1  -2  260.80   11.83 
   5  -1   2  475.07   24.09 
   5  -1   2  475.29   24.07 
  -5  -1  -2  459.86   24.05 
  -5  -1  -2  475.31   24.01 
  -5  -1  -2  453.16   24.11 
   5  -1   2  493.50   24.10 
  -5  -1  -2  452.09   24.16 
   5  -1   2  494.87   24.14 
   5  -1   2  501.09   24.02 
  -5  -1  -2  519.32   24.09 
  -5  -1  -2  514.27   24.09 
  -5   1  -2  496.37   24.09 
   5   1   2  492.39   24.17 
  -5   1  -2  480.34   24.03 
  -5   1  -2  526.40   24.06 
   5   1   2  469.88   24.08 
  -5   1  -2  429.18   24.11 
   5   1   2  442.08   24.02 
  -5   1  -2  544.72   24.10 
   5   1   2  491.02   24.06 
   5   1   2  457.24   24.08 
   7  -1   2  360.78   18.90 
  -7  -1  -2  404.45   18.90 
   7  -1   2  356.05   18.88 
  -7  -1  -2  364.20   19.01 
  -7  -1  -2  371.10   18.82 
   7  -1   2  375.02   18.83 
   7  -1   2  399.14   19.01 
   7  -1   2  356.97   18.89 
  -7  -1  -2  365.70   18.87 
  -7  -1  -2  404.48   18.90 
  -7  -1  -2  362.71   18.85 
  -7   1  -2  417.39   18.89 
   7   1   2  370.09   18.87 
  -7   1  -2  355.99   18.96 
   7   1   2  352.39   18.88 
  -7   1  -2  386.72   18.89 
   7   1   2  408.60   19.04 
  -7   1  -2  372.47   18.84 
  -7   1  -2  414.41   18.91 
   7   1   2  350.89   18.89 
   7   1   2  387.28   18.86 
   9  -1   2  244.15   12.93 
  -9  -1  -2  251.41   12.87 
  -9  -1  -2  266.60   12.93 
  -9  -1  -2  262.48   12.85 
   9  -1   2  237.64   12.92 
  -9  -1  -2  278.38   12.95 
   9  -1   2  260.14   12.86 
   9  -1   2  251.69   13.08 
   9  -1   2  246.16   12.91 
  -9  -1  -2  237.13   13.05 
  -9  -1  -2  260.27   12.85 
   9   1   2  260.97   12.89 
   9   1   2  271.70   13.13 
  -9   1  -2  252.08   12.86 
   9   1   2  235.10   12.86 
  -9   1  -2  266.34   12.92 
   9   1   2  245.82   12.92 
   9   1   2  264.10   12.87 
  -9   1  -2  284.76   12.94 
   9   1   2  250.85   12.91 
  -9   1  -2  239.13   13.00 
  -9   1  -2  282.63   12.94 
 -11  -1  -2  211.09   10.48 
 -11  -1  -2  208.84   10.56 
 -11  -1  -2  203.53   10.78 
  11  -1   2  197.62   10.62 
  11  -1   2  203.70   10.59 
 -11  -1  -2  218.42   10.55 
  11  -1   2  204.04   10.63 
  11   1   2  209.99   10.63 
 -11   1  -2  200.38   10.72 
  11   1   2  231.18   10.51 
 -11   1  -2  214.40   10.62 
  11   1   2  205.44   10.60 
 -11   1  -2  215.46   10.56 
  11   1   2  203.35   10.57 
  13  -1   2  127.40    6.79 
  13  -1   2  128.78    6.74 
 -13  -1  -2  134.03    6.71 
  13  -1   2  127.49    6.79 
  13   1   2  128.90    6.79 
  13   1   2  130.32    6.82 
  13   1   2  127.96    6.74 
 -13   1  -2  132.79    6.93 
 -13   1  -2  134.18    6.69 
  15  -1   2   96.18    6.22 
 -15  -1  -2  108.18    6.11 
  15  -1   2  108.11    5.77 
  15  -1   2  109.74    5.85 
 -15  -1  -2  109.21    5.94 
 -15   1  -2  112.33    5.73 
  15   1   2  111.24    5.88 
 -15   1  -2  112.41    6.06 
  15   1   2  112.55    5.78 
  15   1   2  108.46    5.82 
  17  -1   2   85.67    5.12 
 -17  -1  -2   92.87    5.50 
 -17  -1  -2   90.49    4.95 
  17  -1   2   89.95    5.00 
  17  -1   2   88.86    5.17 
  17   1   2   92.84    5.04 
 -17   1  -2   92.79    4.97 
 -17   1  -2   92.34    5.38 
  17   1   2   91.61    5.13 
  17   1   2   88.70    5.11 
  16  -2  -2  166.77    9.26 
 -16  -2   2  176.34    9.64 
  16  -2  -2  174.30    9.26 
  16   2  -2  174.84    9.22 
 -16   2   2  193.68    9.19 
  16   2  -2  172.52    9.11 
 -16   2   2  184.11    9.45 
  14  -2  -2  109.46    6.02 
  14  -2  -2  120.71    5.86 
 -14  -2   2  119.53    5.94 
 -14  -2   2  113.06    6.42 
  14  -2  -2  112.36    5.85 
  14  -2  -2  104.67    6.04 
  14   2  -2  113.13    5.90 
 -14   2   2  118.34    5.95 
 -14   2   2  110.82    6.17 
  14   2  -2  107.60    6.02 
 -12  -2   2  291.08   13.92 
 -12  -2   2  253.86   14.14 
 -12  -2   2  287.25   13.82 
  12  -2  -2  264.58   13.89 
 -12  -2   2  252.94   13.88 
  12  -2  -2  268.44   13.76 
  12  -2  -2  266.06   13.92 
  12  -2  -2  279.41   13.80 
  12   2  -2  268.93   13.87 
  12   2  -2  276.34   13.80 
  12   2  -2  292.23   14.07 
  12   2  -2  274.42   13.86 
 -12   2   2  286.42   13.97 
 -12   2   2  257.40   13.98 
 -12   2   2  296.69   13.77 
  12   2  -2  262.92   13.87 
 -12   2   2  281.98   13.83 
 -10  -2   2   79.62    4.46 
 -10  -2   2   83.84    4.38 
 -10  -2   2   89.60    4.48 
 -10  -2   2   82.29    4.76 
  10  -2  -2   79.50    4.33 
  10  -2  -2   81.90    4.48 
  10  -2  -2   81.30    4.50 
 -10  -2   2   83.73    4.43 
  10  -2  -2   78.52    4.46 
  10  -2  -2   89.17    4.43 
  10  -2  -2   97.38    4.53 
 -10  -2   2   77.21    4.49 
 -10   2   2   81.32    4.40 
  10   2  -2   83.32    4.37 
 -10   2   2   93.37    4.35 
 -10   2   2   81.11    4.57 
  10   2  -2   82.49    4.43 
  10   2  -2   80.94    4.41 
 -10   2   2   86.86    4.54 
  10   2  -2   88.36    4.66 
  -8  -2   2  523.64   26.22 
   8  -2  -2  528.22   26.28 
   8  -2  -2  494.40   26.18 
  -8  -2   2  546.42   26.28 
   8  -2  -2  584.24   26.35 
   8  -2  -2  593.35   26.44 
  -8  -2   2  487.60   26.33 
  -8  -2   2  468.42   26.45 
   8  -2  -2  495.70   26.31 
  -8  -2   2  506.17   26.25 
   8  -2  -2  533.33   26.26 
  -8  -2   2  537.59   26.24 
   8   2  -2  558.75   26.40 
   8   2  -2  517.58   26.39 
  -8   2   2  519.06   26.25 
  -8   2   2  493.61   26.35 
   8   2  -2  487.90   26.25 
  -8   2   2  528.94   26.29 
   8   2  -2  530.54   26.23 
   8   2  -2  529.87   26.27 
   8   2  -2  502.19   26.21 
  -8   2   2  546.23   26.18 
  -8   2   2  592.40   26.34 
   6  -2  -2  123.99    7.53 
  -6  -2   2  139.30    7.58 
   6  -2  -2  146.03    7.52 
   6  -2  -2  137.92    7.54 
   6  -2  -2  152.91    7.54 
  -6  -2   2  157.33    7.50 
  -6  -2   2  147.54    7.49 
  -6  -2   2  130.22    7.63 
  -6  -2   2  151.74    7.48 
   6  -2  -2  170.09    7.65 
   6  -2  -2  138.93    7.41 
  -6  -2   2  147.15    7.44 
   6   2  -2  144.74    7.48 
  -6   2   2  135.51    7.56 
  -6   2   2  155.13    7.56 
  -6   2   2  157.52    7.40 
  -6   2   2  143.64    7.49 
   6   2  -2  146.40    7.46 
   6   2  -2  151.81    7.60 
   6   2  -2  150.19    7.45 
   6   2  -2  158.69    7.62 
   6   2  -2  154.62    7.50 
  -6   2   2  148.22    7.51 
  -4  -2   2  732.56   37.66 
   4  -2  -2  759.76   37.69 
   4  -2  -2  773.09   37.75 
  -4  -2   2  701.11   37.64 
   4  -2  -2  740.48   37.69 
   4  -2  -2  734.55   37.75 
  -4  -2   2  759.80   37.78 
  -4  -2   2  759.52   37.67 
   4  -2  -2  696.71   37.72 
  -4   2   2  764.34   37.68 
   4   2  -2  808.87   37.66 
  -4   2   2  796.84   37.70 
   4   2  -2  824.06   37.79 
   4   2  -2  726.27   37.68 
   4   2  -2  726.35   37.72 
  -4   2   2  852.36   37.71 
  -4   2   2  775.87   37.74 
  -4   2   2  704.84   37.73 
   4   2  -2  706.38   37.65 
  -4   2   2  806.80   37.74 
   4   2  -2  758.21   37.67 
  -2  -2   2  144.81    7.30 
  -2  -2   2  144.92    7.20 
   2  -2  -2  146.09    7.25 
   2  -2  -2  150.54    7.32 
   2  -2  -2  149.14    7.28 
  -2  -2   2  147.97    7.26 
   2  -2  -2  128.99    7.41 
  -2  -2   2  137.97    7.21 
   2  -2  -2  132.86    7.31 
  -2  -2   2  147.88    7.24 
   2   2  -2  147.55    7.31 
   2   2  -2  156.31    7.36 
  -2   2   2  138.87    7.32 
  -2   2   2  140.28    7.19 
  -2   2   2  143.42    7.24 
   2   2  -2  123.91    7.29 
  -2   2   2  159.09    7.35 
   2   2  -2  150.47    7.28 
   2   2  -2  138.88    7.20 
  -2   2   2  142.71    7.33 
   2   2  -2  145.72    7.23 
   0  -2  -2  530.46   26.65 
   0  -2  -2  492.53   26.65 
   0  -2   2  565.04   26.77 
   0  -2  -2  550.76   26.74 
   0  -2  -2  483.34   26.68 
   0  -2   2  529.96   26.72 
   0  -2   2  527.31   26.66 
   0  -2   2  593.39   26.68 
   0  -2  -2  543.35   26.73 
   0  -2   2  518.91   26.66 
   0  -2  -2  493.48   26.74 
   0   2   2  522.30   26.79 
   0   2   2  517.05   26.65 
   0   2   2  536.42   26.74 
   0   2   2  534.67   26.73 
   0   2  -2  536.59   26.72 
   0   2   2  547.08   26.72 
   0   2  -2  538.32   26.72 
   0   2  -2  564.00   26.67 
   0   2  -2  573.01   26.68 
   0   2  -2  549.63   26.72 
   0   2  -2  548.20   26.70 
   0   2   2  521.15   26.69 
   0   2  -2  558.30   26.75 
   2  -2   2  434.79   20.07 
  -2  -2  -2  396.24   20.10 
   2  -2   2  414.69   20.17 
   2  -2   2  380.19   20.11 
  -2  -2  -2  416.63   20.16 
  -2  -2  -2  391.49   20.13 
  -2  -2  -2  387.49   20.12 
   2  -2   2  422.06   20.16 
   2   2   2  425.69   20.11 
   2   2   2  416.99   20.18 
  -2   2  -2  389.31   20.08 
  -2   2  -2  368.64   20.09 
  -2   2  -2  415.34   20.10 
  -2   2  -2  401.74   20.16 
   2   2   2  382.72   20.15 
  -2   2  -2  421.07   20.10 
   2   2   2  343.11   20.27 
  -2   2  -2  438.09   20.16 
  -2   2  -2  418.40   20.15 
  -4  -2  -2  704.37   31.82 
   4  -2   2  657.06   31.79 
  -4  -2  -2  619.10   31.77 
  -4  -2  -2  673.16   31.78 
   4  -2   2  594.23   31.78 
   4  -2   2  687.23   31.81 
   4  -2   2  688.00   31.86 
   4  -2   2  633.44   31.82 
  -4  -2  -2  578.49   31.88 
   4  -2   2  632.42   31.83 
  -4  -2  -2  581.34   31.85 
  -4  -2  -2  606.84   31.77 
   4   2   2  595.33   31.77 
   4   2   2  648.05   31.74 
  -4   2  -2  702.06   31.84 
  -4   2  -2  634.16   31.74 
   4   2   2  606.55   31.88 
  -4   2  -2  576.65   31.77 
  -4   2  -2  725.07   31.82 
   4   2   2  634.18   31.85 
  -4   2  -2  706.35   31.77 
   4   2   2  594.37   31.80 
   4   2   2  664.25   31.79 
  -4   2  -2  590.78   31.75 
   6  -2   2   87.32    4.53 
   6  -2   2   81.56    4.48 
  -6  -2  -2   91.90    4.52 
  -6  -2  -2   81.86    4.46 
   6  -2   2   87.36    4.53 
  -6  -2  -2   82.21    4.58 
  -6  -2  -2   90.96    4.48 
  -6  -2  -2   88.20    4.38 
  -6  -2  -2   83.61    4.60 
   6  -2   2   84.03    4.50 
   6  -2   2   88.95    4.41 
   6   2   2   84.00    4.47 
  -6   2  -2   94.84    4.52 
   6   2   2   87.48    4.61 
  -6   2  -2   89.13    4.47 
   6   2   2   82.27    4.39 
  -6   2  -2   85.28    4.50 
   6   2   2   90.33    4.48 
  -6   2  -2   92.64    4.55 
   6   2   2   88.17    4.60 
  -6   2  -2   82.26    4.42 
   6   2   2   85.13    4.50 
   8  -2   2  459.49   22.46 
   8  -2   2  433.02   22.55 
  -8  -2  -2  384.59   22.47 
   8  -2   2  469.78   22.62 
  -8  -2  -2  489.23   22.56 
   8  -2   2  432.93   22.54 
  -8  -2  -2  434.31   22.50 
  -8  -2  -2  455.65   22.52 
   8  -2   2  442.17   22.54 
  -8  -2  -2  448.95   22.67 
  -8  -2  -2  431.25   22.56 
   8   2   2  479.42   22.68 
  -8   2  -2  454.69   22.48 
  -8   2  -2  427.20   22.56 
   8   2   2  418.67   22.44 
  -8   2  -2  462.29   22.56 
   8   2   2  439.76   22.52 
   8   2   2  473.75   22.51 
   8   2   2  415.25   22.53 
   8   2   2  453.97   22.60 
  -8   2  -2  494.95   22.53 
  -8   2  -2  522.76   22.56 
 -10  -2  -2  109.18    5.30 
 -10  -2  -2  101.90    5.40 
  10  -2   2   97.77    5.42 
 -10  -2  -2  100.47    5.61 
  10  -2   2   98.76    5.45 
 -10  -2  -2  106.42    5.38 
 -10  -2  -2  105.26    5.46 
  10  -2   2  114.19    5.64 
  10  -2   2   98.20    5.40 
  10   2   2  102.66    5.40 
  10   2   2  103.84    5.44 
 -10   2  -2  104.11    5.49 
 -10   2  -2  103.26    5.50 
 -10   2  -2  105.72    5.35 
  10   2   2  108.49    5.49 
  10   2   2  104.29    5.34 
  12  -2   2  319.25   16.20 
 -12  -2  -2  313.49   16.13 
  12  -2   2  318.26   16.24 
  12  -2   2  313.98   16.23 
 -12  -2  -2  328.28   16.43 
 -12  -2  -2  325.26   16.11 
 -12  -2  -2  333.78   16.17 
 -12   2  -2  324.63   16.31 
 -12   2  -2  328.92   16.15 
  12   2   2  312.41   16.14 
  12   2   2  312.37   16.19 
  12   2   2  342.40   16.21 
  12   2   2  310.03   16.23 
 -14  -2  -2   63.63    4.03 
  14  -2   2   69.15    3.77 
  14  -2   2   68.64    3.70 
 -14  -2  -2   62.85    3.52 
 -14  -2  -2   70.09    3.65 
  14   2   2   67.54    3.72 
 -14   2  -2   65.93    3.96 
  14   2   2   64.21    3.76 
  14   2   2   64.65    3.65 
 -16  -2  -2  144.10    7.24 
  16  -2   2  135.96    7.35 
 -16  -2  -2  137.61    7.66 
  16  -2   2  133.77    7.25 
  16  -2   2  133.21    7.34 
  16   2   2  142.33    7.27 
 -16   2  -2  143.63    7.22 
  16   2   2  133.90    7.26 
 -16   2  -2  143.48    7.48 
  16   2   2  132.40    7.38 
 -17  -3   2   74.60    5.34 
  17  -3  -2   85.10    4.81 
  17   3  -2   80.46    4.55 
  17   3  -2   76.42    4.67 
 -17   3   2   84.88    4.90 
  15  -3  -2  131.86    7.43 
 -15  -3   2  138.02    7.85 
  15  -3  -2  133.93    7.39 
 -15   3   2  148.30    7.32 
  15   3  -2  143.66    7.27 
 -15   3   2  145.09    7.51 
  15   3  -2  136.54    7.33 
 -13  -3   2  200.87    9.60 
  13  -3  -2  181.75    9.72 
  13  -3  -2  180.86    9.68 
 -13  -3   2  174.04    9.69 
 -13  -3   2  184.09    9.98 
  13  -3  -2  207.98    9.58 
  13   3  -2  181.12    9.66 
  13   3  -2  179.00    9.61 
 -13   3   2  189.85    9.75 
  13   3  -2  185.36    9.57 
 -13   3   2  199.46    9.61 
 -11  -3   2  145.69    8.46 
  11  -3  -2  173.29    8.17 
 -11  -3   2  143.78    8.24 
  11  -3  -2  146.45    8.24 
  11  -3  -2  183.25    8.27 
 -11  -3   2  168.07    8.24 
  11  -3  -2  156.90    8.22 
 -11  -3   2  162.26    8.12 
  11   3  -2  155.49    8.15 
  11   3  -2  154.91    8.12 
 -11   3   2  166.53    8.32 
  11   3  -2  149.71    8.14 
 -11   3   2  171.82    8.09 
 -11   3   2  159.19    8.27 
 -11   3   2  156.45    8.15 
  11   3  -2  151.68    8.20 
  -9  -3   2  174.82    8.63 
  -9  -3   2  163.01    8.79 
  -9  -3   2  176.80    8.70 
  -9  -3   2  174.81    8.68 
   9  -3  -2  161.36    8.75 
  -9  -3   2  148.97    8.89 
   9  -3  -2  154.43    8.70 
   9  -3  -2  162.93    8.70 
   9  -3  -2  199.31    8.89 
   9  -3  -2  186.07    8.73 
  -9   3   2  191.80    8.59 
   9   3  -2  163.04    8.67 
  -9   3   2  170.66    8.67 
  -9   3   2  180.58    8.78 
   9   3  -2  169.67    8.67 
   9   3  -2  162.23    8.63 
  -9   3   2  164.52    8.74 
   9   3  -2  176.44    8.90 
   9   3  -2  160.78    8.85 
   9   3  -2  163.04    8.63 
  -7  -3   2  317.10   15.45 
   7  -3  -2  342.09   15.63 
  -7  -3   2  267.68   15.65 
  -7  -3   2  324.70   15.51 
   7  -3  -2  321.78   15.58 
  -7  -3   2  293.31   15.46 
   7  -3  -2  314.80   15.52 
   7  -3  -2  294.70   15.54 
  -7  -3   2  293.97   15.63 
   7  -3  -2  278.34   15.56 
   7   3  -2  297.75   15.49 
  -7   3   2  339.29   15.42 
  -7   3   2  293.58   15.55 
   7   3  -2  326.65   15.67 
   7   3  -2  316.28   15.51 
   7   3  -2  299.20   15.47 
   7   3  -2  300.90   15.45 
  -7   3   2  320.56   15.54 
   7   3  -2  313.21   15.59 
  -7   3   2  320.98   15.52 
   5  -3  -2  320.05   14.52 
   5  -3  -2  299.15   14.53 
   5  -3  -2  266.91   14.44 
  -5  -3   2  251.10   14.51 
  -5  -3   2  287.09   14.42 
  -5  -3   2  289.89   14.42 
   5  -3  -2  300.22   14.45 
  -5  -3   2  284.59   14.39 
   5  -3  -2  272.85   14.50 
  -5  -3   2  283.15   14.57 
   5   3  -2  282.56   14.41 
  -5   3   2  273.86   14.48 
  -5   3   2  295.20   14.45 
  -5   3   2  277.49   14.53 
   5   3  -2  283.86   14.46 
   5   3  -2  288.63   14.43 
  -5   3   2  297.42   14.45 
  -5   3   2  312.30   14.35 
  -5   3   2  280.40   14.60 
   5   3  -2  304.02   14.58 
  -5   3   2  294.99   14.35 
   5   3  -2  285.88   14.37 
   5   3  -2  288.04   14.41 
  -5   3   2  279.67   14.47 
  -3  -3   2  367.34   19.21 
  -3  -3   2  393.95   19.42 
  -3  -3   2  376.74   19.26 
  -3  -3   2  367.36   19.29 
   3  -3  -2  373.38   19.26 
   3  -3  -2  371.05   19.34 
   3  -3  -2  387.55   19.37 
  -3  -3   2  392.65   19.20 
   3  -3  -2  384.08   19.28 
   3   3  -2  404.58   19.29 
   3   3  -2  408.79   19.30 
   3   3  -2  379.38   19.26 
  -3   3   2  391.44   19.28 
  -3   3   2  385.80   19.35 
  -3   3   2  357.76   19.31 
   3   3  -2  407.42   19.39 
   3   3  -2  368.87   19.20 
   3   3  -2  373.26   19.23 
  -3   3   2  388.49   19.36 
  -3   3   2  396.74   19.26 
  -3   3   2  388.91   19.20 
   3   3  -2  362.78   19.24 
  -3   3   2  438.24   19.37 
  -1  -3   2  531.92   25.39 
   1  -3  -2  489.07   25.40 
   1  -3  -2  454.85   25.52 
   1  -3  -2  512.43   25.48 
   1  -3  -2  483.05   25.58 
  -1  -3   2  514.54   25.46 
   1  -3  -2  506.35   25.43 
  -1  -3   2  525.57   25.44 
   1  -3  -2  538.48   25.53 
  -1  -3   2  514.28   25.59 
  -1  -3   2  513.10   25.41 
  -1  -3   2  506.37   25.40 
  -1   3   2  506.48   25.41 
   1   3  -2  474.60   25.42 
   1   3  -2  556.98   25.57 
   1   3  -2  506.25   25.47 
   1   3  -2  479.35   25.39 
   1   3  -2  496.55   25.48 
  -1   3   2  542.72   25.43 
  -1   3   2  506.58   25.52 
   1   3  -2  533.53   25.46 
  -1   3   2  538.69   25.54 
  -1   3   2  532.47   25.47 
  -1   3   2  514.95   25.58 
   1   3  -2  506.47   25.42 
   1   3  -2  494.99   25.40 
  -1  -3  -2  326.56   17.71 
   1  -3   2  357.48   17.63 
  -1  -3  -2  327.27   17.73 
   1  -3   2  367.24   17.81 
  -1  -3  -2  348.85   17.64 
   1  -3   2  321.38   17.70 
  -1  -3  -2  322.94   17.77 
   1  -3   2  337.96   17.74 
   1  -3   2  346.60   17.69 
   1  -3   2  377.78   17.63 
  -1  -3  -2  340.86   17.85 
  -1  -3  -2  341.11   17.70 
  -1   3  -2  365.15   17.73 
  -1   3  -2  350.74   17.66 
  -1   3  -2  365.69   17.67 
   1   3   2  376.51   17.65 
  -1   3  -2  342.29   17.59 
   1   3   2  380.86   17.78 
   1   3   2  363.71   17.71 
  -1   3  -2  366.62   17.60 
   1   3   2  373.02   17.87 
  -1   3  -2  375.14   17.69 
  -1   3  -2  363.00   17.78 
   1   3   2  350.97   17.67 
  -1   3  -2  363.40   17.73 
  -3  -3  -2  491.04   24.92 
   3  -3   2  486.20   24.93 
   3  -3   2  483.75   24.79 
   3  -3   2  470.31   24.87 
   3  -3   2  534.40   24.93 
  -3  -3  -2  485.39   24.87 
  -3  -3  -2  432.03   25.00 
  -3  -3  -2  543.31   24.92 
   3  -3   2  509.41   24.80 
  -3  -3  -2  479.02   24.87 
  -3  -3  -2  502.88   24.85 
  -3   3  -2  488.96   24.85 
  -3   3  -2  465.50   24.78 
  -3   3  -2  560.89   24.92 
  -3   3  -2  542.87   24.93 
   3   3   2  464.62   24.90 
   3   3   2  509.31   24.78 
  -3   3  -2  492.94   24.84 
  -3   3  -2  532.91   24.87 
   3   3   2  525.24   24.94 
   3   3   2  510.57   25.05 
   3   3   2  496.68   24.86 
  -3   3  -2  469.21   24.90 
  -5  -3  -2  367.05   17.31 
  -5  -3  -2  321.84   17.41 
   5  -3   2  337.16   17.16 
  -5  -3  -2  353.93   17.24 
   5  -3   2  360.06   17.22 
  -5  -3  -2  346.62   17.35 
   5  -3   2  302.70   17.25 
   5  -3   2  331.39   17.29 
  -5  -3  -2  327.55   17.22 
  -5  -3  -2  336.74   17.23 
   5  -3   2  344.89   17.20 
   5   3   2  343.57   17.43 
   5   3   2  366.43   17.32 
  -5   3  -2  343.60   17.22 
  -5   3  -2  331.19   17.19 
  -5   3  -2  365.33   17.24 
   5   3   2  315.47   17.26 
   5   3   2  351.25   17.23 
   5   3   2  348.33   17.14 
   5   3   2  342.08   17.24 
   5   3   2  341.32   17.30 
  -5   3  -2  377.33   17.28 
  -5   3  -2  349.49   17.25 
   5   3   2  349.29   17.13 
  -5   3  -2  374.87   17.31 
  -5   3  -2  329.64   17.20 
  -7  -3  -2  111.51    5.55 
  -7  -3  -2  106.89    5.49 
  -7  -3  -2  104.31    5.66 
   7  -3   2  105.03    5.43 
  -7  -3  -2  100.72    5.65 
   7  -3   2  104.63    5.56 
   7  -3   2   95.71    5.52 
  -7  -3  -2   99.89    5.57 
   7  -3   2  116.83    5.53 
  -7  -3  -2  107.71    5.51 
  -7   3  -2  106.10    5.49 
   7   3   2  110.63    5.76 
  -7   3  -2  103.15    5.45 
   7   3   2  108.13    5.51 
  -7   3  -2  117.20    5.63 
  -7   3  -2  112.21    5.52 
   7   3   2  104.72    5.54 
   7   3   2  112.40    5.67 
   7   3   2  108.28    5.39 
   7   3   2   99.06    5.49 
  -7   3  -2  111.26    5.55 
  -9  -3  -2  233.91   11.96 
  -9  -3  -2  254.96   11.93 
   9  -3   2  227.79   11.91 
  -9  -3  -2  244.15   11.85 
   9  -3   2  259.56   11.94 
  -9  -3  -2  234.78   12.05 
   9  -3   2  229.40   11.90 
   9  -3   2  221.86   11.88 
   9   3   2  241.51   12.06 
   9   3   2  232.43   11.86 
  -9   3  -2  227.32   11.87 
  -9   3  -2  229.92   11.81 
   9   3   2  224.37   11.85 
   9   3   2  235.15   11.76 
   9   3   2  226.25   11.89 
  11  -3   2  221.24   11.13 
 -11  -3  -2  213.36   11.28 
 -11  -3  -2  222.23   11.06 
  11  -3   2  216.22   11.14 
  11  -3   2  215.51   11.09 
 -11  -3  -2  207.96   11.11 
  11   3   2  234.25   11.29 
  11   3   2  211.81   11.11 
 -11   3  -2  221.97   11.02 
  11   3   2  218.08   11.08 
  11   3   2  215.30   10.98 
 -11   3  -2  220.84   11.13 
  13  -3   2  111.58    5.97 
 -13  -3  -2  112.44    5.79 
 -13  -3  -2  108.31    5.79 
 -13  -3  -2  110.03    6.11 
  13  -3   2  107.53    5.81 
 -13   3  -2  107.66    5.78 
 -13   3  -2  113.67    5.90 
  13   3   2  114.19    5.83 
  13   3   2  109.70    5.72 
  13   3   2  107.58    5.87 
 -15  -3  -2  134.21    7.44 
  15  -3   2  134.71    7.17 
  15  -3   2  133.56    7.18 
  15  -3   2  135.86    7.10 
  15   3   2  131.69    7.01 
  15   3   2  133.42    7.11 
 -15   3  -2  137.59    7.03 
  15   3   2  135.10    7.19 
 -15   3  -2  138.22    7.24 
 -17  -3  -2   78.46    4.50 
  17  -3   2   77.78    4.65 
 -17  -3  -2   74.78    5.19 
  17  -3   2   74.03    4.53 
  17  -3   2   73.60    4.60 
  17   3   2   79.53    4.65 
 -17   3  -2   82.99    4.41 
 -17   3  -2   80.17    4.77 
  17   3   2   73.06    4.49 
  16  -4  -2   30.49    2.89 
 -16  -4   2   38.56    3.54 
  16  -4  -2   33.03    2.77 
 -16  -4   2   33.15    2.71 
  16   4  -2   32.40    2.48 
 -16   4   2   35.68    2.70 
  16   4  -2   33.43    2.54 
  14  -4  -2  205.72   10.63 
 -14  -4   2  195.93   10.93 
  14  -4  -2  192.22   10.66 
  14   4  -2  206.94   10.53 
  14   4  -2  205.94   10.50 
 -14   4   2  210.34   10.62 
 -14   4   2  220.05   10.55 
  12  -4  -2   36.19    2.62 
 -12  -4   2   36.73    2.62 
  12  -4  -2   39.90    2.57 
 -12  -4   2   38.27    3.06 
  12  -4  -2   43.43    2.48 
  12   4  -2   39.42    2.54 
  12   4  -2   37.92    2.41 
 -12   4   2   41.65    2.49 
 -12   4   2   40.57    2.51 
  12   4  -2   39.82    2.95 
  12   4  -2   42.64    2.40 
  10  -4  -2  297.19   14.00 
 -10  -4   2  282.47   13.88 
  10  -4  -2  294.26   13.90 
  10  -4  -2  264.51   13.90 
  10  -4  -2  252.73   13.93 
 -10  -4   2  256.13   14.01 
 -10  -4   2  276.90   13.78 
 -10  -4   2  248.92   14.05 
  10   4  -2  265.84   13.80 
 -10   4   2  285.97   13.84 
 -10   4   2  293.90   13.98 
 -10   4   2  273.91   13.95 
  10   4  -2  270.10   13.81 
  10   4  -2  261.91   13.87 
 -10   4   2  261.92   13.86 
 -10   4   2  301.64   13.75 
  10   4  -2  267.37   13.82 
  -8  -4   2   77.61    4.68 
   8  -4  -2   85.92    4.55 
   8  -4  -2   90.63    4.60 
   8  -4  -2   80.46    4.52 
   8  -4  -2   78.12    4.58 
  -8  -4   2   79.05    4.67 
  -8  -4   2   89.96    4.51 
  -8  -4   2   86.50    4.40 
   8  -4  -2   94.78    4.64 
   8   4  -2   80.81    4.58 
  -8   4   2   88.79    4.65 
   8   4  -2   85.24    4.46 
   8   4  -2   84.46    4.48 
   8   4  -2   84.38    4.43 
  -8   4   2   81.01    4.49 
  -8   4   2   82.39    4.60 
  -8   4   2   93.20    4.39 
   8   4  -2   78.94    4.43 
  -8   4   2   86.36    4.48 
   6  -4  -2  192.56   10.47 
   6  -4  -2  214.71   10.52 
  -6  -4   2  202.75   10.34 
  -6  -4   2  208.85   10.32 
   6  -4  -2  192.45   10.40 
   6  -4  -2  232.14   10.46 
   6  -4  -2  219.43   10.42 
  -6  -4   2  181.07   10.47 
  -6  -4   2  208.80   10.40 
  -6  -4   2  186.92   10.55 
  -6  -4   2  219.96   10.40 
   6   4  -2  200.90   10.39 
  -6   4   2  193.37   10.47 
  -6   4   2  208.50   10.40 
  -6   4   2  227.32   10.31 
   6   4  -2  201.78   10.37 
   6   4  -2  196.18   10.36 
   6   4  -2  208.91   10.61 
   6   4  -2  196.88   10.35 
   6   4  -2  201.13   10.32 
  -6   4   2  204.39   10.42 
  -6   4   2  219.24   10.51 
   6   4  -2  225.12   10.43 
  -6   4   2  188.71   10.45 
  -6   4   2  196.77   10.39 
  -6   4   2  204.34   10.29 
  -4  -4   2   99.25    5.00 
   4  -4  -2   99.85    5.04 
  -4  -4   2   93.82    4.95 
   4  -4  -2   89.48    5.10 
   4  -4  -2   87.75    5.00 
  -4  -4   2   96.11    5.02 
   4  -4  -2  104.04    5.03 
  -4  -4   2   86.44    5.03 
  -4  -4   2   97.80    4.93 
   4  -4  -2   97.35    5.16 
  -4  -4   2   88.19    5.20 
   4   4  -2   89.43    4.99 
   4   4  -2   92.51    4.94 
   4   4  -2   95.30    4.97 
  -4   4   2  102.97    5.05 
   4   4  -2   98.74    5.01 
  -4   4   2   96.50    5.11 
   4   4  -2  101.13    5.24 
  -4   4   2  100.99    5.04 
   4   4  -2   93.29    4.97 
  -4   4   2  103.41    5.15 
  -4   4   2   94.35    5.15 
   4   4  -2   97.45    5.03 
  -4   4   2  106.57    4.96 
  -4   4   2   99.67    4.93 
   4   4  -2  102.00    5.06 
  -4   4   2   91.53    5.02 
   2  -4  -2  633.66   33.09 
   2  -4  -2  681.41   33.02 
  -2  -4   2  692.82   32.87 
  -2  -4   2  639.63   32.88 
   2  -4  -2  657.93   32.93 
  -2  -4   2  659.52   33.14 
   2  -4  -2  665.84   32.95 
  -2  -4   2  667.74   32.89 
   2  -4  -2  613.83   33.03 
  -2  -4   2  672.38   32.94 
   2   4  -2  624.76   32.85 
  -2   4   2  701.40   32.97 
   2   4  -2  701.35   32.97 
   2   4  -2  622.45   32.90 
   2   4  -2  627.05   32.90 
  -2   4   2  684.82   32.90 
  -2   4   2  671.87   33.09 
   2   4  -2  641.74   32.88 
   2   4  -2  688.73   33.10 
  -2   4   2  728.63   32.94 
  -2   4   2  638.51   33.01 
   2   4  -2  639.90   32.94 
   2   4  -2  653.80   32.95 
   0  -4   2  100.42    5.28 
   0  -4  -2  115.72    5.40 
   0  -4   2  109.83    5.37 
   0  -4  -2   92.49    5.49 
   0  -4   2  101.68    5.54 
   0  -4  -2  109.83    5.45 
   0  -4   2  108.33    5.28 
   0  -4  -2   96.13    5.45 
   0  -4  -2  106.86    5.32 
   0  -4   2  101.35    5.42 
   0  -4   2   98.74    5.38 
   0  -4  -2  105.52    5.35 
   0  -4  -2   95.90    5.52 
   0  -4  -2  100.62    5.32 
   0   4  -2  102.71    5.32 
   0   4  -2  104.69    5.38 
   0   4   2  104.22    5.37 
   0   4  -2  102.61    5.51 
   0   4  -2  107.20    5.38 
   0   4   2  101.19    5.43 
   0   4   2  107.00    5.46 
   0   4  -2  104.72    5.32 
   0   4   2  103.95    5.32 
   0   4   2  114.37    5.33 
   0   4   2  102.68    5.57 
   2  -4   2  536.65   25.98 
  -2  -4  -2  506.18   26.05 
   2  -4   2  505.98   26.07 
  -2  -4  -2  550.01   26.11 
   2  -4   2  471.36   26.09 
  -2  -4  -2  467.62   25.98 
   2  -4   2  509.00   26.18 
   2  -4   2  548.56   25.98 
  -2  -4  -2  499.28   26.24 
  -2  -4  -2  526.73   26.03 
   2  -4   2  466.26   26.07 
  -2  -4  -2  520.12   26.07 
  -2   4  -2  507.14   26.02 
  -2   4  -2  541.57   26.03 
  -2   4  -2  537.99   26.08 
  -2   4  -2  564.16   26.07 
   2   4   2  548.77   26.14 
   2   4   2  559.75   26.30 
   2   4   2  594.40   26.00 
   2   4   2  522.64   26.05 
  -2   4  -2  524.36   26.08 
   2   4   2  514.38   26.02 
   2   4   2  486.03   26.08 
  -2   4  -2  525.30   26.15 
   4  -4   2   76.10    4.16 
   4  -4   2   80.06    4.05 
  -4  -4  -2   69.65    4.12 
   4  -4   2   71.94    4.19 
   4  -4   2   82.36    4.24 
  -4  -4  -2   73.32    4.37 
   4  -4   2   74.21    4.04 
  -4  -4  -2   77.59    4.20 
  -4  -4  -2   86.72    4.21 
  -4  -4  -2   83.86    4.16 
  -4  -4  -2   77.37    4.12 
   4   4   2   83.50    4.02 
  -4   4  -2   88.57    4.26 
  -4   4  -2   77.03    3.98 
  -4   4  -2   75.69    4.09 
   4   4   2   84.01    4.25 
   4   4   2   75.86    4.17 
  -4   4  -2   77.90    4.20 
   4   4   2   75.98    4.11 
   4   4   2   82.47    4.01 
  -4   4  -2   83.06    4.21 
   4   4   2   79.88    4.48 
  -4   4  -2   80.45    4.13 
  -4   4  -2   80.74    4.15 
  -4   4  -2   74.62    4.14 
  -6  -4  -2  293.59   14.58 
  -6  -4  -2  293.53   14.57 
  -6  -4  -2  268.42   14.78 
   6  -4   2  274.77   14.62 
   6  -4   2  277.20   14.63 
   6  -4   2  267.63   14.71 
  -6  -4  -2  289.94   14.70 
   6  -4   2  314.67   14.50 
  -6  -4  -2  309.82   14.64 
  -6  -4  -2  278.72   14.57 
   6  -4   2  276.21   14.50 
  -6   4  -2  298.37   14.62 
   6   4   2  287.11   14.86 
  -6   4  -2  284.56   14.49 
  -6   4  -2  295.84   14.59 
   6   4   2  304.34   14.65 
   6   4   2  297.51   14.46 
   6   4   2  270.64   14.61 
  -6   4  -2  285.78   14.55 
  -6   4  -2  305.03   14.60 
   6   4   2  298.18   14.58 
   6   4   2  307.01   14.47 
   6   4   2  294.72   14.70 
   6   4   2  282.54   14.58 
  -6   4  -2  302.95   14.66 
  -6   4  -2  285.53   14.55 
   8  -4   2   76.57    4.33 
   8  -4   2   86.98    4.13 
  -8  -4  -2   75.81    4.46 
   8  -4   2   88.11    4.24 
  -8  -4  -2   88.40    4.39 
  -8  -4  -2   80.78    4.29 
  -8  -4  -2   78.79    4.45 
   8  -4   2   74.53    4.31 
  -8  -4  -2   81.66    4.26 
   8   4   2   79.80    4.31 
  -8   4  -2   74.99    4.11 
   8   4   2   85.75    4.43 
  -8   4  -2   80.92    4.31 
  -8   4  -2   75.50    4.20 
   8   4   2   83.38    4.71 
   8   4   2   75.84    4.30 
  -8   4  -2   77.46    4.21 
   8   4   2   79.55    4.13 
   8   4   2   88.59    4.14 
   8   4   2   79.30    4.27 
 -10  -4  -2  221.80   11.63 
 -10  -4  -2  219.37   11.56 
  10  -4   2  215.12   11.49 
  10  -4   2  220.56   11.50 
 -10  -4  -2  223.16   11.46 
  10  -4   2  250.51   11.47 
 -10  -4  -2  224.40   11.42 
 -10   4  -2  228.22   11.49 
  10   4   2  248.54   12.03 
 -10   4  -2  221.41   11.39 
  10   4   2  219.10   11.48 
 -10   4  -2  224.55   11.42 
  10   4   2  219.86   11.31 
  10   4   2  221.00   11.44 
 -12  -4  -2   45.00    2.63 
 -12  -4  -2   42.78    2.76 
  12  -4   2   40.63    2.78 
 -12  -4  -2   42.56    3.00 
  12  -4   2   40.97    2.72 
  12   4   2   42.62    2.62 
 -12   4  -2   47.59    2.62 
 -12   4  -2   43.97    2.65 
  12   4   2   42.35    2.69 
  12   4   2   46.29    2.49 
  14  -4   2  187.43    9.88 
  14  -4   2  186.65    9.87 
 -14  -4  -2  193.04    9.79 
 -14  -4  -2  186.01   10.11 
 -14  -4  -2  183.73    9.83 
 -14   4  -2  196.93    9.76 
 -14   4  -2  200.03    9.87 
  14   4   2  196.21    9.83 
  14   4   2  184.71    9.69 
 -16  -4  -2   45.96    3.79 
  16  -4   2   45.39    3.19 
 -16  -4  -2   40.00    3.07 
  16  -4   2   41.80    3.25 
  16   4   2   46.88    3.27 
 -16   4  -2   46.30    3.13 
  16   4   2   45.82    3.11 
 -16   4  -2   48.46    2.93 
 -15  -5   2   61.77    4.33 
  15  -5  -2   58.61    3.78 
  15  -5  -2   56.63    3.84 
 -15  -5   2   56.79    3.82 
  15   5  -2   60.84    3.52 
 -15   5   2   58.41    3.63 
  15   5  -2   53.53    3.48 
 -13  -5   2   90.39    5.48 
 -13  -5   2   95.58    5.70 
  13  -5  -2   94.74    5.40 
  13  -5  -2   93.56    5.45 
  13  -5  -2  105.76    5.78 
  13   5  -2   96.11    5.23 
 -13   5   2  100.99    5.07 
  13   5  -2   95.72    5.23 
 -13   5   2  102.90    5.28 
 -13   5   2   96.88    5.28 
  11  -5  -2  149.28    7.35 
  11  -5  -2  134.17    7.46 
  11  -5  -2  137.12    7.39 
 -11  -5   2  144.03    7.59 
 -11  -5   2  147.06    7.25 
 -11  -5   2  134.68    7.53 
 -11   5   2  140.54    7.29 
 -11   5   2  136.17    7.29 
 -11   5   2  145.30    7.14 
  11   5  -2  135.48    7.25 
 -11   5   2  140.85    7.44 
  11   5  -2  137.14    7.33 
  11   5  -2  139.77    7.25 
  -9  -5   2  156.06    7.75 
   9  -5  -2  156.68    7.80 
   9  -5  -2  140.21    7.81 
  -9  -5   2  150.01    7.61 
  -9  -5   2  143.10    7.86 
   9  -5  -2  167.25    7.82 
  -9  -5   2  138.17    7.92 
   9  -5  -2  140.86    7.74 
   9   5  -2  154.95    7.66 
  -9   5   2  160.60    7.61 
  -9   5   2  144.34    7.67 
   9   5  -2  144.06    7.67 
   9   5  -2  137.78    7.64 
  -9   5   2  153.34    7.69 
  -9   5   2  145.47    7.82 
  -9   5   2  152.06    7.55 
   9   5  -2  145.74    7.69 
   7  -5  -2  169.12    8.31 
  -7  -5   2  147.15    8.38 
   7  -5  -2  180.28    8.20 
   7  -5  -2  159.14    8.20 
   7  -5  -2  149.06    8.19 
   7  -5  -2  152.37    8.27 
  -7  -5   2  162.65    8.08 
  -7  -5   2  167.22    8.19 
  -7  -5   2  151.84    8.25 
   7   5  -2  163.59    8.14 
  -7   5   2  158.02    8.14 
  -7   5   2  160.12    8.17 
  -7   5   2  145.99    8.25 
  -7   5   2  161.13    8.05 
  -7   5   2  169.43    8.33 
   7   5  -2  152.05    8.14 
   7   5  -2  149.99    8.16 
  -7   5   2  148.21    8.25 
  -7   5   2  183.01    8.10 
   7   5  -2  150.67    8.12 
   5  -5  -2  169.71    7.93 
   5  -5  -2  152.24    8.08 
  -5  -5   2  161.02    7.94 
  -5  -5   2  146.71    8.18 
   5  -5  -2  144.68    8.03 
   5  -5  -2  152.14    7.94 
   5  -5  -2  150.68    7.94 
  -5  -5   2  140.44    7.94 
  -5   5   2  156.02    7.84 
  -5   5   2  163.65    8.00 
   5   5  -2  154.89    7.94 
   5   5  -2  146.61    7.90 
   5   5  -2  157.67    7.91 
   5   5  -2  159.50    8.00 
  -5   5   2  171.71    7.87 
   5   5  -2  154.67    7.86 
   5   5  -2  148.39    7.89 
  -5   5   2  148.85    7.89 
  -5   5   2  166.61    8.08 
   5   5  -2  153.20    7.87 
  -5   5   2  148.40    8.08 
  -5   5   2  152.75    8.03 
  -5   5   2  161.09    7.96 
  -3  -5   2  230.56   11.90 
   3  -5  -2  218.15   12.06 
  -3  -5   2  219.29   12.20 
   3  -5  -2  239.75   11.98 
  -3  -5   2  226.16   11.96 
   3  -5  -2  259.67   11.93 
  -3  -5   2  245.84   11.96 
  -3  -5   2  250.97   11.88 
   3  -5  -2  222.30   11.93 
   3  -5  -2  229.82   12.12 
  -3  -5   2  229.88   11.90 
   3   5  -2  209.75   11.95 
  -3   5   2  234.48   12.04 
  -3   5   2  256.27   12.09 
   3   5  -2  246.38   12.20 
   3   5  -2  234.71   11.92 
  -3   5   2  254.93   11.98 
  -3   5   2  246.81   11.99 
   3   5  -2  228.47   11.83 
   3   5  -2  236.86   11.89 
   3   5  -2  239.04   11.96 
   3   5  -2  241.96   12.00 
  -3   5   2  246.16   11.90 
  -3   5   2  242.06   12.15 
   3   5  -2  226.43   11.91 
   1  -5  -2  387.47   19.34 
   1  -5  -2  388.62   19.27 
   1  -5  -2  378.20   19.28 
   1  -5  -2  417.84   19.31 
   1  -5  -2  368.59   19.51 
  -1  -5   2  367.93   19.33 
  -1  -5   2  408.33   19.26 
   1  -5  -2  345.45   19.44 
  -1  -5   2  356.20   19.54 
   1  -5  -2  349.45   19.29 
  -1  -5   2  353.74   19.37 
   1  -5  -2  423.67   19.44 
  -1  -5   2  368.24   19.26 
   1   5  -2  375.67   19.30 
   1   5  -2  390.48   19.36 
   1   5  -2  393.14   19.36 
   1   5  -2  386.50   19.35 
  -1   5   2  404.61   19.56 
  -1   5   2  395.72   19.36 
  -1   5   2  372.74   19.40 
   1   5  -2  361.68   19.30 
  -1   5   2  405.48   19.45 
  -1   5   2  425.76   19.31 
  -1   5   2  429.54   19.33 
   1   5  -2  393.79   19.51 
   1  -5   2  211.65   11.44 
   1  -5   2  201.17   11.27 
   1  -5   2  228.34   11.27 
  -1  -5  -2  245.33   11.35 
  -1  -5  -2  219.73   11.47 
  -1  -5  -2  222.49   11.26 
  -1  -5  -2  250.69   11.25 
   1  -5   2  238.29   11.16 
  -1  -5  -2  219.93   11.20 
   1  -5   2  222.04   11.16 
  -1  -5  -2  199.65   11.35 
  -1  -5  -2  206.69   11.19 
  -1  -5  -2  215.22   11.20 
   1  -5   2  203.91   11.29 
  -1  -5  -2  221.25   11.25 
   1   5   2  215.35   11.30 
   1   5   2  232.19   11.27 
   1   5   2  217.00   11.50 
  -1   5  -2  225.12   11.28 
  -1   5  -2  225.44   11.26 
   1   5   2  230.96   11.36 
  -1   5  -2  227.53   11.22 
  -1   5  -2  224.90   11.40 
  -1   5  -2  221.13   11.21 
  -1   5  -2  224.71   11.26 
   1   5   2  213.88   11.20 
   1   5   2  240.54   11.20 
  -3  -5  -2  183.94    8.54 
   3  -5   2  157.25    8.60 
  -3  -5  -2  164.66    8.45 
   3  -5   2  168.90    8.36 
  -3  -5  -2  170.36    8.44 
  -3  -5  -2  168.22    8.45 
   3  -5   2  153.45    8.47 
  -3  -5  -2  163.96    8.42 
  -3  -5  -2  157.74    8.69 
   3  -5   2  154.85    8.50 
   3  -5   2  169.18    8.35 
   3   5   2  161.37    8.41 
   3   5   2  170.30    8.55 
  -3   5  -2  161.11    8.56 
   3   5   2  151.86    8.47 
  -3   5  -2  161.07    8.44 
  -3   5  -2  168.59    8.46 
   3   5   2  170.84    8.44 
   3   5   2  160.70    8.76 
  -3   5  -2  169.00    8.41 
  -3   5  -2  171.52    8.53 
  -3   5  -2  172.57    8.50 
   3   5   2  183.12    8.36 
  -3   5  -2  158.82    8.41 
   5  -5   2  226.91   11.79 
  -5  -5  -2  250.28   11.77 
   5  -5   2  211.93   11.72 
  -5  -5  -2  206.98   11.93 
  -5  -5  -2  231.23   11.68 
   5  -5   2  241.50   11.61 
  -5  -5  -2  228.08   11.70 
  -5  -5  -2  227.25   11.76 
  -5  -5  -2  249.80   11.82 
   5  -5   2  222.44   11.76 
   5   5   2  217.45   11.67 
   5   5   2  260.69   11.84 
  -5   5  -2  229.52   11.68 
   5   5   2  244.80   11.59 
  -5   5  -2  229.71   11.67 
   5   5   2  243.21   11.57 
  -5   5  -2  229.79   11.77 
   5   5   2  217.41   11.73 
  -5   5  -2  226.88   11.70 
  -7  -5  -2  157.32    8.19 
  -7  -5  -2  153.20    8.34 
   7  -5   2  150.99    8.12 
   7  -5   2  150.16    8.11 
  -7  -5  -2  160.24    8.05 
  -7  -5  -2  169.95    8.16 
  -7  -5  -2  140.67    8.14 
   7  -5   2  169.30    8.10 
   7   5   2  176.05    8.23 
  -7   5  -2  155.11    7.91 
   7   5   2  156.23    7.92 
  -7   5  -2  151.73    8.02 
   7   5   2  178.72    7.94 
  -7   5  -2  150.95    8.02 
   7   5   2  153.57    8.11 
   7   5   2  144.16    8.04 
  -7   5  -2  156.36    8.07 
  -9  -5  -2  144.27    7.60 
  -9  -5  -2  134.94    7.62 
   9  -5   2  159.84    7.32 
  -9  -5  -2  145.00    7.39 
   9  -5   2  158.61    7.28 
  -9  -5  -2  134.05    7.46 
   9  -5   2  140.89    7.49 
   9  -5   2  141.17    7.51 
   9   5   2  154.56    7.63 
   9   5   2  158.13    7.26 
   9   5   2  130.99    7.39 
  -9   5  -2  136.12    7.25 
   9   5   2  141.81    7.25 
  -9   5  -2  140.04    7.46 
  -9   5  -2  139.37    7.29 
  -9   5  -2  137.58    7.36 
   9   5   2  139.24    7.46 
 -11  -5  -2  105.31    5.32 
 -11  -5  -2  100.23    5.54 
  11  -5   2   97.74    5.41 
  11  -5   2  100.58    5.42 
 -11  -5  -2  101.46    5.60 
 -11   5  -2  104.47    5.25 
  11   5   2  102.47    5.16 
 -11   5  -2   97.28    5.35 
  11   5   2   93.93    5.38 
  11   5   2   96.16    5.33 
  13  -5   2   82.42    4.55 
 -13  -5  -2   82.66    4.41 
 -13  -5  -2   78.12    4.79 
  13  -5   2   80.62    4.54 
 -13  -5  -2   79.05    4.60 
  13   5   2   75.84    4.42 
 -13   5  -2   80.66    4.36 
 -13   5  -2   81.21    4.38 
  13   5   2   74.59    4.50 
  15  -5   2   85.00    5.09 
  15  -5   2   91.66    5.12 
 -15  -5  -2   92.84    5.51 
  15   5   2   83.66    5.12 
  15   5   2   86.36    4.99 
 -15   5  -2   92.98    4.96 
  14  -6  -2   22.44    2.19 
 -14  -6   2   21.79    2.90 
 -14  -6   2   20.06    2.58 
  14  -6  -2   20.17    2.35 
  14   6  -2   18.93    2.01 
  14   6  -2   20.22    2.12 
 -14   6   2   22.16    2.55 
  12  -6  -2  126.95    6.72 
  12  -6  -2  134.81    6.68 
 -12  -6   2  122.47    6.92 
 -12  -6   2  117.29    6.90 
  12  -6  -2  120.38    6.83 
  12   6  -2  120.54    6.55 
 -12   6   2  129.22    6.62 
 -12   6   2  128.20    6.40 
  12   6  -2  122.72    6.54 
 -12   6   2  120.04    6.53 
  10  -6  -2   40.59    2.88 
 -10  -6   2   40.34    2.90 
  10  -6  -2   42.43    2.76 
 -10  -6   2   38.85    3.05 
  10  -6  -2   46.12    2.80 
 -10   6   2   40.25    2.51 
 -10   6   2   42.29    2.38 
 -10   6   2   38.32    2.64 
 -10   6   2   44.83    2.86 
  10   6  -2   43.14    2.53 
  10   6  -2   41.65    2.55 
  -8  -6   2  180.83   10.36 
   8  -6  -2  187.00   10.21 
   8  -6  -2  200.13   10.22 
  -8  -6   2  194.21   10.17 
   8  -6  -2  197.57   10.14 
   8  -6  -2  226.16   10.10 
  -8  -6   2  199.97   10.01 
  -8   6   2  193.28   10.20 
  -8   6   2  218.70   10.05 
   8   6  -2  197.22   10.06 
  -8   6   2  193.34   10.02 
   8   6  -2  194.55   10.04 
   8   6  -2  184.06   10.16 
  -8   6   2  201.54    9.96 
   8   6  -2  189.53   10.08 
  -8   6   2  194.30   10.09 
  -6  -6   2   51.78    3.08 
  -6  -6   2   56.59    3.13 
   6  -6  -2   55.88    3.28 
   6  -6  -2   50.55    3.05 
   6  -6  -2   54.17    3.33 
   6  -6  -2   60.87    3.04 
  -6  -6   2   51.41    3.47 
  -6   6   2   56.93    3.04 
   6   6  -2   53.25    3.01 
  -6   6   2   54.27    3.38 
  -6   6   2   55.15    2.95 
  -6   6   2   52.08    3.20 
  -6   6   2   59.35    3.48 
   6   6  -2   50.71    2.99 
   6   6  -2   50.74    2.99 
  -6   6   2   52.01    2.93 
   6   6  -2   53.28    3.05 
   4  -6  -2  322.25   14.62 
  -4  -6   2  297.67   14.69 
  -4  -6   2  267.39   14.95 
   4  -6  -2  287.51   14.86 
   4  -6  -2  274.64   14.65 
  -4  -6   2  312.34   14.60 
   4  -6  -2  284.87   14.69 
   4  -6  -2  276.94   14.80 
  -4  -6   2  284.27   14.60 
   4   6  -2  279.81   14.60 
  -4   6   2  294.00   14.77 
   4   6  -2  288.60   14.68 
  -4   6   2  300.22   14.61 
   4   6  -2  283.62   14.53 
  -4   6   2  300.08   14.82 
   4   6  -2  283.90   14.64 
  -4   6   2  304.24   14.71 
   2  -6  -2   25.18    1.99 
   2  -6  -2   24.45    1.68 
   2  -6  -2   24.40    1.99 
  -2  -6   2   27.09    1.60 
   2  -6  -2   26.63    1.63 
  -2  -6   2   26.41    1.75 
  -2  -6   2   26.93    1.43 
  -2  -6   2   21.57    2.07 
   2  -6  -2   21.30    1.94 
   2  -6  -2   30.32    2.01 
   2  -6  -2   28.13    1.55 
   2   6  -2   23.93    1.73 
  -2   6   2   27.17    1.80 
   2   6  -2   25.33    1.68 
  -2   6   2   28.63    1.83 
   2   6  -2   26.79    1.68 
  -2   6   2   31.56    1.71 
  -2   6   2   24.31    1.87 
  -2   6   2   28.47    2.10 
   0  -6   2  238.76   13.42 
   0  -6   2  241.48   13.25 
   0  -6  -2  244.32   13.20 
   0  -6  -2  273.07   13.10 
   0  -6  -2  257.73   13.15 
   0  -6  -2  245.29   13.15 
   0  -6   2  279.31   13.10 
   0  -6  -2  249.18   13.41 
   0  -6  -2  294.51   13.15 
   0  -6  -2  282.03   13.31 
   0  -6  -2  243.16   13.34 
   0  -6  -2  251.97   13.18 
   0  -6   2  240.52   13.24 
   0   6  -2  255.35   13.15 
   0   6  -2  260.12   13.20 
   0   6  -2  264.47   13.17 
   0   6   2  298.50   13.18 
   0   6   2  269.16   13.22 
   0   6   2  272.95   13.15 
   0   6   2  270.82   13.32 
   0   6   2  246.02   13.26 
   2  -6   2   62.47    3.85 
  -2  -6  -2   63.05    3.61 
   2  -6   2   62.41    3.69 
   2  -6   2   59.95    3.65 
  -2  -6  -2   61.83    3.91 
  -2  -6  -2   68.80    3.54 
  -2  -6  -2   73.88    3.60 
   2  -6   2   68.73    3.49 
  -2  -6  -2   64.40    3.67 
  -2  -6  -2   60.41    3.52 
  -2  -6  -2   76.28    3.83 
  -2  -6  -2   63.68    3.59 
  -2   6  -2   66.89    3.60 
  -2   6  -2   66.91    3.56 
   2   6   2   69.27    3.62 
  -2   6  -2   59.89    3.90 
   2   6   2   72.42    3.55 
   2   6   2   64.59    3.67 
   2   6   2   69.20    3.80 
  -2   6  -2   64.37    3.56 
   2   6   2   63.36    3.54 
  -4  -6  -2  218.38   10.74 
   4  -6   2  198.87   10.77 
   4  -6   2  194.04   10.80 
  -4  -6  -2  236.90   10.85 
   4  -6   2  214.34   10.63 
  -4  -6  -2  205.58   10.74 
  -4  -6  -2  221.75   10.75 
  -4  -6  -2  196.63   11.01 
   4  -6   2  202.04   10.90 
  -4   6  -2  212.92   10.71 
  -4   6  -2  208.60   10.71 
   4   6   2  200.05   10.77 
  -4   6  -2  209.76   10.73 
   4   6   2  234.86   10.65 
   4   6   2  220.61   10.88 
   4   6   2  211.32   10.70 
  -4   6  -2  200.88   10.88 
  -6  -6  -2   53.61    3.29 
  -6  -6  -2   57.17    3.25 
  -6  -6  -2   53.70    3.56 
   6  -6   2   51.43    3.21 
  -6  -6  -2   59.33    3.39 
   6  -6   2   54.40    3.27 
  -6  -6  -2   58.87    3.20 
   6  -6   2   60.86    3.37 
   6  -6   2   61.69    3.05 
  -6   6  -2   53.57    3.32 
   6   6   2   56.82    3.25 
   6   6   2   61.56    3.50 
  -6   6  -2   53.30    3.14 
  -6   6  -2   57.04    3.14 
   6   6   2   52.70    3.14 
  -6   6  -2   56.22    3.19 
   6   6   2   59.24    2.98 
  -8  -6  -2  209.90   11.18 
  -8  -6  -2  221.05   10.86 
  -8  -6  -2  213.65   10.98 
   8  -6   2  236.53   10.91 
   8  -6   2  208.67   10.93 
   8  -6   2  186.48   11.41 
   8   6   2  196.87   10.97 
  -8   6  -2  200.49   10.85 
   8   6   2  236.66   10.72 
   8   6   2  226.17   11.08 
  -8   6  -2  206.10   10.89 
  -8   6  -2  213.66   10.85 
  -8   6  -2  208.43   10.83 
   8   6   2  207.88   10.91 
   8   6   2  219.38   10.69 
 -10  -6  -2   22.35    3.39 
  10  -6   2   21.77    1.90 
  10  -6   2   21.53    1.96 
 -10  -6  -2   23.20    1.84 
 -10  -6  -2   21.24    2.75 
  10   6   2   25.06    1.92 
 -10   6  -2   23.37    1.75 
  10   6   2   23.66    1.81 
  10   6   2   23.91    1.49 
 -10   6  -2   23.18    1.72 
 -10   6  -2   22.46    1.49 
  12  -6   2  142.79    7.43 
 -12  -6  -2  135.95    7.57 
 -12  -6  -2  136.52    7.58 
  12  -6   2  141.28    7.45 
 -12  -6  -2  148.71    7.32 
 -12   6  -2  138.62    7.25 
  12   6   2  132.52    7.38 
  12   6   2  136.45    7.32 
 -14  -6  -2   18.02    2.47 
  14  -6   2   21.99    2.42 
  14  -6   2   21.19    2.40 
 -14  -6  -2   22.92    2.85 
  14   6   2   18.93    2.18 
  14   6   2   22.66    2.20 
 -14   6  -2   21.12    2.00 
 -13  -7   2   38.76    3.29 
  13  -7  -2   39.88    3.37 
  13  -7  -2   35.70    2.98 
 -13  -7   2   34.91    3.35 
  13   7  -2   32.82    2.68 
  13   7  -2   40.54    2.69 
 -11  -7   2   59.38    4.32 
  11  -7  -2   68.72    4.08 
  11  -7  -2   68.79    4.00 
  11  -7  -2   64.90    4.14 
 -11  -7   2   65.22    4.08 
 -11   7   2   67.11    3.87 
 -11   7   2   66.72    3.61 
  11   7  -2   67.64    3.78 
  11   7  -2   64.21    3.83 
   9  -7  -2   45.13    2.81 
  -9  -7   2   39.45    3.27 
   9  -7  -2   41.45    3.09 
   9  -7  -2   43.73    3.07 
  -9  -7   2   40.96    2.81 
  -9   7   2   45.97    2.49 
  -9   7   2   42.07    2.51 
  -9   7   2   42.67    2.77 
  -9   7   2   42.32    3.04 
   9   7  -2   41.36    2.65 
  -7  -7   2  108.61    6.29 
   7  -7  -2  106.58    5.90 
   7  -7  -2  109.29    6.04 
  -7  -7   2  108.08    5.81 
   7  -7  -2  112.97    6.04 
  -7   7   2  116.03    5.70 
  -7   7   2  112.23    5.86 
   7   7  -2  113.44    5.79 
   7   7  -2  106.78    5.80 
  -7   7   2  106.16    5.93 
   7   7  -2  104.40    5.82 
   5  -7  -2  146.71    7.92 
  -5  -7   2  156.62    7.61 
  -5  -7   2  130.97    8.73 
  -5  -7   2  152.42    7.60 
   5  -7  -2  142.90    7.69 
  -5  -7   2  153.78    7.76 
   5  -7  -2  166.70    7.56 
   5  -7  -2  160.51    7.50 
   5  -7  -2  137.81    7.85 
  -5   7   2  148.42    7.61 
  -5   7   2  151.37    7.75 
   5   7  -2  139.34    7.53 
  -5   7   2  140.11    7.80 
   5   7  -2  148.87    7.67 
   5   7  -2  142.88    7.67 
  -3  -7   2   39.73    3.20 
   3  -7  -2   43.57    3.11 
   3  -7  -2   53.66    2.71 
   3  -7  -2   48.95    2.83 
   3  -7  -2   51.41    2.57 
  -3  -7   2   48.93    2.92 
   3  -7  -2   45.64    2.79 
  -3  -7   2   50.13    2.53 
   3  -7  -2   47.20    3.12 
  -3  -7   2   49.80    2.72 
  -3   7   2   49.38    2.78 
  -3   7   2   49.87    2.92 
   3   7  -2   48.00    2.81 
  -3   7   2   48.13    2.97 
   3   7  -2   45.66    2.79 
   3   7  -2   46.62    2.86 
   1  -7  -2   55.93    3.66 
  -1  -7   2   53.57    3.66 
   1  -7  -2   60.71    3.32 
   1  -7  -2   61.43    3.10 
   1  -7  -2   59.42    3.64 
   1  -7  -2   63.09    3.18 
  -1  -7   2   60.99    3.19 
  -1  -7   2   59.57    3.44 
   1  -7  -2   54.53    3.27 
   1  -7  -2   50.85    3.55 
  -1   7   2   60.98    3.43 
   1   7  -2   56.49    3.33 
   1   7  -2   57.66    3.29 
   1   7  -2   57.38    3.30 
  -1   7   2   64.43    3.53 
  -1   7   2   56.61    3.45 
  -1   7   2   59.58    3.80 
  -1   7   2   59.64    3.27 
  -1  -7  -2  107.74    5.15 
   1  -7   2   93.73    5.55 
  -1  -7  -2   92.98    5.51 
   1  -7   2   94.77    5.38 
  -1  -7  -2  110.00    5.61 
   1  -7   2  104.91    5.16 
   1  -7   2   88.74    5.36 
  -1  -7  -2   97.39    5.60 
   1  -7   2  104.72    5.38 
  -1  -7  -2   93.04    5.24 
  -1  -7  -2   93.48    5.26 
  -1  -7  -2  110.76    5.29 
   1   7   2   99.39    5.23 
  -1   7  -2  101.85    5.30 
   1   7   2  102.17    5.26 
   1   7   2  103.09    5.34 
  -1   7  -2   97.22    5.25 
  -1   7  -2   93.96    5.25 
   1   7   2   95.44    5.37 
   1   7   2   98.93    5.54 
   3  -7   2   77.56    4.64 
  -3  -7  -2   80.21    4.94 
  -3  -7  -2   83.15    4.57 
  -3  -7  -2   94.75    4.60 
  -3  -7  -2   90.87    4.50 
   3  -7   2   86.48    4.45 
   3  -7   2   78.24    4.66 
   3  -7   2   82.21    4.81 
  -3  -7  -2   90.15    4.89 
   3   7   2   85.97    4.61 
  -3   7  -2   79.87    4.57 
   3   7   2   85.35    4.94 
   3   7   2   94.05    4.53 
  -3   7  -2   83.94    4.55 
  -3   7  -2   82.21    4.53 
   3   7   2   80.61    4.65 
   3   7   2   80.69    4.52 
   5  -7   2  109.92    5.82 
   5  -7   2  101.63    5.64 
  -5  -7  -2  108.40    5.58 
   5  -7   2  103.91    5.63 
  -5  -7  -2  109.57    5.86 
  -5  -7  -2  105.59    5.60 
   5   7   2  111.80    5.41 
  -5   7  -2  103.52    5.54 
   5   7   2  104.61    5.92 
   5   7   2  118.92    5.51 
  -5   7  -2   97.91    5.58 
   5   7   2   99.12    5.64 
  -5   7  -2   97.24    5.54 
   5   7   2  100.20    5.54 
  -7  -7  -2   78.76    4.32 
   7  -7   2   84.54    4.50 
   7  -7   2   80.18    4.45 
   7  -7   2   80.95    4.42 
  -7  -7  -2   79.52    4.38 
  -7  -7  -2   74.81    4.76 
  -7   7  -2   77.42    4.30 
  -7   7  -2   75.66    4.27 
   7   7   2   79.62    4.09 
   7   7   2   76.68    4.40 
   7   7   2   77.37    4.31 
  -9  -7  -2   58.47    3.39 
  -9  -7  -2   54.89    3.88 
   9  -7   2   58.19    3.51 
   9  -7   2   55.14    3.54 
   9  -7   2   65.30    3.45 
  -9   7  -2   57.76    3.32 
   9   7   2   54.92    3.44 
   9   7   2   54.36    3.38 
   9   7   2   57.74    3.22 
  -9   7  -2   59.20    3.35 
  11  -7   2   75.39    4.35 
 -11  -7  -2   73.73    4.44 
 -11  -7  -2   71.11    4.61 
  11  -7   2   74.60    4.30 
 -11   7  -2   75.25    4.13 
  11   7   2   71.18    4.18 
  11   7   2   67.29    4.26 
 -11   7  -2   72.12    4.08 
 -13  -7  -2   37.67    3.33 
 -13  -7  -2   32.94    3.33 
  13  -7   2   40.01    3.13 
  13  -7   2   34.08    3.04 
 -13   7  -2   37.17    2.66 
 -13   7  -2   34.48    2.63 
  10  -8  -2   98.63    5.39 
  10  -8  -2   92.96    5.19 
 -10  -8   2   76.69    5.46 
 -10  -8   2   78.68    6.54 
  10  -8  -2   93.34    5.46 
 -10   8   2   96.36    4.87 
  10   8  -2   91.94    5.00 
 -10   8   2   92.00    5.13 
  10   8  -2   89.70    5.05 
   8  -8  -2   20.03    2.00 
   8  -8  -2   20.77    2.48 
   8  -8  -2   22.28    2.42 
  -8  -8   2   17.10    2.69 
  -8  -8   2   24.33    1.99 
   8   8  -2   19.08    1.99 
  -8   8   2   20.85    1.71 
  -8   8   2   20.69    2.08 
   8   8  -2   18.95    1.88 
   6  -8  -2  134.81    7.26 
  -6  -8   2  143.91    6.88 
   6  -8  -2  136.31    7.29 
   6  -8  -2  130.07    7.01 
  -6  -8   2  119.38    7.48 
  -6   8   2  138.18    7.08 
  -6   8   2  122.32    7.17 
   6   8  -2  132.46    6.97 
  -6   8   2  134.59    6.89 
   6   8  -2  134.33    7.02 
  -4  -8   2   24.65    2.60 
   4  -8  -2   30.37    2.08 
   4  -8  -2   30.70    2.51 
   4  -8  -2   29.60    2.54 
   4  -8  -2   27.13    2.06 
  -4   8   2   29.15    2.24 
   4   8  -2   27.09    2.09 
  -4   8   2   25.30    1.98 
  -4   8   2   25.94    2.22 
   2  -8  -2  100.53    5.80 
   2  -8  -2   90.10    5.68 
   2  -8  -2  114.04    5.15 
   2  -8  -2  111.64    5.46 
  -2  -8   2   91.82    5.83 
   2  -8  -2   93.54    5.44 
  -2   8   2   99.37    5.60 
  -2   8   2   99.56    5.39 
   2   8  -2   99.35    5.45 
  -2   8   2  107.11    5.58 
   2   8  -2  106.37    5.51 
   0  -8  -2   11.21    1.48 
   0  -8  -2   11.86    1.49 
   0  -8  -2   13.92    1.07 
   0  -8  -2   14.43    1.97 
   0  -8  -2   13.76    1.53 
   0  -8   2    9.22    2.41 
   0   8  -2   10.62    1.16 
   0   8  -2   16.06    1.56 
   0   8   2   10.88    1.24 
   0   8   2   14.84    1.39 
   0   8   2   14.33    1.40 
  -2  -8  -2  155.42    7.19 
   2  -8   2  128.82    7.44 
   2  -8   2  140.54    7.65 
  -2  -8  -2  144.21    7.35 
   2  -8   2  125.64    7.43 
  -2  -8  -2  139.64    7.70 
  -2   8  -2  144.08    7.36 
   2   8   2  150.66    7.42 
   2   8   2  140.46    7.33 
   2   8   2  134.94    7.44 
  -2   8  -2  136.68    7.40 
  -4  -8  -2   15.57    2.26 
   4  -8   2   15.55    1.75 
   4  -8   2   17.12    1.83 
   4  -8   2   14.65    2.09 
  -4  -8  -2   20.35    1.78 
  -4  -8  -2   16.97    1.45 
  -4   8  -2   14.69    1.56 
   4   8   2   18.20    1.57 
  -4   8  -2   14.59    1.65 
   4   8   2   17.13    1.91 
   6  -8   2  134.43    6.98 
  -6  -8  -2  139.48    6.84 
   6  -8   2  130.77    7.00 
  -6  -8  -2  134.08    6.88 
  -6  -8  -2  121.72    7.28 
   6  -8   2  134.94    7.09 
   6   8   2  137.03    6.65 
   6   8   2  125.54    6.94 
   6   8   2  121.70    6.82 
  -6   8  -2  124.53    6.82 
  -6   8  -2  123.32    6.81 
   8  -8   2   25.75    2.31 
  -8  -8  -2   27.48    2.44 
   8  -8   2   26.96    2.66 
   8  -8   2   26.42    2.45 
  -8  -8  -2   22.25    2.82 
  -8   8  -2   27.89    2.06 
  -8   8  -2   24.74    2.04 
   8   8   2   24.60    2.14 
   8   8   2   26.02    2.37 
  10  -8   2   73.82    4.32 
 -10  -8  -2   72.69    4.30 
  10  -8   2   73.29    4.39 
 -10  -8  -2   61.26    4.68 
  10   8   2   69.76    4.13 
 -10   8  -2   70.47    4.07 
 -10   8  -2   69.52    4.06 
   9  -9  -2   23.72    2.95 
   9  -9  -2   27.11    2.65 
   9  -9  -2   29.24    2.99 
  -9  -9   2   17.50    2.93 
   9   9  -2   21.85    2.49 
   9   9  -2   25.74    2.28 
   7  -9  -2   22.85    2.36 
  -7  -9   2   20.93    2.57 
   7  -9  -2   23.15    2.77 
   7  -9  -2   26.24    2.95 
  -7   9   2   27.14    2.38 
   7   9  -2   19.99    2.27 
  -7   9   2   25.85    1.95 
   7   9  -2   23.13    2.21 
   5  -9  -2   20.86    2.56 
   5  -9  -2   18.36    2.56 
  -5  -9   2   19.77    2.31 
   5  -9  -2   18.85    2.12 
  -5   9   2   18.65    2.15 
   5   9  -2   21.81    2.08 
   5   9  -2   15.92    2.00 
  -5   9   2   16.96    1.82 
   3  -9  -2   31.45    2.89 
  -3  -9   2   28.20    2.99 
   3  -9  -2   28.56    2.44 
   3   9  -2   30.86    2.43 
  -3   9   2   32.97    2.29 
  -3   9   2   36.53    2.65 
  -1  -9   2   39.87    3.27 
   1  -9  -2   38.36    3.29 
   1  -9  -2   43.29    3.31 
  -1   9   2   41.23    2.70 
   1   9  -2   43.34    2.88 
   1   9  -2   42.50    2.78 
  -1   9   2   43.12    3.00 
  -1  -9  -2   18.60    2.54 
   1  -9   2   23.54    2.53 
  -1   9  -2   22.46    2.01 
  -1   9  -2   19.80    1.93 
   1   9   2   21.56    1.89 
   1   9   2   18.86    2.26 
   3  -9   2   18.86    2.24 
   3  -9   2   20.30    2.48 
  -3  -9  -2   17.18    2.58 
   3  -9   2   19.56    2.20 
  -3   9  -2   21.72    2.00 
   3   9   2   19.78    1.96 
  -3   9  -2   21.78    1.92 
   5  -9   2   37.68    2.94 
   5  -9   2   31.91    2.67 
   5  -9   2   32.53    2.74 
  -5  -9  -2   35.81    3.26 
  -5   9  -2   32.43    2.44 
  -5   9  -2   31.03    2.48 
   5   9   2   34.24    2.52 
   7  -9   2   26.70    2.82 
   7  -9   2   23.16    2.57 
  -7  -9  -2   26.78    3.22 
   7  -9   2   26.63    2.64 
  -7   9  -2   24.25    2.32 
  -7   9  -2   28.41    2.31 
   7   9   2   26.72    2.34 
   4 -10  -2   45.48    3.87 
  -4 -10   2   40.01    3.98 
   4 -10  -2   43.73    3.79 
   4 -10  -2   40.84    3.20 
   4  10  -2   47.41    3.21 
   4  10  -2   42.51    3.25 
  -4  10   2   44.45    2.91 
   2 -10  -2   10.42    1.98 
   2 -10  -2   12.21    1.55 
   2 -10  -2   12.55    2.02 
  -2 -10   2    8.99    1.90 
  -2  10   2   11.05    1.35 
   2  10  -2   10.73    1.47 
   0 -10  -2   45.23    3.84 
   0 -10   2   41.17    3.70 
   0  10  -2   46.36    3.23 
   0  10   2   45.54    3.03 
   0  10  -2   47.60    3.28 
  -2 -10  -2    2.95    1.58 
   2 -10   2    4.47    1.67 
   2  10   2    3.13    1.18 
  -2  10  -2    6.05    1.26 
  -2  10  -2    3.92    1.30 
  -4 -10  -2   46.36    4.38 
   4 -10   2   46.61    3.43 
   4 -10   2   43.97    3.45 
   4 -10   2   42.85    3.66 
  -4  10  -2   41.69    3.09 
  -4  10  -2   38.76    3.11 
   4  10   2   41.04    3.08 
  18   0  -3    0.57    1.23 
 -18   0   3    0.39    2.41 
 -16   0   3   -1.28    1.20 
  16   0  -3    0.31    0.74 
  16   0  -3    0.23    0.94 
  16   0  -3    1.30    0.84 
  14   0  -3    0.20    0.72 
  14   0  -3   -0.11    0.46 
  14   0  -3    0.22    0.65 
  14   0  -3    0.60    0.67 
 -14   0   3   -0.34    0.96 
 -14   0   3   -0.87    0.70 
 -12   0   3    0.55    0.86 
  12   0  -3    0.56    0.55 
  12   0  -3    0.52    0.62 
 -12   0   3    0.72    0.55 
 -12   0   3   -0.04    0.55 
  12   0  -3    0.05    0.38 
  12   0  -3    0.45    0.94 
  12   0  -3   -0.14    0.61 
  12   0  -3    0.09    0.49 
 -12   0   3    1.68    0.85 
 -10   0   3    0.11    0.62 
  10   0  -3    0.34    0.45 
  10   0  -3    1.14    0.69 
 -10   0   3    1.37    0.54 
 -10   0   3    0.19    0.37 
  10   0  -3    0.49    0.40 
  10   0  -3   -0.35    0.47 
  10   0  -3    0.43    0.30 
 -10   0   3    0.16    0.36 
  -8   0   3   -0.04    0.27 
  -8   0   3    0.02    0.49 
   8   0  -3    0.72    0.33 
  -8   0   3    0.08    0.48 
   8   0  -3   -0.12    0.32 
  -8   0   3    0.99    0.35 
   8   0  -3    0.28    0.53 
   8   0  -3    0.55    0.71 
  -8   0   3    0.25    0.40 
   8   0  -3    0.08    0.23 
   8   0  -3   -0.02    0.33 
  -6   0   3   -0.19    0.38 
   6   0  -3    0.90    0.58 
  -6   0   3    0.25    0.28 
   6   0  -3    0.16    0.26 
   6   0  -3   -0.03    0.42 
  -6   0   3   -0.02    0.22 
  -6   0   3    1.02    0.23 
   6   0  -3    0.75    0.29 
  -6   0   3    0.11    0.30 
   6   0  -3    0.31    0.17 
   6   0  -3   -0.06    0.25 
  -4   0   3    0.39    0.19 
   4   0  -3   -0.05    0.22 
  -4   0   3   -0.27    0.28 
   4   0  -3    0.30    0.39 
   4   0  -3    0.13    0.23 
  -4   0   3    0.38    0.27 
   4   0  -3    0.15    0.19 
   4   0  -3    0.09    0.33 
  -2   0   3   -0.14    0.24 
   2   0  -3   -0.17    0.17 
   2   0  -3    0.16    0.16 
   2   0  -3    0.41    0.13 
  -2   0   3    0.03    0.16 
   2   0  -3    0.55    0.22 
  -2   0   3   -0.13    0.18 
  -2   0   3    0.02    0.14 
   2   0  -3   -0.26    0.28 
   0   0  -3    0.02    0.21 
   0   0  -3    0.45    0.32 
   0   0  -3    0.10    0.13 
   0   0   3    0.03    0.14 
   0   0   3    0.33    0.25 
   0   0   3    0.57    0.15 
   0   0  -3    0.13    0.09 
   0   0  -3    0.63    0.13 
   0   0  -3    0.15    0.14 
   2   0   3    1.20    0.22 
  -2   0  -3    0.05    0.17 
  -2   0  -3    0.81    0.13 
  -2   0  -3    0.75    0.23 
  -2   0  -3    0.41    0.23 
   2   0   3    0.55    0.14 
  -2   0  -3    0.23    0.16 
  -2   0  -3    0.30    0.24 
  -4   0  -3   -0.01    0.25 
   4   0   3    0.06    0.20 
   4   0   3   -0.02    0.31 
  -4   0  -3    0.39    0.19 
  -4   0  -3    0.24    0.29 
   4   0   3    0.28    0.17 
  -4   0  -3    0.43    0.22 
  -4   0  -3    0.38    0.24 
  -4   0  -3    0.06    0.14 
   4   0   3    0.63    0.25 
  -6   0  -3    0.28    0.28 
   6   0   3    1.32    0.48 
   6   0   3    0.13    0.23 
   6   0   3    0.38    0.32 
   6   0   3    0.46    0.25 
  -6   0  -3    0.07    0.34 
  -6   0  -3    0.13    0.26 
  -6   0  -3    0.01    0.19 
  -6   0  -3    0.48    0.34 
   6   0   3    0.11    0.25 
  -6   0  -3    0.61    0.27 
  -8   0  -3    0.24    0.27 
   8   0   3    0.68    0.67 
   8   0   3    0.14    0.32 
  -8   0  -3    0.06    0.34 
   8   0   3    0.15    0.37 
  -8   0  -3   -0.08    0.35 
  -8   0  -3    0.20    0.43 
   8   0   3    0.39    0.35 
  -8   0  -3   -0.07    0.49 
   8   0   3    0.28    0.35 
 -10   0  -3    0.26    0.53 
  10   0   3    0.11    0.45 
 -10   0  -3   -0.36    0.45 
  10   0   3    0.35    0.39 
  10   0   3    0.45    0.43 
 -10   0  -3    0.18    0.33 
 -12   0  -3   -0.12    0.39 
  12   0   3    0.28    0.54 
  12   0   3    0.18    0.58 
  12   0   3    0.19    0.49 
 -12   0  -3   -0.44    0.63 
 -12   0  -3    0.49    0.71 
  14   0   3    0.25    0.66 
 -14   0  -3    0.80    0.62 
 -14   0  -3    1.02    0.96 
  14   0   3    0.63    0.75 
  14   0   3    0.54    0.67 
  16   0   3    0.04    0.91 
 -16   0  -3    0.38    1.19 
  16   0   3    0.57    0.83 
  16   0   3    0.83    1.17 
 -16   0  -3   -0.05    0.72 
  17  -1  -3   18.78    2.13 
 -17  -1   3   19.33    2.26 
  17  -1  -3   19.55    1.65 
 -17   1   3   21.17    2.66 
  17   1  -3   16.26    1.65 
  17   1  -3   17.77    1.65 
 -15  -1   3    1.33    1.31 
  15  -1  -3    1.31    0.72 
  15  -1  -3    1.32    0.55 
  15  -1  -3    2.27    0.92 
  15  -1  -3    1.08    0.76 
  15   1  -3    1.32    0.80 
 -15   1   3    0.99    1.12 
 -15   1   3    1.32    0.86 
  15   1  -3    0.55    0.62 
  15   1  -3    0.67    0.88 
 -13  -1   3   37.61    2.25 
  13  -1  -3   32.37    2.31 
 -13  -1   3   37.66    2.62 
  13  -1  -3   38.67    2.22 
  13  -1  -3   32.18    2.00 
  13  -1  -3   42.11    2.70 
 -13  -1   3   35.74    3.27 
 -13   1   3   37.54    2.20 
 -13   1   3   34.46    2.14 
  13   1  -3   35.16    2.07 
  13   1  -3   31.17    2.26 
 -13   1   3   36.93    2.67 
  13   1  -3   36.96    2.51 
 -13   1   3   31.10    2.66 
  13   1  -3   35.12    2.26 
  11  -1  -3    2.22    0.39 
  11  -1  -3    2.12    0.53 
  11  -1  -3    2.65    0.82 
 -11  -1   3    1.37    0.56 
 -11  -1   3    1.85    0.49 
  11  -1  -3    3.17    0.77 
 -11  -1   3    2.73    0.77 
  11  -1  -3    2.48    0.56 
 -11  -1   3    2.63    0.97 
  11  -1  -3    2.83    0.65 
  11   1  -3    1.54    0.53 
 -11   1   3    1.88    0.74 
 -11   1   3    2.46    0.45 
  11   1  -3    1.89    0.52 
 -11   1   3    2.69    0.58 
  11   1  -3    2.07    0.44 
  11   1  -3    2.05    0.56 
 -11   1   3    2.48    0.83 
  11   1  -3    2.58    0.93 
   9  -1  -3   58.62    3.18 
   9  -1  -3   56.63    3.18 
   9  -1  -3   67.06    3.38 
  -9  -1   3   57.85    3.21 
  -9  -1   3   60.47    3.12 
   9  -1  -3   57.27    3.03 
   9  -1  -3   60.82    3.50 
   9  -1  -3   60.09    3.20 
  -9  -1   3   57.81    3.11 
  -9  -1   3   59.80    3.25 
  -9  -1   3   54.31    3.44 
   9  -1  -3   56.87    3.22 
   9   1  -3   59.43    3.07 
  -9   1   3   55.79    3.36 
  -9   1   3   58.94    3.13 
   9   1  -3   57.83    3.13 
   9   1  -3   53.93    3.17 
  -9   1   3   60.66    3.04 
   9   1  -3   62.45    3.39 
   9   1  -3   56.54    3.18 
  -7  -1   3    9.85    0.95 
   7  -1  -3   11.07    0.92 
   7  -1  -3    9.74    0.91 
  -7  -1   3    8.87    1.14 
  -7  -1   3   10.81    0.88 
   7  -1  -3   10.87    0.66 
   7  -1  -3   12.84    1.13 
  -7  -1   3   10.18    0.77 
  -7  -1   3   10.80    0.98 
   7  -1  -3   10.79    0.86 
   7  -1  -3   11.24    0.90 
  -7  -1   3   11.50    0.81 
  -7   1   3   10.96    0.95 
  -7   1   3    9.56    1.07 
   7   1  -3   10.77    1.24 
  -7   1   3   10.41    0.82 
   7   1  -3   10.38    0.87 
   7   1  -3    9.71    0.79 
   7   1  -3    9.48    0.85 
  -7   1   3   11.42    0.94 
  -7   1   3   12.12    0.68 
   7   1  -3   10.85    0.73 
   7   1  -3   11.24    1.14 
   5  -1  -3  163.66    8.66 
   5  -1  -3  164.90    8.78 
   5  -1  -3  193.03    8.96 
  -5  -1   3  158.96    8.91 
  -5  -1   3  168.92    8.72 
  -5  -1   3  176.05    8.78 
  -5  -1   3  175.75    8.73 
   5  -1  -3  167.47    8.81 
  -5  -1   3  164.53    8.87 
   5  -1  -3  168.28    8.77 
   5  -1  -3  176.27    8.86 
   5   1  -3  180.70    8.72 
   5   1  -3  166.22    8.76 
   5   1  -3  181.65    8.93 
  -5   1   3  180.34    8.79 
  -5   1   3  165.52    8.66 
  -5   1   3  175.88    8.77 
   5   1  -3  172.27    8.74 
  -5   1   3  181.59    8.81 
   5   1  -3  200.15    8.93 
   3  -1  -3  159.93    8.33 
   3  -1  -3  167.98    8.43 
  -3  -1   3  165.11    8.41 
   3  -1  -3  158.27    8.30 
  -3  -1   3  172.69    8.27 
   3  -1  -3  161.72    8.29 
   3  -1  -3  172.82    8.40 
  -3  -1   3  172.65    8.27 
  -3  -1   3  160.92    8.24 
   3   1  -3  164.01    8.27 
  -3   1   3  161.95    8.30 
   3   1  -3  166.25    8.25 
   3   1  -3  165.32    8.31 
  -3   1   3  156.40    8.41 
  -3   1   3  163.78    8.30 
   3   1  -3  170.42    8.42 
   3   1  -3  163.97    8.26 
   1  -1  -3   47.32    2.76 
   1  -1  -3   49.65    2.66 
   1  -1  -3   52.54    2.46 
   1  -1  -3   47.69    2.56 
  -1  -1   3   48.35    2.63 
   1  -1  -3   48.64    2.51 
  -1  -1   3   51.37    2.48 
   1  -1  -3   47.82    2.53 
  -1  -1   3   43.26    2.69 
  -1   1   3   50.51    2.47 
  -1   1   3   45.97    2.58 
  -1   1   3   52.57    2.59 
  -1   1   3   48.23    2.51 
   1   1  -3   48.91    2.47 
   1   1  -3   44.24    2.60 
   1   1  -3   49.35    2.54 
  -1   1   3   48.78    2.68 
   1   1  -3   50.05    2.48 
  -1   1   3   50.84    2.52 
  -1   1   3   49.93    2.66 
   1   1  -3   50.34    2.65 
  -1  -1  -3   23.62    1.29 
  -1  -1  -3   26.43    1.33 
  -1  -1  -3   23.77    1.24 
  -1  -1  -3   24.99    1.28 
  -1  -1  -3   20.38    1.47 
   1   1   3   24.81    1.32 
  -1   1  -3   24.32    1.37 
  -1   1  -3   23.97    1.33 
   1   1   3   23.86    1.33 
   1   1   3   23.55    1.40 
  -1   1  -3   24.00    1.42 
  -1   1  -3   24.09    1.38 
   1   1   3   23.75    1.28 
  -3  -1  -3  210.61   10.84 
  -3  -1  -3  228.15   10.85 
   3  -1   3  234.69   10.89 
  -3  -1  -3  233.56   10.86 
  -3  -1  -3  209.15   10.94 
  -3  -1  -3  202.07   10.93 
   3  -1   3  200.22   10.80 
   3  -1   3  208.53   10.88 
  -3   1  -3  223.56   10.86 
  -3   1  -3  229.35   10.88 
  -3   1  -3  232.95   10.88 
   3   1   3  211.08   10.86 
  -3   1  -3  191.70   10.94 
   3   1   3  223.06   10.92 
  -3   1  -3  226.21   10.79 
   3   1   3  213.13   10.85 
  -3   1  -3  207.64   10.78 
   5  -1   3   28.43    1.62 
   5  -1   3   26.30    1.60 
  -5  -1  -3   28.52    1.47 
   5  -1   3   26.28    1.53 
  -5  -1  -3   26.20    1.53 
   5  -1   3   30.16    1.48 
  -5  -1  -3   28.53    1.60 
  -5  -1  -3   27.90    1.67 
  -5  -1  -3   26.78    1.68 
  -5  -1  -3   31.92    1.60 
   5  -1   3   28.21    1.70 
  -5   1  -3   29.02    1.62 
   5   1   3   27.82    1.60 
   5   1   3   31.31    1.50 
  -5   1  -3   26.50    1.50 
  -5   1  -3   28.46    1.49 
  -5   1  -3   25.62    1.64 
   5   1   3   26.42    1.56 
   5   1   3   28.40    1.55 
  -5   1  -3   27.15    1.49 
  -5   1  -3   29.79    1.53 
   5   1   3   27.53    1.59 
  -5   1  -3   31.12    1.65 
  -7  -1  -3   79.70    4.24 
   7  -1   3   78.13    4.24 
  -7  -1  -3   83.96    4.23 
  -7  -1  -3   79.12    4.17 
  -7  -1  -3   73.58    4.34 
   7  -1   3   83.94    4.37 
   7  -1   3   74.09    4.22 
   7  -1   3   87.21    4.15 
   7  -1   3   77.39    4.20 
  -7  -1  -3   84.50    4.13 
  -7   1  -3   85.45    4.19 
  -7   1  -3   82.82    4.23 
   7   1   3   84.40    4.20 
   7   1   3   78.55    4.22 
   7   1   3   77.50    4.21 
   7   1   3   87.34    4.17 
   7   1   3   85.03    4.19 
   7   1   3   86.72    4.43 
  -7   1  -3   82.70    4.26 
  -7   1  -3   79.57    4.14 
  -7   1  -3   74.40    4.29 
  -9  -1  -3   20.42    1.22 
  -9  -1  -3   19.10    1.53 
   9  -1   3   20.65    1.78 
  -9  -1  -3   21.12    1.23 
  -9  -1  -3   18.81    1.43 
   9  -1   3   19.01    1.32 
   9  -1   3   21.12    1.39 
  -9  -1  -3   19.87    1.24 
   9  -1   3   18.39    1.31 
   9   1   3   21.91    1.24 
  -9   1  -3   20.23    1.42 
  -9   1  -3   19.65    1.20 
   9   1   3   19.12    1.32 
  -9   1  -3   18.85    1.46 
   9   1   3   20.18    1.28 
   9   1   3   19.28    1.32 
 -11  -1  -3   42.12    2.33 
  11  -1   3   43.02    2.45 
 -11  -1  -3   43.09    2.33 
 -11  -1  -3   41.79    2.20 
  11  -1   3   38.55    2.39 
 -11  -1  -3   43.56    2.69 
  11  -1   3   38.56    2.39 
 -11   1  -3   38.45    2.55 
  11   1   3   46.74    2.23 
  11   1   3   39.22    2.40 
 -11   1  -3   39.59    2.47 
 -11   1  -3   42.51    2.31 
  11   1   3   41.64    2.39 
  11   1   3   42.20    2.41 
 -13  -1  -3    6.97    1.11 
  13  -1   3    3.77    0.69 
 -13  -1  -3    4.98    0.70 
 -13  -1  -3    4.27    0.98 
  13  -1   3    5.04    0.81 
  13  -1   3    5.24    0.83 
 -13   1  -3    4.04    0.61 
  13   1   3    5.13    0.77 
 -13   1  -3    5.37    0.96 
  13   1   3    4.74    0.79 
  13   1   3    4.25    0.78 
  15  -1   3   11.72    1.47 
 -15  -1  -3    8.96    1.37 
 -15  -1  -3    8.85    0.98 
  15  -1   3    9.81    1.09 
  15   1   3    8.09    1.02 
 -15   1  -3    7.95    1.29 
  15   1   3    9.66    1.18 
 -15   1  -3   10.16    0.99 
  15   1   3   10.17    1.13 
  17  -1   3   -1.24    1.12 
  17  -1   3   -0.33    1.01 
 -17  -1  -3    0.84    0.93 
  17  -1   3    0.81    1.10 
 -17  -1  -3    0.30    1.48 
 -17   1  -3    0.62    0.96 
  17   1   3    0.60    1.06 
  17   1   3    0.49    1.01 
 -17   1  -3    0.67    1.33 
  16  -2  -3    6.99    0.86 
 -16  -2   3    5.11    1.57 
  16  -2  -3    6.84    1.18 
  16   2  -3    6.33    1.14 
  16   2  -3    6.44    0.95 
 -16   2   3    8.14    1.48 
  14  -2  -3    5.12    0.83 
 -14  -2   3    4.25    0.93 
  14  -2  -3    5.01    0.89 
  14  -2  -3    4.49    1.03 
  14  -2  -3    3.63    0.62 
 -14  -2   3    4.41    1.33 
 -14   2   3    4.86    0.85 
  14   2  -3    4.17    0.72 
  14   2  -3    4.00    0.81 
 -14   2   3    5.50    1.16 
  14   2  -3    3.51    0.82 
  12  -2  -3   21.55    1.93 
 -12  -2   3   19.75    1.40 
  12  -2  -3   14.59    1.15 
 -12  -2   3   16.01    1.60 
  12  -2  -3   17.53    1.59 
  12  -2  -3   17.22    1.42 
  12  -2  -3   18.51    1.40 
 -12  -2   3   11.31    2.00 
  12   2  -3   16.00    1.68 
 -12   2   3   18.34    1.87 
  12   2  -3   16.06    1.25 
  12   2  -3   16.69    1.41 
 -12   2   3   18.93    1.28 
 -12   2   3   15.46    1.66 
  12   2  -3   16.29    1.48 
 -12   2   3   16.66    1.38 
 -10  -2   3   21.38    1.33 
  10  -2  -3   21.54    1.44 
  10  -2  -3   18.82    1.55 
 -10  -2   3   21.21    1.92 
  10  -2  -3   18.35    1.41 
 -10  -2   3   20.66    1.46 
  10  -2  -3   23.16    1.77 
 -10  -2   3   20.01    1.52 
  10  -2  -3   19.41    1.21 
 -10  -2   3   18.13    1.51 
  10  -2  -3   20.25    1.62 
 -10   2   3   20.59    1.22 
  10   2  -3   21.00    1.91 
  10   2  -3   19.74    1.41 
  10   2  -3   19.62    1.42 
 -10   2   3   21.50    1.63 
 -10   2   3   19.89    1.41 
  10   2  -3   19.64    1.29 
  10   2  -3   19.86    1.38 
 -10   2   3   18.66    1.61 
  -8  -2   3    5.90    0.61 
  -8  -2   3    3.59    0.62 
  -8  -2   3    5.94    0.61 
  -8  -2   3    6.01    0.68 
   8  -2  -3    5.50    0.91 
  -8  -2   3    5.37    0.94 
  -8  -2   3    5.90    0.64 
   8  -2  -3    4.34    0.48 
   8  -2  -3    5.93    0.83 
   8  -2  -3    5.13    0.62 
   8  -2  -3    6.18    0.70 
   8  -2  -3    5.32    0.78 
   8  -2  -3    4.80    0.65 
   8   2  -3    4.72    0.56 
   8   2  -3    6.99    1.01 
  -8   2   3    4.22    0.69 
  -8   2   3    4.62    0.63 
   8   2  -3    5.90    0.63 
   8   2  -3    5.41    0.62 
  -8   2   3    5.77    0.49 
   8   2  -3    7.78    0.96 
   8   2  -3    4.25    0.51 
  -8   2   3    5.24    0.59 
   6  -2  -3   12.17    0.93 
  -6  -2   3   13.14    0.94 
   6  -2  -3   13.74    1.03 
   6  -2  -3   11.19    1.03 
  -6  -2   3   12.07    1.06 
   6  -2  -3   14.47    1.25 
  -6  -2   3   10.15    1.18 
  -6  -2   3   12.90    0.90 
  -6  -2   3   12.90    0.82 
   6  -2  -3   11.37    0.99 
  -6   2   3   13.23    1.00 
   6   2  -3   12.47    0.89 
  -6   2   3   12.74    0.92 
   6   2  -3   11.82    0.82 
  -6   2   3   11.92    1.08 
   6   2  -3   15.50    1.25 
  -6   2   3   12.58    0.72 
   6   2  -3   12.45    1.23 
   6   2  -3   11.16    0.83 
   6   2  -3   12.57    0.95 
  -6   2   3   12.32    1.04 
  -4  -2   3    1.76    0.24 
  -4  -2   3    1.86    0.45 
   4  -2  -3    1.61    0.38 
   4  -2  -3    2.62    0.48 
   4  -2  -3    2.26    0.35 
  -4  -2   3    1.96    0.46 
  -4  -2   3    1.79    0.28 
   4  -2  -3    2.58    0.54 
  -4  -2   3    1.96    0.34 
   4  -2  -3    3.44    0.47 
  -4  -2   3    2.12    0.27 
   4   2  -3    2.21    0.31 
   4   2  -3    1.78    0.29 
   4   2  -3    1.47    0.31 
  -4   2   3    1.64    0.43 
  -4   2   3    2.15    0.34 
   4   2  -3    1.74    0.48 
  -4   2   3    1.25    0.43 
   4   2  -3    2.07    0.45 
  -4   2   3    1.86    0.45 
   4   2  -3    1.48    0.23 
  -4   2   3    1.25    0.32 
  -2  -2   3   21.31    1.25 
   2  -2  -3   21.11    1.25 
   2  -2  -3   17.98    1.29 
  -2  -2   3   21.33    1.11 
  -2  -2   3   22.45    1.30 
   2  -2  -3   21.08    1.20 
   2  -2  -3   19.65    1.35 
   2  -2  -3   21.29    1.11 
  -2  -2   3   23.07    1.17 
  -2  -2   3   20.70    1.11 
   2  -2  -3   22.25    1.39 
   2   2  -3   22.53    1.34 
   2   2  -3   20.09    1.13 
   2   2  -3   21.78    1.33 
   2   2  -3   20.99    1.15 
  -2   2   3   19.94    1.20 
  -2   2   3   21.65    1.10 
  -2   2   3   24.18    1.35 
   2   2  -3   23.37    1.41 
   2   2  -3   22.90    1.20 
   2   2  -3   19.76    1.23 
  -2   2   3   19.77    1.38 
   0  -2  -3   28.53    1.64 
   0  -2   3   31.76    1.68 
   0  -2  -3   29.98    1.72 
   0  -2  -3   34.61    1.80 
   0  -2  -3   32.21    1.73 
   0  -2   3   30.15    1.58 
   0  -2  -3   31.48    1.58 
   0  -2  -3   29.00    1.58 
   0  -2   3   29.49    1.74 
   0  -2  -3   29.14    1.78 
   0   2   3   29.04    1.70 
   0   2  -3   30.02    1.56 
   0   2  -3   29.80    1.72 
   0   2  -3   31.76    1.76 
   0   2  -3   30.71    1.70 
   0   2  -3   28.49    1.54 
   0   2  -3   29.20    1.56 
   0   2   3   29.13    1.77 
   0   2  -3   31.16    1.54 
   0   2   3   30.40    1.57 
   0   2  -3   27.80    1.67 
   0   2   3   30.28    1.58 
   2  -2   3  104.69    5.41 
   2  -2   3  100.43    5.30 
  -2  -2  -3  111.72    5.39 
  -2  -2  -3  108.38    5.35 
  -2  -2  -3   93.98    5.47 
  -2  -2  -3  100.10    5.34 
   2  -2   3  106.69    5.40 
  -2  -2  -3  106.66    5.44 
  -2   2  -3  113.05    5.27 
  -2   2  -3  105.82    5.39 
   2   2   3  101.67    5.46 
  -2   2  -3  109.86    5.40 
  -2   2  -3  103.75    5.34 
  -2   2  -3  115.10    5.39 
   2   2   3   99.86    5.46 
  -2   2  -3  110.08    5.40 
  -2   2  -3  107.50    5.26 
  -2   2  -3   99.69    5.27 
   2   2   3  102.55    5.38 
   4  -2   3   14.67    1.02 
  -4  -2  -3   14.32    0.90 
  -4  -2  -3   16.41    0.99 
   4  -2   3   13.12    0.86 
  -4  -2  -3   12.08    1.10 
   4  -2   3   14.07    0.99 
  -4  -2  -3   13.69    1.03 
  -4  -2  -3   14.39    0.91 
  -4  -2  -3   13.89    0.89 
  -4   2  -3   13.27    0.92 
  -4   2  -3   15.12    0.83 
  -4   2  -3   14.28    1.05 
  -4   2  -3   14.64    0.87 
  -4   2  -3   14.33    0.88 
   4   2   3   13.38    0.90 
   4   2   3   15.13    1.01 
  -4   2  -3   13.05    0.79 
   4   2   3   14.03    0.93 
   4   2   3   13.32    1.04 
  -6  -2  -3   22.92    1.43 
  -6  -2  -3   21.46    1.50 
   6  -2   3   25.53    1.23 
  -6  -2  -3   23.57    1.39 
  -6  -2  -3   21.23    1.32 
   6  -2   3   22.51    1.47 
   6  -2   3   20.11    1.31 
   6  -2   3   21.89    1.43 
   6  -2   3   19.73    1.39 
  -6  -2  -3   19.70    1.51 
   6   2   3   23.62    1.64 
   6   2   3   25.38    1.20 
   6   2   3   23.18    1.38 
   6   2   3   20.63    1.34 
  -6   2  -3   23.48    1.47 
  -6   2  -3   22.18    1.30 
   6   2   3   22.00    1.47 
  -6   2  -3   20.86    1.24 
  -6   2  -3   23.30    1.40 
  -6   2  -3   24.20    1.51 
   6   2   3   21.64    1.37 
  -8  -2  -3    9.19    1.02 
   8  -2   3    9.16    1.14 
  -8  -2  -3    9.01    1.10 
   8  -2   3    8.84    0.96 
   8  -2   3    7.42    0.88 
  -8  -2  -3    9.53    1.03 
  -8  -2  -3    9.38    0.80 
  -8  -2  -3    9.38    0.62 
   8  -2   3    8.33    0.80 
   8  -2   3    8.72    0.75 
  -8  -2  -3    8.45    0.96 
   8   2   3    9.45    0.87 
   8   2   3    7.51    0.93 
  -8   2  -3    8.37    0.91 
  -8   2  -3    9.68    1.11 
  -8   2  -3    8.85    0.88 
   8   2   3    8.90    0.85 
  -8   2  -3    9.38    0.86 
  -8   2  -3    7.51    0.67 
   8   2   3    8.20    0.96 
   8   2   3    9.85    0.68 
 -10  -2  -3    1.09    0.43 
 -10  -2  -3    0.92    0.49 
  10  -2   3    0.67    0.42 
 -10  -2  -3    1.22    0.72 
 -10  -2  -3    1.18    0.34 
  10  -2   3    0.21    0.45 
  10  -2   3    1.06    0.53 
  10  -2   3    0.24    0.86 
 -10   2  -3    0.75    0.55 
  10   2   3    0.27    0.46 
  10   2   3    0.97    0.44 
 -10   2  -3    0.64    0.35 
  10   2   3    1.15    0.58 
 -10   2  -3    1.27    0.86 
  10   2   3    1.44    0.48 
  12  -2   3    6.90    0.84 
  12  -2   3    7.56    0.86 
 -12  -2  -3    6.60    0.86 
  12  -2   3    5.43    0.81 
 -12  -2  -3    6.33    0.77 
 -12  -2  -3    6.93    0.76 
 -12   2  -3    7.71    0.88 
  12   2   3    6.72    0.78 
  12   2   3    7.50    0.86 
  12   2   3    7.33    0.88 
 -12   2  -3    6.45    0.91 
  14  -2   3    4.70    0.90 
  14  -2   3    4.59    0.87 
 -14  -2  -3    4.27    1.34 
 -14  -2  -3    2.77    1.07 
  14   2   3    4.45    0.82 
  14   2   3    5.75    0.85 
  14   2   3    4.96    0.87 
 -14   2  -3    5.72    0.78 
 -14   2  -3    4.64    0.99 
  16  -2   3    1.48    1.05 
 -16  -2  -3    2.38    1.33 
  16  -2   3    3.17    1.03 
  16  -2   3    2.67    1.07 
 -16  -2  -3    2.84    0.96 
 -16   2  -3    3.68    0.91 
  16   2   3    1.28    0.97 
 -16   2  -3    2.25    1.21 
  16   2   3    0.91    1.03 
  17  -3  -3    0.21    1.16 
 -17  -3   3    0.81    1.80 
  17   3  -3    0.69    1.19 
  17   3  -3    0.33    1.00 
 -17   3   3    0.61    1.32 
 -15  -3   3   35.93    3.35 
  15  -3  -3   39.17    2.77 
  15  -3  -3   35.87    2.60 
 -15   3   3   38.10    2.76 
  15   3  -3   36.06    2.55 
  15   3  -3   37.65    2.42 
  13  -3  -3    0.27    0.74 
  13  -3  -3    0.32    0.70 
 -13  -3   3    1.35    0.80 
  13  -3  -3    1.04    0.77 
 -13  -3   3    0.56    0.68 
 -13  -3   3    0.45    1.15 
  13   3  -3    1.28    0.58 
  13   3  -3    0.80    0.84 
 -13   3   3    0.65    1.29 
  13   3  -3    0.72    0.77 
 -13   3   3    0.39    0.76 
  11  -3  -3  136.50    7.63 
  11  -3  -3  138.03    7.55 
  11  -3  -3  132.68    7.60 
  11  -3  -3  154.61    7.56 
 -11  -3   3  129.74    7.82 
 -11  -3   3  160.68    7.59 
 -11  -3   3  155.71    7.48 
 -11  -3   3  137.47    7.64 
 -11   3   3  165.19    7.39 
  11   3  -3  143.32    7.53 
 -11   3   3  154.09    7.68 
 -11   3   3  146.28    7.51 
  11   3  -3  146.64    7.46 
  11   3  -3  146.17    7.53 
 -11   3   3  138.23    7.61 
   9  -3  -3    1.64    0.90 
   9  -3  -3    1.94    0.62 
  -9  -3   3    2.32    0.45 
  -9  -3   3    3.06    0.89 
  -9  -3   3    2.40    0.54 
   9  -3  -3    2.26    0.60 
  -9  -3   3    2.89    0.67 
   9  -3  -3    2.34    0.72 
  -9  -3   3    2.88    0.67 
   9  -3  -3    3.03    0.60 
  -9   3   3    2.13    0.63 
  -9   3   3    3.94    0.41 
   9   3  -3    2.97    0.57 
  -9   3   3    2.89    0.62 
   9   3  -3    2.88    0.48 
   9   3  -3    3.45    0.54 
  -9   3   3    1.73    0.67 
   9   3  -3    1.86    0.49 
   7  -3  -3   89.43    4.67 
  -7  -3   3   81.77    4.82 
  -7  -3   3   86.44    4.57 
   7  -3  -3  100.50    4.83 
   7  -3  -3   92.53    4.73 
  -7  -3   3   85.70    4.78 
  -7  -3   3   89.37    4.63 
   7  -3  -3   82.00    4.64 
  -7  -3   3   92.82    4.62 
  -7  -3   3   81.99    4.62 
   7   3  -3   91.11    4.76 
   7   3  -3   83.67    4.57 
  -7   3   3   92.04    4.48 
  -7   3   3   90.27    4.67 
   7   3  -3   86.84    4.64 
   7   3  -3   85.35    4.59 
   7   3  -3   83.93    4.55 
  -7   3   3   89.69    4.73 
  -7   3   3   84.65    4.71 
  -7   3   3   97.06    4.48 
  -7   3   3   89.79    4.63 
   7   3  -3   91.26    4.87 
   5  -3  -3    0.61    0.51 
  -5  -3   3    0.37    0.24 
   5  -3  -3    0.40    0.45 
   5  -3  -3    0.38    0.40 
   5  -3  -3    0.96    0.43 
  -5  -3   3    0.56    0.47 
   5  -3  -3    0.39    0.33 
  -5  -3   3    0.85    0.42 
  -5   3   3    1.59    0.51 
   5   3  -3    1.88    0.37 
   5   3  -3    2.07    0.50 
  -5   3   3    0.53    0.41 
   5   3  -3    0.59    0.28 
   5   3  -3    0.48    0.28 
   5   3  -3    0.71    0.39 
  -5   3   3    1.29    0.43 
  -5   3   3    0.84    0.58 
   5   3  -3    1.52    0.59 
  -5   3   3    0.42    0.41 
  -5   3   3    0.36    0.44 
  -5   3   3    0.40    0.21 
   3  -3  -3  175.81    9.14 
  -3  -3   3  178.73    9.19 
  -3  -3   3  178.45    9.06 
  -3  -3   3  179.12    9.07 
  -3  -3   3  180.68    9.12 
   3  -3  -3  175.42    9.17 
   3  -3  -3  179.39    9.29 
   3  -3  -3  196.74    9.25 
  -3  -3   3  179.04    9.30 
  -3  -3   3  179.86    9.15 
  -3   3   3  188.54    9.18 
  -3   3   3  171.49    9.24 
   3   3  -3  168.40    9.14 
  -3   3   3  179.89    9.25 
  -3   3   3  157.74    9.04 
   3   3  -3  185.51    9.17 
   3   3  -3  190.51    9.22 
   3   3  -3  192.08    9.16 
  -3   3   3  197.31    9.27 
   3   3  -3  175.04    9.17 
  -3   3   3  178.88    9.27 
  -3   3   3  185.67    9.13 
   3   3  -3  197.30    9.31 
   3   3  -3  182.17    9.08 
   3   3  -3  180.91    9.10 
  -1  -3   3    2.14    0.31 
  -1  -3   3    2.33    0.28 
   1  -3  -3    1.67    0.46 
  -1  -3   3    2.27    0.34 
   1  -3  -3    1.46    0.33 
   1  -3  -3    3.52    0.57 
   1  -3  -3    1.79    0.42 
   1  -3  -3    2.67    0.52 
   1  -3  -3    2.04    0.30 
  -1  -3   3    3.17    0.53 
  -1  -3   3    2.54    0.24 
   1  -3  -3    2.46    0.29 
  -1   3   3    2.52    0.45 
   1   3  -3    2.20    0.40 
   1   3  -3    1.90    0.35 
   1   3  -3    2.32    0.46 
  -1   3   3    1.31    0.47 
   1   3  -3    2.46    0.35 
   1   3  -3    2.86    0.53 
  -1   3   3    3.16    0.46 
   1   3  -3    2.09    0.25 
  -1   3   3    3.25    0.35 
  -1   3   3    2.31    0.30 
   1   3  -3    2.33    0.27 
  -1   3   3    2.16    0.37 
   1   3  -3    2.60    0.29 
  -1  -3  -3  239.55   12.54 
  -1  -3  -3  240.02   12.38 
  -1  -3  -3  274.80   12.53 
  -1  -3  -3  251.02   12.47 
   1  -3   3  243.69   12.53 
  -1  -3  -3  230.09   12.42 
  -1  -3  -3  274.12   12.55 
   1  -3   3  233.72   12.43 
   1  -3   3  247.09   12.43 
  -1  -3  -3  232.19   12.62 
   1  -3   3  250.16   12.56 
  -1  -3  -3  247.86   12.52 
   1   3   3  262.31   12.54 
  -1   3  -3  258.30   12.41 
   1   3   3  257.14   12.47 
  -1   3  -3  238.15   12.49 
  -1   3  -3  246.26   12.41 
   1   3   3  231.32   12.37 
  -1   3  -3  271.40   12.53 
   1   3   3  231.11   12.50 
   1   3   3  241.88   12.41 
   1   3   3  240.52   12.60 
  -1   3  -3  265.09   12.55 
  -1   3  -3  253.16   12.39 
  -1   3  -3  253.73   12.42 
  -3  -3  -3    1.07    0.37 
   3  -3   3    1.39    0.33 
  -3  -3  -3    1.77    0.37 
  -3  -3  -3    1.33    0.32 
  -3  -3  -3    1.72    0.34 
  -3  -3  -3    1.87    0.56 
   3  -3   3    1.43    0.43 
   3  -3   3    1.44    0.40 
  -3  -3  -3    1.36    0.42 
  -3   3  -3    1.40    0.27 
   3   3   3    2.21    0.49 
   3   3   3    1.93    0.58 
  -3   3  -3    1.40    0.25 
  -3   3  -3    1.62    0.29 
  -3   3  -3    1.77    0.31 
   3   3   3    1.59    0.31 
  -3   3  -3    1.84    0.47 
  -3   3  -3    1.46    0.34 
   3   3   3    1.44    0.40 
  -5  -3  -3  230.26   11.62 
   5  -3   3  247.24   11.62 
  -5  -3  -3  209.02   11.80 
  -5  -3  -3  214.25   11.74 
   5  -3   3  215.22   11.71 
  -5  -3  -3  262.68   11.71 
  -5  -3  -3  240.67   11.65 
  -5  -3  -3  228.81   11.64 
   5  -3   3  245.48   11.52 
   5  -3   3  215.76   11.63 
   5  -3   3  243.49   11.53 
  -5   3  -3  253.36   11.74 
  -5   3  -3  215.66   11.58 
   5   3   3  225.30   11.64 
  -5   3  -3  237.09   11.62 
  -5   3  -3  234.44   11.69 
   5   3   3  247.80   11.73 
  -5   3  -3  219.26   11.61 
   5   3   3  217.41   11.68 
  -5   3  -3  219.74   11.62 
  -5   3  -3  239.69   11.60 
   5   3   3  230.92   11.80 
   7  -3   3   11.00    0.96 
  -7  -3  -3    8.77    1.01 
  -7  -3  -3    9.22    1.16 
  -7  -3  -3    9.09    0.84 
   7  -3   3    8.56    0.98 
  -7  -3  -3    8.89    0.90 
  -7  -3  -3    9.39    1.12 
   7  -3   3    9.41    0.71 
  -7  -3  -3    9.75    1.09 
   7  -3   3    8.81    0.87 
   7   3   3    8.94    0.92 
  -7   3  -3    9.55    0.92 
   7   3   3    9.10    0.86 
  -7   3  -3    8.01    0.91 
  -7   3  -3   10.40    0.98 
   7   3   3   10.68    1.27 
   7   3   3   11.10    1.35 
  -7   3  -3    9.20    0.84 
   7   3   3   10.80    1.03 
  -7   3  -3    9.80    1.13 
  -7   3  -3    8.83    0.73 
   9  -3   3   62.86    3.47 
   9  -3   3   64.80    3.52 
   9  -3   3   69.40    3.56 
   9  -3   3   61.70    3.52 
  -9  -3  -3   62.14    3.57 
  -9  -3  -3   66.32    3.69 
  -9  -3  -3   63.69    3.43 
   9   3   3   66.34    3.29 
  -9   3  -3   61.56    3.36 
   9   3   3   63.12    3.49 
  -9   3  -3   65.01    3.47 
   9   3   3   57.57    3.44 
   9   3   3   66.87    3.67 
 -11  -3  -3    1.69    0.56 
  11  -3   3    1.27    0.57 
 -11  -3  -3    1.79    0.85 
  11  -3   3    1.03    0.61 
  11  -3   3    1.74    0.67 
 -11  -3  -3    1.29    0.65 
 -11   3  -3    0.82    0.61 
  11   3   3    0.97    0.48 
  11   3   3    0.71    0.93 
 -11   3  -3    1.51    0.47 
  11   3   3    2.12    0.65 
  11   3   3    0.83    0.55 
  13  -3   3   62.24    3.53 
 -13  -3  -3   63.58    3.88 
 -13  -3  -3   58.87    3.44 
  13  -3   3   62.50    3.55 
 -13  -3  -3   63.44    3.49 
  13  -3   3   59.71    3.62 
 -13   3  -3   62.32    3.40 
  13   3   3   60.94    3.53 
  13   3   3   64.67    3.39 
 -13   3  -3   63.97    3.61 
  13   3   3   59.85    3.58 
  15  -3   3    2.04    1.03 
 -15  -3  -3    1.90    0.83 
 -15  -3  -3    2.81    1.36 
  15  -3   3    1.76    0.91 
  15  -3   3    2.43    1.02 
  15   3   3    2.96    1.08 
 -15   3  -3    1.74    1.07 
 -15   3  -3    2.15    0.77 
  15   3   3    0.98    0.88 
 -16  -4   3   13.58    2.11 
  16  -4  -3    8.72    1.37 
 -16   4   3   12.68    1.58 
  16   4  -3    8.11    1.24 
  16   4  -3    8.57    1.33 
  14  -4  -3   23.26    2.04 
 -14  -4   3   21.91    2.21 
  14  -4  -3   23.15    2.12 
  14  -4  -3   23.01    2.26 
 -14  -4   3   21.95    2.77 
 -14   4   3   25.33    2.06 
  14   4  -3   22.46    1.94 
  14   4  -3   23.86    1.84 
 -14   4   3   22.23    2.09 
 -12  -4   3   25.16    2.73 
  12  -4  -3   23.67    2.07 
 -12  -4   3   23.13    2.06 
 -12  -4   3   28.92    1.86 
  12  -4  -3   28.00    1.94 
  12  -4  -3   24.31    1.93 
  12   4  -3   25.70    1.76 
 -12   4   3   26.97    1.98 
  12   4  -3   23.79    1.90 
  12   4  -3   19.86    2.35 
 -12   4   3   27.67    1.90 
 -10  -4   3   37.11    2.17 
  10  -4  -3   33.80    2.42 
  10  -4  -3   40.83    2.41 
  10  -4  -3   43.96    2.76 
 -10  -4   3   36.21    2.49 
 -10  -4   3   34.08    2.64 
  10  -4  -3   35.03    2.31 
 -10  -4   3   39.09    2.34 
  10   4  -3   36.35    2.20 
 -10   4   3   34.67    2.31 
  10   4  -3   36.03    2.25 
 -10   4   3   36.76    2.04 
 -10   4   3   38.02    2.30 
  10   4  -3   35.10    2.25 
 -10   4   3   40.67    2.10 
  10   4  -3   36.75    2.32 
 -10   4   3   38.08    2.51 
   8  -4  -3   67.81    3.47 
   8  -4  -3   62.06    3.34 
  -8  -4   3   52.83    3.42 
   8  -4  -3   59.02    3.33 
  -8  -4   3   61.70    3.22 
  -8  -4   3   56.04    3.43 
   8  -4  -3   55.16    3.22 
   8  -4  -3   56.00    3.35 
  -8   4   3   54.41    3.27 
   8   4  -3   57.07    3.18 
   8   4  -3   53.94    3.38 
  -8   4   3   53.81    3.33 
  -8   4   3   63.12    3.40 
  -8   4   3   56.07    3.21 
  -8   4   3   59.11    3.03 
   8   4  -3   55.68    3.12 
  -8   4   3   64.30    3.04 
   8   4  -3   59.33    3.20 
   8   4  -3   56.68    3.14 
   6  -4  -3   30.16    1.89 
  -6  -4   3   22.81    1.81 
   6  -4  -3   24.92    1.67 
   6  -4  -3   28.41    1.86 
  -6  -4   3   27.75    1.54 
   6  -4  -3   28.07    1.82 
  -6  -4   3   28.27    1.66 
  -6  -4   3   25.80    1.63 
  -6  -4   3   24.64    1.77 
   6  -4  -3   25.27    1.85 
  -6  -4   3   25.51    1.92 
   6   4  -3   26.81    1.78 
   6   4  -3   26.94    1.57 
   6   4  -3   28.53    1.69 
   6   4  -3   25.98    1.61 
  -6   4   3   27.71    1.77 
  -6   4   3   24.12    1.74 
  -6   4   3   26.07    1.84 
  -6   4   3   27.84    1.51 
  -6   4   3   26.64    1.56 
   6   4  -3   27.30    1.65 
   6   4  -3   27.34    1.91 
   6   4  -3   26.94    2.08 
  -6   4   3   26.03    1.90 
   6   4  -3   28.66    1.82 
  -6   4   3   27.79    1.73 
   4  -4  -3   71.33    3.57 
  -4  -4   3   64.85    3.51 
   4  -4  -3   60.90    3.59 
   4  -4  -3   67.90    3.53 
   4  -4  -3   67.94    3.66 
  -4  -4   3   62.65    3.50 
  -4  -4   3   64.47    3.39 
  -4  -4   3   61.73    3.68 
   4  -4  -3   58.73    3.44 
  -4  -4   3   67.75    3.35 
  -4  -4   3   67.48    3.44 
   4   4  -3   64.88    3.70 
  -4   4   3   59.88    3.39 
  -4   4   3   70.11    3.37 
   4   4  -3   68.63    3.57 
   4   4  -3   68.12    3.50 
  -4   4   3   67.89    3.50 
   4   4  -3   66.18    3.42 
   4   4  -3   64.71    3.38 
   4   4  -3   66.27    3.48 
  -4   4   3   62.22    3.67 
  -4   4   3   66.06    3.48 
   4   4  -3   65.27    3.44 
  -4   4   3   60.07    3.57 
   4   4  -3   65.69    3.48 
  -4   4   3   58.89    3.52 
  -2  -4   3  164.34    8.18 
  -2  -4   3  169.56    8.16 
   2  -4  -3  148.51    8.32 
  -2  -4   3  161.08    8.30 
   2  -4  -3  177.46    8.35 
   2  -4  -3  165.00    8.48 
  -2  -4   3  161.29    8.47 
  -2  -4   3  171.17    8.26 
  -2  -4   3  175.79    8.25 
   2  -4  -3  154.99    8.24 
   2  -4  -3  146.79    8.23 
   2  -4  -3  152.69    8.38 
   2   4  -3  169.67    8.34 
  -2   4   3  153.68    8.36 
  -2   4   3  176.28    8.41 
   2   4  -3  166.77    8.45 
   2   4  -3  160.67    8.20 
  -2   4   3  155.15    8.46 
   2   4  -3  168.99    8.28 
  -2   4   3  164.69    8.20 
  -2   4   3  166.13    8.24 
   2   4  -3  168.14    8.22 
   2   4  -3  151.12    8.21 
   2   4  -3  158.65    8.29 
  -2   4   3  167.06    8.30 
   2   4  -3  163.23    8.20 
   0  -4  -3   36.38    2.08 
   0  -4  -3   35.24    2.20 
   0  -4   3   37.79    2.02 
   0  -4  -3   36.18    2.09 
   0  -4   3   35.48    2.14 
   0  -4  -3   33.16    2.26 
   0  -4  -3   35.72    1.99 
   0  -4  -3   38.38    2.18 
   0  -4  -3   41.26    2.17 
   0  -4   3   37.35    1.90 
   0  -4   3   35.15    2.03 
   0  -4   3   34.32    2.22 
   0   4  -3   35.24    2.07 
   0   4   3   36.44    2.05 
   0   4  -3   38.16    2.25 
   0   4   3   35.18    2.34 
   0   4  -3   36.59    1.97 
   0   4  -3   36.55    1.90 
   0   4   3   35.72    1.97 
   0   4  -3   37.33    2.17 
   0   4   3   36.74    1.96 
   0   4  -3   35.80    2.03 
   0   4  -3   36.09    1.97 
   0   4   3   35.64    2.15 
   0   4   3   38.22    2.21 
  -2  -4  -3   25.11    1.60 
  -2  -4  -3   27.52    1.73 
   2  -4   3   24.00    1.54 
   2  -4   3   27.88    1.38 
  -2  -4  -3   26.02    1.61 
   2  -4   3   23.93    1.37 
  -2  -4  -3   24.53    1.43 
  -2  -4  -3   26.15    1.59 
   2  -4   3   25.83    1.68 
   2  -4   3   26.35    1.71 
  -2  -4  -3   27.90    1.54 
   2  -4   3   25.94    1.56 
  -2   4  -3   24.80    1.35 
   2   4   3   26.47    1.65 
  -2   4  -3   31.09    1.51 
  -2   4  -3   25.03    1.72 
  -2   4  -3   26.81    1.72 
  -2   4  -3   27.25    1.57 
   2   4   3   24.57    1.50 
   2   4   3   26.02    1.94 
   2   4   3   26.07    1.57 
  -2   4  -3   25.12    1.73 
   2   4   3   26.86    1.41 
  -2   4  -3   26.24    1.49 
   2   4   3   27.56    1.73 
  -2   4  -3   24.77    1.59 
   4  -4   3   66.07    3.77 
  -4  -4  -3   68.71    3.67 
   4  -4   3   65.63    3.66 
  -4  -4  -3   65.16    3.65 
  -4  -4  -3   68.32    3.68 
  -4  -4  -3   67.99    3.76 
   4  -4   3   70.07    3.51 
   4  -4   3   76.83    3.53 
   4  -4   3   70.99    3.74 
  -4  -4  -3   62.63    3.89 
  -4  -4  -3   79.87    3.79 
   4   4   3   65.75    3.64 
  -4   4  -3   66.12    3.60 
  -4   4  -3   70.71    3.81 
  -4   4  -3   70.84    3.56 
  -4   4  -3   71.63    3.63 
  -4   4  -3   67.87    3.76 
  -4   4  -3   67.07    3.74 
   4   4   3   74.57    3.81 
  -4   4  -3   69.69    3.64 
  -4   4  -3   68.27    3.53 
   4   4   3   72.82    4.03 
   4   4   3   68.74    3.73 
  -6  -4  -3   53.01    2.87 
   6  -4   3   45.60    2.74 
  -6  -4  -3   48.90    2.73 
   6  -4   3   52.04    2.60 
   6  -4   3   53.78    2.59 
  -6  -4  -3   48.95    2.91 
  -6  -4  -3   46.69    3.04 
  -6  -4  -3   43.98    2.75 
   6  -4   3   47.73    2.85 
   6   4   3   55.38    2.91 
   6   4   3   49.78    2.79 
  -6   4  -3   47.69    2.63 
  -6   4  -3   48.06    2.78 
  -6   4  -3   57.79    3.13 
  -6   4  -3   48.54    2.67 
  -6   4  -3   50.66    2.72 
   6   4   3   48.53    2.73 
   6   4   3   51.06    3.19 
  -8  -4  -3   51.87    2.82 
   8  -4   3   56.50    2.76 
  -8  -4  -3   47.25    3.03 
  -8  -4  -3   50.83    2.77 
   8  -4   3   46.99    2.80 
  -8  -4  -3   52.35    3.03 
   8  -4   3   49.94    2.88 
   8   4   3   51.90    3.28 
  -8   4  -3   48.15    2.78 
   8   4   3   47.05    2.77 
   8   4   3   46.49    2.82 
  -8   4  -3   47.76    2.69 
  -8   4  -3   48.08    2.69 
   8   4   3   51.70    3.00 
 -10  -4  -3   32.19    1.98 
 -10  -4  -3   30.37    2.19 
  10  -4   3   28.07    2.05 
 -10  -4  -3   29.18    2.14 
  10  -4   3   29.58    2.03 
  10  -4   3   32.67    2.14 
 -10  -4  -3   32.90    2.33 
 -10   4  -3   28.88    1.86 
  10   4   3   28.68    1.99 
 -10   4  -3   31.23    1.93 
  10   4   3   34.99    2.43 
  10   4   3   32.08    1.74 
  10   4   3   31.36    2.04 
 -10   4  -3   31.42    2.16 
  10   4   3   32.79    1.71 
 -12  -4  -3   22.22    1.72 
  12  -4   3   19.40    1.81 
 -12  -4  -3   22.80    1.87 
  12  -4   3   21.39    1.74 
 -12  -4  -3   21.67    2.15 
  12   4   3   21.33    1.81 
  12   4   3   20.31    1.71 
  12   4   3   22.40    1.48 
 -12   4  -3   22.09    1.55 
 -12   4  -3   20.09    1.66 
  14  -4   3   28.32    2.24 
  14  -4   3   31.70    2.40 
 -14  -4  -3   30.95    2.26 
 -14  -4  -3   31.68    2.29 
 -14  -4  -3   31.14    2.75 
  14   4   3   27.59    2.26 
  14   4   3   28.88    2.37 
 -14   4  -3   22.62    2.72 
 -14   4  -3   31.42    2.07 
  16  -4   3   18.76    2.24 
 -16  -4  -3   19.43    1.76 
  16  -4   3   20.45    2.40 
 -16  -4  -3   17.09    2.20 
  16   4   3   16.15    1.86 
 -16   4  -3   19.65    1.96 
  16   4   3   18.39    2.39 
 -16   4  -3   22.75    2.37 
 -15  -5   3   10.03    1.88 
  15  -5  -3    7.02    1.32 
 -15  -5   3    8.39    1.56 
  15   5  -3   10.99    1.32 
  15   5  -3    7.89    1.16 
 -15   5   3   10.00    1.38 
 -13  -5   3   64.33    4.27 
  13  -5  -3   68.58    4.21 
  13  -5  -3   65.82    4.09 
 -13  -5   3   69.62    4.50 
  13  -5  -3   76.80    4.09 
 -13   5   3   69.67    4.01 
 -13   5   3   66.09    4.28 
 -13   5   3   72.90    4.08 
 -13   5   3   72.97    3.71 
  13   5  -3   67.12    3.90 
  13   5  -3   71.61    3.99 
 -11  -5   3    0.75    0.94 
  11  -5  -3    2.34    0.89 
 -11  -5   3    0.07    1.06 
  11  -5  -3    0.98    0.84 
  11  -5  -3    1.91    0.83 
 -11   5   3    2.80    0.94 
  11   5  -3    1.95    0.66 
 -11   5   3    2.22    0.81 
  11   5  -3    1.95    0.95 
 -11   5   3    1.85    0.49 
 -11   5   3    1.81    0.81 
  11   5  -3    1.75    0.82 
   9  -5  -3  115.51    5.99 
   9  -5  -3  105.92    5.87 
  -9  -5   3  103.10    6.08 
   9  -5  -3  108.94    5.97 
  -9  -5   3  115.13    5.87 
  -9  -5   3  111.20    6.03 
  -9   5   3  104.14    5.82 
  -9   5   3  120.14    6.15 
  -9   5   3  121.20    5.67 
   9   5  -3  103.56    5.80 
  -9   5   3  114.46    5.64 
  -9   5   3  109.72    5.97 
  -9   5   3  111.89    5.86 
   9   5  -3  106.00    5.79 
   9   5  -3  110.46    5.80 
   9   5  -3  106.62    5.75 
  -7  -5   3   22.83    1.38 
  -7  -5   3   20.19    1.89 
   7  -5  -3   18.55    1.55 
   7  -5  -3   21.53    1.80 
   7  -5  -3   24.71    1.83 
  -7  -5   3   19.68    1.71 
  -7  -5   3   25.03    1.58 
   7  -5  -3   20.25    1.79 
   7  -5  -3   19.93    1.80 
   7   5  -3   19.80    1.46 
  -7   5   3   22.72    1.45 
  -7   5   3   22.29    1.58 
  -7   5   3   22.14    1.60 
  -7   5   3   23.44    1.98 
   7   5  -3   20.33    1.45 
   7   5  -3   21.73    1.52 
  -7   5   3   21.76    1.32 
   7   5  -3   20.08    1.48 
  -7   5   3   19.61    1.75 
   7   5  -3   20.58    1.66 
  -7   5   3   18.36    1.93 
  -5  -5   3  190.82    9.94 
   5  -5  -3  197.94   10.14 
   5  -5  -3  217.71    9.98 
  -5  -5   3  203.37    9.92 
   5  -5  -3  181.06   10.03 
   5  -5  -3  190.47    9.93 
  -5  -5   3  202.83    9.82 
  -5  -5   3  170.05   10.13 
   5  -5  -3  198.25    9.96 
  -5   5   3  180.27   10.09 
  -5   5   3  202.87    9.96 
  -5   5   3  220.05    9.83 
   5   5  -3  185.22    9.86 
   5   5  -3  200.48    9.93 
   5   5  -3  193.38    9.91 
  -5   5   3  208.80   10.09 
  -5   5   3  187.96    9.93 
  -5   5   3  193.64   10.04 
   5   5  -3  189.18    9.84 
  -5   5   3  196.35    9.81 
  -5   5   3  190.26    9.95 
   5   5  -3  190.39    9.87 
  -3  -5   3   20.73    1.22 
   3  -5  -3   21.79    1.49 
   3  -5  -3   19.16    1.36 
   3  -5  -3   18.69    1.56 
  -3  -5   3   22.15    1.37 
  -3  -5   3   20.05    1.74 
   3  -5  -3   20.00    1.67 
   3  -5  -3   20.78    1.66 
  -3  -5   3   20.17    1.32 
   3   5  -3   20.44    1.29 
  -3   5   3   22.41    1.30 
   3   5  -3   21.29    1.63 
  -3   5   3   20.56    1.56 
   3   5  -3   21.79    2.16 
   3   5  -3   18.27    1.42 
  -3   5   3   19.66    1.90 
  -3   5   3   20.73    1.51 
  -3   5   3   20.54    1.47 
   3   5  -3   20.44    1.27 
   3   5  -3   20.84    1.59 
   3   5  -3   18.83    1.31 
   1  -5  -3  241.69   11.88 
   1  -5  -3  259.01   11.94 
   1  -5  -3  235.25   11.83 
  -1  -5   3  223.41   11.78 
   1  -5  -3  230.22   11.92 
  -1  -5   3  247.59   11.74 
  -1  -5   3  241.84   11.89 
   1  -5  -3  224.62   11.84 
   1  -5  -3  228.48   12.11 
  -1  -5   3  246.69   11.77 
   1  -5  -3  216.57   12.05 
  -1  -5   3  233.20   12.16 
   1  -5  -3  258.57   12.03 
  -1   5   3  231.44   11.99 
  -1   5   3  247.69   11.92 
  -1   5   3  239.81   12.15 
  -1   5   3  251.40   12.03 
   1   5  -3  230.32   11.89 
   1   5  -3  229.14   11.92 
   1   5  -3  229.27   11.94 
   1   5  -3  229.36   11.83 
   1   5  -3  221.41   11.72 
  -1   5   3  229.25   11.82 
   1   5  -3  228.64   12.08 
   1   5  -3  223.60   11.84 
  -1   5   3  246.87   11.86 
   1  -5   3    3.14    0.52 
  -1  -5  -3    3.61    0.80 
  -1  -5  -3    2.92    0.56 
  -1  -5  -3    2.43    0.56 
   1  -5   3    3.84    0.40 
  -1  -5  -3    4.46    0.71 
  -1  -5  -3    3.39    0.48 
  -1  -5  -3    3.17    0.60 
   1  -5   3    2.32    0.55 
  -1  -5  -3    2.84    0.75 
  -1  -5  -3    3.44    0.53 
  -1  -5  -3    3.50    0.79 
   1  -5   3    2.33    0.60 
   1  -5   3    4.85    0.45 
   1  -5   3    5.92    0.92 
  -1   5  -3    3.93    0.50 
  -1   5  -3    2.84    0.59 
   1   5   3    4.15    0.76 
  -1   5  -3    2.81    0.53 
  -1   5  -3    2.74    0.65 
  -1   5  -3    3.43    0.49 
   1   5   3    2.76    0.93 
   1   5   3    3.91    0.50 
   1   5   3    4.55    0.61 
   1   5   3    3.03    0.70 
  -1   5  -3    4.45    0.87 
   1   5   3    3.91    0.49 
   3  -5   3  186.15    8.32 
   3  -5   3  156.71    8.31 
  -3  -5  -3  164.11    8.43 
   3  -5   3  147.11    8.45 
  -3  -5  -3  158.97    8.49 
   3  -5   3  166.07    8.57 
  -3  -5  -3  170.64    8.48 
   3  -5   3  171.40    8.63 
  -3  -5  -3  176.39    8.57 
  -3  -5  -3  155.45    8.70 
  -3  -5  -3  161.71    8.46 
   3   5   3  160.72    8.52 
   3   5   3  157.76    8.41 
   3   5   3  174.84    8.59 
  -3   5  -3  160.94    8.47 
   3   5   3  180.79    8.33 
  -3   5  -3  166.19    8.41 
  -3   5  -3  169.80    8.40 
  -3   5  -3  164.12    8.57 
   5  -5   3    7.61    1.06 
  -5  -5  -3    7.78    1.15 
   5  -5   3    8.78    0.98 
  -5  -5  -3    8.78    1.14 
  -5  -5  -3   10.05    1.13 
  -5  -5  -3    8.32    0.99 
   5  -5   3    6.82    0.90 
  -5  -5  -3    5.84    0.83 
   5  -5   3    9.11    0.72 
  -5   5  -3    8.47    0.84 
   5   5   3    7.88    0.88 
  -5   5  -3    9.77    1.22 
   5   5   3    7.86    0.67 
  -5   5  -3    6.72    0.82 
   5   5   3   10.42    1.29 
   5   5   3    8.27    0.56 
  -5   5  -3    9.17    0.92 
   5   5   3    6.95    0.74 
  -7  -5  -3   94.68    5.27 
   7  -5   3  109.64    4.96 
   7  -5   3   94.72    5.21 
  -7  -5  -3   94.11    5.09 
   7  -5   3  101.21    5.10 
  -7  -5  -3   97.75    5.15 
   7  -5   3   91.87    5.12 
  -7  -5  -3   98.18    5.44 
   7   5   3   88.30    5.09 
   7   5   3   97.99    5.18 
  -7   5  -3   92.03    5.04 
  -7   5  -3   95.03    4.96 
  -7   5  -3   95.60    5.06 
  -7   5  -3   98.42    5.09 
   7   5   3  106.71    5.31 
   9  -5   3   18.73    1.70 
  -9  -5  -3   20.77    1.92 
  -9  -5  -3   18.56    1.89 
   9  -5   3   18.00    1.60 
  -9  -5  -3   22.44    1.56 
   9   5   3   17.93    1.55 
   9   5   3   19.90    1.63 
  -9   5  -3   22.01    1.38 
   9   5   3   24.02    2.18 
  -9   5  -3   19.26    1.78 
  -9   5  -3   21.21    1.44 
  11  -5   3  132.00    6.94 
  11  -5   3  131.09    6.97 
 -11  -5  -3  132.84    7.15 
 -11  -5  -3  137.47    6.90 
 -11  -5  -3  126.96    7.06 
 -11   5  -3  138.26    6.80 
 -11   5  -3  135.19    6.82 
  11   5   3  120.64    6.88 
  11   5   3  128.91    6.96 
  13  -5   3    3.09    0.99 
 -13  -5  -3    1.86    1.45 
  13  -5   3    3.92    0.94 
 -13  -5  -3    3.61    1.16 
 -13  -5  -3    4.20    1.42 
  13   5   3    2.48    0.88 
  13   5   3    3.94    1.01 
 -13   5  -3    5.61    0.97 
 -13   5  -3    4.03    0.85 
 -15  -5  -3   55.25    3.41 
 -15  -5  -3   50.12    3.96 
  15  -5   3   52.86    3.62 
  15  -5   3   49.40    3.41 
  15   5   3   48.45    3.40 
 -15   5  -3   56.35    3.30 
  15   5   3   50.54    3.56 
 -14  -6   3   47.32    3.94 
 -14  -6   3   61.91    4.15 
  14  -6  -3   56.22    3.72 
  14   6  -3   57.96    3.47 
 -14   6   3   53.52    3.63 
  14   6  -3   59.10    3.51 
  12  -6  -3   32.92    2.59 
  12  -6  -3   33.09    2.78 
 -12  -6   3   34.61    2.91 
  12  -6  -3   40.12    2.66 
 -12  -6   3   27.76    2.84 
 -12   6   3   35.13    2.36 
 -12   6   3   35.26    2.53 
 -12   6   3   32.87    2.59 
  12   6  -3   31.18    2.37 
  12   6  -3   34.69    2.37 
 -10  -6   3   24.25    2.43 
  10  -6  -3   23.73    2.09 
  10  -6  -3   25.28    2.38 
 -10  -6   3   26.08    2.30 
  10  -6  -3   28.37    2.23 
  10   6  -3   24.22    1.85 
 -10   6   3   25.68    1.93 
 -10   6   3   25.54    1.63 
 -10   6   3   24.85    2.24 
  10   6  -3   26.00    1.90 
 -10   6   3   27.68    2.04 
  -8  -6   3  116.08    5.95 
   8  -6  -3  126.02    6.05 
  -8  -6   3   99.16    6.51 
  -8  -6   3  114.54    5.81 
   8  -6  -3  110.73    5.95 
   8  -6  -3  111.67    6.12 
  -8  -6   3  108.14    6.00 
   8  -6  -3  114.68    6.11 
  -8   6   3  116.84    5.94 
  -8   6   3  105.42    6.05 
  -8   6   3  121.72    5.75 
   8   6  -3   95.60    6.14 
   8   6  -3  107.21    5.87 
  -8   6   3  122.07    5.80 
  -8   6   3  109.68    5.89 
   8   6  -3  104.68    5.89 
  -6  -6   3  117.13    5.78 
  -6  -6   3  116.31    5.91 
   6  -6  -3  128.88    5.98 
   6  -6  -3  111.36    6.10 
  -6  -6   3  114.92    5.92 
   6  -6  -3  108.17    5.91 
  -6  -6   3  104.46    6.22 
   6  -6  -3  110.34    6.11 
   6   6  -3  103.99    5.83 
   6   6  -3  111.19    5.88 
  -6   6   3  113.58    5.77 
  -6   6   3  114.91    5.95 
   6   6  -3  105.87    5.82 
  -6   6   3  110.07    5.86 
  -6   6   3  113.79    6.22 
  -6   6   3  122.67    5.81 
   6   6  -3  110.92    5.87 
  -6   6   3  105.11    6.03 
   6   6  -3  110.07    5.88 
   4  -6  -3  101.17    5.69 
   4  -6  -3  101.57    5.48 
   4  -6  -3  114.74    5.54 
   4  -6  -3  105.10    5.61 
  -4  -6   3  106.75    5.43 
   4  -6  -3  106.24    5.77 
  -4  -6   3  110.88    5.40 
  -4  -6   3   97.05    5.84 
   4   6  -3  102.65    5.53 
  -4   6   3  108.18    5.75 
   4   6  -3   99.33    5.35 
   4   6  -3   99.60    5.44 
  -4   6   3  108.16    5.68 
  -4   6   3  113.16    5.59 
   4   6  -3  100.07    5.42 
   2  -6  -3  127.78    7.24 
   2  -6  -3  127.70    6.95 
   2  -6  -3  150.12    7.23 
  -2  -6   3  138.96    7.01 
  -2  -6   3  127.20    7.33 
   2  -6  -3  129.20    7.07 
  -2  -6   3  143.57    6.80 
   2  -6  -3  147.67    7.00 
  -2  -6   3  141.34    6.87 
   2  -6  -3  127.37    7.20 
   2  -6  -3  137.09    6.92 
  -2   6   3  141.61    7.01 
  -2   6   3  129.49    7.11 
   2   6  -3  135.42    7.03 
   2   6  -3  127.73    6.76 
  -2   6   3  138.86    7.04 
  -2   6   3  136.04    6.92 
   2   6  -3  127.62    6.93 
  -2   6   3  144.90    7.21 
   2   6  -3  129.17    6.92 
   0  -6  -3   69.88    4.05 
   0  -6  -3   66.90    4.32 
   0  -6  -3   73.59    4.40 
   0  -6  -3   86.93    4.21 
   0  -6   3   74.09    4.48 
   0  -6   3   69.55    4.22 
   0  -6  -3   73.30    4.10 
   0  -6   3   82.66    4.17 
   0  -6  -3   73.93    4.14 
   0  -6  -3   76.39    4.24 
   0  -6   3   85.06    3.99 
   0  -6  -3   78.77    4.07 
   0  -6  -3   81.32    4.36 
   0   6  -3   74.04    4.06 
   0   6   3   84.92    4.10 
   0   6   3   77.95    4.06 
   0   6   3   77.81    4.18 
   0   6  -3   75.49    4.08 
   0   6  -3   73.75    4.15 
   0   6   3   78.47    4.27 
   0   6   3   79.27    4.36 
  -2  -6  -3  106.27    5.68 
  -2  -6  -3  119.04    5.89 
   2  -6   3   99.42    5.68 
  -2  -6  -3   93.09    5.99 
  -2  -6  -3  104.39    5.96 
   2  -6   3  117.73    5.52 
  -2  -6  -3  109.41    5.65 
   2  -6   3  111.67    5.70 
   2  -6   3   98.78    5.77 
  -2  -6  -3  124.39    5.77 
  -2  -6  -3  107.02    5.67 
   2  -6   3  105.25    5.93 
  -2  -6  -3  100.48    5.56 
   2   6   3  106.11    5.77 
  -2   6  -3  103.78    5.60 
   2   6   3  113.54    5.70 
   2   6   3  124.21    5.58 
   2   6   3  109.79    5.61 
  -2   6  -3  101.73    5.89 
  -2   6  -3  107.43    5.61 
  -2   6  -3  100.98    5.67 
   2   6   3  114.72    5.87 
   4  -6   3   88.04    5.16 
  -4  -6  -3   94.57    5.06 
   4  -6   3   90.14    5.06 
   4  -6   3   98.36    4.89 
  -4  -6  -3  100.35    5.12 
  -4  -6  -3  104.38    5.29 
  -4  -6  -3   93.68    5.43 
   4  -6   3   92.15    5.25 
  -4   6  -3   89.83    5.27 
   4   6   3   94.04    5.16 
  -4   6  -3   94.92    5.07 
   4   6   3  100.17    4.96 
   4   6   3  100.43    5.29 
   4   6   3  109.17    4.92 
   4   6   3   90.31    5.00 
  -4   6  -3   88.17    4.99 
  -4   6  -3   94.24    4.99 
   6  -6   3   33.35    2.20 
  -6  -6  -3   32.80    2.43 
   6  -6   3   36.41    2.32 
   6  -6   3   37.05    1.99 
  -6  -6  -3   28.88    2.62 
  -6  -6  -3   36.47    2.23 
   6  -6   3   36.61    2.37 
  -6  -6  -3   37.16    2.35 
  -6   6  -3   32.86    2.08 
   6   6   3   32.79    2.14 
   6   6   3   39.16    1.95 
  -6   6  -3   32.39    2.50 
   6   6   3   37.04    1.85 
   6   6   3   33.07    2.26 
  -6   6  -3   33.58    2.16 
  -6   6  -3   32.26    2.17 
   6   6   3   35.56    2.55 
   8  -6   3   74.81    4.30 
  -8  -6  -3   76.12    4.35 
  -8  -6  -3   71.99    4.43 
   8  -6   3   85.87    4.17 
   8  -6   3   75.70    4.19 
  -8  -6  -3   77.56    4.15 
  -8  -6  -3   75.03    4.55 
   8   6   3   74.40    4.25 
  -8   6  -3   76.02    4.09 
   8   6   3   72.77    4.21 
  -8   6  -3   73.80    4.15 
 -10  -6  -3  106.62    5.51 
  10  -6   3  104.60    5.64 
 -10  -6  -3  105.49    5.76 
  10  -6   3  103.58    5.57 
 -10  -6  -3   99.04    5.83 
 -10   6  -3  106.06    5.49 
  10   6   3   95.24    5.50 
  10   6   3  105.68    5.61 
 -10   6  -3  100.33    5.42 
  12  -6   3   45.56    3.09 
 -12  -6  -3   46.40    3.35 
  12  -6   3   42.90    2.94 
 -12  -6  -3   44.54    3.22 
 -12  -6  -3   44.03    2.95 
  12   6   3   43.53    2.94 
 -12   6  -3   44.56    2.71 
  12   6   3   43.91    2.90 
 -14  -6  -3   31.26    3.32 
  14  -6   3   36.26    2.96 
  14  -6   3   32.76    2.80 
 -14  -6  -3   31.49    3.75 
  14   6   3   31.98    2.84 
 -14   6  -3   31.51    2.43 
  14   6   3   35.30    3.22 
 -13  -7   3   11.37    1.95 
  13  -7  -3    7.74    1.43 
 -13  -7   3   14.85    1.85 
  13   7  -3   12.99    1.48 
  13   7  -3   12.15    1.38 
  11  -7  -3  108.34    6.02 
  11  -7  -3  100.85    5.57 
 -11  -7   3  100.94    5.69 
 -11  -7   3   96.12    5.97 
 -11   7   3   92.58    5.58 
  11   7  -3   99.79    5.44 
  11   7  -3  102.14    5.45 
   9  -7  -3   18.92    2.12 
   9  -7  -3   17.12    2.17 
  -9  -7   3   16.74    1.88 
   9  -7  -3   15.29    1.78 
  -9  -7   3   14.00    1.82 
  -9   7   3   14.88    1.60 
   9   7  -3   14.90    1.60 
  -9   7   3   15.05    1.77 
  -9   7   3   16.50    1.37 
  -9   7   3   16.67    1.52 
   9   7  -3   17.71    1.63 
  -7  -7   3  133.92    6.75 
  -7  -7   3  120.18    7.19 
   7  -7  -3  129.36    7.01 
   7  -7  -3  118.88    6.77 
   7  -7  -3  138.18    7.05 
  -7   7   3  126.30    6.90 
   7   7  -3  117.20    7.23 
  -7   7   3  140.01    6.62 
   7   7  -3  125.64    6.75 
  -7   7   3  133.53    6.81 
  -5  -7   3   35.73    2.98 
   5  -7  -3   46.92    2.61 
  -5  -7   3   39.29    2.50 
  -5  -7   3   42.00    2.59 
   5  -7  -3   40.51    2.85 
   5  -7  -3   37.92    2.45 
   5  -7  -3   42.32    2.85 
  -5  -7   3   41.34    2.33 
  -5   7   3   41.25    2.73 
   5   7  -3   37.29    2.47 
  -5   7   3   37.96    2.36 
  -5   7   3   39.05    2.51 
   5   7  -3   37.76    2.50 
   5   7  -3   37.18    2.44 
  -5   7   3   40.66    2.62 
   3  -7  -3  173.62    8.17 
   3  -7  -3  162.24    8.51 
   3  -7  -3  173.31    8.08 
  -3  -7   3  145.07    8.58 
   3  -7  -3  147.18    8.41 
   3  -7  -3  150.47    8.16 
  -3   7   3  165.62    8.27 
   3   7  -3  152.53    8.16 
  -3   7   3  160.87    8.12 
  -3   7   3  153.23    8.33 
  -3   7   3  158.22    8.49 
   3   7  -3  152.06    8.14 
   3   7  -3  169.71    8.29 
  -1  -7   3   31.57    1.84 
   1  -7  -3   32.92    2.19 
   1  -7  -3   29.42    1.97 
  -1  -7   3   31.53    2.12 
   1  -7  -3   34.15    2.06 
   1  -7  -3   31.17    1.85 
  -1  -7   3   29.06    2.55 
   1  -7  -3   26.49    2.39 
   1  -7  -3   30.44    2.64 
   1  -7  -3   27.82    2.38 
   1   7  -3   27.82    1.99 
   1   7  -3   29.80    1.93 
  -1   7   3   30.13    2.28 
  -1   7   3   30.82    1.94 
   1   7  -3   29.05    2.07 
  -1   7   3   33.34    2.17 
  -1   7   3   31.70    2.75 
  -1   7   3   31.15    2.16 
  -1  -7  -3  188.48    9.67 
   1  -7   3  198.08    9.50 
  -1  -7  -3  185.97    9.96 
  -1  -7  -3  172.73    9.87 
   1  -7   3  199.07    9.72 
  -1  -7  -3  204.01    9.91 
   1  -7   3  171.45    9.93 
  -1  -7  -3  207.81    9.69 
  -1  -7  -3  203.24    9.59 
  -1  -7  -3  171.68    9.57 
  -1  -7  -3  201.96   10.25 
   1  -7   3  172.92    9.70 
   1  -7   3  165.79    9.74 
  -1   7  -3  184.41    9.60 
   1   7   3  197.81    9.69 
  -1   7  -3  180.44    9.67 
   1   7   3  190.92    9.60 
  -1   7  -3  179.68    9.60 
   1   7   3  181.29    9.76 
   1   7   3  198.06    9.89 
   1   7   3  200.84    9.61 
   3  -7   3   12.98    1.50 
  -3  -7  -3   16.20    2.18 
  -3  -7  -3   17.85    1.45 
   3  -7   3   14.98    1.28 
  -3  -7  -3   18.95    1.91 
  -3  -7  -3   17.18    1.60 
   3  -7   3   13.30    1.70 
   3  -7   3   17.60    1.91 
   3   7   3   18.62    1.81 
   3   7   3   18.58    1.44 
   3   7   3   15.09    1.36 
  -3   7  -3   14.54    1.35 
   3   7   3   16.16    1.64 
  -3   7  -3   15.52    1.45 
  -3   7  -3   16.57    1.58 
   5  -7   3  162.88    8.29 
  -5  -7  -3  148.44    8.46 
   5  -7   3  151.31    8.20 
  -5  -7  -3  159.42    8.10 
  -5  -7  -3  170.23    8.14 
   5  -7   3  149.87    8.11 
   5   7   3  153.62    8.18 
  -5   7  -3  151.47    8.02 
  -5   7  -3  153.01    8.08 
   5   7   3  155.58    8.33 
   5   7   3  150.52    8.04 
   5   7   3  164.51    7.86 
  -7  -7  -3   25.56    1.99 
   7  -7   3   26.32    2.01 
  -7  -7  -3   29.92    2.14 
  -7  -7  -3   24.05    2.55 
   7  -7   3   24.02    2.15 
   7  -7   3   27.45    2.12 
  -7   7  -3   27.39    1.83 
  -7   7  -3   23.80    1.92 
   7   7   3   24.84    1.92 
   7   7   3   26.02    2.12 
  -9  -7  -3  110.00    5.80 
  -9  -7  -3  105.40    5.62 
   9  -7   3  108.95    5.68 
   9  -7   3  108.67    5.79 
  -9  -7  -3  101.59    6.07 
  -9   7  -3  101.50    5.58 
   9   7   3   98.47    5.69 
   9   7   3   99.98    5.60 
  -9   7  -3  102.76    5.53 
  11  -7   3   23.32    2.22 
 -11  -7  -3   26.04    2.65 
 -11  -7  -3   27.23    2.81 
 -11  -7  -3   26.54    2.32 
  11  -7   3   26.80    2.53 
  11   7   3   24.17    2.21 
  11   7   3   22.13    2.34 
 -11   7  -3   24.23    2.00 
 -11   7  -3   23.56    2.09 
  10  -8  -3   85.06    5.20 
 -10  -8   3   74.18    5.44 
  10  -8  -3   79.78    4.78 
  10  -8  -3   89.07    5.12 
  10   8  -3   85.54    4.68 
  10   8  -3   79.66    4.70 
   8  -8  -3   70.70    4.26 
   8  -8  -3   64.64    3.86 
   8  -8  -3   65.24    4.22 
  -8  -8   3   58.88    4.55 
  -8   8   3   62.34    3.93 
   8   8  -3   64.70    3.85 
   8   8  -3   64.29    3.80 
  -8   8   3   66.27    3.58 
   6  -8  -3   66.68    4.11 
   6  -8  -3   66.48    3.70 
   6  -8  -3   63.52    4.05 
  -6  -8   3   55.91    4.27 
  -6   8   3   60.53    3.51 
  -6   8   3   68.94    3.80 
   6   8  -3   62.68    3.64 
   6   8  -3   66.14    3.75 
  -6   8   3   56.43    3.92 
   4  -8  -3   87.32    5.27 
   4  -8  -3   88.33    4.92 
   4  -8  -3  100.64    4.71 
   4  -8  -3   95.71    4.97 
   4  -8  -3   92.62    5.32 
  -4  -8   3   79.54    5.41 
  -4   8   3   85.41    5.13 
  -4   8   3   90.17    4.83 
  -4   8   3   94.64    5.04 
   4   8  -3   88.73    5.00 
   2  -8  -3  102.36    5.66 
   2  -8  -3   94.34    6.07 
   2  -8  -3  119.08    5.50 
   2  -8  -3  107.27    6.10 
   2  -8  -3  110.93    5.71 
  -2  -8   3   97.81    6.16 
  -2   8   3  107.49    5.88 
   2   8  -3  113.20    5.82 
   2   8  -3  102.11    5.65 
  -2   8   3  102.39    5.60 
  -2   8   3  112.35    5.81 
   0  -8  -3   86.66    5.35 
   0  -8  -3   88.87    5.39 
   0  -8  -3  103.57    4.86 
   0  -8  -3   97.90    5.05 
   0  -8  -3   81.19    4.93 
   0  -8   3   87.29    5.42 
   0   8   3   94.85    4.94 
   0   8   3   99.95    5.15 
   0   8  -3   89.85    5.04 
   0   8  -3   89.65    4.96 
   2  -8   3   83.73    5.18 
   2  -8   3   91.57    5.59 
   2  -8   3   88.80    5.28 
  -2  -8  -3  103.53    4.99 
  -2  -8  -3   91.82    5.51 
  -2  -8  -3   94.28    5.17 
   2   8   3   92.13    5.26 
  -2   8  -3   91.08    5.12 
   2   8   3  105.20    5.21 
   2   8   3   97.83    5.05 
  -2   8  -3   92.21    5.03 
   4  -8   3   82.57    4.95 
  -4  -8  -3   98.20    4.86 
  -4  -8  -3   88.63    5.40 
   4  -8   3   86.78    5.07 
  -4  -8  -3   92.04    4.99 
   4  -8   3   91.66    5.27 
   4   8   3   94.90    4.67 
  -4   8  -3   89.91    4.91 
   4   8   3   83.81    5.04 
  -4   8  -3   86.17    4.82 
   4   8   3   90.62    4.87 
   6  -8   3   99.95    5.35 
   6  -8   3   97.69    5.48 
   6  -8   3   95.93    5.44 
  -6  -8  -3   95.56    5.33 
  -6  -8  -3   92.33    5.77 
  -6  -8  -3  105.95    5.29 
  -6   8  -3   94.78    5.20 
  -6   8  -3   94.48    5.25 
   6   8   3   99.42    5.25 
   6   8   3   88.63    5.39 
   8  -8   3   86.15    4.89 
  -8  -8  -3   89.55    4.79 
  -8  -8  -3   74.64    5.22 
  -8  -8  -3   88.44    5.20 
   8  -8   3   85.23    4.72 
   8   8   3   75.02    4.84 
  -8   8  -3   85.51    4.59 
  -8   8  -3   84.78    4.66 
   8   8   3   81.23    4.69 
 -10  -8  -3   29.50    3.41 
  10  -8   3   32.24    2.95 
 -10  -8  -3   36.78    2.90 
  10  -8   3   32.14    2.66 
 -10   8  -3   30.28    2.41 
  10   8   3   33.25    2.67 
 -10   8  -3   31.53    2.51 
   7  -9  -3   19.81    2.23 
  -7  -9   3   20.96    2.57 
   7  -9  -3   24.52    2.92 
   7  -9  -3   20.26    2.28 
   7   9  -3   21.74    2.29 
   7   9  -3   23.91    2.35 
   5  -9  -3  147.13    7.62 
   5  -9  -3  152.97    8.04 
  -5  -9   3  122.35    8.05 
   5  -9  -3  129.68    8.05 
   5   9  -3  147.35    7.61 
  -5   9   3  155.09    7.44 
   5   9  -3  145.96    7.64 
   3  -9  -3   23.96    2.16 
   3  -9  -3   23.93    2.76 
   3  -9  -3   24.11    2.86 
  -3  -9   3   20.70    2.88 
   3   9  -3   25.29    2.28 
  -3   9   3   28.78    2.51 
  -3   9   3   25.11    1.99 
  -1  -9   3  133.65    7.78 
   1  -9  -3  143.96    7.78 
   1  -9  -3  130.99    7.29 
   1  -9  -3  127.03    7.69 
  -1   9   3  149.04    7.50 
  -1   9   3  145.05    8.32 
  -1   9   3  140.59    7.23 
   1   9  -3  140.25    7.44 
   1   9  -3  137.01    7.29 
   1  -9   3   59.59    4.21 
  -1  -9  -3   63.36    4.26 
  -1   9  -3   62.66    3.63 
   1   9   3   60.19    4.00 
   1   9   3   58.51    3.91 
  -1   9  -3   62.27    3.75 
   1   9   3   62.89    3.63 
   3  -9   3  118.03    6.69 
   3  -9   3  124.12    6.87 
  -3  -9  -3  117.29    6.92 
   3  -9   3  121.76    6.59 
   3   9   3  114.88    7.07 
  -3   9  -3  122.39    6.41 
  -3   9  -3  120.34    6.51 
   3   9   3  124.37    6.44 
   5  -9   3   48.41    3.50 
  -5  -9  -3   51.62    4.03 
   5  -9   3   51.22    3.36 
   5  -9   3   52.09    3.66 
  -5   9  -3   50.84    3.27 
  -5   9  -3   51.00    3.12 
   5   9   3   50.83    3.26 
   7  -9   3  142.19    7.28 
   7  -9   3  130.40    7.37 
  -7  -9  -3  130.95    7.80 
  -7   9  -3  133.00    7.17 
   7   9   3  139.16    7.23 
  -7   9  -3  130.57    7.13 
  -2 -10   3   54.15    4.37 
   2 -10  -3   63.15    3.90 
   2 -10  -3   59.33    4.44 
   2  10  -3   56.36    3.85 
  -2  10   3   59.93    3.57 
   0 -10   3   61.08    4.54 
   0 -10  -3   65.25    4.57 
   0  10  -3   60.37    3.89 
   0  10  -3   65.41    4.14 
   0  10   3   64.66    3.84 
  -2 -10  -3   94.27    5.99 
   2 -10   3   88.86    5.71 
  -2  10  -3   89.27    5.17 
   2  10   3   91.72    5.15 
  -2  10  -3   93.31    5.28 
 -16   0   4  207.54   10.78 
  16   0  -4  208.80   10.37 
  16   0  -4  197.23   10.41 
  16   0  -4  191.41   10.16 
  14   0  -4   72.87    3.86 
  14   0  -4   71.73    4.13 
 -14   0   4   74.23    4.55 
  14   0  -4   66.80    4.14 
  14   0  -4   81.60    4.14 
 -12   0   4  457.01   21.04 
 -12   0   4  418.55   20.91 
  12   0  -4  391.13   20.82 
 -12   0   4  414.28   21.24 
  12   0  -4  424.14   20.98 
  12   0  -4  398.58   20.99 
 -12   0   4  424.23   20.85 
  12   0  -4  415.19   21.01 
  10   0  -4  130.25    6.83 
  10   0  -4  150.08    7.08 
  10   0  -4  132.33    6.79 
 -10   0   4  135.86    6.85 
 -10   0   4  133.73    6.75 
  10   0  -4  126.53    6.82 
  10   0  -4  130.41    6.66 
 -10   0   4  119.01    7.02 
 -10   0   4  130.09    6.70 
   8   0  -4  295.69   15.74 
   8   0  -4  298.76   15.87 
   8   0  -4  305.04   15.88 
  -8   0   4  336.87   15.89 
  -8   0   4  312.17   15.89 
   8   0  -4  366.71   16.08 
   8   0  -4  318.53   15.83 
  -8   0   4  321.22   15.87 
  -8   0   4  290.84   16.04 
  -6   0   4  118.69    6.20 
   6   0  -4  137.72    6.52 
   6   0  -4  126.21    6.18 
   6   0  -4  120.47    6.32 
  -6   0   4  122.11    6.27 
   6   0  -4  127.40    6.33 
  -6   0   4  104.72    6.45 
   6   0  -4  125.39    6.54 
  -6   0   4  123.35    6.33 
   6   0  -4  121.60    6.27 
  -6   0   4  128.90    6.33 
   4   0  -4  726.60   34.74 
  -4   0   4  721.68   34.58 
   4   0  -4  662.27   34.56 
   4   0  -4  656.05   34.52 
   4   0  -4  693.35   34.58 
  -4   0   4  757.82   34.56 
   4   0  -4  746.77   34.50 
  -4   0   4  679.98   34.52 
  -4   0   4  606.53   34.70 
   2   0  -4  330.97   16.75 
   2   0  -4  311.31   16.73 
  -2   0   4  338.62   16.74 
  -2   0   4  310.54   16.90 
   2   0  -4  343.21   16.70 
   2   0  -4  350.63   16.77 
   2   0  -4  360.17   16.93 
   2   0  -4  324.76   16.70 
  -2   0   4  322.27   16.68 
  -2   0   4  362.67   16.78 
   0   0  -4  785.93   36.08 
   0   0   4  661.80   35.94 
   0   0  -4  733.55   35.92 
   0   0  -4  656.02   35.92 
   0   0  -4  770.87   35.90 
   0   0  -4  734.43   36.05 
   0   0   4  718.49   35.92 
  -2   0  -4  206.02   10.18 
  -2   0  -4  205.04   10.23 
   2   0   4  203.02   10.19 
  -2   0  -4  192.64   10.38 
  -2   0  -4  212.49   10.37 
   2   0   4  208.68   10.21 
  -2   0  -4  205.55   10.24 
   2   0   4  198.24   10.24 
   4   0   4  579.56   29.48 
   4   0   4  575.70   29.43 
  -4   0  -4  521.05   29.53 
  -4   0  -4  631.97   29.48 
  -4   0  -4  548.32   29.51 
  -4   0  -4  648.35   29.43 
   4   0   4  629.43   29.44 
  -4   0  -4  551.99   29.41 
  -4   0  -4  640.83   29.45 
  -6   0  -4  153.32    8.34 
  -6   0  -4  153.68    8.17 
  -6   0  -4  155.17    8.23 
   6   0   4  159.29    8.27 
  -6   0  -4  161.49    8.25 
  -6   0  -4  178.26    8.28 
  -6   0  -4  176.96    8.22 
   6   0   4  164.15    8.22 
   8   0   4  387.76   19.44 
   8   0   4  428.80   19.26 
  -8   0  -4  369.99   19.18 
   8   0   4  379.83   19.30 
  -8   0  -4  360.73   19.38 
  -8   0  -4  366.77   19.21 
  -8   0  -4  397.34   19.21 
   8   0   4  364.54   19.25 
   8   0   4  412.65   19.26 
  10   0   4   62.07    3.52 
 -10   0  -4   65.62    3.70 
  10   0   4   67.60    3.51 
 -10   0  -4   65.06    3.42 
  10   0   4   62.13    3.49 
 -10   0  -4   67.53    3.46 
  12   0   4  288.19   14.64 
 -12   0  -4  282.47   14.56 
  12   0   4  287.82   14.69 
 -12   0  -4  289.93   14.57 
 -12   0  -4  282.59   14.81 
  12   0   4  308.92   14.64 
 -14   0  -4  126.04    6.73 
  14   0   4  113.24    6.46 
  14   0   4  134.74    6.51 
  14   0   4  118.47    6.48 
 -14   0  -4  123.61    6.38 
 -16   0  -4  156.54    8.28 
  16   0   4  150.81    8.00 
  16   0   4  151.01    8.03 
 -16   0  -4  151.58    7.88 
  17  -1  -4   88.76    5.39 
 -17  -1   4   98.59    6.00 
  17   1  -4   93.89    5.40 
 -17   1   4  101.51    5.77 
  15  -1  -4  137.70    7.54 
 -15  -1   4  149.06    7.99 
  15  -1  -4  150.96    7.50 
  15  -1  -4  139.83    7.28 
  15   1  -4  145.70    7.53 
 -15   1   4  149.45    7.85 
  15   1  -4  132.47    7.30 
  15   1  -4  141.52    7.55 
 -13  -1   4  128.51    7.09 
  13  -1  -4  125.78    6.50 
  13  -1  -4  137.16    6.74 
  13  -1  -4  126.71    6.73 
 -13  -1   4  138.00    6.66 
  13  -1  -4  122.96    6.77 
 -13   1   4  126.05    6.97 
  13   1  -4  125.07    6.74 
  13   1  -4  125.98    6.72 
  13   1  -4  123.40    6.54 
 -13   1   4  129.88    6.71 
  11  -1  -4  230.91   11.48 
 -11  -1   4  218.40   11.33 
 -11  -1   4  240.47   11.48 
 -11  -1   4  213.26   11.70 
  11  -1  -4  211.04   11.43 
  11  -1  -4  209.91   11.25 
 -11  -1   4  226.49   11.36 
  11  -1  -4  221.15   11.42 
  11  -1  -4  259.23   11.68 
  11   1  -4  218.09   11.43 
  11   1  -4  226.33   11.31 
 -11   1   4  220.06   11.63 
 -11   1   4  227.33   11.38 
 -11   1   4  241.56   11.50 
  11   1  -4  213.16   11.43 
 -11   1   4  224.03   11.27 
  -9  -1   4  232.89   11.54 
   9  -1  -4  217.13   11.63 
  -9  -1   4  214.26   11.85 
   9  -1  -4  226.29   11.64 
   9  -1  -4  232.46   11.69 
  -9  -1   4  246.21   11.64 
   9  -1  -4  228.70   11.67 
   9   1  -4  221.59   11.63 
  -9   1   4  246.94   11.68 
  -9   1   4  219.61   11.48 
   9   1  -4  218.41   11.61 
  -9   1   4  237.82   11.59 
   9   1  -4  236.02   11.51 
  -9   1   4  206.49   11.77 
   9   1  -4  264.30   11.86 
   9   1  -4  228.46   11.57 
   7  -1  -4  141.40    7.19 
  -7  -1   4  136.99    7.12 
  -7  -1   4  144.09    7.13 
  -7  -1   4  123.08    7.37 
   7  -1  -4  140.24    7.26 
   7  -1  -4  133.11    7.20 
  -7  -1   4  140.64    7.22 
   7  -1  -4  134.05    7.03 
   7  -1  -4  145.49    7.30 
   7  -1  -4  151.34    7.46 
  -7  -1   4  147.49    7.19 
   7   1  -4  143.32    7.09 
  -7   1   4  142.11    7.17 
   7   1  -4  133.39    7.18 
   7   1  -4  162.99    7.44 
   7   1  -4  155.37    7.46 
   7   1  -4  144.85    7.22 
  -7   1   4  131.28    7.04 
  -7   1   4  124.16    7.33 
  -7   1   4  139.14    7.22 
   7   1  -4  143.84    7.14 
  -7   1   4  148.04    7.23 
   5  -1  -4  371.47   19.31 
   5  -1  -4  411.02   19.51 
  -5  -1   4  328.34   19.44 
  -5  -1   4  388.82   19.27 
   5  -1  -4  385.29   19.43 
   5  -1  -4  365.15   19.35 
  -5  -1   4  377.91   19.26 
  -5  -1   4  387.61   19.34 
   5  -1  -4  368.78   19.32 
  -5  -1   4  402.74   19.30 
   5   1  -4  424.29   19.53 
  -5   1   4  413.85   19.35 
   5   1  -4  440.33   19.52 
  -5   1   4  415.77   19.36 
   5   1  -4  371.58   19.27 
   5   1  -4  375.16   19.34 
  -5   1   4  354.21   19.48 
   5   1  -4  371.03   19.30 
   5   1  -4  390.54   19.25 
  -5   1   4  388.21   19.32 
   3  -1  -4  374.61   19.52 
   3  -1  -4  361.48   19.54 
  -3  -1   4  367.24   19.65 
  -3  -1   4  386.92   19.43 
   3  -1  -4  426.65   19.70 
  -3  -1   4  400.26   19.43 
  -3  -1   4  402.47   19.48 
   3  -1  -4  391.52   19.65 
   3  -1  -4  393.45   19.52 
   3   1  -4  385.67   19.46 
  -3   1   4  353.53   19.66 
   3   1  -4  423.31   19.69 
  -3   1   4  391.68   19.50 
  -3   1   4  406.36   19.52 
   3   1  -4  386.03   19.48 
   3   1  -4  395.66   19.54 
  -3   1   4  406.59   19.55 
   3   1  -4  387.30   19.48 
   1  -1  -4  301.16   15.10 
   1  -1  -4  291.75   14.97 
   1  -1  -4  313.30   14.88 
   1  -1  -4  301.95   14.93 
   1  -1  -4  337.27   15.13 
  -1  -1   4  279.35   15.06 
   1  -1  -4  278.79   14.93 
  -1  -1   4  303.30   14.88 
   1   1  -4  301.86   15.08 
   1   1  -4  323.23   15.09 
   1   1  -4  298.47   14.97 
  -1   1   4  305.41   14.94 
  -1   1   4  300.16   14.89 
   1   1  -4  294.59   14.95 
  -1   1   4  287.93   15.10 
   1   1  -4  299.34   14.95 
  -1   1   4  292.43   14.90 
  -1   1   4  268.06   14.98 
   1   1  -4  281.65   14.88 
  -1   1   4  321.35   14.99 
  -1  -1  -4  559.21   26.61 
  -1  -1  -4  507.85   26.61 
  -1  -1  -4  567.31   26.79 
  -1  -1  -4  509.32   26.59 
  -1  -1  -4  541.73   26.65 
  -1  -1  -4  515.59   26.77 
  -1   1  -4  533.09   26.68 
  -1   1  -4  581.76   26.77 
  -1   1  -4  560.62   26.73 
   1   1   4  522.34   26.65 
   1   1   4  559.35   26.76 
   1   1   4  528.54   26.62 
  -1   1  -4  536.43   26.65 
   1   1   4  472.72   26.63 
  -3  -1  -4  295.29   14.45 
   3  -1   4  301.80   14.56 
  -3  -1  -4  280.55   14.63 
  -3  -1  -4  266.83   14.61 
  -3  -1  -4  316.13   14.52 
   3  -1   4  271.98   14.55 
  -3  -1  -4  308.28   14.52 
  -3  -1  -4  275.44   14.50 
  -3  -1  -4  283.49   14.43 
   3  -1   4  281.54   14.45 
   3   1   4  312.79   14.62 
  -3   1  -4  300.08   14.55 
  -3   1  -4  298.98   14.56 
   3   1   4  284.79   14.52 
  -3   1  -4  276.92   14.57 
  -3   1  -4  314.40   14.55 
  -3   1  -4  273.03   14.58 
   3   1   4  309.10   14.55 
   3   1   4  284.94   14.52 
  -3   1  -4  270.68   14.43 
  -5  -1  -4  208.63   11.43 
   5  -1   4  237.28   11.36 
  -5  -1  -4  208.79   11.41 
  -5  -1  -4  221.07   11.22 
   5  -1   4  225.07   11.37 
   5  -1   4  212.48   11.28 
  -5  -1  -4  243.36   11.34 
  -5  -1  -4  215.28   11.29 
  -5  -1  -4  246.30   11.34 
  -5   1  -4  218.25   11.31 
  -5   1  -4  206.22   11.24 
  -5   1  -4  236.54   11.37 
  -5   1  -4  241.86   11.36 
   5   1   4  236.61   11.38 
  -5   1  -4  207.37   11.39 
  -5   1  -4  239.27   11.26 
   5   1   4  220.76   11.34 
  -5   1  -4  228.73   11.30 
   5   1   4  214.37   11.31 
   5   1   4  240.57   11.24 
  -7  -1  -4  294.89   15.69 
  -7  -1  -4  319.92   15.56 
  -7  -1  -4  303.22   15.62 
  -7  -1  -4  326.83   15.67 
   7  -1   4  294.50   15.63 
  -7  -1  -4  327.91   15.69 
   7  -1   4  317.37   15.69 
   7  -1   4  322.30   15.79 
   7  -1   4  327.52   15.55 
   7  -1   4  293.11   15.69 
  -7  -1  -4  298.50   15.79 
   7   1   4  310.85   15.82 
   7   1   4  315.63   15.62 
  -7   1  -4  337.26   15.71 
  -7   1  -4  321.03   15.67 
   7   1   4  298.37   15.68 
  -7   1  -4  331.26   15.62 
  -7   1  -4  299.25   15.59 
  -7   1  -4  291.01   15.74 
   7   1   4  293.99   15.65 
   7   1   4  329.02   15.66 
   7   1   4  324.94   15.58 
   9  -1   4  136.26    7.45 
  -9  -1  -4  153.84    7.36 
   9  -1   4  139.07    7.50 
  -9  -1  -4  138.04    7.63 
  -9  -1  -4  143.71    7.43 
   9  -1   4  149.98    7.51 
   9   1   4  143.35    7.48 
   9   1   4  160.37    7.43 
   9   1   4  143.01    7.49 
  -9   1  -4  150.36    7.49 
  -9   1  -4  141.69    7.59 
   9   1   4  157.85    7.46 
  -9   1  -4  144.63    7.40 
  11  -1   4  165.51    8.38 
 -11  -1  -4  163.62    8.17 
 -11  -1  -4  168.10    8.23 
 -11  -1  -4  157.21    8.54 
  11  -1   4  159.09    8.33 
  11  -1   4  169.19    8.38 
 -11  -1  -4  160.03    8.28 
 -11   1  -4  159.31    8.48 
 -11   1  -4  160.76    8.26 
  11   1   4  175.48    8.30 
  11   1   4  160.04    8.35 
 -11   1  -4  164.64    8.34 
  11   1   4  155.66    8.34 
 -13  -1  -4  184.62    9.73 
  13  -1   4  179.40    9.51 
  13  -1   4  180.07    9.50 
 -13  -1  -4  182.47    9.43 
  13  -1   4  194.79    9.54 
 -13   1  -4  185.00    9.68 
  13   1   4  183.12    9.51 
 -13   1  -4  179.18    9.41 
  13   1   4  185.97    9.53 
  13   1   4  200.13    9.47 
 -15  -1  -4   93.95    5.46 
  15  -1   4   93.42    5.15 
  15  -1   4   92.21    5.17 
 -15  -1  -4   98.67    5.07 
  15   1   4   95.31    5.19 
 -15   1  -4   96.46    5.04 
 -15   1  -4   95.86    5.41 
  15   1   4   92.39    5.17 
 -16  -2   4   50.73    4.05 
  16  -2  -4   50.62    3.25 
 -16   2   4   51.45    3.59 
  16   2  -4   47.61    2.95 
  16   2  -4   51.43    3.26 
  14  -2  -4  232.50   11.19 
 -14  -2   4  203.86   11.56 
  14  -2  -4  213.60   10.97 
  14  -2  -4  207.37   11.27 
  14  -2  -4  215.85   11.21 
 -14   2   4  215.14   11.36 
 -14   2   4  231.11   11.39 
  14   2  -4  221.76   11.22 
  14   2  -4  224.21   11.05 
  12  -2  -4   74.17    4.44 
 -12  -2   4   67.58    4.94 
 -12  -2   4   82.71    4.39 
  12  -2  -4   75.31    4.03 
 -12  -2   4   80.07    4.19 
  12  -2  -4   75.21    4.36 
  12  -2  -4   82.59    4.31 
 -12   2   4   83.74    4.52 
 -12   2   4   78.41    4.45 
  12   2  -4   76.76    4.12 
  12   2  -4   79.41    4.31 
  12   2  -4   75.36    4.29 
 -12   2   4   76.58    4.34 
  12   2  -4   78.27    4.28 
 -12   2   4   84.92    4.07 
  10  -2  -4  257.49   14.11 
 -10  -2   4  252.13   14.35 
  10  -2  -4  319.82   14.34 
  10  -2  -4  268.99   14.10 
  10  -2  -4  283.76   14.17 
 -10  -2   4  270.11   14.04 
 -10  -2   4  290.54   14.11 
  10   2  -4  282.45   14.01 
  10   2  -4  273.58   14.04 
  10   2  -4  277.30   14.13 
 -10   2   4  290.40   14.08 
 -10   2   4  262.55   14.24 
 -10   2   4  304.29   14.19 
 -10   2   4  292.85   13.95 
  10   2  -4  265.56   14.09 
  -8  -2   4  181.50    9.00 
   8  -2  -4  177.79    9.09 
   8  -2  -4  179.18    9.16 
  -8  -2   4  158.43    9.28 
   8  -2  -4  173.31    9.08 
  -8  -2   4  176.06    9.03 
  -8  -2   4  184.02    9.06 
   8  -2  -4  173.50    9.14 
   8  -2  -4  200.91    9.30 
  -8  -2   4  166.83    9.20 
   8   2  -4  179.51    9.01 
   8   2  -4  181.92    8.99 
   8   2  -4  178.13    9.28 
  -8   2   4  190.64    9.15 
   8   2  -4  173.46    9.09 
  -8   2   4  165.23    9.21 
  -8   2   4  176.24    8.89 
  -8   2   4  178.88    9.06 
   8   2  -4  176.11    9.05 
   8   2  -4  198.26    9.33 
  -6  -2   4  568.09   27.78 
  -6  -2   4  552.43   27.73 
   6  -2  -4  542.55   27.83 
  -6  -2   4  524.68   27.74 
   6  -2  -4  594.35   28.00 
   6  -2  -4  539.76   27.82 
  -6  -2   4  480.35   27.94 
   6  -2  -4  532.32   27.87 
  -6  -2   4  540.93   27.77 
  -6  -2   4  555.94   27.97 
   6  -2  -4  566.39   27.94 
   6   2  -4  540.03   27.74 
   6   2  -4  580.60   27.76 
  -6   2   4  566.62   27.83 
  -6   2   4  594.41   27.83 
   6   2  -4  547.33   27.85 
   6   2  -4  564.57   27.78 
  -6   2   4  627.80   27.89 
  -6   2   4  538.33   27.98 
   6   2  -4  597.84   27.99 
  -4  -2   4   58.90    3.39 
  -4  -2   4   56.69    3.37 
   4  -2  -4   55.90    3.31 
   4  -2  -4   66.76    3.48 
   4  -2  -4   60.87    3.23 
  -4  -2   4   62.84    3.14 
  -4  -2   4   63.98    3.19 
   4  -2  -4   60.04    3.27 
  -4  -2   4   61.42    3.14 
  -4  -2   4   59.17    3.22 
   4  -2  -4   61.85    3.39 
  -4   2   4   53.56    3.38 
  -4   2   4   65.52    3.33 
   4   2  -4   59.51    3.15 
   4   2  -4   61.42    3.19 
   4   2  -4   66.14    3.44 
   4   2  -4   59.87    3.26 
   4   2  -4   62.35    3.21 
  -4   2   4   62.70    3.24 
   4   2  -4   69.40    3.47 
  -4   2   4   58.49    3.33 
  -2  -2   4  581.67   28.68 
   2  -2  -4  579.18   28.90 
   2  -2  -4  549.02   28.79 
   2  -2  -4  612.30   28.89 
   2  -2  -4  565.52   28.72 
   2  -2  -4  543.90   28.74 
  -2  -2   4  562.20   28.87 
  -2  -2   4  534.33   28.81 
  -2   2   4  591.28   28.72 
  -2   2   4  567.34   28.72 
   2   2  -4  573.39   28.65 
  -2   2   4  537.67   28.88 
   2   2  -4  562.03   28.73 
   2   2  -4  606.45   28.85 
   2   2  -4  544.12   28.76 
   2   2  -4  579.51   28.68 
   2   2  -4  648.24   28.83 
  -2   2   4  522.70   28.79 
   2   2  -4  593.05   28.66 
   2   2  -4  658.85   28.90 
  -2   2   4  609.65   28.89 
   0  -2  -4  178.97    9.48 
   0  -2  -4  213.84    9.66 
   0  -2   4  191.49    9.61 
   0  -2   4  188.55    9.55 
   0  -2  -4  203.54    9.54 
   0  -2  -4  186.20    9.43 
   0  -2  -4  181.70    9.63 
   0  -2   4  190.92    9.40 
   0  -2  -4  178.28    9.53 
   0  -2  -4  192.47    9.42 
   0   2  -4  198.49    9.60 
   0   2  -4  196.69    9.58 
   0   2  -4  174.00    9.38 
   0   2   4  199.62    9.55 
   0   2   4  176.47    9.53 
   0   2  -4  162.16    9.40 
   0   2  -4  182.10    9.51 
   0   2   4  191.80    9.46 
   0   2  -4  187.96    9.55 
   0   2   4  186.60    9.62 
   0   2  -4  190.63    9.52 
   0   2   4  193.87    9.42 
   0   2   4  191.72    9.42 
  -2  -2  -4  608.52   28.00 
  -2  -2  -4  526.26   28.00 
   2  -2   4  572.56   27.92 
  -2  -2  -4  517.70   27.95 
  -2  -2  -4  538.53   27.85 
  -2  -2  -4  607.63   27.90 
  -2  -2  -4  509.53   27.85 
  -2  -2  -4  566.89   27.82 
   2  -2   4  538.18   27.78 
   2   2   4  512.79   27.88 
   2   2   4  552.02   27.83 
  -2   2  -4  591.58   27.94 
   2   2   4  553.97   27.97 
  -2   2  -4  535.63   27.77 
   2   2   4  591.98   27.92 
  -2   2  -4  589.62   27.92 
  -2   2  -4  521.23   27.87 
  -2   2  -4  586.75   27.91 
  -2   2  -4  611.19   27.90 
  -4  -2  -4  183.63    9.52 
  -4  -2  -4  170.98    9.68 
  -4  -2  -4  204.08    9.57 
   4  -2   4  195.59    9.61 
  -4  -2  -4  178.36    9.65 
   4  -2   4  177.77    9.48 
  -4  -2  -4  194.03    9.52 
  -4  -2  -4  180.35    9.53 
  -4   2  -4  174.68    9.44 
  -4   2  -4  194.66    9.54 
   4   2   4  188.05    9.53 
   4   2   4  185.51    9.57 
  -4   2  -4  204.15    9.60 
   4   2   4  201.89    9.61 
   4   2   4  181.39    9.63 
  -4   2  -4  202.98    9.60 
  -4   2  -4  175.22    9.56 
  -4   2  -4  200.81    9.44 
  -4   2  -4  201.68    9.43 
  -6  -2  -4  336.68   18.05 
  -6  -2  -4  379.44   17.94 
  -6  -2  -4  393.73   17.97 
   6  -2   4  346.33   17.98 
  -6  -2  -4  327.41   18.05 
  -6  -2  -4  343.05   17.92 
   6  -2   4  369.07   18.00 
   6  -2   4  333.06   17.90 
  -6   2  -4  377.83   17.86 
  -6   2  -4  341.67   17.98 
   6   2   4  350.76   17.94 
  -6   2  -4  353.50   17.86 
  -6   2  -4  346.23   17.86 
  -6   2  -4  345.14   17.85 
   6   2   4  351.39   17.96 
   6   2   4  366.55   18.00 
  -6   2  -4  397.83   18.00 
  -6   2  -4  397.96   18.00 
   8  -2   4  120.60    5.96 
  -8  -2  -4  106.68    5.99 
   8  -2   4  112.94    5.90 
  -8  -2  -4  114.22    5.80 
  -8  -2  -4  111.43    5.93 
   8  -2   4  107.56    5.79 
   8  -2   4  107.87    5.87 
  -8   2  -4  117.88    5.92 
  -8   2  -4  106.11    5.89 
   8   2   4  108.92    5.84 
  -8   2  -4  109.34    5.73 
   8   2   4  127.49    5.67 
   8   2   4  117.87    5.87 
   8   2   4  112.93    5.85 
 -10  -2  -4  396.88   19.67 
  10  -2   4  401.01   19.72 
  10  -2   4  391.37   19.72 
 -10  -2  -4  378.55   19.64 
 -10  -2  -4  377.58   19.85 
 -10  -2  -4  402.29   19.50 
  10  -2   4  374.86   19.66 
  10   2   4  384.84   19.69 
  10   2   4  423.43   19.66 
 -10   2  -4  381.87   19.59 
  10   2   4  438.76   19.57 
 -10   2  -4  375.27   19.75 
  10   2   4  373.86   19.69 
 -12  -2  -4   53.49    2.95 
 -12  -2  -4   52.38    2.90 
  12  -2   4   49.72    2.98 
  12  -2   4   55.27    3.11 
  12  -2   4   49.97    3.05 
 -12  -2  -4   54.88    3.37 
  12   2   4   49.68    3.02 
 -12   2  -4   52.66    3.16 
  12   2   4   57.26    2.91 
 -12   2  -4   52.43    2.88 
  12   2   4   51.99    3.05 
  14  -2   4  156.95    8.13 
  14  -2   4  161.06    8.11 
 -14  -2  -4  160.30    8.04 
 -14  -2  -4  154.88    8.39 
  14  -2   4  136.47    8.37 
 -14   2  -4  163.39    8.26 
  14   2   4  153.39    8.13 
 -14   2  -4  159.58    8.00 
  14   2   4  157.17    8.11 
  16  -2   4   50.98    3.25 
  16  -2   4   49.94    3.23 
  16  -2   4   52.48    3.36 
 -16  -2  -4   48.84    3.11 
 -16  -2  -4   50.83    3.72 
  16   2   4   49.61    3.32 
 -16   2  -4   50.99    3.02 
  16   2   4   50.79    3.24 
 -16   2  -4   46.77    3.91 
 -15  -3   4  107.38    6.51 
  15  -3  -4  100.41    5.94 
  15  -3  -4  114.85    6.45 
  15   3  -4  110.98    5.78 
  15   3  -4  107.31    5.95 
 -15   3   4  114.52    6.10 
  13  -3  -4  108.87    6.28 
 -13  -3   4  114.05    6.72 
  13  -3  -4  128.03    6.31 
  13  -3  -4  117.79    6.41 
  13   3  -4  117.23    6.29 
  13   3  -4  124.74    6.18 
 -13   3   4  114.92    6.41 
 -13   3   4  122.60    6.26 
  11  -3  -4  116.78    6.59 
 -11  -3   4  119.55    6.64 
  11  -3  -4  121.03    6.61 
  11  -3  -4  119.57    6.50 
 -11  -3   4  109.65    6.79 
  11  -3  -4  132.55    6.56 
 -11  -3   4  129.31    6.51 
  11   3  -4  123.04    6.51 
  11   3  -4  127.03    6.47 
  11   3  -4  118.75    6.49 
 -11   3   4  127.23    6.48 
  11   3  -4  122.70    6.39 
 -11   3   4  135.31    6.27 
 -11   3   4  137.24    6.70 
 -11   3   4  121.42    6.61 
  -9  -3   4  286.27   13.54 
  -9  -3   4  251.19   13.57 
  -9  -3   4  253.80   13.76 
  -9  -3   4  280.75   13.61 
   9  -3  -4  260.62   13.63 
   9  -3  -4  283.20   13.72 
  -9  -3   4  242.87   13.82 
   9  -3  -4  263.44   13.71 
   9  -3  -4  266.25   13.64 
   9   3  -4  268.08   13.60 
   9   3  -4  255.15   13.63 
  -9   3   4  275.83   13.62 
   9   3  -4  270.23   13.55 
  -9   3   4  286.98   13.43 
  -9   3   4  260.52   13.74 
   9   3  -4  265.11   13.54 
  -9   3   4  280.33   13.42 
  -9   3   4  301.88   13.74 
   7  -3  -4  330.54   16.71 
   7  -3  -4  313.43   16.77 
   7  -3  -4  339.72   16.72 
   7  -3  -4  363.90   16.89 
  -7  -3   4  319.85   16.86 
  -7  -3   4  296.82   16.84 
   7  -3  -4  353.36   16.83 
  -7  -3   4  340.77   16.60 
  -7  -3   4  318.70   16.66 
   7   3  -4  325.91   16.65 
  -7   3   4  327.37   16.79 
   7   3  -4  349.65   16.83 
   7   3  -4  330.33   16.62 
  -7   3   4  303.94   16.69 
  -7   3   4  345.71   16.71 
   7   3  -4  336.90   16.73 
  -7   3   4  313.99   16.81 
  -7   3   4  371.93   16.81 
   7   3  -4  336.97   16.64 
   5  -3  -4  288.52   14.27 
  -5  -3   4  275.66   14.10 
  -5  -3   4  263.54   14.21 
   5  -3  -4  262.67   14.23 
  -5  -3   4  294.70   14.08 
  -5  -3   4  283.30   14.01 
   5  -3  -4  269.94   14.11 
   5  -3  -4  301.09   14.27 
  -5  -3   4  274.11   14.02 
  -5  -3   4  262.26   14.26 
   5  -3  -4  282.32   14.14 
  -5   3   4  270.19   14.21 
   5   3  -4  278.07   14.08 
   5   3  -4  288.76   14.06 
   5   3  -4  269.86   14.02 
  -5   3   4  286.37   14.13 
   5   3  -4  296.08   14.21 
   5   3  -4  307.16   14.32 
   5   3  -4  274.12   14.14 
  -5   3   4  309.37   14.23 
  -5   3   4  276.06   14.10 
  -5   3   4  266.96   14.24 
  -3  -3   4  267.74   12.87 
   3  -3  -4  260.78   13.08 
  -3  -3   4  251.12   12.78 
  -3  -3   4  241.15   13.05 
   3  -3  -4  237.80   12.99 
  -3  -3   4  254.38   12.78 
  -3  -3   4  262.73   12.92 
  -3  -3   4  259.49   12.99 
   3  -3  -4  251.02   12.93 
   3  -3  -4  272.34   13.05 
   3  -3  -4  240.98   12.88 
  -3   3   4  244.75   13.04 
   3   3  -4  242.11   12.82 
   3   3  -4  245.47   12.90 
   3   3  -4  270.58   12.98 
  -3   3   4  249.45   12.76 
   3   3  -4  278.50   13.10 
   3   3  -4  263.70   12.84 
  -3   3   4  269.37   12.93 
  -3   3   4  282.35   13.03 
   3   3  -4  268.77   12.88 
  -3   3   4  243.79   13.00 
  -3   3   4  259.60   12.88 
  -3   3   4  240.06   13.04 
   3   3  -4  271.49   13.00 
   3   3  -4  252.36   12.94 
   1  -3  -4  247.59   12.45 
   1  -3  -4  281.71   12.69 
  -1  -3   4  239.06   12.67 
  -1  -3   4  260.23   12.48 
   1  -3  -4  233.50   12.61 
   1  -3  -4  248.65   12.55 
   1  -3  -4  245.84   12.72 
  -1  -3   4  252.60   12.56 
   1  -3  -4  218.13   12.55 
   1   3  -4  231.83   12.45 
  -1   3   4  248.99   12.47 
   1   3  -4  249.80   12.43 
   1   3  -4  261.22   12.59 
   1   3  -4  278.34   12.70 
  -1   3   4  241.35   12.61 
  -1   3   4  268.15   12.64 
  -1   3   4  242.86   12.44 
   1   3  -4  250.10   12.56 
   1   3  -4  238.11   12.44 
   1   3  -4  257.80   12.61 
  -1   3   4  239.05   12.68 
   1   3  -4  256.15   12.46 
  -1  -3  -4  295.80   14.84 
  -1  -3  -4  280.20   14.90 
   1  -3   4  288.62   14.84 
   1  -3   4  295.02   15.06 
  -1  -3  -4  329.45   14.98 
   1  -3   4  285.24   14.97 
   1  -3   4  282.81   14.85 
  -1  -3  -4  289.79   15.00 
  -1  -3  -4  330.14   15.05 
  -1  -3  -4  288.26   14.80 
  -1  -3  -4  294.38   14.98 
  -1  -3  -4  279.15   15.07 
   1   3   4  262.25   14.93 
   1   3   4  313.33   14.89 
  -1   3  -4  327.50   15.01 
   1   3   4  296.60   14.79 
   1   3   4  282.11   14.84 
   1   3   4  301.34   14.97 
  -1   3  -4  308.45   14.97 
  -1   3  -4  308.67   14.96 
  -1   3  -4  304.27   14.94 
  -1   3  -4  291.81   14.82 
   1   3   4  291.22   15.05 
  -1   3  -4  314.58   14.92 
  -1   3  -4  293.60   14.77 
  -3  -3  -4  296.22   14.80 
   3  -3   4  296.67   14.89 
   3  -3   4  300.45   14.87 
  -3  -3  -4  293.81   14.92 
  -3  -3  -4  289.43   14.81 
  -3  -3  -4  329.32   14.87 
   3  -3   4  274.70   14.75 
  -3  -3  -4  271.40   14.99 
  -3  -3  -4  305.39   14.77 
   3   3   4  281.28   14.85 
  -3   3  -4  311.95   14.87 
  -3   3  -4  302.53   14.69 
  -3   3  -4  295.94   14.68 
  -3   3  -4  312.01   14.86 
   3   3   4  312.65   14.89 
   3   3   4  301.09   14.97 
   3   3   4  284.99   14.77 
  -3   3  -4  303.90   14.87 
  -3   3  -4  284.83   14.72 
  -3   3  -4  260.66   14.77 
  -5  -3  -4  303.86   13.88 
  -5  -3  -4  277.01   13.82 
  -5  -3  -4  278.42   13.80 
  -5  -3  -4  274.37   13.81 
  -5  -3  -4  244.83   13.98 
   5  -3   4  284.98   13.92 
  -5  -3  -4  274.37   13.96 
   5  -3   4  255.35   13.78 
  -5   3  -4  272.38   14.02 
  -5   3  -4  263.14   13.73 
   5   3   4  266.30   13.86 
  -5   3  -4  291.58   13.89 
   5   3   4  264.17   13.80 
  -5   3  -4  285.31   13.72 
   5   3   4  268.39   13.95 
  -5   3  -4  293.17   13.75 
  -5   3  -4  261.35   13.80 
   5   3   4  296.89   13.91 
  -5   3  -4  275.45   13.81 
  -7  -3  -4  231.74   12.34 
  -7  -3  -4  245.03   12.16 
  -7  -3  -4  244.01   12.35 
   7  -3   4  221.33   12.14 
  -7  -3  -4  244.88   12.15 
   7  -3   4  233.56   12.25 
   7   3   4  275.59   12.28 
   7   3   4  237.50   12.17 
   7   3   4  243.50   12.30 
  -7   3  -4  228.22   12.08 
  -7   3  -4  253.49   12.26 
  -7   3  -4  241.56   12.05 
  -7   3  -4  232.15   12.17 
  -7   3  -4  253.99   12.12 
   7   3   4  236.46   12.21 
   9  -3   4  228.59   11.12 
   9  -3   4  214.14   11.09 
   9  -3   4  211.64   11.03 
  -9  -3  -4  222.02   11.02 
  -9  -3  -4  213.43   11.22 
  -9  -3  -4  208.76   11.00 
   9   3   4  216.77   11.04 
  -9   3  -4  213.36   10.94 
  -9   3  -4  213.92   11.05 
  -9   3  -4  237.14   11.03 
   9   3   4  219.83   11.13 
   9   3   4  213.37   11.07 
 -11  -3  -4  167.21    8.29 
 -11  -3  -4  160.37    8.55 
 -11  -3  -4  161.66    8.36 
  11  -3   4  167.56    8.39 
  11  -3   4  159.89    8.33 
  11  -3   4  166.95    8.39 
  11   3   4  174.45    8.45 
  11   3   4  160.83    8.36 
 -11   3  -4  134.97    8.47 
  11   3   4  159.58    8.33 
 -11   3  -4  164.66    8.36 
 -13  -3  -4   82.88    4.90 
 -13  -3  -4   81.59    4.49 
  13  -3   4   84.55    4.62 
  13  -3   4   82.09    4.53 
 -13  -3  -4   86.07    4.51 
  13  -3   4   88.77    4.66 
  13   3   4   80.26    4.57 
 -13   3  -4   81.21    4.41 
  13   3   4   81.54    4.60 
 -13   3  -4   82.39    4.60 
  15  -3   4   69.68    4.11 
  15  -3   4   63.91    4.01 
 -15  -3  -4   67.35    4.30 
 -15  -3  -4   63.47    3.79 
  15  -3   4   65.01    3.86 
  15   3   4   63.69    3.94 
  15   3   4   64.74    3.91 
 -15   3  -4   67.14    4.02 
 -15   3  -4   66.85    3.69 
  16  -4  -4   70.75    4.40 
 -16  -4   4   72.74    5.11 
  16   4  -4   65.60    4.07 
 -16   4   4   71.46    4.43 
  16   4  -4   72.45    4.30 
  14  -4  -4   35.72    2.54 
 -14  -4   4   33.24    3.23 
 -14  -4   4   34.44    2.77 
  14  -4  -4   37.85    2.58 
 -14   4   4   32.18    2.63 
 -14   4   4   34.13    2.83 
  14   4  -4   37.73    2.38 
  14   4  -4   31.90    2.50 
  12  -4  -4  224.92   10.84 
  12  -4  -4  197.81   10.86 
  12  -4  -4  212.53   10.80 
 -12  -4   4  203.87   10.96 
 -12  -4   4  208.11   11.10 
  12   4  -4  199.63   10.76 
 -12   4   4  223.45   10.52 
 -12   4   4  209.77   10.90 
  12   4  -4  206.83   10.69 
 -12   4   4  213.58   10.75 
 -10  -4   4   50.42    2.62 
 -10  -4   4   41.66    3.07 
  10  -4  -4   48.11    2.85 
 -10  -4   4   41.46    2.91 
  10  -4  -4   43.51    3.09 
 -10  -4   4   48.45    2.75 
  10  -4  -4   45.50    2.89 
  10  -4  -4   41.76    2.73 
 -10   4   4   50.84    3.17 
 -10   4   4   45.20    2.70 
  10   4  -4   43.85    2.60 
 -10   4   4   47.64    2.43 
 -10   4   4   41.65    2.80 
 -10   4   4   44.08    2.90 
  10   4  -4   45.86    2.72 
  10   4  -4   45.35    2.70 
 -10   4   4   50.51    2.43 
   8  -4  -4  339.05   18.10 
   8  -4  -4  382.67   18.24 
   8  -4  -4  372.06   18.12 
   8  -4  -4  349.75   18.19 
  -8  -4   4  383.90   18.00 
  -8  -4   4  327.04   18.25 
  -8  -4   4  371.04   18.07 
  -8  -4   4  315.31   18.21 
  -8   4   4  380.75   17.90 
   8   4  -4  352.38   18.10 
  -8   4   4  358.65   18.20 
   8   4  -4  353.85   18.04 
  -8   4   4  387.70   18.22 
   8   4  -4  354.59   18.03 
  -8   4   4  335.71   18.15 
   8   4  -4  359.49   18.01 
  -8   4   4  391.01   17.89 
  -6  -4   4   86.93    4.84 
  -6  -4   4   96.97    4.67 
  -6  -4   4   84.94    4.90 
   6  -4  -4   90.70    4.79 
   6  -4  -4   92.86    4.98 
   6  -4  -4  100.75    5.00 
  -6  -4   4   82.38    4.99 
   6  -4  -4   94.22    4.96 
  -6  -4   4   95.29    4.76 
   6  -4  -4   96.43    4.88 
  -6   4   4   86.36    4.92 
   6   4  -4   89.34    4.69 
   6   4  -4   90.73    4.73 
  -6   4   4   98.98    4.59 
  -6   4   4   87.85    4.81 
  -6   4   4   95.33    4.82 
  -6   4   4   90.84    4.61 
  -6   4   4   96.08    4.95 
  -6   4   4   84.24    4.89 
   6   4  -4   90.86    4.76 
   6   4  -4   89.53    4.81 
   6   4  -4   90.87    4.88 
  -6   4   4   85.08    5.00 
   4  -4  -4  289.27   15.47 
   4  -4  -4  281.33   15.40 
  -4  -4   4  297.70   15.40 
   4  -4  -4  289.43   15.34 
  -4  -4   4  314.68   15.33 
  -4  -4   4  296.15   15.25 
  -4  -4   4  309.77   15.38 
   4  -4  -4  311.04   15.56 
  -4  -4   4  317.54   15.24 
   4  -4  -4  324.29   15.49 
  -4  -4   4  293.51   15.56 
   4   4  -4  314.49   15.44 
  -4   4   4  313.49   15.35 
  -4   4   4  338.95   15.23 
  -4   4   4  294.14   15.46 
   4   4  -4  304.27   15.39 
   4   4  -4  304.30   15.37 
   4   4  -4  293.06   15.27 
   4   4  -4  316.47   15.58 
  -4   4   4  351.16   15.52 
   4   4  -4  302.65   15.36 
   4   4  -4  308.21   15.35 
   4   4  -4  303.25   15.29 
  -4   4   4  318.25   15.40 
  -4   4   4  306.09   15.48 
  -4   4   4  270.50   15.21 
  -4   4   4  297.51   15.54 
  -2  -4   4  146.01    7.04 
   2  -4  -4  146.87    7.21 
   2  -4  -4  137.34    7.11 
   2  -4  -4  137.41    7.29 
   2  -4  -4  130.82    7.03 
  -2  -4   4  138.83    6.90 
  -2  -4   4  140.12    7.06 
   2  -4  -4  134.19    6.96 
   2  -4  -4  131.56    7.38 
  -2  -4   4  142.09    7.30 
  -2  -4   4  142.24    6.90 
  -2   4   4  133.03    6.95 
   2   4  -4  144.77    7.05 
   2   4  -4  148.42    7.29 
   2   4  -4  136.86    7.00 
   2   4  -4  144.43    7.18 
  -2   4   4  136.45    7.31 
  -2   4   4  140.83    7.09 
   2   4  -4  127.81    6.99 
   2   4  -4  139.30    6.98 
  -2   4   4  124.60    7.16 
   2   4  -4  136.52    7.10 
  -2   4   4  151.20    7.22 
   2   4  -4  136.84    7.03 
  -2   4   4  135.90    7.01 
   0  -4  -4  260.90   13.81 
   0  -4  -4  278.60   13.82 
   0  -4  -4  259.23   13.98 
   0  -4  -4  257.81   14.10 
   0  -4  -4  281.04   13.91 
   0  -4  -4  309.43   14.00 
   0  -4   4  286.48   13.85 
   0  -4  -4  318.39   14.04 
   0  -4   4  281.51   14.07 
   0   4  -4  283.46   13.82 
   0   4  -4  261.35   13.92 
   0   4  -4  274.72   13.78 
   0   4   4  278.03   13.88 
   0   4   4  274.66   14.10 
   0   4  -4  256.64   13.79 
   0   4  -4  273.11   13.96 
   0   4  -4  290.96   14.03 
   0   4  -4  257.16   13.80 
   0   4   4  265.50   13.79 
   0   4  -4  293.16   13.84 
   0   4   4  267.27   13.97 
   0   4   4  287.76   13.99 
   0   4   4  263.38   13.80 
   2  -4   4   22.82    1.54 
  -2  -4  -4   22.20    1.63 
   2  -4   4   21.17    1.31 
  -2  -4  -4   21.07    1.35 
  -2  -4  -4   20.11    1.40 
  -2  -4  -4   20.18    1.15 
  -2  -4  -4   22.35    1.63 
  -2  -4  -4   19.14    1.47 
   2  -4   4   18.91    1.52 
  -2  -4  -4   20.30    1.39 
  -2  -4  -4   19.97    1.66 
  -2   4  -4   23.73    1.44 
  -2   4  -4   20.77    1.55 
  -2   4  -4   21.55    1.28 
   2   4   4   22.49    1.13 
  -2   4  -4   20.47    1.20 
   2   4   4   21.87    1.53 
   2   4   4   21.81    1.80 
  -2   4  -4   22.74    1.25 
  -2   4  -4   23.88    1.66 
  -2   4  -4   22.74    1.61 
   2   4   4   20.72    1.29 
  -2   4  -4   22.12    1.22 
  -2   4  -4   20.91    1.28 
   2   4   4   19.79    1.46 
   4  -4   4  494.54   25.14 
  -4  -4  -4  501.49   25.15 
   4  -4   4  476.43   25.00 
  -4  -4  -4  489.61   25.00 
  -4  -4  -4  562.95   25.13 
  -4  -4  -4  503.27   25.04 
  -4  -4  -4  472.00   25.25 
  -4  -4  -4  482.27   25.05 
   4  -4   4  495.01   25.08 
  -4   4  -4  496.21   24.96 
   4   4   4  494.70   25.24 
   4   4   4  536.19   25.14 
  -4   4  -4  525.42   24.95 
  -4   4  -4  463.22   24.94 
  -4   4  -4  510.75   24.95 
  -4   4  -4  488.04   25.08 
  -4   4  -4  521.33   25.12 
   4   4   4  468.85   25.08 
   4   4   4  498.13   25.01 
  -4   4  -4  550.77   24.99 
   6  -4   4   85.18    4.80 
  -6  -4  -4   92.63    4.84 
  -6  -4  -4   86.94    5.10 
   6  -4   4  102.25    4.85 
   6  -4   4   91.95    4.98 
  -6  -4  -4   89.51    4.83 
  -6  -4  -4   92.96    5.01 
   6   4   4   93.16    5.15 
   6   4   4   91.97    4.83 
   6   4   4  101.13    4.99 
  -6   4  -4   90.72    4.76 
  -6   4  -4   94.58    4.76 
  -6   4  -4   91.54    4.83 
   6   4   4   93.47    4.90 
  -6   4  -4   90.91    4.76 
   8  -4   4  254.39   12.95 
  -8  -4  -4  259.74   12.84 
  -8  -4  -4  252.69   13.08 
  -8  -4  -4  260.20   13.05 
  -8  -4  -4  256.89   12.85 
   8  -4   4  235.15   12.84 
  -8   4  -4  255.08   12.78 
  -8   4  -4  266.90   12.81 
  -8   4  -4  257.79   12.80 
   8   4   4  243.48   12.90 
   8   4   4  256.66   12.86 
 -10  -4  -4   72.24    5.22 
 -10  -4  -4   71.82    4.22 
  10  -4   4   69.88    4.03 
 -10  -4  -4   77.45    4.03 
  10  -4   4   76.31    4.17 
 -10   4  -4   73.04    3.98 
  10   4   4   75.15    4.10 
 -10   4  -4   76.24    4.00 
  10   4   4   67.96    4.49 
  10   4   4   82.76    4.45 
 -12  -4  -4  127.88    6.86 
 -12  -4  -4  133.46    7.12 
 -12  -4  -4  124.59    7.05 
  12  -4   4  130.29    6.82 
  12  -4   4  133.38    6.90 
  12   4   4  127.80    6.81 
  12   4   4  127.76    6.86 
 -12   4  -4  127.99    6.68 
 -12   4  -4  132.86    6.79 
 -14  -4  -4   32.18    3.01 
  14  -4   4   32.61    2.69 
 -14  -4  -4   36.35    2.39 
  14  -4   4   31.68    2.42 
  14   4   4   32.39    2.57 
  14   4   4   31.78    2.48 
 -14   4  -4   32.61    2.40 
 -14   4  -4   32.46    2.18 
  15  -5  -4   58.37    3.81 
 -15  -5   4   61.49    4.58 
 -15  -5   4   54.65    4.08 
 -15   5   4   59.56    3.82 
  15   5  -4   59.25    3.73 
  15   5  -4   58.88    3.60 
 -13  -5   4   69.84    4.64 
  13  -5  -4   73.65    4.41 
  13  -5  -4   83.84    5.26 
 -13  -5   4   76.33    4.83 
  13  -5  -4   80.61    4.48 
 -13   5   4   75.77    4.59 
  13   5  -4   78.55    4.25 
 -13   5   4   76.20    4.45 
  13   5  -4   76.41    4.35 
 -11  -5   4  115.66    6.99 
  11  -5  -4  124.83    6.80 
  11  -5  -4  126.86    6.93 
  11  -5  -4  135.39    6.94 
 -11   5   4  135.38    6.79 
 -11   5   4  127.11    6.94 
 -11   5   4  137.77    6.50 
 -11   5   4  124.88    6.81 
  11   5  -4  127.98    6.76 
  11   5  -4  127.54    6.69 
   9  -5  -4  144.20    7.73 
   9  -5  -4  139.90    7.60 
  -9  -5   4  151.25    7.48 
  -9  -5   4  139.79    7.75 
  -9  -5   4  151.09    7.61 
   9  -5  -4  152.61    7.75 
  -9  -5   4  121.97    8.40 
  -9   5   4  165.37    7.36 
   9   5  -4  146.23    7.58 
   9   5  -4  139.01    7.53 
  -9   5   4  140.28    7.63 
   9   5  -4  134.07    7.54 
  -9   5   4  160.33    7.36 
   9   5  -4  144.56    7.51 
  -9   5   4  149.19    7.58 
  -9   5   4  156.61    7.88 
  -9   5   4  140.20    7.71 
   7  -5  -4  134.47    6.73 
  -7  -5   4  114.41    6.59 
   7  -5  -4  119.78    6.66 
  -7  -5   4  134.38    6.40 
   7  -5  -4  130.36    6.73 
   7  -5  -4  124.98    6.61 
  -7  -5   4  110.79    6.76 
   7  -5  -4  121.05    6.52 
   7   5  -4  120.01    6.47 
   7   5  -4  117.64    6.55 
   7   5  -4  119.65    6.46 
  -7   5   4  139.70    6.78 
   7   5  -4  122.66    6.52 
   7   5  -4  126.01    6.43 
  -7   5   4  115.19    6.57 
  -7   5   4  128.44    6.55 
  -7   5   4  136.06    6.33 
  -7   5   4  118.79    6.64 
  -7   5   4  141.43    6.32 
   5  -5  -4  201.11   10.26 
   5  -5  -4  196.95   10.06 
   5  -5  -4  193.12   10.17 
  -5  -5   4  204.32    9.98 
   5  -5  -4  211.07   10.13 
  -5  -5   4  185.90   10.28 
  -5  -5   4  211.70    9.89 
   5  -5  -4  183.93   10.00 
  -5  -5   4  193.28   10.03 
  -5   5   4  210.03   10.07 
  -5   5   4  188.73   10.13 
   5   5  -4  191.01    9.93 
  -5   5   4  213.09   10.19 
   5   5  -4  189.21   10.02 
   5   5  -4  189.58    9.97 
  -5   5   4  185.92   10.06 
   5   5  -4  185.85    9.91 
  -5   5   4  225.53    9.87 
  -5   5   4  185.03    9.94 
   5   5  -4  188.66   10.00 
  -5   5   4  196.63   10.01 
  -3  -5   4  237.67   12.29 
   3  -5  -4  235.32   12.27 
   3  -5  -4  230.09   12.05 
  -3  -5   4  254.39   11.86 
   3  -5  -4  230.18   11.98 
  -3  -5   4  242.51   11.97 
   3  -5  -4  251.75   12.11 
  -3  -5   4  252.66   11.99 
   3  -5  -4  220.90   12.14 
   3   5  -4  230.20   11.93 
  -3   5   4  224.34   11.88 
   3   5  -4  225.03   11.91 
  -3   5   4  250.45   12.05 
  -3   5   4  253.41   12.16 
  -3   5   4  248.06   11.98 
   3   5  -4  227.97   11.92 
   3   5  -4  232.67   12.04 
  -3   5   4  230.05   12.13 
   1  -5  -4  173.76    8.35 
   1  -5  -4  157.87    8.11 
  -1  -5   4  158.54    7.99 
  -1  -5   4  159.79    8.44 
  -1  -5   4  165.05    8.15 
  -1  -5   4  169.31    7.98 
   1  -5  -4  157.38    8.22 
   1  -5  -4  178.56    8.31 
   1  -5  -4  161.72    8.10 
   1  -5  -4  153.34    8.33 
   1  -5  -4  150.69    8.43 
  -1   5   4  172.92    8.21 
  -1   5   4  159.16    8.30 
   1   5  -4  151.37    8.10 
  -1   5   4  151.91    8.08 
   1   5  -4  156.56    8.04 
   1   5  -4  137.56    8.23 
   1   5  -4  165.70    8.24 
  -1   5   4  175.36    8.36 
  -1   5   4  165.52    8.11 
   1   5  -4  152.56    8.08 
   1   5  -4  152.60    8.38 
  -1  -5  -4  156.10    8.00 
  -1  -5  -4  161.92    8.02 
   1  -5   4  147.78    8.08 
   1  -5   4  157.05    8.19 
  -1  -5  -4  161.06    7.93 
  -1  -5  -4  148.81    8.13 
   1  -5   4  166.22    7.96 
   1  -5   4  154.06    7.96 
  -1  -5  -4  169.14    8.12 
  -1  -5  -4  153.79    8.24 
  -1  -5  -4  157.33    8.03 
   1   5   4  148.00    7.90 
  -1   5  -4  160.63    7.88 
   1   5   4  163.03    7.98 
  -1   5  -4  149.32    8.01 
  -1   5  -4  158.16    8.15 
   1   5   4  150.74    8.08 
   1   5   4  173.72    8.14 
   1   5   4  134.45    7.88 
  -1   5  -4  151.71    7.89 
   3  -5   4  154.33    8.30 
   3  -5   4  167.11    8.35 
  -3  -5  -4  161.67    8.19 
  -3  -5  -4  161.36    8.16 
  -3  -5  -4  145.95    8.23 
  -3  -5  -4  174.58    8.32 
   3  -5   4  155.85    8.17 
  -3  -5  -4  173.51    8.34 
  -3  -5  -4  159.22    8.46 
  -3  -5  -4  159.73    8.20 
  -3   5  -4  155.78    8.21 
   3   5   4  168.82    8.32 
   3   5   4  150.62    8.12 
  -3   5  -4  157.12    8.31 
  -3   5  -4  164.68    8.08 
   3   5   4  150.22    8.25 
  -3   5  -4  161.34    8.11 
   5  -5   4  193.57   10.12 
  -5  -5  -4  195.53   10.25 
   5  -5   4  195.28   10.27 
  -5  -5  -4  198.55   10.15 
  -5  -5  -4  193.57   10.43 
   5  -5   4  198.78   10.20 
  -5  -5  -4  198.78   10.15 
  -5   5  -4  192.31   10.20 
  -5   5  -4  204.73   10.06 
   5   5   4  192.20   10.11 
  -5   5  -4  198.52    9.96 
  -5   5  -4  201.98   10.18 
  -5   5  -4  218.11    9.99 
  -5   5  -4  198.88   10.07 
   5   5   4  193.33   10.21 
   5   5   4  218.89   10.29 
  -7  -5  -4  176.56    9.59 
   7  -5   4  179.89    9.43 
  -7  -5  -4  181.30    9.75 
  -7  -5  -4  180.99    9.48 
  -7  -5  -4  189.22    9.45 
   7  -5   4  200.84    9.43 
   7  -5   4  180.78    9.57 
   7   5   4  205.04    9.82 
  -7   5  -4  188.90    9.33 
  -7   5  -4  186.50    9.43 
  -7   5  -4  179.13    9.36 
   7   5   4  180.93    9.50 
  -7   5  -4  186.92    9.38 
   7   5   4  175.01    9.43 
  -7   5  -4  183.67    9.33 
   9  -5   4   78.88    4.90 
   9  -5   4   84.71    4.56 
  -9  -5  -4   83.91    4.86 
  -9  -5  -4   90.85    4.56 
  -9   5  -4   85.60    4.45 
  -9   5  -4   89.17    4.42 
   9   5   4   81.04    4.61 
   9   5   4   80.21    4.57 
 -11  -5  -4   85.68    4.98 
 -11  -5  -4   91.63    5.10 
  11  -5   4   89.57    4.85 
 -11  -5  -4   84.64    4.74 
  11  -5   4   84.01    4.73 
 -11   5  -4   85.02    4.60 
  11   5   4   86.53    4.74 
  11   5   4   83.31    4.79 
 -11   5  -4   88.50    4.59 
 -13  -5  -4   68.72    5.15 
 -13  -5  -4   83.47    4.55 
  13  -5   4   83.21    4.71 
  13  -5   4   81.84    4.56 
 -13  -5  -4   85.45    4.98 
  13   5   4   78.27    4.57 
  13   5   4   80.58    4.66 
 -13   5  -4   82.41    4.40 
 -14  -6   4   92.55    5.37 
  14  -6  -4   80.04    4.95 
 -14  -6   4   73.35    5.23 
  14   6  -4   79.59    4.68 
 -14   6   4   86.30    4.84 
  14   6  -4   83.71    4.79 
 -12  -6   4   30.52    2.90 
 -12  -6   4   32.40    2.95 
  12  -6  -4   28.64    2.50 
  12   6  -4   28.78    2.33 
  12   6  -4   31.12    2.27 
 -12   6   4   30.11    3.13 
 -12   6   4   34.05    2.40 
  10  -6  -4  131.03    7.18 
 -10  -6   4  121.87    7.31 
  10  -6  -4  129.41    7.03 
 -10  -6   4  129.67    7.16 
  10  -6  -4  136.56    7.19 
 -10   6   4  135.37    6.99 
  10   6  -4  127.88    6.95 
  10   6  -4  129.89    6.90 
 -10   6   4  132.37    7.14 
 -10   6   4  125.50    6.98 
 -10   6   4  154.84    6.85 
  -8  -6   4   26.40    2.49 
  -8  -6   4   28.72    2.17 
   8  -6  -4   27.28    2.31 
   8  -6  -4   26.08    2.42 
   8  -6  -4   29.47    2.33 
  -8   6   4   26.42    2.00 
  -8   6   4   26.64    2.26 
   8   6  -4   27.58    2.06 
  -8   6   4   28.27    2.08 
  -8   6   4   31.08    1.70 
   8   6  -4   29.27    1.96 
   6  -6  -4  206.34   10.47 
   6  -6  -4  217.58   10.58 
  -6  -6   4  186.08   10.82 
  -6  -6   4  212.77   10.47 
  -6  -6   4  202.88   10.45 
   6  -6  -4  206.69   10.65 
   6  -6  -4  204.52   10.59 
  -6  -6   4  219.18   10.34 
   6  -6  -4  223.57   10.76 
  -6   6   4  214.62   10.51 
  -6   6   4  189.13   10.30 
  -6   6   4  193.22   10.58 
   6   6  -4  185.49   10.39 
   6   6  -4  194.33   10.37 
   6   6  -4  187.40   10.39 
  -6   6   4  221.22   10.72 
  -6   6   4  230.58   10.32 
   6   6  -4  203.58   10.45 
   6   6  -4  195.02   10.45 
  -4  -6   4   45.67    2.41 
   4  -6  -4   39.20    2.35 
   4  -6  -4   37.84    2.72 
  -4  -6   4   37.76    2.87 
  -4  -6   4   41.39    2.30 
  -4  -6   4   40.79    2.32 
   4  -6  -4   39.99    2.77 
   4  -6  -4   38.20    2.72 
   4  -6  -4   42.95    2.67 
  -4   6   4   44.03    2.52 
  -4   6   4   42.56    2.87 
   4   6  -4   38.95    2.41 
   4   6  -4   42.70    2.49 
   4   6  -4   36.38    2.26 
   4   6  -4   37.39    2.35 
   4   6  -4   38.97    2.29 
  -4   6   4   36.52    2.63 
  -4   6   4   41.36    2.25 
  -2  -6   4  238.09   11.93 
   2  -6  -4  218.84   12.12 
  -2  -6   4  248.76   11.78 
   2  -6  -4  225.86   12.01 
  -2  -6   4  229.06   12.28 
   2  -6  -4  228.21   11.89 
   2  -6  -4  227.09   12.22 
   2  -6  -4  256.19   12.03 
   2  -6  -4  247.36   11.94 
  -2  -6   4  249.71   11.78 
   2   6  -4  225.31   11.87 
  -2   6   4  232.35   11.84 
   2   6  -4  213.03   11.87 
  -2   6   4  258.44   12.02 
  -2   6   4  253.49   12.15 
  -2   6   4  241.82   12.05 
   2   6  -4  234.04   11.99 
   2   6  -4  223.10   11.75 
  -2   6   4  226.65   12.07 
   0  -6  -4   58.72    3.42 
   0  -6  -4   62.48    3.73 
   0  -6  -4   55.10    3.28 
   0  -6   4   62.20    3.77 
   0  -6  -4   58.21    3.67 
   0  -6  -4   61.18    3.39 
   0  -6   4   67.72    3.15 
   0  -6  -4   68.56    3.62 
   0  -6  -4   59.20    3.55 
   0  -6  -4   58.67    3.37 
   0  -6  -4   57.80    3.71 
   0  -6   4   67.32    3.41 
   0   6   4   66.15    3.45 
   0   6  -4   61.68    3.28 
   0   6  -4   56.03    3.44 
   0   6   4   62.18    3.56 
   0   6  -4   55.79    3.28 
   0   6   4   65.34    3.31 
   0   6   4   59.18    3.29 
   0   6   4   65.30    3.67 
   2  -6   4  230.57   12.42 
  -2  -6  -4  253.45   12.46 
  -2  -6  -4  232.24   12.69 
  -2  -6  -4  243.44   12.39 
   2  -6   4  234.43   12.55 
  -2  -6  -4  269.68   12.56 
   2  -6   4  234.09   12.64 
  -2  -6  -4  243.29   12.47 
  -2  -6  -4  248.77   12.46 
   2   6   4  242.14   12.53 
  -2   6  -4  248.88   12.33 
   2   6   4  257.64   12.28 
   2   6   4  264.69   12.60 
   2   6   4  231.93   12.35 
  -2   6  -4  230.85   12.44 
  -2   6  -4  237.05   12.35 
   2   6   4  265.42   12.43 
  -4  -6  -4   40.36    2.43 
   4  -6   4   40.31    2.37 
  -4  -6  -4   41.36    2.48 
  -4  -6  -4   36.36    2.77 
   4  -6   4   37.09    2.58 
   4  -6   4   38.63    2.60 
   4   6   4   37.79    2.31 
  -4   6  -4   38.36    2.23 
  -4   6  -4   37.47    2.71 
   4   6   4   40.18    2.50 
   4   6   4   43.47    2.71 
  -4   6  -4   40.06    2.32 
  -4   6  -4   40.05    2.41 
   6  -6   4  155.38    8.13 
  -6  -6  -4  163.81    8.09 
  -6  -6  -4  154.66    8.43 
   6  -6   4  133.73    8.29 
  -6  -6  -4  157.75    8.17 
  -6  -6  -4  160.43    8.20 
  -6   6  -4  155.53    8.23 
   6   6   4  157.97    8.15 
   6   6   4  173.61    8.31 
  -6   6  -4  155.41    8.00 
   6   6   4  151.37    8.04 
   8  -6   4   31.03    2.12 
  -8  -6  -4   31.39    2.19 
   8  -6   4   35.97    2.15 
   8  -6   4   32.36    2.40 
  -8   6  -4   31.80    2.00 
   8   6   4   30.37    2.30 
   8   6   4   31.91    2.15 
  -8   6  -4   30.54    2.16 
  10  -6   4  130.43    6.89 
 -10  -6  -4  127.77    7.08 
 -10  -6  -4  130.14    7.01 
 -10  -6  -4  132.43    6.74 
  10  -6   4  126.14    6.74 
  10   6   4  127.10    6.81 
 -10   6  -4  124.84    6.62 
  10   6   4  119.33    6.73 
 -10   6  -4  130.32    6.72 
  12  -6   4   19.83    2.42 
  12  -6   4   24.20    2.10 
 -12  -6  -4   21.62    2.65 
 -12  -6  -4   25.33    2.10 
 -12  -6  -4   21.72    2.49 
 -12   6  -4   23.47    1.82 
  12   6   4   23.82    2.19 
  12   6   4   21.15    2.22 
 -11  -7   4   44.46    3.28 
  11  -7  -4   48.94    3.36 
  11  -7  -4   44.65    3.12 
 -11  -7   4   42.48    3.62 
  11   7  -4   42.23    2.95 
  11   7  -4   44.99    2.91 
   9  -7  -4   54.01    3.67 
   9  -7  -4   54.54    3.33 
   9  -7  -4   51.48    3.70 
  -9  -7   4   53.91    3.37 
  -9  -7   4   55.39    3.91 
  -9   7   4   55.45    3.61 
   9   7  -4   52.78    3.22 
  -9   7   4   50.19    4.21 
   9   7  -4   54.61    3.25 
   7  -7  -4   45.91    3.21 
  -7  -7   4   46.95    2.75 
  -7  -7   4   38.79    3.42 
   7  -7  -4   43.36    2.77 
   7  -7  -4   45.67    3.19 
  -7   7   4   42.80    3.00 
   7   7  -4   42.37    2.79 
  -7   7   4   44.22    2.91 
   7   7  -4   41.64    2.75 
  -7   7   4   50.23    2.56 
   5  -7  -4   85.69    4.88 
   5  -7  -4   79.13    5.57 
  -5  -7   4   84.20    5.40 
   5  -7  -4   93.47    5.20 
  -5  -7   4   99.12    4.80 
  -5   7   4   86.97    5.12 
  -5   7   4   96.63    5.01 
   5   7  -4   94.80    4.97 
  -5   7   4   96.47    4.76 
   5   7  -4   90.82    4.91 
   3  -7  -4   62.92    3.60 
  -3  -7   4   67.67    3.69 
   3  -7  -4   71.51    3.87 
   3  -7  -4   67.48    3.57 
   3  -7  -4   67.44    4.04 
  -3  -7   4   66.93    3.48 
  -3  -7   4   50.80    4.74 
  -3   7   4   67.31    3.78 
   3   7  -4   63.51    3.75 
  -3   7   4   63.03    3.85 
  -3   7   4   66.50    4.21 
  -3   7   4   66.12    3.53 
   1  -7  -4   68.59    4.31 
  -1  -7   4   65.33    4.40 
   1  -7  -4   79.22    4.17 
  -1  -7   4   76.90    4.02 
   1  -7  -4   66.87    4.37 
  -1  -7   4   72.75    3.74 
   1  -7  -4   68.89    3.90 
   1  -7  -4   76.18    4.04 
   1  -7  -4   77.04    3.91 
   1   7  -4   57.84    4.37 
  -1   7   4   75.21    4.03 
   1   7  -4   68.88    4.01 
  -1   7   4   75.48    3.89 
  -1   7   4   77.37    4.10 
  -1   7   4   74.10    4.21 
   1   7  -4   69.65    3.93 
   1  -7   4  190.33    8.82 
  -1  -7  -4  148.71    9.15 
  -1  -7  -4  184.62    8.76 
  -1  -7  -4  170.55    8.82 
   1  -7   4  155.26    9.07 
  -1  -7  -4  156.19    8.65 
  -1  -7  -4  166.53    8.95 
  -1   7  -4  155.38    8.87 
   1   7   4  184.12    8.83 
   1   7   4  166.82    8.69 
   1   7   4  171.69    8.93 
   1   7   4  176.12    9.07 
  -1   7  -4  170.65    8.71 
   1   7   4  186.30    8.69 
  -3  -7  -4   72.14    4.42 
  -3  -7  -4   68.99    4.32 
   3  -7   4   68.40    4.17 
  -3  -7  -4   78.63    4.02 
   3  -7   4   71.27    4.31 
   3  -7   4   68.08    4.00 
  -3  -7  -4   79.33    4.07 
  -3   7  -4   72.86    4.02 
  -3   7  -4   68.81    3.86 
   3   7   4   71.43    4.13 
   3   7   4   70.64    3.92 
  -5  -7  -4   34.98    2.33 
   5  -7   4   33.07    2.21 
   5  -7   4   28.79    2.41 
  -5  -7  -4   34.31    2.34 
  -5  -7  -4   33.34    2.83 
   5  -7   4   30.45    2.49 
   5   7   4   30.29    2.15 
   5   7   4   32.67    2.41 
  -5   7  -4   31.82    2.22 
  -5   7  -4   33.00    2.02 
  -7  -7  -4   59.55    4.20 
   7  -7   4   66.53    3.77 
  -7  -7  -4   65.10    3.72 
  -7  -7  -4   59.87    4.17 
   7  -7   4   62.17    3.61 
   7  -7   4   69.77    3.91 
   7   7   4   61.70    3.63 
  -7   7  -4   63.35    3.52 
  -7   7  -4   65.84    3.66 
   7   7   4   61.20    3.81 
   9  -7   4   43.43    3.20 
  -9  -7  -4   41.90    3.55 
   9  -7   4   47.73    2.92 
  -9  -7  -4   46.96    3.04 
  -9  -7  -4   51.62    3.30 
   9   7   4   46.40    2.95 
  -9   7  -4   45.27    2.76 
   9   7   4   44.61    3.10 
  -9   7  -4   43.76    2.89 
 -11  -7  -4   45.27    3.44 
  11  -7   4   45.09    3.83 
  11  -7   4   46.30    2.97 
 -11  -7  -4   42.88    3.63 
 -11  -7  -4   42.02    3.04 
 -11   7  -4   42.78    2.74 
 -11   7  -4   41.72    2.89 
  11   7   4   42.04    2.98 
  11   7   4   40.02    3.11 
  10  -8  -4    6.92    1.37 
  10  -8  -4   10.58    1.82 
 -10  -8   4    8.32    1.95 
  10   8  -4    9.83    1.35 
  10   8  -4   12.75    1.40 
  -8  -8   4   70.67    5.14 
   8  -8  -4   77.94    4.43 
   8  -8  -4   81.27    4.87 
   8   8  -4   75.86    4.40 
   8   8  -4   75.32    4.41 
  -6  -8   4   17.28    2.19 
   6  -8  -4   15.86    1.87 
   6  -8  -4   16.53    1.78 
   6  -8  -4   16.84    2.42 
   6   8  -4   14.97    1.74 
   6   8  -4   17.95    1.89 
  -6   8   4   17.97    1.54 
  -6   8   4   15.40    1.69 
   4  -8  -4  100.60    5.75 
   4  -8  -4  104.43    6.20 
   4  -8  -4  117.83    5.64 
   4  -8  -4  110.53    5.84 
  -4  -8   4   97.95    6.37 
   4  -8  -4  106.81    6.16 
  -4   8   4  113.92    5.65 
   4   8  -4  108.55    5.82 
   4   8  -4  111.73    5.90 
  -4   8   4  107.19    5.93 
  -4   8   4  106.28    6.01 
   2  -8  -4   25.69    1.66 
  -2  -8   4   19.84    2.63 
   2  -8  -4   21.62    1.80 
   2  -8  -4   19.54    2.44 
   2  -8  -4   24.80    2.03 
   2  -8  -4   24.11    2.54 
  -2   8   4   25.74    2.19 
   2   8  -4   24.67    2.08 
  -2   8   4   24.51    2.25 
   2   8  -4   20.08    1.69 
  -2   8   4   22.03    1.74 
   0  -8  -4  131.47    7.74 
   0  -8  -4  144.50    7.85 
   0  -8   4  126.38    7.82 
   0  -8  -4  132.43    7.34 
   0  -8  -4  150.59    7.50 
   0  -8  -4  155.13    7.34 
   0   8   4  147.10    7.36 
   0   8   4  142.70    7.63 
   0   8  -4  136.11    7.35 
   0   8  -4  142.26    7.50 
   0   8   4  152.80    7.53 
  -2  -8  -4   27.72    1.93 
   2  -8   4   21.69    2.54 
  -2  -8  -4   23.08    2.12 
  -2  -8  -4   24.43    2.65 
   2   8   4   24.05    2.32 
   2   8   4   23.99    1.90 
  -2   8  -4   24.76    1.82 
  -2   8  -4   27.00    2.08 
   4  -8   4   88.88    5.24 
  -4  -8  -4   99.40    5.30 
  -4  -8  -4   95.61    5.74 
   4  -8   4   89.98    5.41 
  -4  -8  -4  105.94    5.25 
   4  -8   4  100.74    5.59 
  -4   8  -4   93.18    5.09 
   4   8   4   93.81    5.40 
   4   8   4   95.00    5.17 
  -4   8  -4   93.79    5.24 
   6  -8   4    9.50    1.19 
  -6  -8  -4    9.04    1.25 
   6  -8   4    9.67    1.54 
  -6  -8  -4   11.85    1.34 
  -6  -8  -4    7.04    1.59 
   6  -8   4    9.04    1.40 
  -6   8  -4    8.29    1.14 
   6   8   4    9.47    1.20 
  -6   8  -4    9.03    1.00 
  -8  -8  -4   72.32    4.96 
   8  -8   4   75.63    4.29 
   8  -8   4   76.37    4.51 
  -8  -8  -4   72.88    4.63 
  -8  -8  -4   81.94    4.46 
  -8   8  -4   71.04    4.11 
   8   8   4   69.57    4.48 
   8   8   4   70.62    4.30 
  -8   8  -4   73.40    4.28 
  -7  -9   4   10.97    2.29 
   7  -9  -4   15.87    1.61 
   7  -9  -4   13.93    2.14 
   7   9  -4   13.82    1.55 
   7   9  -4   13.48    1.61 
   5  -9  -4   23.92    3.00 
   5  -9  -4   23.19    2.11 
  -5  -9   4   18.47    2.38 
   5   9  -4   22.30    2.34 
   5   9  -4   20.70    2.22 
   3  -9  -4   35.71    2.56 
   3  -9  -4   38.64    3.38 
  -3  -9   4   29.04    3.46 
   3   9  -4   35.76    2.80 
   1  -9  -4   28.43    2.95 
  -1  -9   4   24.15    3.06 
   1  -9  -4   23.27    2.19 
  -1   9   4   28.86    2.09 
  -1   9   4   23.65    2.79 
   1   9  -4   24.35    2.05 
   1   9  -4   26.92    2.45 
  -1  -9  -4   19.80    2.78 
   1  -9   4   19.10    2.79 
  -1   9  -4   19.84    1.81 
  -1   9  -4   19.87    2.14 
   1   9   4   19.31    1.93 
   1   9   4   22.46    2.54 
   3  -9   4   23.41    2.88 
  -3  -9  -4   21.95    2.98 
  -3   9  -4   24.01    2.32 
   3   9   4   22.94    2.13 
  -3   9  -4   21.63    1.92 
   5  -9   4   25.71    2.98 
   5  -9   4   27.10    2.41 
   5  -9   4   29.85    2.85 
  -5  -9  -4   28.36    3.22 
  -5   9  -4   25.79    2.13 
   5   9   4   35.35    3.41 
   5   9   4   23.41    2.42 
  -5   9  -4   26.82    2.48 
  16   0  -5    0.47    1.03 
  16   0  -5    0.93    1.07 
 -16   0   5   -0.35    1.39 
 -14   0   5   -0.69    1.18 
  14   0  -5    0.86    0.86 
  14   0  -5    0.41    0.80 
  14   0  -5   -0.35    0.45 
 -12   0   5    0.90    0.97 
 -12   0   5    0.54    0.63 
 -12   0   5    0.16    0.68 
  12   0  -5    0.71    0.68 
 -12   0   5    0.66    1.07 
  12   0  -5    0.48    0.78 
  12   0  -5   -0.11    0.34 
  12   0  -5    0.30    0.58 
  10   0  -5    0.32    0.27 
 -10   0   5    1.03    0.46 
 -10   0   5    0.48    0.65 
  10   0  -5    0.23    0.57 
  10   0  -5    0.08    0.52 
  10   0  -5    0.23    0.48 
 -10   0   5    0.14    0.59 
 -10   0   5   -0.09    0.74 
  10   0  -5    0.40    0.49 
  -8   0   5    0.09    0.67 
   8   0  -5    0.52    0.47 
   8   0  -5    0.05    0.40 
   8   0  -5    0.24    0.21 
  -8   0   5    0.84    0.32 
  -8   0   5    0.59    0.45 
  -8   0   5    1.38    0.43 
   8   0  -5    0.36    0.89 
   6   0  -5    0.61    0.40 
  -6   0   5    0.83    0.33 
   6   0  -5    1.12    0.73 
   6   0  -5    0.61    0.74 
  -6   0   5    0.19    0.44 
   6   0  -5    0.17    0.34 
   6   0  -5    0.47    0.16 
   6   0  -5    0.19    0.32 
  -6   0   5    0.54    0.34 
  -6   0   5    0.29    0.57 
   4   0  -5    0.06    0.25 
  -4   0   5   -0.06    0.25 
  -4   0   5   -0.08    0.45 
   4   0  -5    1.23    0.75 
   4   0  -5   -0.06    0.28 
   4   0  -5    1.05    0.39 
   4   0  -5    0.70    0.19 
  -4   0   5    0.50    0.40 
   4   0  -5    0.48    0.17 
   4   0  -5    0.28    0.62 
  -2   0   5    0.13    0.21 
   2   0  -5    0.25    0.63 
   2   0  -5    0.13    0.25 
   2   0  -5    0.22    0.41 
   2   0  -5    0.52    0.19 
   2   0  -5    0.28    0.22 
   2   0  -5    0.06    0.48 
   2   0  -5    0.19    0.25 
   0   0  -5    0.19    0.35 
   0   0  -5    0.13    0.21 
   0   0  -5    0.11    0.22 
   0   0  -5    0.18    0.16 
   0   0   5    0.83    0.21 
   0   0  -5    0.23    0.34 
   0   0  -5    0.57    0.55 
   2   0   5    0.29    0.28 
  -2   0  -5    0.44    0.30 
   2   0   5    0.97    0.19 
  -2   0  -5   -0.43    0.52 
  -2   0  -5    0.20    0.36 
  -2   0  -5    0.30    0.30 
  -4   0  -5    1.16    0.30 
   4   0   5   -0.01    0.30 
  -4   0  -5    0.15    0.38 
  -4   0  -5    0.58    0.36 
   4   0   5    0.37    0.20 
  -4   0  -5    0.21    0.19 
  -4   0  -5    0.78    0.34 
  -4   0  -5   -0.37    0.40 
  -6   0  -5   -0.05    0.20 
  -6   0  -5    0.72    0.34 
  -6   0  -5    0.17    0.51 
  -6   0  -5    0.31    0.43 
  -6   0  -5   -0.14    0.40 
   6   0   5    0.08    0.25 
   6   0   5    0.32    0.36 
  -6   0  -5    0.87    0.40 
   6   0   5    0.46    0.35 
  -8   0  -5    0.49    0.39 
  -8   0  -5    0.06    0.53 
  -8   0  -5    0.11    0.27 
  -8   0  -5    0.13    0.39 
   8   0   5    0.10    0.41 
   8   0   5    0.20    0.43 
   8   0   5    0.04    0.32 
  -8   0  -5    0.13    0.36 
 -10   0  -5    0.00    0.34 
  10   0   5    0.14    0.55 
 -10   0  -5   -0.33    0.55 
  10   0   5    0.29    0.56 
  10   0   5    0.21    0.44 
 -10   0  -5    0.61    0.65 
 -12   0  -5    1.16    0.82 
 -12   0  -5    0.21    0.44 
  12   0   5    0.05    0.59 
  12   0   5    0.85    0.56 
  12   0   5    0.47    0.68 
 -14   0  -5   -0.34    0.58 
  14   0   5   -0.11    0.91 
 -14   0  -5    0.47    1.05 
  14   0   5    0.13    0.73 
  14   0   5    0.39    0.68 
 -16   0  -5    2.12    1.38 
  16   0   5   -0.40    0.97 
 -16   0  -5   -0.23    0.84 
  16   0   5    1.16    0.96 
  17  -1  -5    0.36    1.78 
 -17   1   5    0.42    1.82 
  17   1  -5    1.33    1.27 
 -15  -1   5   28.91    3.00 
  15  -1  -5   28.63    2.46 
  15  -1  -5   28.97    2.26 
  15   1  -5   27.14    1.79 
  15   1  -5   27.98    2.28 
 -15   1   5   24.61    2.69 
  15   1  -5   28.58    2.26 
  13  -1  -5   17.15    1.66 
  13  -1  -5   18.72    1.18 
  13  -1  -5   19.63    1.73 
 -13  -1   5   21.51    2.33 
  13  -1  -5   19.48    2.01 
  13   1  -5   20.24    1.73 
 -13   1   5   16.08    2.07 
  13   1  -5   18.10    1.27 
 -11  -1   5   23.77    1.62 
 -11  -1   5   24.70    1.81 
  11  -1  -5   23.33    1.84 
  11  -1  -5   22.76    1.88 
  11  -1  -5   24.81    1.77 
 -11  -1   5   21.83    2.13 
 -11  -1   5   22.19    1.65 
  11  -1  -5   22.86    1.66 
  11  -1  -5   22.68    1.30 
 -11   1   5   22.99    1.99 
  11   1  -5   23.42    1.73 
  11   1  -5   22.23    1.67 
  11   1  -5   23.76    1.81 
  11   1  -5   21.99    1.40 
 -11   1   5   22.35    1.61 
 -11   1   5   25.32    1.49 
 -11   1   5   21.35    2.10 
  -9  -1   5    4.83    0.58 
   9  -1  -5    2.04    0.52 
   9  -1  -5    2.54    0.28 
   9  -1  -5    3.19    0.60 
  -9  -1   5    2.12    0.84 
   9  -1  -5    3.51    0.73 
   9  -1  -5    4.50    0.72 
  -9  -1   5    3.37    0.53 
  -9  -1   5    2.28    0.57 
   9   1  -5    4.69    0.66 
   9   1  -5    3.81    0.64 
  -9   1   5    2.97    0.34 
  -9   1   5    2.56    0.74 
   9   1  -5    3.96    0.42 
  -9   1   5    3.70    0.65 
   9   1  -5    3.65    0.52 
   7  -1  -5   79.72    4.13 
  -7  -1   5   63.32    4.00 
  -7  -1   5   78.45    3.76 
  -7  -1   5   69.09    3.69 
  -7  -1   5   73.06    3.93 
   7  -1  -5   69.66    3.76 
   7  -1  -5   84.94    4.40 
   7  -1  -5   65.87    3.76 
  -7  -1   5   71.33    3.67 
   7  -1  -5   68.06    3.82 
   7  -1  -5   68.09    3.89 
   7   1  -5   73.09    3.63 
  -7   1   5   66.35    4.00 
  -7   1   5   73.24    3.80 
   7   1  -5   68.39    3.69 
   7   1  -5   70.38    3.76 
  -7   1   5   69.31    3.82 
   7   1  -5   72.46    4.07 
  -7   1   5   75.93    3.76 
   7   1  -5   64.49    3.77 
   5  -1  -5    2.88    0.45 
   5  -1  -5    2.99    0.76 
  -5  -1   5    2.00    0.62 
   5  -1  -5    2.62    0.45 
   5  -1  -5    2.45    0.81 
   5  -1  -5    3.17    0.62 
  -5  -1   5    3.22    0.40 
   5  -1  -5    3.66    0.57 
  -5   1   5    2.91    0.43 
   5   1  -5    3.87    0.45 
   5   1  -5    3.16    0.37 
  -5   1   5    2.85    0.53 
   5   1  -5    3.90    0.87 
  -5   1   5    3.33    0.69 
   5   1  -5    3.25    0.45 
   5   1  -5    3.31    0.87 
  -5   1   5    2.69    0.44 
   3  -1  -5   92.04    4.80 
  -3  -1   5   94.19    4.57 
   3  -1  -5   88.66    4.67 
   3  -1  -5   90.63    4.62 
  -3  -1   5   88.59    4.81 
   3  -1  -5   93.24    4.88 
   3  -1  -5   91.25    4.63 
   3   1  -5   90.83    4.86 
  -3   1   5   95.79    4.64 
  -3   1   5   85.55    4.68 
   3   1  -5   76.72    4.60 
  -3   1   5   85.99    4.85 
   3   1  -5   82.66    4.63 
  -3   1   5   93.63    4.65 
   3   1  -5   97.56    4.85 
   3   1  -5   91.95    4.55 
   3   1  -5   88.37    4.64 
  -3   1   5   91.79    4.56 
   1  -1  -5   20.71    1.46 
   1  -1  -5   21.51    1.14 
   1  -1  -5   20.18    1.20 
  -1  -1   5   19.79    1.45 
   1  -1  -5   21.38    1.22 
   1  -1  -5   22.82    1.62 
  -1  -1   5   21.54    1.13 
   1  -1  -5   21.06    1.27 
   1   1  -5   20.91    1.13 
   1   1  -5   23.70    1.45 
   1   1  -5   22.24    1.58 
   1   1  -5   21.32    1.24 
   1   1  -5   20.91    1.25 
  -1   1   5   19.20    1.27 
   1   1  -5   21.47    1.51 
  -1   1   5   21.97    1.53 
  -1   1   5   21.97    1.29 
   1   1  -5   21.05    1.27 
  -1  -1  -5  162.27    8.49 
  -1  -1  -5  174.87    8.74 
  -1  -1  -5  169.41    8.51 
  -1  -1  -5  168.70    8.47 
  -1  -1  -5  161.46    8.69 
   1   1   5  177.11    8.55 
  -1   1  -5  165.00    8.58 
   1   1   5  152.79    8.51 
  -1   1  -5  191.26    8.74 
   1   1   5  156.84    8.50 
  -1   1  -5  177.91    8.55 
  -1   1  -5  178.51    8.67 
  -3  -1  -5   43.63    2.28 
  -3  -1  -5   42.12    2.48 
  -3  -1  -5   41.28    2.29 
   3  -1   5   40.43    2.38 
  -3  -1  -5   43.28    2.51 
  -3  -1  -5   46.76    2.34 
  -3  -1  -5   49.55    2.64 
  -3  -1  -5   44.18    2.22 
  -3  -1  -5   45.51    2.26 
   3  -1   5   42.56    2.21 
  -3  -1  -5   42.82    2.32 
  -3   1  -5   41.30    2.20 
  -3   1  -5   44.23    2.43 
  -3   1  -5   44.07    2.54 
  -3   1  -5   42.84    2.38 
   3   1   5   41.50    2.31 
  -3   1  -5   44.85    2.39 
  -3   1  -5   42.97    2.45 
  -3   1  -5   40.12    2.40 
   3   1   5   43.21    2.34 
   3   1   5   47.32    2.36 
  -5  -1  -5    8.92    1.02 
  -5  -1  -5    9.72    0.71 
   5  -1   5    8.94    0.66 
  -5  -1  -5    9.65    0.61 
   5  -1   5   10.65    0.89 
  -5  -1  -5    9.37    0.98 
   5  -1   5    9.16    0.90 
  -5  -1  -5   10.69    0.89 
  -5  -1  -5   12.02    0.95 
  -5   1  -5   10.68    0.98 
   5   1   5    9.72    0.85 
   5   1   5   10.56    0.84 
  -5   1  -5    8.56    1.02 
  -5   1  -5    8.99    0.84 
   5   1   5    9.44    0.74 
  -5   1  -5   11.52    0.88 
  -5   1  -5    9.89    0.61 
  -5   1  -5    8.94    0.93 
  -5   1  -5   10.86    0.64 
  -7  -1  -5    1.88    0.57 
  -7  -1  -5    2.20    0.28 
   7  -1   5    1.81    0.34 
   7  -1   5    1.74    0.48 
   7  -1   5    2.59    0.54 
  -7  -1  -5    1.63    0.34 
  -7  -1  -5    2.95    0.66 
   7   1   5    1.82    0.40 
  -7   1  -5    2.03    0.42 
  -7   1  -5    2.45    0.37 
  -7   1  -5    1.74    0.29 
   7   1   5    0.98    0.42 
   7   1   5    2.50    0.31 
  -7   1  -5    1.32    0.53 
  -7   1  -5    1.70    0.53 
   9  -1   5   76.60    4.00 
  -9  -1  -5   77.12    4.06 
  -9  -1  -5   75.59    3.98 
  -9  -1  -5   78.49    3.91 
   9  -1   5   77.61    4.11 
  -9  -1  -5   72.26    4.24 
   9  -1   5   83.90    4.12 
   9   1   5   75.67    4.04 
  -9   1  -5   78.71    4.10 
  -9   1  -5   74.10    3.94 
   9   1   5   73.74    4.08 
  -9   1  -5   72.22    4.18 
  11  -1   5    6.08    0.86 
 -11  -1  -5    5.44    0.64 
  11  -1   5    4.77    0.67 
 -11  -1  -5    4.89    0.56 
  11  -1   5    4.94    0.80 
 -11  -1  -5    5.03    0.82 
 -11   1  -5    5.37    0.78 
  11   1   5    4.23    0.81 
  11   1   5    6.04    0.67 
 -11   1  -5    4.24    0.91 
 -11   1  -5    4.85    0.95 
  13  -1   5   22.19    1.91 
 -13  -1  -5   27.08    2.30 
  13  -1   5   22.75    1.73 
 -13  -1  -5   24.89    1.66 
  13  -1   5   27.07    2.06 
 -13   1  -5   26.18    2.13 
 -13   1  -5   21.86    1.61 
  13   1   5   27.31    1.80 
  13   1   5   23.16    1.89 
  13   1   5   22.67    1.81 
  15  -1   5    4.99    1.98 
 -15  -1  -5    4.78    0.89 
  15  -1   5    3.98    1.06 
  15  -1   5    4.23    0.91 
 -15  -1  -5    4.85    1.57 
  15   1   5    3.70    1.00 
  15   1   5    3.82    0.96 
 -15   1  -5    4.32    0.80 
 -15   1  -5    4.24    1.33 
  16  -2  -5   10.95    1.46 
 -16  -2   5   15.02    2.25 
 -16   2   5   13.47    1.88 
  16   2  -5   13.80    1.54 
  14  -2  -5    1.40    0.92 
  14  -2  -5    1.21    0.76 
 -14  -2   5    1.04    1.48 
  14   2  -5    1.49    0.62 
 -14   2   5    1.24    1.13 
  14   2  -5    2.26    0.93 
  12  -2  -5    0.77    0.83 
 -12  -2   5    0.53    1.07 
  12  -2  -5    0.45    0.74 
  12  -2  -5    0.40    0.66 
 -12   2   5    0.30    0.90 
  12   2  -5    1.66    0.68 
 -12   2   5    1.17    0.73 
  12   2  -5    0.84    0.49 
  12   2  -5    0.12    0.87 
 -10  -2   5    6.62    1.14 
 -10  -2   5   11.09    1.15 
 -10  -2   5    8.61    0.92 
  10  -2  -5    8.27    1.20 
  10  -2  -5   10.59    1.13 
  10  -2  -5    7.43    0.86 
  10  -2  -5   10.01    1.07 
 -10  -2   5    9.48    1.00 
  10   2  -5   10.38    1.20 
 -10   2   5    7.62    1.13 
  10   2  -5    8.71    0.93 
  10   2  -5    8.94    0.89 
 -10   2   5   10.19    1.10 
  10   2  -5    7.61    0.83 
   8  -2  -5    2.56    0.60 
  -8  -2   5    4.36    0.92 
   8  -2  -5    5.06    0.68 
  -8  -2   5    2.14    0.57 
   8  -2  -5    2.56    0.65 
  -8  -2   5    3.64    0.51 
   8  -2  -5    3.70    0.57 
  -8  -2   5    4.64    0.60 
   8   2  -5    3.31    0.56 
   8   2  -5    2.92    0.43 
   8   2  -5    1.86    0.51 
   8   2  -5    2.61    0.42 
  -8   2   5    2.94    0.58 
  -8   2   5    2.49    0.76 
  -8   2   5    2.93    0.57 
  -6  -2   5   23.96    1.37 
  -6  -2   5   26.10    1.45 
   6  -2  -5   21.78    1.53 
  -6  -2   5   22.38    1.31 
   6  -2  -5   23.33    1.64 
  -6  -2   5   21.96    1.74 
   6  -2  -5   23.06    1.60 
   6  -2  -5   21.99    1.43 
  -6  -2   5   24.72    1.39 
   6  -2  -5   26.38    2.04 
   6   2  -5   22.66    1.33 
   6   2  -5   24.49    1.97 
   6   2  -5   20.84    1.46 
  -6   2   5   22.94    1.46 
  -6   2   5   22.40    1.55 
  -6   2   5   22.80    1.55 
   6   2  -5   22.92    1.43 
  -6   2   5   22.22    1.74 
   6   2  -5   21.49    1.35 
   6   2  -5   24.92    1.95 
   4  -2  -5   50.06    2.78 
   4  -2  -5   42.54    2.48 
  -4  -2   5   39.04    2.54 
  -4  -2   5   46.22    2.29 
   4  -2  -5   42.43    2.34 
   4  -2  -5   44.49    2.41 
  -4  -2   5   42.57    2.56 
   4  -2  -5   45.66    2.57 
  -4   2   5   43.33    2.34 
   4   2  -5   47.65    2.70 
  -4   2   5   44.92    2.37 
  -4   2   5   38.24    2.59 
   4   2  -5   43.50    2.40 
  -4   2   5   41.04    2.47 
   4   2  -5   41.89    2.24 
   4   2  -5   41.89    2.29 
   4   2  -5   41.26    2.31 
   4   2  -5   40.44    2.63 
  -2  -2   5    5.90    0.46 
   2  -2  -5    5.68    0.57 
  -2  -2   5    4.96    0.68 
   2  -2  -5    5.80    0.90 
   2  -2  -5    7.96    0.95 
   2  -2  -5    5.06    0.64 
   2  -2  -5    6.21    0.67 
  -2   2   5    6.78    0.60 
   2   2  -5    6.28    0.44 
  -2   2   5    7.29    0.79 
  -2   2   5    7.05    0.64 
   2   2  -5    5.52    0.54 
   2   2  -5    7.12    0.83 
  -2   2   5    6.06    0.82 
   2   2  -5    6.44    0.74 
   2   2  -5    5.78    0.69 
  -2   2   5    4.62    0.61 
   2   2  -5    5.93    0.82 
   2   2  -5    6.14    0.45 
   2   2  -5    5.06    0.44 
   0  -2  -5   18.96    1.55 
   0  -2  -5   15.97    1.08 
   0  -2  -5   18.10    0.99 
   0  -2  -5   17.19    1.00 
   0  -2  -5   17.95    1.36 
   0  -2  -5   17.24    1.18 
   0   2  -5   19.35    1.38 
   0   2  -5   16.48    0.90 
   0   2  -5   16.45    1.14 
   0   2  -5   17.23    1.21 
   0   2   5   16.10    1.15 
   0   2   5   18.20    1.03 
   0   2   5   17.24    1.39 
   0   2  -5   18.03    1.34 
   0   2  -5   18.83    1.38 
   0   2   5   18.76    1.20 
   0   2   5   17.98    1.00 
  -2  -2  -5   13.21    0.85 
  -2  -2  -5   12.87    1.33 
  -2  -2  -5   14.91    1.07 
  -2  -2  -5   11.82    1.12 
  -2  -2  -5   13.95    0.89 
  -2  -2  -5   11.38    1.09 
  -2   2  -5   12.12    1.05 
  -2   2  -5   12.07    1.02 
  -2   2  -5   11.59    0.97 
   2   2   5   12.16    0.83 
   2   2   5   12.66    1.19 
  -2   2  -5   13.36    1.14 
   2   2   5   12.18    0.95 
  -2   2  -5   13.78    1.21 
   2   2   5   12.11    0.92 
  -4  -2  -5    5.49    0.65 
   4  -2   5    4.91    0.62 
  -4  -2  -5    4.66    0.70 
  -4  -2  -5    6.05    0.59 
  -4  -2  -5    7.08    0.69 
  -4  -2  -5    5.73    0.54 
   4  -2   5    4.72    0.45 
  -4  -2  -5    4.19    0.69 
  -4   2  -5    4.70    0.57 
   4   2   5    5.17    0.64 
  -4   2  -5    6.46    0.74 
  -4   2  -5    5.81    0.69 
   4   2   5    6.73    0.75 
  -4   2  -5    4.60    0.64 
   4   2   5    4.09    0.51 
   4   2   5    5.62    0.74 
  -4   2  -5    4.80    0.37 
  -4   2  -5    5.66    0.76 
  -6  -2  -5    4.89    0.53 
   6  -2   5    4.39    0.65 
  -6  -2  -5    4.38    0.68 
  -6  -2  -5    4.56    0.51 
  -6  -2  -5    4.11    0.75 
  -6  -2  -5    4.01    0.58 
   6  -2   5    4.99    0.67 
   6  -2   5    4.48    0.55 
   6   2   5    6.25    0.75 
   6   2   5    4.21    0.56 
  -6   2  -5    4.07    0.43 
   6   2   5    5.53    0.59 
  -6   2  -5    3.68    0.59 
  -6   2  -5    4.48    0.62 
  -6   2  -5    4.72    0.52 
  -6   2  -5    5.41    0.55 
  -6   2  -5    5.18    0.75 
   6   2   5    4.45    0.59 
  -6   2  -5    4.38    0.65 
  -8  -2  -5   29.54    2.09 
   8  -2   5   27.12    1.72 
   8  -2   5   29.59    1.91 
  -8  -2  -5   29.63    1.99 
   8  -2   5   31.88    2.00 
  -8  -2  -5   28.60    1.75 
   8   2   5   28.54    1.83 
  -8   2  -5   28.08    1.64 
   8   2   5   31.56    1.94 
   8   2   5   31.83    1.83 
  -8   2  -5   31.34    1.93 
  -8   2  -5   34.65    2.10 
  10  -2   5   10.06    0.99 
 -10  -2  -5   11.71    1.19 
 -10  -2  -5   10.69    1.23 
  10  -2   5    9.66    1.00 
  10  -2   5   13.37    1.40 
 -10  -2  -5   11.09    1.02 
  10   2   5   10.34    1.20 
  10   2   5   12.56    1.27 
  10   2   5   10.97    1.09 
 -10   2  -5   10.51    0.86 
 -10   2  -5   10.16    1.31 
 -12  -2  -5   10.97    1.15 
  12  -2   5    8.85    1.02 
  12  -2   5   10.67    1.39 
 -12  -2  -5    9.02    1.29 
  12  -2   5    9.64    1.12 
 -12  -2  -5    9.49    1.13 
  12   2   5   10.35    1.04 
 -12   2  -5    8.77    0.97 
  12   2   5    8.77    0.99 
 -12   2  -5   10.47    1.21 
 -14  -2  -5    5.69    0.93 
  14  -2   5    5.32    1.07 
 -14  -2  -5    4.78    1.39 
  14  -2   5    7.22    1.22 
  14  -2   5    4.81    0.89 
  14   2   5    7.50    1.07 
 -14   2  -5    6.67    1.23 
 -14   2  -5    6.21    0.81 
  14   2   5    6.50    1.06 
 -15  -3   5    0.02    1.64 
  15  -3  -5    0.39    0.97 
  15   3  -5    0.91    1.02 
  15   3  -5   -0.11    0.78 
 -15   3   5   -0.58    1.16 
  13  -3  -5   53.85    3.23 
  13  -3  -5   52.02    3.18 
 -13  -3   5   50.16    3.80 
  13   3  -5   51.59    3.17 
  13   3  -5   50.86    2.94 
 -13   3   5   52.56    3.38 
  11  -3  -5    1.25    0.89 
  11  -3  -5    0.99    0.77 
  11  -3  -5    1.01    0.64 
 -11  -3   5   -0.28    1.26 
  11   3  -5    1.60    0.70 
  11   3  -5    0.58    0.52 
 -11   3   5    2.91    0.76 
 -11   3   5    0.52    0.83 
  11   3  -5    1.98    0.90 
  -9  -3   5   86.79    4.08 
  -9  -3   5   71.18    4.34 
  -9  -3   5   70.59    4.42 
   9  -3  -5   76.04    4.28 
  -9  -3   5   75.68    4.20 
   9  -3  -5   74.25    4.15 
   9  -3  -5   82.63    4.31 
   9  -3  -5   74.90    4.28 
   9   3  -5   76.32    4.16 
   9   3  -5   79.63    4.06 
  -9   3   5   69.20    4.30 
  -9   3   5   86.46    4.36 
   9   3  -5   78.56    4.08 
   9   3  -5   75.18    4.17 
  -9   3   5   79.55    4.17 
  -7  -3   5    3.40    0.78 
  -7  -3   5    1.85    0.44 
   7  -3  -5    1.23    0.63 
  -7  -3   5    1.94    0.60 
  -7  -3   5    2.83    0.45 
  -7  -3   5    2.03    0.75 
   7  -3  -5    1.04    0.60 
   7  -3  -5    1.49    0.45 
   7   3  -5    2.46    0.52 
   7   3  -5    1.63    1.00 
  -7   3   5    2.33    0.58 
  -7   3   5    2.75    0.74 
  -7   3   5    1.79    0.66 
   7   3  -5    2.15    0.43 
  -7   3   5    1.70    0.72 
   7   3  -5    1.46    0.49 
   7   3  -5    1.41    0.38 
   5  -3  -5  202.49    9.63 
  -5  -3   5  176.78    9.51 
   5  -3  -5  189.94    9.42 
   5  -3  -5  184.67    9.37 
  -5  -3   5  171.67    9.55 
  -5  -3   5  191.69    9.32 
   5  -3  -5  193.05    9.58 
  -5  -3   5  191.19    9.38 
  -5  -3   5  184.35    9.23 
  -5  -3   5  176.89    9.23 
   5  -3  -5  186.82    9.50 
   5   3  -5  189.17    9.53 
   5   3  -5  183.41    9.41 
   5   3  -5  177.74    9.27 
   5   3  -5  181.40    9.34 
  -5   3   5  173.55    9.35 
  -5   3   5  181.72    9.49 
   5   3  -5  188.35    9.31 
  -5   3   5  170.32    9.55 
  -5   3   5  205.45    9.50 
   3  -3  -5   19.32    1.31 
  -3  -3   5   15.93    1.42 
  -3  -3   5   16.98    1.33 
   3  -3  -5   21.14    1.67 
   3  -3  -5   17.34    1.47 
   3  -3  -5   16.29    1.38 
   3  -3  -5   17.46    1.15 
  -3  -3   5   19.51    1.10 
   3   3  -5   18.77    1.15 
   3   3  -5   20.28    1.59 
  -3   3   5   17.40    1.37 
   3   3  -5   19.80    1.73 
  -3   3   5   16.97    1.17 
  -3   3   5   19.90    1.21 
   3   3  -5   17.48    1.08 
  -3   3   5   20.46    1.43 
  -3   3   5   17.49    1.47 
   3   3  -5   20.79    1.52 
   3   3  -5   16.71    1.03 
   3   3  -5   18.48    1.21 
  -3   3   5   16.72    1.60 
   3   3  -5   17.88    1.26 
   1  -3  -5  112.84    5.74 
  -1  -3   5  110.95    6.02 
   1  -3  -5  108.79    6.05 
   1  -3  -5  128.49    6.08 
   1  -3  -5  108.64    5.78 
   1  -3  -5  114.89    5.86 
  -1  -3   5  120.00    5.76 
   1  -3  -5  113.07    5.94 
  -1  -3   5  116.12    5.91 
   1   3  -5  108.81    5.72 
  -1   3   5  115.31    5.73 
   1   3  -5  120.11    6.06 
   1   3  -5  110.45    5.74 
   1   3  -5  112.52    5.88 
  -1   3   5  106.64    6.04 
   1   3  -5  118.06    5.95 
  -1   3   5  112.93    5.82 
  -1   3   5  111.48    5.94 
   1   3  -5  119.60    5.99 
  -1   3   5  116.69    5.78 
  -1  -3  -5    2.10    0.51 
  -1  -3  -5    1.76    0.56 
   1  -3   5    2.37    0.55 
  -1  -3  -5    3.41    0.82 
  -1  -3  -5    2.85    0.60 
  -1  -3  -5    2.08    0.35 
  -1  -3  -5    1.79    0.35 
  -1  -3  -5    1.38    0.36 
  -1   3  -5    2.18    0.65 
  -1   3  -5    2.07    0.25 
  -1   3  -5    2.08    0.64 
  -1   3  -5    2.99    0.26 
   1   3   5    2.01    0.32 
   1   3   5    2.15    0.66 
  -1   3  -5    2.75    0.49 
  -1   3  -5    2.46    0.62 
  -1   3  -5    2.06    0.56 
   1   3   5    2.12    0.47 
  -3  -3  -5  146.88    6.89 
  -3  -3  -5  132.00    6.95 
  -3  -3  -5  140.32    7.01 
  -3  -3  -5  136.03    6.80 
  -3  -3  -5  130.56    6.81 
  -3  -3  -5  137.10    6.76 
   3  -3   5  131.58    6.70 
  -3  -3  -5  122.92    7.01 
   3  -3   5  135.30    6.91 
  -3   3  -5  129.90    6.68 
   3   3   5  127.94    6.98 
   3   3   5  137.37    6.91 
  -3   3  -5  126.91    6.79 
   3   3   5  125.63    6.75 
  -3   3  -5  132.82    6.87 
  -3   3  -5  144.53    6.88 
  -3   3  -5  137.36    6.88 
   3   3   5  130.83    6.85 
  -3   3  -5  129.35    6.89 
   5  -3   5    0.56    0.55 
  -5  -3  -5    0.95    0.40 
  -5  -3  -5    0.87    0.47 
  -5  -3  -5    0.87    0.40 
  -5  -3  -5    1.26    0.62 
  -5  -3  -5    0.30    0.61 
  -5   3  -5    1.46    0.48 
   5   3   5    0.36    0.36 
  -5   3  -5    0.77    0.25 
   5   3   5    1.32    0.44 
  -5   3  -5    0.64    0.40 
  -5   3  -5    0.81    0.60 
  -5   3  -5    0.70    0.69 
   5   3   5    0.44    0.72 
   7  -3   5  106.33    5.67 
  -7  -3  -5  114.06    5.72 
  -7  -3  -5  110.24    5.95 
   7  -3   5  117.29    5.87 
  -7  -3  -5  105.83    5.91 
  -7  -3  -5  114.62    5.72 
  -7   3  -5  110.81    5.64 
  -7   3  -5  109.26    5.75 
   7   3   5  111.94    5.89 
   7   3   5  107.02    5.72 
   7   3   5  110.62    5.76 
  -7   3  -5  104.57    5.61 
  -7   3  -5  121.37    5.63 
  -7   3  -5  106.20    5.61 
   9  -3   5    1.14    0.73 
  -9  -3  -5    0.86    0.82 
  -9  -3  -5    0.29    0.45 
  -9  -3  -5    1.27    0.74 
  -9  -3  -5    1.77    0.66 
   9  -3   5    0.70    0.45 
   9   3   5    0.91    0.88 
   9   3   5    0.24    0.55 
  -9   3  -5    0.78    0.69 
  -9   3  -5    0.08    0.57 
   9   3   5    1.13    0.78 
  -9   3  -5    0.46    0.34 
   9   3   5    0.37    0.53 
 -11  -3  -5   58.11    3.66 
  11  -3   5   55.74    3.23 
 -11  -3  -5   60.12    3.25 
  11  -3   5   54.38    3.39 
  11  -3   5   63.66    3.53 
 -11  -3  -5   57.54    3.35 
  11   3   5   57.13    3.31 
  11   3   5   57.30    3.33 
 -11   3  -5   60.23    3.35 
 -11   3  -5   57.35    3.12 
  13  -3   5    6.76    0.93 
  13  -3   5    6.23    1.11 
 -13  -3  -5    6.23    0.92 
  13  -3   5    6.92    1.21 
 -13  -3  -5    7.00    1.41 
  13   3   5    4.43    0.98 
 -13   3  -5    6.12    0.76 
  13   3   5    5.38    0.99 
 -13   3  -5    6.05    1.08 
  15  -3   5   28.21    2.26 
  15  -3   5   35.14    2.78 
 -15  -3  -5   30.76    3.11 
 -15  -3  -5   26.77    2.29 
  15   3   5   29.01    2.43 
  15   3   5   31.77    2.52 
 -15   3  -5   30.09    2.54 
 -15   3  -5   24.81    2.04 
  14  -4  -5   19.76    2.12 
  14  -4  -5   21.48    2.44 
 -14  -4   5   21.07    2.30 
 -14   4   5   19.07    1.90 
  14   4  -5   21.87    1.82 
 -14   4   5   19.82    2.37 
  14   4  -5   19.23    2.08 
 -12  -4   5   37.74    2.93 
 -12  -4   5   44.09    3.28 
  12  -4  -5   37.88    3.10 
  12  -4  -5   41.43    2.71 
  12  -4  -5   44.26    2.85 
 -12   4   5   41.35    2.85 
  12   4  -5   41.13    3.08 
  12   4  -5   39.61    2.64 
 -12   4   5   43.14    2.90 
  10  -4  -5   21.62    2.03 
 -10  -4   5   25.10    2.28 
  10  -4  -5   26.93    2.11 
  10  -4  -5   26.50    2.06 
 -10  -4   5   26.47    1.98 
 -10  -4   5   23.06    2.28 
 -10   4   5   25.55    2.10 
 -10   4   5   23.74    2.03 
 -10   4   5   28.51    1.91 
  10   4  -5   26.28    1.71 
  10   4  -5   26.46    1.85 
   8  -4  -5   31.03    2.21 
  -8  -4   5   23.98    2.06 
  -8  -4   5   23.74    2.05 
   8  -4  -5   26.40    2.00 
   8  -4  -5   24.15    2.05 
  -8  -4   5   28.76    1.66 
  -8  -4   5   27.60    1.75 
   8  -4  -5   26.14    1.77 
   8   4  -5   26.70    1.82 
  -8   4   5   29.56    1.86 
  -8   4   5   23.15    1.97 
  -8   4   5   27.01    2.02 
   8   4  -5   24.10    1.79 
  -8   4   5   29.34    2.14 
   8   4  -5   26.65    1.68 
   8   4  -5   26.90    1.67 
   6  -4  -5   40.61    2.48 
  -6  -4   5   47.10    2.33 
   6  -4  -5   40.13    2.68 
   6  -4  -5   44.37    2.74 
  -6  -4   5   47.84    2.45 
   6  -4  -5   47.04    2.66 
  -6  -4   5   40.81    2.78 
  -6  -4   5   40.09    2.65 
   6   4  -5   40.57    2.40 
   6   4  -5   42.41    2.45 
  -6   4   5   47.92    2.75 
  -6   4   5   42.53    2.67 
   6   4  -5   43.09    2.53 
  -6   4   5   46.93    2.56 
   6   4  -5   45.42    2.75 
  -6   4   5   39.98    2.69 
   6   4  -5   42.69    2.35 
   4  -4  -5   47.60    2.92 
  -4  -4   5   42.31    2.75 
   4  -4  -5   44.30    2.59 
  -4  -4   5   43.64    2.58 
   4  -4  -5   41.70    2.45 
   4  -4  -5   43.24    2.70 
   4  -4  -5   43.65    2.75 
  -4  -4   5   48.15    2.43 
   4   4  -5   45.48    2.54 
   4   4  -5   45.27    2.38 
   4   4  -5   42.02    2.34 
  -4   4   5   47.91    2.54 
  -4   4   5   41.23    2.67 
  -4   4   5   41.55    2.64 
   4   4  -5   47.31    2.65 
  -4   4   5   40.39    2.45 
  -4   4   5   49.72    2.74 
   4   4  -5   42.96    2.50 
   2  -4  -5   66.66    3.61 
   2  -4  -5   60.58    3.18 
   2  -4  -5   58.41    3.57 
  -2  -4   5   65.25    3.26 
   2  -4  -5   63.07    3.50 
  -2  -4   5   59.99    3.56 
   2  -4  -5   60.92    3.27 
  -2  -4   5   64.70    3.37 
   2  -4  -5   61.95    3.39 
   2   4  -5   60.65    3.20 
   2   4  -5   64.79    3.40 
   2   4  -5   59.49    3.25 
  -2   4   5   68.04    3.52 
   2   4  -5   62.75    3.19 
  -2   4   5   57.95    3.25 
   2   4  -5   63.96    3.65 
  -2   4   5   63.15    3.16 
  -2   4   5   56.23    3.45 
   2   4  -5   62.62    3.38 
   0  -4   5   38.98    2.11 
   0  -4  -5   41.69    2.45 
   0  -4  -5   37.32    2.08 
   0  -4  -5   36.27    2.50 
   0  -4   5   38.82    2.44 
   0  -4  -5   37.30    2.37 
   0  -4  -5   38.03    2.12 
   0  -4  -5   42.91    2.54 
   0  -4  -5   39.64    2.26 
   0   4  -5   39.05    2.24 
   0   4   5   37.85    2.34 
   0   4   5   39.02    2.07 
   0   4  -5   36.43    2.06 
   0   4  -5   37.67    2.27 
   0   4   5   40.78    2.19 
   0   4  -5   38.50    1.99 
   0   4  -5   37.87    2.46 
   0   4   5   43.92    2.39 
   0   4  -5   47.42    2.97 
   0   4   5   39.81    2.08 
   0   4  -5   38.94    2.49 
   0   4  -5   37.72    2.06 
  -2  -4  -5   26.57    1.73 
   2  -4   5   28.04    1.91 
  -2  -4  -5   34.46    2.22 
  -2  -4  -5   28.76    1.71 
  -2  -4  -5   30.24    2.20 
   2  -4   5   28.78    1.62 
  -2  -4  -5   27.88    1.76 
  -2  -4  -5   30.36    1.92 
  -2  -4  -5   27.80    2.08 
   2  -4   5   26.89    1.90 
   2   4   5   28.35    1.83 
  -2   4  -5   30.98    1.76 
  -2   4  -5   28.07    1.95 
  -2   4  -5   27.54    1.79 
  -2   4  -5   27.91    1.63 
  -2   4  -5   29.10    1.58 
   2   4   5   29.38    1.90 
   2   4   5   28.18    1.63 
  -4  -4  -5   85.04    4.44 
  -4  -4  -5   86.42    4.48 
   4  -4   5   90.29    4.57 
   4  -4   5   87.82    4.62 
   4  -4   5   84.86    4.38 
  -4  -4  -5   86.04    4.46 
  -4  -4  -5   79.50    4.73 
  -4  -4  -5   81.03    4.61 
  -4   4  -5   83.30    4.33 
   4   4   5   82.16    4.51 
  -4   4  -5   89.27    4.44 
  -4   4  -5   83.93    4.37 
  -4   4  -5   84.69    4.53 
   4   4   5   79.83    4.40 
   4   4   5   87.91    4.58 
  -6  -4  -5   49.98    3.31 
   6  -4   5   54.01    3.20 
   6  -4   5   54.11    2.92 
  -6  -4  -5   51.67    3.19 
  -6  -4  -5   54.49    3.00 
  -6  -4  -5   55.03    3.01 
  -6   4  -5   53.90    3.02 
  -6   4  -5   53.98    2.87 
  -6   4  -5   53.56    2.92 
  -6   4  -5   56.19    2.83 
   6   4   5   52.68    3.04 
   6   4   5   59.95    3.21 
  -6   4  -5   58.22    3.04 
   6   4   5   51.05    2.97 
  -8  -4  -5   16.96    1.74 
  -8  -4  -5   17.43    1.71 
   8  -4   5   12.72    1.14 
   8  -4   5   12.85    1.58 
  -8  -4  -5   14.34    1.22 
  -8  -4  -5   13.97    1.42 
  -8   4  -5   13.67    1.16 
   8   4   5   12.71    1.33 
  -8   4  -5   15.10    1.28 
   8   4   5   13.13    1.25 
   8   4   5   17.95    1.65 
  -8   4  -5   14.21    1.03 
 -10  -4  -5   30.84    2.38 
 -10  -4  -5   27.77    2.37 
  10  -4   5   29.78    2.40 
  10  -4   5   25.10    1.83 
 -10  -4  -5   27.12    2.23 
  10   4   5   25.98    1.95 
 -10   4  -5   28.37    1.69 
  10   4   5   26.73    1.94 
 -10   4  -5   27.45    1.85 
  12  -4   5   23.28    2.27 
 -12  -4  -5   25.00    2.59 
 -12  -4  -5   24.01    2.04 
 -12  -4  -5   23.94    1.85 
  12  -4   5   21.47    1.81 
 -12   4  -5   21.31    1.81 
  12   4   5   25.04    1.97 
  12   4   5   22.07    1.98 
 -12   4  -5   21.53    1.60 
  14  -4   5   16.97    1.86 
  14  -4   5   20.39    1.87 
 -14  -4  -5   17.51    1.93 
 -14  -4  -5   15.54    1.99 
 -14   4  -5   16.20    2.01 
  14   4   5   17.30    2.16 
 -14   4  -5   18.42    1.62 
  14   4   5   14.68    1.58 
  13  -5  -5   18.09    2.14 
 -13  -5   5   16.61    2.13 
  13  -5  -5   14.21    1.56 
 -13  -5   5   17.52    1.99 
  13   5  -5   15.58    1.70 
 -13   5   5   14.49    1.77 
  13   5  -5   16.00    1.89 
 -13   5   5   13.46    1.61 
  11  -5  -5   69.20    4.40 
  11  -5  -5   75.75    4.67 
 -11  -5   5   71.93    4.39 
  11  -5  -5   66.27    3.99 
 -11  -5   5   68.12    4.32 
  11   5  -5   69.77    4.01 
  11   5  -5   72.08    3.89 
 -11   5   5   70.09    4.21 
 -11   5   5   70.22    4.12 
  -9  -5   5   13.50    1.81 
  -9  -5   5   15.11    1.94 
   9  -5  -5    9.92    1.40 
   9  -5  -5   15.16    1.90 
   9  -5  -5   16.31    1.79 
  -9   5   5   17.13    1.67 
   9   5  -5   15.20    1.37 
  -9   5   5   15.07    1.79 
  -9   5   5   16.11    1.72 
   9   5  -5   15.85    1.48 
  -7  -5   5  152.58    7.37 
  -7  -5   5  136.92    7.50 
   7  -5  -5  145.46    7.55 
   7  -5  -5  137.95    7.40 
  -7  -5   5  153.08    7.27 
   7  -5  -5  145.23    7.59 
  -7  -5   5  132.34    7.67 
   7  -5  -5  145.40    7.63 
   7   5  -5  140.18    7.36 
  -7   5   5  135.07    7.50 
  -7   5   5  135.14    7.52 
   7   5  -5  140.98    7.42 
   7   5  -5  136.23    7.34 
  -7   5   5  160.70    7.68 
  -7   5   5  153.11    7.45 
   7   5  -5  136.93    7.35 
  -5  -5   5    3.09    0.57 
   5  -5  -5    1.37    0.56 
   5  -5  -5    1.86    0.86 
   5  -5  -5    1.58    0.77 
  -5  -5   5    1.80    0.43 
  -5  -5   5    1.88    0.80 
  -5  -5   5    1.23    0.69 
   5  -5  -5    2.13    0.93 
   5   5  -5    1.92    0.62 
  -5   5   5    2.01    0.88 
   5   5  -5    2.38    0.58 
   5   5  -5    2.08    0.56 
   5   5  -5    2.84    0.48 
  -5   5   5    2.56    0.35 
  -5   5   5    2.13    0.30 
   5   5  -5    2.45    0.74 
  -5   5   5    2.73    0.82 
  -5   5   5    2.69    0.73 
  -5   5   5    2.86    0.72 
   3  -5  -5  118.66    6.36 
  -3  -5   5  121.09    6.05 
   3  -5  -5  112.51    6.01 
  -3  -5   5  111.73    6.34 
   3  -5  -5  114.13    6.13 
   3  -5  -5  120.86    6.27 
  -3  -5   5  124.25    6.01 
   3  -5  -5  115.94    6.24 
  -3   5   5  122.50    6.09 
  -3   5   5  116.16    6.22 
   3   5  -5  111.68    5.93 
  -3   5   5  103.81    5.90 
   3   5  -5  115.53    6.00 
   3   5  -5  114.10    5.94 
  -3   5   5  126.75    6.27 
  -3   5   5  118.92    6.01 
   3   5  -5  117.77    6.10 
   1  -5  -5   17.90    1.72 
   1  -5  -5   15.48    1.12 
   1  -5  -5   16.52    1.48 
  -1  -5   5   15.25    1.61 
   1  -5  -5   16.44    1.75 
   1  -5  -5   16.71    1.59 
  -1  -5   5   16.11    1.19 
   1  -5  -5   17.24    1.15 
   1   5  -5   14.77    1.05 
  -1   5   5   17.28    1.63 
  -1   5   5   16.13    1.07 
  -1   5   5   16.11    1.29 
   1   5  -5   15.51    1.34 
   1   5  -5   16.93    1.06 
   1   5  -5   18.44    1.17 
   1   5  -5   15.73    1.05 
  -1   5   5   15.56    1.11 
  -1   5   5   15.86    1.47 
   1  -5   5  154.91    8.17 
  -1  -5  -5  156.62    8.06 
  -1  -5  -5  158.53    8.13 
  -1  -5  -5  141.61    8.23 
  -1  -5  -5  158.51    8.00 
   1  -5   5  161.32    7.91 
  -1  -5  -5  154.65    8.06 
  -1  -5  -5  128.81    8.06 
  -1  -5  -5  150.38    7.81 
   1   5   5  166.31    7.96 
  -1   5  -5  151.68    7.85 
   1   5   5  158.65    7.79 
  -1   5  -5  156.32    7.79 
  -1   5  -5  160.49    8.02 
  -1   5  -5  155.98    7.81 
   1   5   5  157.02    8.08 
  -1   5  -5  162.35    7.84 
  -1   5  -5  150.99    8.16 
   1   5   5  151.23    7.87 
   1   5   5  174.17    8.13 
   3  -5   5   22.55    1.48 
  -3  -5  -5   24.40    2.00 
   3  -5   5   25.15    1.84 
  -3  -5  -5   24.14    1.64 
  -3  -5  -5   22.78    1.74 
  -3  -5  -5   23.39    1.64 
  -3  -5  -5   16.56    1.81 
   3  -5   5   23.35    1.82 
  -3   5  -5   25.29    1.34 
  -3   5  -5   24.34    1.41 
  -3   5  -5   23.50    1.65 
   3   5   5   26.57    1.91 
   3   5   5   22.04    1.71 
   3   5   5   21.91    1.48 
  -3   5  -5   22.34    1.91 
  -3   5  -5   23.72    1.31 
  -3   5  -5   22.03    1.39 
   5  -5   5  148.54    7.78 
   5  -5   5  155.79    7.72 
  -5  -5  -5  146.25    7.93 
   5  -5   5  148.09    7.56 
  -5  -5  -5  146.10    7.76 
  -5  -5  -5  152.63    7.64 
  -5  -5  -5  148.81    7.65 
  -5   5  -5  145.66    7.50 
   5   5   5  141.42    7.68 
  -5   5  -5  149.34    7.46 
  -5   5  -5  144.45    7.71 
   5   5   5  134.43    7.56 
  -5   5  -5  147.14    7.65 
   5   5   5  165.88    7.80 
  -7  -5  -5    7.71    1.18 
  -7  -5  -5    6.02    1.16 
  -7  -5  -5    4.83    0.75 
   7  -5   5    6.27    1.04 
  -7  -5  -5    6.02    1.06 
   7  -5   5    5.62    0.71 
   7   5   5    7.09    1.18 
  -7   5  -5    7.67    0.77 
  -7   5  -5    6.67    1.04 
   7   5   5    5.72    0.83 
   7   5   5    4.73    0.74 
  -7   5  -5    5.01    0.62 
  -7   5  -5    6.21    0.77 
  -7   5  -5    8.04    0.92 
  -9  -5  -5   88.56    5.04 
  -9  -5  -5   88.71    5.13 
   9  -5   5   90.85    4.94 
  -9  -5  -5   87.77    4.74 
   9  -5   5   87.67    4.67 
  -9   5  -5   88.05    4.58 
  -9   5  -5   87.99    4.59 
   9   5   5   84.42    4.72 
   9   5   5   85.44    4.81 
 -11  -5  -5    4.98    0.96 
 -11  -5  -5    6.18    1.40 
  11  -5   5    5.42    0.90 
  11  -5   5    6.29    1.21 
  11   5   5    4.33    0.94 
  11   5   5    4.36    0.93 
 -11   5  -5    4.83    0.76 
 -11   5  -5    7.02    0.90 
  13  -5   5   41.84    2.88 
 -13  -5  -5   47.53    3.74 
  13  -5   5   47.20    3.39 
 -13  -5  -5   45.08    2.93 
 -13   5  -5   42.42    2.67 
  13   5   5   42.58    3.07 
  13   5   5   38.78    3.16 
 -12  -6   5   43.06    3.71 
  12  -6  -5   51.14    3.32 
 -12  -6   5   49.15    3.58 
  12  -6  -5   52.94    3.47 
 -12   6   5   46.60    3.32 
  12   6  -5   48.83    3.07 
 -12   6   5   52.32    3.60 
  12   6  -5   48.29    3.18 
  10  -6  -5   56.18    3.57 
 -10  -6   5   51.96    3.76 
 -10  -6   5   46.91    3.97 
  10  -6  -5   55.74    3.30 
 -10   6   5   47.38    3.77 
 -10   6   5   53.62    3.46 
  10   6  -5   52.67    3.20 
  10   6  -5   53.14    3.12 
   8  -6  -5   90.93    4.90 
   8  -6  -5   85.33    4.94 
  -8  -6   5   83.94    4.69 
  -8  -6   5   77.24    5.00 
   8  -6  -5   84.08    4.61 
  -8   6   5   78.06    4.64 
  -8   6   5   81.82    4.80 
  -8   6   5   86.71    4.68 
   8   6  -5   83.92    4.58 
   8   6  -5   84.81    4.55 
   6  -6  -5   79.77    4.80 
   6  -6  -5   84.22    4.60 
   6  -6  -5   83.75    4.67 
  -6  -6   5   84.40    4.34 
  -6  -6   5   81.10    4.24 
  -6  -6   5   80.37    4.15 
  -6  -6   5   70.86    4.69 
   6  -6  -5   75.87    4.27 
   6   6  -5   79.39    4.36 
  -6   6   5   80.23    4.39 
   6   6  -5   69.57    4.65 
  -6   6   5   75.57    4.48 
   6   6  -5   77.78    4.29 
  -6   6   5   77.17    4.05 
   6   6  -5   72.90    4.24 
  -4  -6   5   26.25    1.78 
   4  -6  -5   25.20    1.77 
  -4  -6   5   29.47    1.77 
   4  -6  -5   25.49    2.29 
   4  -6  -5   22.49    2.34 
   4  -6  -5   23.27    2.23 
  -4  -6   5   25.97    2.40 
   4   6  -5   24.83    1.81 
   4   6  -5   26.09    1.68 
   4   6  -5   25.81    1.92 
   4   6  -5   25.71    1.81 
  -4   6   5   30.11    1.66 
  -4   6   5   29.63    1.97 
  -4   6   5   27.40    2.15 
  -4   6   5   28.68    2.54 
  -4   6   5   26.85    1.57 
   4   6  -5   26.69    1.87 
   2  -6  -5   74.51    4.36 
  -2  -6   5   75.89    3.95 
   2  -6  -5   75.55    4.27 
   2  -6  -5   56.50    5.10 
   2  -6  -5   70.92    3.87 
  -2  -6   5   72.35    4.38 
  -2   6   5   71.76    4.15 
   2   6  -5   69.29    3.82 
  -2   6   5   78.79    4.29 
  -2   6   5   71.69    3.81 
  -2   6   5   81.08    4.06 
   2   6  -5   68.52    3.86 
  -2   6   5   77.83    3.93 
   2   6  -5   71.86    4.04 
   0  -6  -5  123.29    6.98 
   0  -6   5  136.49    6.64 
   0  -6  -5  126.06    6.69 
   0  -6  -5  133.12    6.72 
   0  -6  -5  126.06    6.60 
   0  -6  -5  129.63    6.81 
   0  -6  -5  128.97    6.89 
   0  -6   5  121.62    6.95 
   0  -6  -5  121.43    6.53 
   0   6   5  144.65    6.93 
   0   6   5  122.17    6.54 
   0   6   5  134.37    6.68 
   0   6  -5  125.05    6.51 
   0   6  -5  125.99    6.71 
   0   6   5  128.25    6.80 
   0   6   5  130.83    6.52 
   0   6  -5  123.99    6.55 
  -2  -6  -5   77.37    4.65 
  -2  -6  -5   82.15    4.38 
  -2  -6  -5   81.27    4.36 
  -2  -6  -5   80.04    4.46 
   2  -6   5   80.23    4.57 
   2   6   5   75.14    4.42 
  -2   6  -5   83.41    4.34 
  -2   6  -5   76.69    4.15 
  -2   6  -5   77.56    4.12 
   2   6   5   76.19    4.20 
   2   6   5   79.12    4.02 
   2   6   5   86.20    4.60 
  -4  -6  -5   91.91    4.75 
  -4  -6  -5   93.34    4.84 
  -4  -6  -5   91.38    5.11 
   4  -6   5   72.81    4.85 
  -4  -6  -5   93.31    4.83 
   4  -6   5   90.51    4.90 
  -4   6  -5   90.52    4.56 
   4   6   5   91.14    4.82 
   4   6   5   98.15    5.03 
   4   6   5   83.12    4.63 
  -4   6  -5   82.22    4.99 
  -4   6  -5   72.91    4.64 
  -6  -6  -5   62.72    4.07 
   6  -6   5   64.59    3.60 
  -6  -6  -5   60.77    3.69 
  -6  -6  -5   62.18    3.49 
   6  -6   5   62.03    3.38 
   6  -6   5   59.63    3.69 
   6   6   5   58.64    3.42 
  -6   6  -5   60.65    3.48 
  -6   6  -5   59.39    3.29 
   6   6   5   60.87    3.56 
   8  -6   5   42.67    2.97 
  -8  -6  -5   47.16    3.02 
  -8  -6  -5   42.45    3.27 
   8  -6   5   44.71    2.61 
  -8  -6  -5   45.81    3.06 
   8   6   5   43.71    2.86 
  -8   6  -5   43.08    2.73 
   8   6   5   41.30    2.69 
  -8   6  -5   42.36    2.50 
  10  -6   5   59.05    3.29 
 -10  -6  -5   58.07    3.37 
 -10  -6  -5   55.51    3.80 
  10  -6   5   55.87    3.63 
 -10  -6  -5   55.96    3.87 
 -10   6  -5   55.23    3.35 
 -10   6  -5   56.81    3.17 
  10   6   5   55.79    3.47 
  10   6   5   53.03    3.39 
  12  -6   5   25.66    2.19 
 -12  -6  -5   24.61    2.27 
  12  -6   5   25.64    2.73 
 -12  -6  -5   27.33    2.75 
 -12  -6  -5   24.97    2.98 
  12   6   5   23.10    2.42 
  12   6   5   21.45    2.31 
 -12   6  -5   22.76    1.87 
  11  -7  -5   16.79    2.51 
 -11  -7   5   11.29    1.99 
 -11  -7   5   21.71    2.37 
  11  -7  -5   14.10    1.57 
  11   7  -5   15.00    1.50 
  11   7  -5   11.88    1.40 
  -9  -7   5   99.84    6.36 
   9  -7  -5  108.05    5.87 
   9  -7  -5  109.27    6.14 
  -9  -7   5  110.00    5.88 
  -9   7   5  106.57    6.05 
   9   7  -5  108.66    5.79 
   9   7  -5  107.70    5.81 
  -7  -7   5   17.33    2.58 
   7  -7  -5   17.20    1.74 
  -7  -7   5   16.46    1.80 
   7  -7  -5   16.38    1.89 
   7  -7  -5   19.77    2.26 
   7   7  -5   18.84    1.82 
   7   7  -5   20.85    1.77 
  -7   7   5   18.43    2.15 
   5  -7  -5  118.64    6.56 
   5  -7  -5  110.45    6.57 
   5  -7  -5  117.58    6.20 
  -5  -7   5  127.03    6.15 
  -5  -7   5  106.36    6.72 
  -5   7   5  121.02    6.35 
   5   7  -5  111.53    6.24 
   5   7  -5  116.69    6.30 
  -5   7   5  115.26    6.46 
  -5   7   5  131.82    6.05 
   3  -7  -5   31.86    1.94 
   3  -7  -5   23.41    2.50 
   3  -7  -5   27.66    1.86 
   3  -7  -5   26.42    2.45 
  -3  -7   5   24.32    2.71 
  -3  -7   5   28.98    1.99 
  -3   7   5   31.85    2.32 
  -3   7   5   27.01    1.76 
   3   7  -5   25.37    2.09 
  -3   7   5   25.21    2.30 
   1  -7  -5  136.32    6.67 
   1  -7  -5  121.58    7.03 
  -1  -7   5  133.97    6.68 
   1  -7  -5  126.20    6.96 
   1  -7  -5  137.51    6.73 
   1  -7  -5  120.74    6.55 
   1   7  -5  117.53    6.53 
  -1   7   5  130.63    7.03 
  -1   7   5  125.76    6.84 
  -1   7   5  124.72    6.53 
   1   7  -5  124.47    6.74 
  -1  -7  -5   31.60    2.07 
  -1  -7  -5   27.82    1.80 
   1  -7   5   26.02    2.57 
   1  -7   5   30.64    2.07 
  -1  -7  -5   28.99    2.20 
  -1  -7  -5   29.18    2.54 
  -1   7  -5   30.03    2.17 
   1   7   5   26.79    1.91 
   1   7   5   32.97    2.16 
   1   7   5   29.59    2.33 
  -1   7  -5   27.14    1.82 
  -3  -7  -5  149.19    7.66 
   3  -7   5  140.71    7.57 
  -3  -7  -5  152.10    8.04 
   3  -7   5  142.12    7.87 
   3  -7   5  143.28    7.80 
  -3  -7  -5  157.94    7.66 
   3   7   5  137.36    7.52 
  -3   7  -5  152.42    7.65 
  -3   7  -5  143.22    7.47 
   3   7   5  141.59    7.73 
  -5  -7  -5   17.19    1.82 
   5  -7   5   16.77    2.53 
   5  -7   5   17.12    1.51 
  -5  -7  -5   14.95    2.31 
   5  -7   5   15.19    1.56 
  -5  -7  -5   16.48    2.03 
   5   7   5   15.34    1.87 
  -5   7  -5   18.26    1.71 
  -5   7  -5   16.17    1.33 
   5   7   5   15.39    1.40 
   7  -7   5  115.67    6.23 
  -7  -7  -5  120.09    6.24 
  -7  -7  -5   97.30    6.08 
  -7  -7  -5  114.89    6.54 
   7  -7   5  110.79    5.95 
   7  -7   5  122.27    6.30 
   7   7   5  107.03    5.99 
   7   7   5  108.59    6.14 
  -7   7  -5  110.02    5.85 
  -7   7  -5  117.15    6.03 
  -9  -7  -5   15.67    1.76 
  -9  -7  -5   17.48    1.93 
  -9  -7  -5   19.28    2.18 
   9  -7   5   16.89    1.72 
   9  -7   5   18.93    1.81 
   9   7   5   17.10    1.95 
  -9   7  -5   15.74    1.48 
  -9   7  -5   15.50    1.55 
   9   7   5   13.33    1.59 
   8  -8  -5   36.62    3.44 
   8  -8  -5   41.60    2.88 
  -8  -8   5   38.46    3.84 
   8   8  -5   40.34    2.91 
   8   8  -5   41.05    2.88 
   6  -8  -5   83.62    5.14 
  -6  -8   5   71.51    5.31 
   6  -8  -5   96.81    5.23 
   6  -8  -5   83.52    4.60 
  -6   8   5   73.48    5.05 
   6   8  -5   80.30    4.61 
   6   8  -5   86.32    4.72 
  -4  -8   5  103.44    6.72 
   4  -8  -5  122.33    6.16 
   4  -8  -5  127.27    6.01 
   4  -8  -5  111.43    6.55 
   4  -8  -5  106.98    6.00 
  -4   8   5  104.41    6.28 
   4   8  -5  105.55    6.10 
  -4   8   5  122.22    6.22 
   4   8  -5  117.47    6.21 
   2  -8  -5   84.53    4.51 
   2  -8  -5   83.76    4.30 
   2  -8  -5   74.23    4.27 
  -2  -8   5   71.52    5.07 
   2  -8  -5   79.37    4.95 
  -2   8   5   80.38    4.22 
   2   8  -5   76.25    4.51 
  -2   8   5   75.15    4.65 
   0  -8   5   70.73    4.85 
   0  -8  -5   81.95    4.38 
   0  -8  -5   77.98    4.79 
   0  -8  -5   71.93    4.27 
   0  -8  -5   79.37    4.18 
   0   8  -5   70.14    4.07 
   0   8  -5   75.27    4.35 
   0   8   5   71.09    4.48 
   0   8   5   76.37    4.11 
  -2  -8  -5   65.58    4.36 
   2  -8   5   61.53    4.33 
  -2  -8  -5   67.41    3.92 
  -2  -8  -5   69.55    3.79 
  -2   8  -5   65.60    3.87 
  -2   8  -5   64.48    3.62 
   2   8   5   62.03    4.45 
   2   8   5   66.54    3.88 
  -4  -8  -5   72.46    4.09 
   4  -8   5   64.00    4.65 
  -4  -8  -5   78.17    4.07 
  -4  -8  -5   68.13    4.56 
   4  -8   5   67.18    4.29 
   4  -8   5   64.79    3.93 
  -4   8  -5   69.95    4.01 
   4   8   5   69.36    3.93 
  -4   8  -5   65.28    3.76 
   4   8   5   66.28    4.21 
   6  -8   5   77.85    5.80 
   6  -8   5   75.69    4.24 
  -6  -8  -5   78.23    5.00 
  -6  -8  -5   80.83    4.52 
   6  -8   5   76.47    4.62 
  -6  -8  -5   76.84    4.43 
   6   8   5   68.74    4.53 
  -6   8  -5   72.93    4.30 
  -6   8  -5   70.53    4.09 
   6   8   5   73.30    4.31 
  -8  -8  -5   50.89    3.30 
   8  -8   5   45.11    3.44 
  -8  -8  -5   42.25    4.00 
   8  -8   5   47.97    3.03 
  -8  -8  -5   47.85    3.42 
  -8   8  -5   42.20    2.80 
   8   8   5   43.76    3.43 
   8   8   5   47.58    3.20 
  -8   8  -5   46.68    3.17 
   5  -9  -5   46.34    3.06 
   5  -9  -5   43.93    3.89 
  -5  -9   5   40.07    4.13 
   5   9  -5   46.20    3.30 
   5   9  -5   44.86    3.15 
   3  -9  -5  164.05    8.97 
  -3  -9   5  148.61    9.11 
   3   9  -5  168.20    8.59 
   3   9  -5  161.13    8.51 
   1  -9  -5   20.01    2.96 
  -1  -9   5   19.15    2.45 
  -1   9   5   22.10    2.05 
   1   9  -5   20.85    1.85 
  -1   9   5   22.02    2.81 
   1   9  -5   23.81    2.48 
   1  -9   5  113.94    7.04 
  -1  -9  -5  127.82    7.06 
   1   9   5  125.35    6.33 
  -1   9  -5  119.27    6.51 
  -1   9  -5  108.09    6.26 
   1   9   5  118.46    6.70 
   3  -9   5   36.65    3.40 
  -3  -9  -5   32.51    3.45 
  -3   9  -5   30.07    2.72 
  -3   9  -5   30.62    2.24 
   3   9   5   31.69    2.53 
   3   9   5   28.51    3.04 
   5  -9   5   85.23    4.92 
  -5  -9  -5   77.86    5.54 
   5   9   5   78.19    4.63 
  -5   9  -5   86.85    4.94 
   5   9   5   77.53    5.03 
  -5   9  -5   73.66    4.44 
 -16   0   6   57.48    4.35 
  16   0  -6   54.05    3.76 
  16   0  -6   61.52    3.73 
  14   0  -6  181.14    9.25 
  14   0  -6  174.09    9.28 
 -14   0   6  177.03    9.57 
  12   0  -6   79.17    4.39 
  12   0  -6   77.04    4.05 
 -12   0   6   80.04    4.77 
  12   0  -6   82.69    4.51 
  10   0  -6  391.80   20.14 
 -10   0   6  418.77   19.91 
  10   0  -6  392.67   20.13 
 -10   0   6  432.39   20.12 
 -10   0   6  350.55   20.32 
 -10   0   6  431.23   20.07 
  10   0  -6  383.91   19.89 
  10   0  -6  400.21   20.23 
  10   0  -6  401.14   20.07 
  -8   0   6   76.49    4.79 
  -8   0   6   85.75    4.44 
   8   0  -6   85.12    4.25 
   8   0  -6   84.42    4.44 
   8   0  -6   87.37    4.65 
   8   0  -6   84.88    4.51 
   8   0  -6   85.51    4.54 
  -8   0   6   88.39    4.52 
   6   0  -6  489.89   24.32 
   6   0  -6  496.94   24.24 
  -6   0   6  491.00   24.34 
   6   0  -6  461.72   24.29 
  -6   0   6  521.13   24.28 
  -6   0   6  506.45   24.21 
   6   0  -6  487.45   24.45 
  -6   0   6  435.40   24.50 
   4   0  -6  280.47   13.80 
   4   0  -6  271.18   13.80 
  -4   0   6  243.38   14.14 
   4   0  -6  255.24   13.94 
   4   0  -6  278.91   13.95 
   4   0  -6  289.08   14.23 
   4   0  -6  277.16   14.11 
  -4   0   6  291.96   13.91 
   4   0  -6  272.37   13.89 
   4   0  -6  319.26   14.23 
   2   0  -6  305.11   15.86 
   2   0  -6  316.09   16.09 
  -2   0   6  278.91   15.89 
   2   0  -6  318.95   15.91 
   2   0  -6  316.95   15.84 
   2   0  -6  364.81   16.18 
   2   0  -6  324.55   15.82 
   2   0  -6  305.04   15.85 
  -2   0   6  304.05   16.11 
   2   0  -6  353.07   16.19 
  -2   0   6  315.31   15.96 
   0   0  -6   67.29    3.50 
   0   0  -6   65.54    3.76 
   0   0   6   66.55    3.52 
   0   0  -6   72.87    3.67 
   0   0  -6   71.71    3.54 
   0   0  -6   73.60    3.86 
   0   0   6   65.78    3.52 
   0   0  -6   67.50    3.56 
  -2   0  -6  540.82   27.35 
   2   0   6  534.16   27.37 
  -2   0  -6  517.68   27.31 
  -2   0  -6  513.69   27.50 
   2   0   6  549.52   27.31 
   2   0   6  539.22   27.28 
  -2   0  -6  583.50   27.59 
  -2   0  -6  615.78   27.54 
  -2   0  -6  580.47   27.34 
  -2   0  -6  521.85   27.28 
   4   0   6  149.03    7.45 
   4   0   6  141.73    7.55 
  -4   0  -6  153.71    7.52 
  -4   0  -6  151.44    7.77 
  -4   0  -6  152.92    7.54 
  -4   0  -6  139.54    7.67 
  -4   0  -6  162.45    7.67 
  -4   0  -6  142.75    7.45 
  -4   0  -6  139.48    7.64 
   4   0   6  151.76    7.49 
  -6   0  -6  444.16   23.37 
  -6   0  -6  440.27   23.52 
  -6   0  -6  433.61   23.58 
   6   0   6  476.18   23.40 
   6   0   6  468.34   23.49 
  -6   0  -6  535.67   23.51 
  -6   0  -6  489.85   23.40 
  -8   0  -6  118.57    5.83 
   8   0   6  126.89    5.81 
  -8   0  -6  109.78    6.04 
   8   0   6  113.82    5.92 
  -8   0  -6  109.09    5.91 
  -8   0  -6  111.61    5.78 
   8   0   6  110.17    5.79 
  -8   0  -6  106.82    5.75 
  10   0   6  268.68   11.77 
 -10   0  -6  221.09   11.73 
  10   0   6  221.53   12.09 
 -10   0  -6  248.86   12.00 
  10   0   6  217.86   11.77 
 -10   0  -6  222.50   12.00 
 -12   0  -6   87.60    4.88 
 -12   0  -6   82.91    4.45 
  12   0   6   86.09    4.67 
  12   0   6   84.12    4.53 
 -14   0  -6  140.03    7.92 
  14   0   6  149.22    7.69 
 -14   0  -6  144.16    7.49 
  14   0   6  148.99    7.58 
  15  -1  -6   85.02    4.97 
  15  -1  -6   89.82    5.02 
 -15  -1   6   94.67    5.57 
  15   1  -6   86.73    5.02 
  15   1  -6   86.52    5.00 
 -15   1   6   85.36    5.34 
  13  -1  -6  123.75    6.55 
 -13  -1   6  120.57    6.84 
  13  -1  -6  116.36    6.45 
  13   1  -6  119.59    6.15 
  13   1  -6  120.26    6.51 
 -13   1   6  123.29    6.75 
  13   1  -6  124.83    6.48 
  11  -1  -6  145.24    7.65 
  11  -1  -6  132.50    7.60 
 -11  -1   6  139.23    7.87 
  11  -1  -6  145.67    7.55 
 -11  -1   6  164.35    7.73 
  11   1  -6  145.46    7.31 
 -11   1   6  143.60    7.81 
  11   1  -6  139.86    7.65 
 -11   1   6  151.17    7.53 
  11   1  -6  145.34    7.56 
   9  -1  -6  207.84   10.55 
   9  -1  -6  208.99   10.59 
  -9  -1   6  181.80   10.70 
  -9  -1   6  225.45   10.56 
   9  -1  -6  205.81   10.63 
   9  -1  -6  215.97   10.72 
  -9  -1   6  213.92   10.44 
  -9  -1   6  176.64   10.78 
  -9   1   6  193.55   10.81 
   9   1  -6  210.93   10.50 
   9   1  -6  199.91   10.58 
  -9   1   6  230.45   10.61 
  -9   1   6  223.71   10.54 
   9   1  -6  205.71   10.58 
   9   1  -6  212.31   10.39 
  -7  -1   6  250.00   11.63 
   7  -1  -6  233.35   11.63 
  -7  -1   6  238.86   11.56 
   7  -1  -6  221.68   11.70 
   7  -1  -6  238.39   11.83 
  -7  -1   6  206.70   11.89 
   7  -1  -6  239.25   11.67 
   7   1  -6  231.77   11.68 
  -7   1   6  242.11   11.62 
  -7   1   6  199.67   11.85 
   7   1  -6  232.86   11.58 
   7   1  -6  224.96   11.64 
   7   1  -6  235.28   11.51 
  -5  -1   6  211.52   12.04 
   5  -1  -6  238.68   12.03 
   5  -1  -6  231.06   11.89 
   5  -1  -6  236.80   11.86 
   5  -1  -6  234.34   11.83 
  -5  -1   6  258.79   11.81 
   5   1  -6  217.51   11.87 
   5   1  -6  225.52   11.86 
  -5   1   6  252.54   11.89 
   5   1  -6  235.79   12.14 
  -5   1   6  251.04   11.86 
  -5   1   6  214.65   12.08 
  -5   1   6  234.94   11.96 
   5   1  -6  247.63   11.78 
   5   1  -6  235.64   11.74 
  -3  -1   6  294.09   14.61 
   3  -1  -6  287.83   14.69 
  -3  -1   6  276.84   14.88 
   3  -1  -6  294.28   14.88 
   3  -1  -6  311.33   14.95 
   3  -1  -6  293.45   14.68 
   3  -1  -6  291.54   14.67 
  -3   1   6  300.68   14.68 
   3   1  -6  275.77   14.62 
  -3   1   6  261.89   14.88 
  -3   1   6  309.47   14.70 
  -3   1   6  265.34   14.72 
   3   1  -6  292.52   14.60 
   3   1  -6  339.40   14.95 
   3   1  -6  296.26   14.60 
   3   1  -6  304.50   14.94 
  -3   1   6  294.03   14.58 
   3   1  -6  289.12   14.70 
   3   1  -6  290.57   14.62 
   1  -1  -6  186.43    9.48 
  -1  -1   6  174.15    9.67 
   1  -1  -6  182.77    9.71 
  -1  -1   6  175.08    9.43 
  -1  -1   6  187.59    9.40 
   1  -1  -6  197.92    9.41 
   1  -1  -6  205.25    9.79 
   1  -1  -6  188.63    9.49 
   1  -1  -6  185.19    9.48 
  -1   1   6  172.95    9.51 
   1   1  -6  188.63    9.52 
   1   1  -6  203.16    9.76 
   1   1  -6  200.57    9.73 
   1   1  -6  195.12    9.60 
  -1   1   6  198.64    9.52 
   1   1  -6  187.57    9.47 
   1   1  -6  179.64    9.41 
   1   1  -6  192.12    9.50 
  -1  -1  -6  187.91   10.44 
  -1  -1  -6  232.15   10.77 
  -1  -1  -6  207.49   10.88 
  -1  -1  -6  223.24   10.44 
  -1  -1  -6  199.07   10.43 
  -1   1  -6  213.96   10.48 
  -1   1  -6  208.54   10.54 
   1   1   6  194.34   10.46 
  -1   1  -6  218.42   10.64 
  -1   1  -6  201.25   10.48 
  -1   1  -6  225.17   10.71 
   1   1   6  205.27   10.45 
   1   1   6  209.86   10.56 
  -1   1  -6  196.32   10.61 
  -3  -1  -6  300.68   16.00 
  -3  -1  -6  321.74   15.79 
  -3  -1  -6  315.35   15.76 
  -3  -1  -6  291.21   15.78 
  -3  -1  -6  353.20   16.09 
  -3  -1  -6  317.09   15.73 
  -3  -1  -6  332.27   15.82 
  -3  -1  -6  323.46   15.79 
  -3  -1  -6  308.56   15.99 
  -3   1  -6  312.13   15.86 
  -3   1  -6  341.61   16.05 
  -3   1  -6  293.37   15.72 
  -3   1  -6  349.24   15.95 
   3   1   6  307.89   15.82 
  -3   1  -6  306.27   15.93 
  -3   1  -6  301.44   15.95 
   3   1   6  316.08   15.81 
  -3   1  -6  331.27   15.85 
   3   1   6  291.75   15.94 
  -5  -1  -6  218.36   10.65 
   5  -1   6  209.91   10.82 
  -5  -1  -6  204.31   10.91 
  -5  -1  -6  207.23   10.72 
  -5  -1  -6  220.71   10.71 
  -5  -1  -6  220.14   10.63 
   5  -1   6  204.51   10.67 
  -5  -1  -6  220.67   10.78 
  -5  -1  -6  197.42   10.92 
  -5   1  -6  203.65   10.66 
  -5   1  -6  229.88   10.81 
   5   1   6  215.53   10.73 
   5   1   6  211.13   10.78 
  -5   1  -6  206.74   10.88 
  -5   1  -6  226.82   10.98 
  -5   1  -6  203.47   10.83 
  -5   1  -6  232.07   10.83 
  -5   1  -6  215.29   10.81 
   7  -1   6  200.07   10.81 
  -7  -1  -6  203.35   11.05 
   7  -1   6  232.22   10.92 
  -7  -1  -6  214.89   11.03 
   7  -1   6  204.89   10.95 
  -7  -1  -6  203.81   10.83 
  -7  -1  -6  237.48   10.75 
  -7   1  -6  207.65   10.89 
   7   1   6  208.95   10.92 
  -7   1  -6  208.08   10.79 
  -7   1  -6  225.61   10.91 
   7   1   6  211.69   10.86 
  -7   1  -6  204.12   11.01 
   7   1   6  245.21   10.94 
  -7   1  -6  226.96   10.86 
   9  -1   6  222.39   10.19 
   9  -1   6  203.78   10.24 
  -9  -1  -6  192.16   10.09 
  -9  -1  -6  197.99   10.18 
   9  -1   6  191.52   10.09 
  -9  -1  -6  198.73   10.38 
  -9  -1  -6  209.07    9.98 
  -9   1  -6  199.85   10.17 
  -9   1  -6  193.30   10.30 
  -9   1  -6  194.23   10.05 
   9   1   6  197.22   10.13 
   9   1   6  202.36   10.20 
  11  -1   6   98.22    5.24 
 -11  -1  -6   98.68    5.57 
 -11  -1  -6   98.75    5.21 
  11  -1   6  115.18    5.39 
  11  -1   6   99.37    5.39 
  11   1   6   97.88    5.35 
 -11   1  -6   97.99    5.51 
  11   1   6  100.22    5.28 
 -11   1  -6   99.08    5.17 
 -13  -1  -6  104.33    5.73 
  13  -1   6  108.69    5.78 
  13  -1   6  127.41    6.24 
 -13  -1  -6  111.63    6.21 
  13  -1   6  106.22    5.92 
  13   1   6  104.29    5.88 
 -13   1  -6  109.26    6.11 
  13   1   6  109.01    5.82 
 -13   1  -6  112.66    5.72 
 -15  -1  -6   78.05    4.35 
  15  -1   6   79.34    4.41 
 -15  -1  -6   77.54    4.91 
  15  -1   6   81.28    4.63 
 -15   1  -6   78.20    4.86 
  15   1   6   79.73    4.45 
 -15   1  -6   80.33    4.29 
  15   1   6   76.74    4.55 
 -16  -2   6  180.93   10.65 
 -16   2   6  161.09    8.81 
  16   2  -6  153.55    8.53 
  16   2  -6  152.50    8.72 
  14  -2  -6   50.64    3.18 
 -14  -2   6   49.61    3.78 
  14  -2  -6   43.47    3.05 
  14   2  -6   46.80    2.70 
  14   2  -6   41.70    3.06 
 -14   2   6   51.20    3.46 
  12  -2  -6  200.66   10.14 
  12  -2  -6  201.80   10.03 
 -12  -2   6  179.89   10.33 
 -12   2   6  197.57   10.27 
  12   2  -6  193.07    9.80 
  12   2  -6  194.01   10.03 
  10  -2  -6   93.18    5.19 
 -10  -2   6   97.39    5.14 
 -10  -2   6   88.53    5.51 
 -10  -2   6  109.09    5.14 
  10  -2  -6   96.64    5.31 
  10  -2  -6   97.77    5.33 
  10  -2  -6  103.52    5.35 
 -10   2   6  103.19    5.31 
  10   2  -6   88.22    5.59 
  10   2  -6   95.41    5.11 
  10   2  -6   94.22    5.23 
 -10   2   6  102.81    5.18 
  10   2  -6   99.64    5.01 
 -10   2   6   93.01    5.56 
   8  -2  -6  315.05   16.16 
   8  -2  -6  328.60   16.19 
  -8  -2   6  346.34   16.13 
   8  -2  -6  310.29   16.23 
   8  -2  -6  313.16   16.31 
  -8  -2   6  280.74   16.36 
  -8  -2   6  321.14   16.09 
  -8  -2   6  332.17   16.06 
  -8   2   6  293.20   16.36 
   8   2  -6  319.87   16.08 
  -8   2   6  361.14   16.24 
   8   2  -6  315.92   16.20 
   8   2  -6  326.07   16.04 
  -8   2   6  343.90   16.16 
   8   2  -6  309.82   16.13 
  -6  -2   6  107.83    5.06 
   6  -2  -6  103.95    5.43 
  -6  -2   6   94.65    5.47 
   6  -2  -6  102.24    5.26 
  -6  -2   6  104.30    5.16 
   6  -2  -6  103.39    5.23 
   6  -2  -6  102.03    5.34 
   6   2  -6  100.97    5.13 
   6   2  -6   98.48    5.19 
  -6   2   6   93.26    5.31 
   6   2  -6   99.78    5.13 
  -6   2   6  102.41    5.74 
  -6   2   6   97.61    5.28 
  -6   2   6  107.20    5.22 
   6   2  -6   96.06    5.26 
  -6   2   6   93.75    5.48 
  -4  -2   6  368.29   17.73 
  -4  -2   6  340.73   17.99 
   4  -2  -6  346.41   17.80 
   4  -2  -6  364.15   17.82 
   4  -2  -6  345.72   17.88 
   4  -2  -6  353.55   18.02 
   4   2  -6  357.34   17.73 
   4   2  -6  353.98   17.84 
  -4   2   6  357.18   17.76 
  -4   2   6  338.52   18.04 
   4   2  -6  353.89   17.71 
  -4   2   6  366.75   17.81 
  -4   2   6  337.57   17.88 
  -4   2   6  384.86   17.87 
   4   2  -6  346.63   17.76 
   4   2  -6  376.68   18.05 
   2  -2  -6  110.61    5.93 
  -2  -2   6  112.83    5.57 
   2  -2  -6  112.10    5.69 
   2  -2  -6  109.85    5.65 
   2  -2  -6  120.87    6.00 
  -2  -2   6  105.37    5.84 
   2  -2  -6  110.91    5.75 
   2   2  -6  119.77    5.96 
  -2   2   6  109.26    5.95 
  -2   2   6  109.84    5.66 
   2   2  -6  113.26    5.72 
   2   2  -6  109.69    5.68 
   2   2  -6  106.94    5.70 
   2   2  -6  104.17    5.55 
   2   2  -6  114.63    5.94 
   2   2  -6  119.09    5.86 
  -2   2   6  118.19    5.76 
  -2   2   6  100.90    5.67 
  -2   2   6  103.58    5.75 
   0  -2  -6  556.26   28.88 
   0  -2  -6  552.76   28.68 
   0  -2  -6  535.45   28.64 
   0  -2  -6  584.76   28.58 
   0  -2  -6  591.11   28.88 
   0  -2  -6  521.11   28.65 
   0   2   6  619.75   28.73 
   0   2  -6  632.18   28.85 
   0   2  -6  592.03   28.68 
   0   2  -6  634.27   28.85 
   0   2  -6  584.74   28.74 
   0   2  -6  560.04   28.70 
   0   2  -6  574.48   28.69 
   0   2   6  514.72   28.68 
   0   2   6  582.96   28.60 
  -2  -2  -6  102.78    5.66 
  -2  -2  -6  112.37    5.76 
  -2  -2  -6  105.58    5.41 
  -2  -2  -6  105.53    5.31 
  -2  -2  -6  105.78    5.33 
  -2  -2  -6  110.37    5.39 
  -2  -2  -6   99.67    5.61 
  -2  -2  -6  106.46    5.48 
   2   2   6  106.16    5.40 
  -2   2  -6  100.68    5.52 
  -2   2  -6  102.35    5.54 
   2   2   6  112.71    5.49 
  -2   2  -6  107.33    5.50 
  -2   2  -6  108.50    5.59 
  -2   2  -6  112.79    5.65 
   2   2   6   99.14    5.44 
  -4  -2  -6  316.76   15.23 
  -4  -2  -6  310.66   15.22 
  -4  -2  -6  283.87   15.22 
  -4  -2  -6  295.22   15.43 
  -4  -2  -6  289.37   15.43 
  -4   2  -6  280.76   15.11 
   4   2   6  320.43   15.30 
  -4   2  -6  313.65   15.30 
   4   2   6  315.95   15.41 
  -4   2  -6  291.11   15.32 
  -4   2  -6  298.32   15.31 
  -4   2  -6  319.10   15.31 
   4   2   6  307.46   15.26 
  -4   2  -6  324.24   15.42 
   4   2   6  295.71   15.23 
  -4   2  -6  306.30   15.31 
  -6  -2  -6  120.05    6.07 
  -6  -2  -6  111.43    6.30 
  -6  -2  -6  115.69    6.07 
   6  -2   6  114.92    6.00 
   6  -2   6  132.22    6.22 
  -6  -2  -6  112.30    6.32 
  -6   2  -6  122.17    6.22 
  -6   2  -6  120.44    6.10 
   6   2   6  114.68    6.11 
  -6   2  -6  124.93    6.33 
   6   2   6  125.58    6.27 
   6   2   6  121.82    6.11 
  -6   2  -6  112.93    6.18 
  -6   2  -6  112.03    6.10 
  -6   2  -6  111.45    5.97 
   6   2   6  130.86    6.19 
   8  -2   6  313.56   14.40 
  -8  -2  -6  271.15   14.50 
  -8  -2  -6  289.01   14.27 
   8  -2   6  280.31   14.39 
  -8  -2  -6  280.03   14.45 
   8  -2   6  280.24   14.25 
  -8  -2  -6  272.54   14.27 
   8   2   6  287.67   14.32 
   8   2   6  308.76   14.40 
  -8   2  -6  275.40   14.41 
  -8   2  -6  280.28   14.20 
  -8   2  -6  295.68   14.38 
  -8   2  -6  269.14   14.18 
  -8   2  -6  286.36   14.20 
   8   2   6  275.22   14.33 
  -8   2  -6  284.56   14.18 
  10  -2   6   70.26    3.84 
 -10  -2  -6   72.13    3.86 
  10  -2   6   71.46    4.05 
  10  -2   6   78.75    4.11 
 -10  -2  -6   72.68    3.99 
 -10  -2  -6   67.29    4.21 
  10   2   6   80.27    4.09 
 -10   2  -6   72.37    4.08 
 -10   2  -6   71.51    3.77 
  10   2   6   71.06    3.91 
  10   2   6   69.90    3.96 
  12  -2   6  207.03    9.50 
 -12  -2  -6  177.47    9.28 
  12  -2   6  180.27    9.29 
  12  -2   6  187.40    9.45 
 -12  -2  -6  179.14    9.64 
  12   2   6  181.82    9.35 
  12   2   6  173.99    9.38 
 -12   2  -6  174.67    9.21 
 -12   2  -6  178.72    9.49 
  14  -2   6   32.28    2.34 
 -14  -2  -6   34.08    2.32 
  14  -2   6   37.60    2.69 
 -14  -2  -6   33.14    3.15 
  14  -2   6   38.58    3.01 
 -14   2  -6   35.18    2.17 
  14   2   6   35.19    2.57 
 -14   2  -6   37.43    2.82 
  14   2   6   31.31    2.37 
 -15  -3   6   79.16    5.45 
  15  -3  -6   88.86    4.86 
  15  -3  -6   77.61    4.71 
 -15   3   6   80.42    5.03 
  15   3  -6   79.48    4.78 
 -13  -3   6  132.01    7.68 
  13  -3  -6  139.82    7.26 
  13  -3  -6  143.71    7.36 
  13   3  -6  133.18    7.27 
  13   3  -6  133.74    7.04 
 -13   3   6  138.55    7.47 
  11  -3  -6  105.03    5.50 
 -11  -3   6   96.78    5.83 
  11  -3  -6  111.36    5.66 
 -11   3   6  102.64    5.70 
  11   3  -6  102.27    5.32 
  11   3  -6   96.97    5.50 
  -9  -3   6  142.61    7.27 
   9  -3  -6  137.63    7.28 
  -9  -3   6  143.66    7.12 
  -9  -3   6  126.03    7.42 
   9  -3  -6  131.14    7.15 
   9  -3  -6  138.19    7.33 
   9  -3  -6  133.69    7.30 
  -9  -3   6  149.83    7.06 
  -9   3   6  130.24    7.26 
   9   3  -6  139.44    7.07 
  -9   3   6  151.66    7.32 
   9   3  -6  134.97    7.16 
  -9   3   6  133.64    7.37 
   9   3  -6  140.81    7.05 
   7  -3  -6  228.05   11.48 
   7  -3  -6  224.54   11.55 
  -7  -3   6  236.23   11.30 
   7  -3  -6  227.26   11.36 
  -7  -3   6  219.41   11.34 
  -7  -3   6  222.81   11.19 
   7  -3  -6  234.71   11.41 
  -7  -3   6  202.42   11.54 
  -7   3   6  197.12   11.57 
   7   3  -6  216.50   11.39 
   7   3  -6  223.48   11.30 
   7   3  -6  217.41   11.24 
   7   3  -6  234.12   11.40 
  -7   3   6  247.77   11.48 
  -7   3   6  234.65   11.37 
  -7   3   6  217.25   11.45 
   5  -3  -6  123.47    6.29 
   5  -3  -6  121.77    6.44 
   5  -3  -6  125.50    6.54 
  -5  -3   6  123.39    6.49 
  -5  -3   6  117.12    6.52 
   5  -3  -6  126.49    6.35 
   5   3  -6  116.66    6.17 
  -5   3   6  120.68    6.30 
  -5   3   6  113.43    6.40 
  -5   3   6  133.25    6.31 
  -5   3   6  131.94    6.42 
   5   3  -6  126.12    6.58 
  -5   3   6  116.97    6.54 
   5   3  -6  120.59    6.21 
   5   3  -6  120.45    6.26 
   5   3  -6  119.51    6.34 
  -3  -3   6  218.78   11.96 
  -3  -3   6  249.40   11.68 
   3  -3  -6  225.62   11.77 
  -3  -3   6  231.99   11.90 
   3  -3  -6  237.35   11.73 
   3  -3  -6  241.72   12.02 
   3  -3  -6  227.75   11.85 
  -3   3   6  245.60   11.74 
   3   3  -6  245.89   11.94 
   3   3  -6  226.45   11.80 
   3   3  -6  229.29   11.75 
   3   3  -6  241.55   11.67 
  -3   3   6  222.42   11.85 
   3   3  -6  233.40   11.62 
  -3   3   6  242.01   11.74 
  -3   3   6  222.11   11.97 
   3   3  -6  224.54   11.62 
   1  -3  -6  369.77   19.40 
   1  -3  -6  373.17   19.22 
  -1  -3   6  381.89   19.22 
   1  -3  -6  385.61   19.58 
   1  -3  -6  369.09   19.33 
   1  -3  -6  372.84   19.27 
   1   3  -6  407.71   19.55 
  -1   3   6  375.10   19.41 
  -1   3   6  394.63   19.29 
   1   3  -6  387.36   19.44 
  -1   3   6  405.35   19.22 
   1   3  -6  403.64   19.48 
  -1   3   6  428.59   19.45 
   1   3  -6  357.68   19.20 
   1   3  -6  388.36   19.37 
   1   3  -6  385.44   19.38 
  -1   3   6  389.19   19.27 
  -1  -3  -6  225.57   11.01 
  -1  -3  -6  216.39   11.34 
  -1  -3  -6  218.94   11.09 
  -1  -3  -6  214.33   10.96 
   1   3   6  217.40   11.01 
  -1   3  -6  235.61   11.27 
  -1   3  -6  204.65   10.94 
  -1   3  -6  208.62   10.94 
   1   3   6  235.81   11.17 
  -1   3  -6  222.72   11.13 
  -1   3  -6  240.24   11.22 
  -1   3  -6  215.19   11.19 
  -1   3  -6  220.20   11.15 
   1   3   6  207.23   11.13 
  -3  -3  -6  217.07   10.61 
  -3  -3  -6  195.36   10.84 
  -3  -3  -6  202.49   10.62 
  -3  -3  -6  214.87   10.57 
  -3  -3  -6  200.84   10.79 
   3   3   6  200.63   10.65 
   3   3   6  220.82   10.98 
  -3   3  -6  202.83   10.48 
  -3   3  -6  230.11   10.73 
   3   3   6  226.15   10.70 
  -3   3  -6  201.60   10.71 
  -3   3  -6  203.73   10.64 
   3   3   6  207.10   10.57 
  -3   3  -6  221.55   10.74 
  -5  -3  -6  164.81    8.76 
  -5  -3  -6  170.10    8.97 
   5  -3   6  178.24    8.90 
  -5  -3  -6  165.49    9.04 
  -5  -3  -6  178.39    8.75 
  -5  -3  -6  174.05    8.75 
   5  -3   6  171.48    8.65 
  -5   3  -6  164.59    8.63 
   5   3   6  184.35    9.13 
   5   3   6  182.53    8.86 
  -5   3  -6  174.45    8.89 
   5   3   6  165.96    8.75 
  -5   3  -6  165.81    8.80 
   5   3   6  172.58    8.80 
  -5   3  -6  177.20    8.81 
   7  -3   6  114.32    6.00 
  -7  -3  -6  119.68    6.08 
  -7  -3  -6  116.30    6.32 
  -7  -3  -6  111.37    6.35 
  -7  -3  -6  119.19    6.08 
   7  -3   6  132.51    6.28 
  -7   3  -6  121.61    6.27 
  -7   3  -6  116.67    5.96 
   7   3   6  129.90    6.22 
  -7   3  -6  117.49    6.15 
  -7   3  -6  101.25    6.30 
   7   3   6  116.45    6.12 
   7   3   6  112.57    6.09 
  -7   3  -6  122.54    6.08 
  -9  -3  -6  149.38    7.83 
   9  -3   6  157.80    7.79 
   9  -3   6  144.98    7.55 
  -9  -3  -6  139.01    7.69 
  -9  -3  -6  149.78    7.92 
   9   3   6  150.06    7.65 
  -9   3  -6  151.33    7.69 
  -9   3  -6  146.60    7.49 
   9   3   6  145.77    7.71 
 -11  -3  -6  111.07    5.97 
 -11  -3  -6  112.30    5.84 
  11  -3   6  108.82    5.81 
 -11  -3  -6  111.78    6.22 
  11  -3   6  115.87    6.11 
  11   3   6  112.99    5.90 
  11   3   6  106.50    5.91 
 -11   3  -6  112.83    5.74 
 -11   3  -6  112.24    5.98 
  13  -3   6   90.51    4.85 
 -13  -3  -6   78.40    4.45 
  13  -3   6   74.54    4.41 
 -13  -3  -6   80.35    5.04 
  13   3   6   78.38    4.54 
 -13   3  -6   81.54    4.63 
 -13   3  -6   83.99    4.31 
  13   3   6   81.32    4.53 
  14  -4  -6  148.09    7.55 
  14  -4  -6  140.51    7.46 
 -14  -4   6  135.16    7.90 
 -14   4   6  137.88    7.60 
  14   4  -6  136.74    7.20 
  14   4  -6  132.16    7.43 
 -14   4   6  137.71    7.56 
  12  -4  -6   51.31    3.25 
  12  -4  -6   56.68    3.50 
 -12  -4   6   49.22    3.71 
 -12   4   6   53.07    3.51 
  12   4  -6   52.96    3.21 
  12   4  -6   53.18    3.28 
 -12   4   6   53.26    3.47 
 -10  -4   6  124.29    8.02 
  10  -4  -6  151.22    7.55 
 -10  -4   6  140.25    7.80 
  10   4  -6  144.93    7.56 
 -10   4   6  149.64    7.73 
  10   4  -6  147.77    7.42 
 -10   4   6  151.29    7.69 
   8  -4  -6   26.84    1.87 
   8  -4  -6   28.44    2.17 
  -8  -4   6   29.87    1.84 
   8  -4  -6   27.03    2.30 
   8  -4  -6   33.01    2.48 
  -8  -4   6   25.54    2.19 
  -8  -4   6   31.39    1.78 
  -8  -4   6   21.76    2.46 
  -8   4   6   26.54    2.22 
   8   4  -6   27.57    1.79 
  -8   4   6   23.58    2.09 
  -8   4   6   23.60    2.84 
  -8   4   6   32.80    2.03 
   8   4  -6   28.69    2.06 
   8   4  -6   33.04    2.04 
   8   4  -6   26.96    1.75 
  -6  -4   6  263.02   13.45 
  -6  -4   6  249.99   13.55 
  -6  -4   6  278.59   13.25 
   6  -4  -6  264.89   13.46 
   6  -4  -6  264.68   13.53 
   6  -4  -6  273.77   13.37 
   6  -4  -6  255.66   13.28 
   6   4  -6  253.33   13.34 
   6   4  -6  260.71   13.22 
   6   4  -6  255.59   13.25 
  -6   4   6  256.43   13.48 
  -6   4   6  247.91   13.40 
  -6   4   6  301.90   13.48 
   6   4  -6  259.83   13.18 
   4  -4  -6   70.33    3.96 
  -4  -4   6   63.23    3.93 
  -4  -4   6   67.98    3.78 
   4  -4  -6   66.82    3.61 
   4  -4  -6   68.54    3.74 
  -4  -4   6   71.43    3.57 
   4  -4  -6   66.12    3.86 
  -4   4   6   77.47    3.88 
   4   4  -6   64.97    3.49 
  -4   4   6   74.93    3.68 
   4   4  -6   63.46    3.68 
  -4   4   6   65.09    3.62 
  -4   4   6   65.05    3.88 
  -4   4   6   65.55    3.80 
   4   4  -6   69.49    3.86 
   4   4  -6   64.52    3.64 
   4   4  -6   66.96    3.52 
   2  -4  -6  305.74   16.10 
   2  -4  -6  321.22   16.00 
  -2  -4   6  323.37   16.07 
  -2  -4   6  314.95   16.40 
   2  -4  -6  319.09   16.19 
   2  -4  -6  316.67   16.29 
  -2  -4   6  321.12   16.21 
   2  -4  -6  306.68   16.42 
  -2   4   6  330.79   15.99 
  -2   4   6  334.10   16.15 
   2   4  -6  315.18   16.21 
  -2   4   6  313.57   16.27 
   2   4  -6  337.10   16.30 
  -2   4   6  322.32   16.10 
   2   4  -6  308.07   16.04 
   2   4  -6  327.22   16.20 
  -2   4   6  356.81   16.31 
   0  -4  -6  110.70    5.71 
   0  -4   6  111.74    5.57 
   0  -4  -6  108.66    5.82 
   0  -4  -6  111.25    5.58 
   0  -4  -6  102.72    5.58 
   0  -4   6  105.82    5.91 
   0  -4  -6  103.28    5.98 
   0   4   6  110.00    5.56 
   0   4  -6  104.58    5.54 
   0   4  -6  106.24    5.54 
   0   4  -6  110.04    5.74 
   0   4   6  117.50    5.66 
   0   4   6  107.65    5.79 
   0   4   6  113.50    5.56 
   0   4   6  120.72    5.84 
   0   4  -6  117.06    5.78 
  -2  -4  -6  270.16   13.32 
  -2  -4  -6  254.43   13.33 
  -2  -4  -6  252.62   13.60 
  -2  -4  -6  250.40   13.46 
   2  -4   6  261.25   13.47 
  -2  -4  -6  289.36   13.26 
  -2   4  -6  273.29   13.36 
  -2   4  -6  256.06   13.18 
  -2   4  -6  289.44   13.35 
  -2   4  -6  274.86   13.47 
   2   4   6  257.14   13.38 
  -2   4  -6  254.06   13.27 
   2   4   6  252.96   13.23 
  -4  -4  -6   67.62    3.94 
   4  -4   6   72.67    3.59 
  -4  -4  -6   71.13    3.74 
  -4  -4  -6   70.93    3.72 
  -4  -4  -6   67.68    3.74 
  -4  -4  -6   64.14    4.06 
   4  -4   6   71.30    3.93 
  -4   4  -6   75.36    3.80 
  -4   4  -6   70.01    3.77 
   4   4   6   70.21    3.79 
   4   4   6   66.66    3.67 
  -4   4  -6   69.85    3.68 
  -4   4  -6   67.55    3.56 
  -4   4  -6   67.68    3.85 
   6  -4   6  238.20   11.72 
   6  -4   6  255.65   12.01 
  -6  -4  -6  220.17   12.09 
  -6  -4  -6  231.14   11.82 
  -6  -4  -6  235.13   11.82 
  -6  -4  -6  229.89   12.02 
   6   4   6  233.93   11.86 
  -6   4  -6  229.57   11.78 
  -6   4  -6  229.74   11.85 
  -6   4  -6  245.74   11.89 
  -6   4  -6  232.20   11.70 
   6   4   6  221.44   11.78 
  -8  -4  -6   18.61    1.97 
   8  -4   6   17.17    1.80 
  -8  -4  -6   19.11    1.92 
   8  -4   6   14.68    1.22 
   8   4   6   15.14    1.42 
  -8   4  -6   16.88    1.14 
   8   4   6   16.99    1.45 
  -8   4  -6   17.11    1.35 
 -10  -4  -6  163.48    8.46 
 -10  -4  -6  165.24    8.79 
  10  -4   6  163.87    8.43 
 -10  -4  -6  167.72    8.73 
  10  -4   6  168.40    8.68 
  10   4   6  163.97    8.52 
 -10   4  -6  167.56    8.36 
  10   4   6  158.34    8.50 
 -10   4  -6  163.24    8.46 
 -12  -4  -6   60.52    3.53 
 -12  -4  -6   61.83    4.12 
  12  -4   6   61.73    3.94 
  12  -4   6   60.69    3.48 
  12   4   6   61.04    3.62 
  12   4   6   60.06    3.68 
 -12   4  -6   60.99    3.35 
  13  -5  -6  105.81    5.84 
 -13  -5   6  106.47    6.06 
  13  -5  -6  104.91    5.69 
 -13   5   6  103.35    5.87 
 -13   5   6  101.06    5.79 
  13   5  -6   96.02    5.44 
  13   5  -6   93.37    5.62 
  11  -5  -6   72.79    4.31 
  11  -5  -6   80.23    4.58 
 -11  -5   6   74.74    4.65 
 -11  -5   6   74.63    4.69 
  11   5  -6   77.29    4.34 
  11   5  -6   78.71    4.17 
 -11   5   6   73.85    4.49 
 -11   5   6   72.97    4.51 
  -9  -5   6   73.94    4.53 
   9  -5  -6   81.84    4.34 
  -9  -5   6   74.82    4.71 
   9  -5  -6   82.60    4.59 
   9   5  -6   77.39    4.34 
  -9   5   6   78.25    4.51 
  -9   5   6   76.74    4.49 
  -7  -5   6  116.19    6.19 
  -7  -5   6  120.14    5.96 
   7  -5  -6  118.94    6.32 
  -7  -5   6  111.62    6.38 
   7  -5  -6  108.52    6.01 
  -7   5   6  124.29    6.10 
   7   5  -6  115.29    6.05 
   7   5  -6  113.50    5.97 
  -7   5   6  110.48    6.17 
   7   5  -6  109.71    5.92 
  -7   5   6  110.85    6.18 
  -5  -5   6  125.94    7.32 
   5  -5  -6  133.15    6.98 
   5  -5  -6  138.22    7.14 
  -5  -5   6  145.23    6.97 
   5  -5  -6  135.12    7.25 
  -5  -5   6  136.64    7.08 
   5  -5  -6  134.79    7.30 
  -5   5   6  152.35    7.26 
   5   5  -6  131.69    6.92 
   5   5  -6  134.26    6.88 
   5   5  -6  127.86    7.09 
   5   5  -6  125.01    7.03 
  -5   5   6  144.38    7.05 
  -5   5   6  131.41    7.15 
   5   5  -6  132.28    7.00 
  -3  -5   6  187.95    8.97 
   3  -5  -6  175.13    8.99 
   3  -5  -6  180.19    9.26 
  -3  -5   6  185.44    9.07 
   3  -5  -6  172.94    9.12 
   3  -5  -6  172.27    9.34 
  -3  -5   6  171.24    9.34 
   3   5  -6  177.45    9.08 
  -3   5   6  175.69    9.19 
  -3   5   6  183.46    8.82 
  -3   5   6  169.83    8.98 
   3   5  -6  172.30    8.90 
   3   5  -6  165.65    9.07 
   3   5  -6  174.33    9.07 
  -3   5   6  191.18    9.23 
   1  -5  -6  146.07    7.77 
   1  -5  -6  148.26    7.49 
  -1  -5   6  148.79    7.50 
   1  -5  -6  147.04    7.67 
   1  -5  -6  145.86    7.94 
  -1  -5   6  143.06    7.87 
   1  -5  -6  146.29    7.46 
  -1   5   6  155.65    7.60 
  -1   5   6  148.15    7.43 
   1   5  -6  147.39    7.58 
   1   5  -6  149.10    7.65 
  -1   5   6  149.88    7.48 
  -1   5   6  162.82    7.80 
   1   5  -6  137.26    7.46 
   1   5  -6  143.50    7.46 
  -1   5   6  148.21    7.73 
  -1  -5  -6  108.21    5.96 
  -1  -5  -6  110.91    6.00 
  -1  -5  -6  111.41    6.08 
  -1  -5  -6  114.26    6.32 
   1  -5   6  115.79    6.20 
  -1  -5  -6  116.24    5.87 
   1   5   6  114.37    5.82 
  -1   5  -6  117.98    5.90 
  -1   5  -6  108.03    5.79 
   1   5   6  127.59    6.14 
  -1   5  -6  109.85    5.81 
  -1   5  -6  117.78    6.01 
   1   5   6  113.47    6.04 
   3  -5   6  183.89    9.17 
  -3  -5  -6  170.12    9.00 
  -3  -5  -6  173.15    8.93 
  -3  -5  -6  169.63    9.30 
  -3  -5  -6  180.32    9.01 
  -3  -5  -6  170.33    9.12 
  -3   5  -6  180.58    9.02 
  -3   5  -6  188.48    8.92 
   3   5   6  168.98    9.05 
  -3   5  -6  164.88    8.84 
   3   5   6  192.85    9.15 
  -3   5  -6  174.53    8.83 
   3   5   6  165.65    8.88 
   5  -5   6  139.83    6.75 
  -5  -5  -6  127.77    6.72 
  -5  -5  -6  125.25    6.59 
   5  -5   6  112.99    6.66 
  -5  -5  -6  125.41    6.87 
  -5  -5  -6  125.45    6.53 
  -5   5  -6  122.28    6.83 
  -5   5  -6  126.20    6.36 
   5   5   6  136.08    6.70 
   5   5   6  118.52    6.44 
  -5   5  -6  113.68    6.44 
  -5   5  -6  126.29    6.72 
   5   5   6  124.36    6.58 
  -5   5  -6  127.98    6.51 
  -7  -5  -6   75.64    4.30 
  -7  -5  -6   66.69    4.38 
   7  -5   6   74.69    3.83 
   7  -5   6   70.84    4.20 
  -7   5  -6   71.38    3.77 
  -7   5  -6   73.56    3.79 
   7   5   6   66.56    3.90 
   7   5   6   74.42    4.03 
  -9  -5  -6   76.37    5.21 
   9  -5   6   84.63    4.82 
   9  -5   6   84.53    4.43 
  -9  -5  -6   84.87    4.53 
  -9  -5  -6   88.50    4.94 
   9   5   6   82.23    4.60 
   9   5   6   79.93    4.56 
  -9   5  -6   86.25    4.42 
  -9   5  -6   81.71    4.37 
  11  -5   6   74.63    4.16 
 -11  -5  -6   74.44    4.62 
  11  -5   6   81.68    4.66 
 -11  -5  -6   77.01    4.28 
 -11  -5  -6   82.69    4.87 
  11   5   6   70.67    4.33 
 -11   5  -6   73.49    4.07 
  11   5   6   74.95    4.36 
 -12  -6   6   84.30    5.05 
  12  -6  -6   86.57    5.10 
 -12  -6   6   79.74    5.30 
  12  -6  -6   80.53    4.84 
  12   6  -6   80.51    4.74 
  12   6  -6   82.50    4.63 
 -12   6   6   82.47    4.89 
 -12   6   6   81.42    4.99 
 -10  -6   6   38.29    3.40 
  10  -6  -6   44.94    3.27 
 -10  -6   6   44.62    3.06 
  10  -6  -6   38.94    2.87 
  10   6  -6   39.84    2.76 
 -10   6   6   42.58    2.93 
 -10   6   6   41.28    3.06 
  10   6  -6   41.01    2.65 
   8  -6  -6  132.90    6.98 
  -8  -6   6  117.68    7.04 
   8  -6  -6  126.74    6.63 
  -8  -6   6  129.19    6.74 
   8   6  -6  122.09    6.55 
  -8   6   6  121.29    6.72 
   8   6  -6  123.59    6.61 
  -6  -6   6   41.52    2.41 
   6  -6  -6   33.65    2.28 
   6  -6  -6   38.84    3.08 
  -6  -6   6   34.30    2.30 
   6  -6  -6   34.80    2.80 
  -6  -6   6   31.35    2.91 
   6   6  -6   32.98    2.32 
   6   6  -6   31.65    2.30 
  -6   6   6   33.56    2.55 
  -4  -6   6  199.72    9.92 
   4  -6  -6  186.09   10.25 
  -4  -6   6  180.97   10.34 
  -4  -6   6  203.13    9.95 
   4  -6  -6  196.80   10.36 
   4  -6  -6  189.18    9.92 
   4   6  -6  181.23    9.99 
  -4   6   6  187.88   10.14 
  -4   6   6  208.74   10.07 
   4   6  -6  195.99    9.86 
  -4   6   6  213.11    9.73 
  -2  -6   6   18.73    2.20 
   2  -6  -6   19.04    2.17 
   2  -6  -6   20.82    1.45 
  -2  -6   6   21.22    1.52 
   2  -6  -6   18.39    2.14 
   2   6  -6   19.28    1.87 
  -2   6   6   22.32    1.30 
   2   6  -6   19.82    2.04 
  -2   6   6   19.61    1.90 
  -2   6   6   23.31    1.77 
  -2   6   6   20.52    1.63 
   0  -6  -6  171.80    9.59 
   0  -6  -6  185.88    9.28 
   0  -6  -6  169.03    9.46 
   0  -6  -6  169.73    9.07 
   0  -6  -6  192.80    9.35 
   0  -6   6  179.35    9.57 
   0  -6   6  185.66    9.16 
   0  -6  -6  178.43    9.16 
   0   6   6  188.44    9.42 
   0   6  -6  171.77    9.06 
   0   6  -6  171.89    9.10 
   0   6   6  198.60    9.76 
   0   6   6  184.24    9.39 
   0   6   6  183.96    9.10 
   0   6   6  176.40    9.22 
  -2  -6  -6   44.82    2.72 
  -2  -6  -6   42.19    2.66 
   2  -6   6   40.96    2.94 
  -2  -6  -6   40.48    3.00 
  -2   6  -6   39.49    2.31 
   2   6   6   39.53    2.39 
   2   6   6   41.76    2.72 
  -2   6  -6   46.85    2.62 
  -4  -6  -6  135.04    6.81 
   4  -6   6  132.02    6.99 
   4  -6   6  126.53    6.65 
  -4  -6  -6  134.89    7.18 
   4  -6   6  134.21    6.99 
  -4  -6  -6  122.43    6.98 
   4   6   6  122.11    6.67 
   4   6   6  122.72    6.97 
  -4   6  -6  135.78    6.81 
  -4   6  -6  127.42    6.59 
  -6  -6  -6   38.15    2.60 
   6  -6   6   38.59    2.93 
   6  -6   6   41.89    2.43 
  -6  -6  -6   42.81    2.92 
  -6  -6  -6   43.27    3.20 
  -6   6  -6   40.04    2.32 
   6   6   6   44.30    2.71 
  -6   6  -6   38.30    2.61 
  -8  -6  -6  127.25    7.50 
  -8  -6  -6  138.51    7.32 
  -8  -6  -6  128.99    7.03 
   8  -6   6  139.63    6.92 
   8  -6   6  135.70    7.26 
  -8   6  -6  139.88    7.07 
  -8   6  -6  131.04    6.85 
   8   6   6  138.41    7.14 
   8   6   6  124.13    6.99 
  10  -6   6   22.55    1.75 
  10  -6   6   21.37    2.50 
 -10  -6  -6   21.72    2.72 
 -10  -6  -6   21.11    2.76 
 -10  -6  -6   21.58    2.03 
 -10   6  -6   18.74    2.04 
  10   6   6   20.53    2.08 
 -10   6  -6   19.87    1.62 
  10   6   6   17.99    2.06 
  -9  -7   6   66.76    5.00 
   9  -7  -6   79.62    4.35 
   9  -7  -6   79.08    4.77 
   9   7  -6   71.36    4.26 
   9   7  -6   72.10    4.23 
  -9   7   6   72.26    4.54 
  -7  -7   6   56.89    4.37 
   7  -7  -6   60.00    3.61 
   7  -7  -6   59.71    4.11 
  -7  -7   6   68.17    3.89 
  -7   7   6   56.13    3.97 
   7   7  -6   61.09    3.64 
   7   7  -6   64.74    3.66 
   5  -7  -6   49.59    2.88 
   5  -7  -6   49.38    3.52 
  -5  -7   6   46.31    3.72 
   5   7  -6   46.54    2.97 
   5   7  -6   47.00    3.06 
  -5   7   6   45.97    4.01 
   3  -7  -6   63.52    4.08 
   3  -7  -6   68.94    3.61 
   3  -7  -6   60.56    3.42 
  -3  -7   6   57.76    4.20 
  -3  -7   6   62.81    3.76 
  -3   7   6   53.25    3.92 
   3   7  -6   57.11    3.58 
   3   7  -6   62.13    3.66 
  -3   7   6   66.64    3.32 
   1  -7  -6   48.49    3.48 
   1  -7  -6   50.93    3.08 
  -1  -7   6   52.23    2.92 
   1  -7  -6   46.28    2.78 
  -1  -7   6   49.01    3.61 
   1  -7  -6   50.76    3.06 
  -1   7   6   53.07    2.77 
   1   7  -6   50.54    3.10 
  -1   7   6   44.42    3.36 
   1   7  -6   46.51    2.73 
  -1  -7  -6   64.10    3.74 
  -1  -7  -6   67.46    3.69 
   1  -7   6   57.57    4.09 
  -1  -7  -6   64.02    4.12 
  -1   7  -6   62.11    3.68 
   1   7   6   63.18    3.43 
  -1   7  -6   58.36    3.37 
  -3  -7  -6   65.27    3.70 
  -3  -7  -6   64.38    4.13 
   3  -7   6   57.31    3.95 
  -3  -7  -6   56.39    4.49 
   3   7   6   60.60    3.44 
  -3   7  -6   58.60    3.30 
  -3   7  -6   63.55    3.60 
   3   7   6   59.37    3.72 
   5  -7   6   43.08    3.02 
  -5  -7  -6   42.08    2.91 
  -5  -7  -6   44.56    3.26 
   5  -7   6   36.28    2.98 
  -5  -7  -6   39.10    2.69 
   5  -7   6   35.11    2.42 
  -5   7  -6   37.91    2.28 
   5   7   6   40.47    2.81 
  -5   7  -6   38.35    2.65 
   5   7   6   32.47    2.52 
  -7  -7  -6   76.86    4.33 
   7  -7   6   74.52    4.60 
  -7  -7  -6   74.63    4.93 
  -7  -7  -6   80.16    4.60 
   7  -7   6   76.61    4.10 
   7   7   6   77.52    4.45 
   7   7   6   66.57    4.22 
  -7   7  -6   70.38    4.00 
  -7   7  -6   75.93    4.29 
  -9  -7  -6   64.43    3.81 
  -9  -7  -6   60.12    4.58 
  -9  -7  -6   66.16    4.33 
   9  -7   6   62.60    3.59 
   9  -7   6   67.02    4.18 
   9   7   6   60.70    4.05 
  -9   7  -6   62.04    3.78 
  -9   7  -6   58.50    3.47 
   9   7   6   60.62    3.81 
  -8  -8   6    7.51    3.05 
   8  -8  -6   16.07    1.57 
   8  -8  -6   16.99    2.25 
   8   8  -6   16.34    1.61 
   8   8  -6   11.42    1.54 
  -6  -8   6   74.27    5.55 
   6  -8  -6   89.95    5.39 
   6  -8  -6   86.15    4.68 
   6   8  -6   79.56    4.75 
  -6   8   6   85.26    5.06 
   6   8  -6   83.64    4.85 
   4  -8  -6   21.99    2.10 
   4  -8  -6   18.08    2.76 
  -4  -8   6   16.72    2.39 
   4  -8  -6   17.73    1.82 
   4   8  -6   21.89    2.24 
  -4   8   6   15.89    1.76 
   4   8  -6   17.44    1.94 
   2  -8  -6   70.91    4.26 
  -2  -8   6   61.34    4.75 
   2  -8  -6   74.94    4.14 
   2  -8  -6   67.39    4.56 
   2   8  -6   66.23    4.13 
  -2   8   6   69.70    4.34 
   0  -8  -6   13.64    1.99 
   0  -8  -6   15.85    1.54 
   0  -8   6   11.37    2.02 
   0  -8  -6   14.47    1.77 
   0   8  -6   13.84    1.39 
   0   8   6   15.18    1.62 
   0   8   6   14.86    1.81 
   0   8  -6   15.17    1.56 
  -2  -8  -6  102.51    5.01 
   2  -8   6   88.70    5.54 
  -2  -8  -6   87.84    5.08 
  -2  -8  -6   87.47    5.56 
  -2   8  -6   83.17    4.71 
  -2   8  -6   90.98    5.03 
   2   8   6   80.34    5.18 
  -4  -8  -6   10.29    1.39 
  -4  -8  -6    7.00    1.70 
  -4  -8  -6   12.73    1.48 
   4  -8   6   11.21    1.83 
  -4   8  -6    9.40    0.98 
  -4   8  -6    9.54    1.27 
   4   8   6    9.69    1.22 
   4   8   6   10.32    1.53 
  -6  -8  -6   88.81    5.00 
   6  -8   6   87.12    5.27 
  -6  -8  -6   86.46    5.63 
  -6  -8  -6   97.91    5.18 
   6  -8   6   84.65    4.78 
   6   8   6   80.88    4.88 
   6   8   6   85.64    5.18 
  -6   8  -6   79.43    4.61 
  -6   8  -6   88.02    4.90 
   1  -9  -6   13.19    2.11 
  -1  -9   6   18.19    2.56 
   1   9  -6   15.96    1.70 
  -1   9   6   14.36    1.87 
   1  -9   6   12.69    2.25 
  -1  -9  -6   12.97    2.40 
  -1   9  -6   16.30    1.86 
  -1   9  -6    9.67    1.20 
   1   9   6   11.56    1.74 
 -14   0   7    2.09    1.58 
  14   0  -7    0.01    1.06 
  14   0  -7    0.55    0.94 
  12   0  -7    0.86    0.88 
  12   0  -7    0.49    0.77 
 -12   0   7    0.16    1.27 
  10   0  -7    0.70    1.40 
  10   0  -7   -0.48    0.63 
 -10   0   7    0.21    1.07 
  -8   0   7   -0.05    0.56 
  -8   0   7   -0.25    0.52 
   8   0  -7    0.26    0.66 
   8   0  -7    0.46    0.52 
   8   0  -7    0.09    0.52 
  -8   0   7   -0.20    0.86 
   8   0  -7   -0.37    0.75 
  -6   0   7    0.06    0.38 
  -6   0   7   -0.17    0.30 
   6   0  -7    0.40    0.36 
  -6   0   7   -0.35    0.72 
   6   0  -7    0.75    0.45 
   6   0  -7   -0.10    0.56 
   6   0  -7    0.30    0.62 
   4   0  -7   -0.28    0.54 
   4   0  -7    0.23    0.20 
   4   0  -7    0.79    0.32 
   4   0  -7    0.06    0.20 
   4   0  -7    0.66    0.46 
  -4   0   7    0.21    0.35 
  -4   0   7    1.27    0.78 
   4   0  -7    0.45    0.38 
   2   0  -7    1.51    0.33 
  -2   0   7    0.58    0.29 
  -2   0   7    0.48    0.63 
   2   0  -7    0.14    0.25 
   2   0  -7    0.36    0.49 
   2   0  -7    0.22    0.32 
   2   0  -7    0.54    0.28 
  -2   0   7    0.47    0.35 
   0   0  -7    0.22    0.33 
   0   0  -7    0.22    0.53 
   0   0  -7    0.67    0.27 
   0   0  -7    0.43    0.30 
   0   0  -7   -0.05    0.78 
   0   0   7    0.39    0.25 
   0   0   7    0.30    0.24 
   0   0  -7    0.61    0.55 
  -2   0  -7   -0.08    0.79 
  -2   0  -7    0.64    0.43 
  -2   0  -7    0.68    0.48 
   2   0   7    1.18    0.30 
  -2   0  -7    0.12    0.27 
  -2   0  -7    0.41    0.53 
   2   0   7    0.40    0.19 
  -2   0  -7    0.08    0.23 
  -4   0  -7    0.29    0.26 
  -4   0  -7    0.50    0.27 
  -4   0  -7   -0.18    0.75 
  -4   0  -7   -0.09    0.54 
  -4   0  -7    0.93    0.59 
  -4   0  -7   -0.39    0.53 
   4   0   7    0.37    0.23 
  -4   0  -7    0.21    0.27 
  -4   0  -7    1.19    0.48 
   4   0   7    0.26    0.34 
   4   0   7    0.06    0.43 
  -6   0  -7    0.57    0.28 
  -6   0  -7    1.18    0.64 
  -6   0  -7    0.17    0.72 
  -6   0  -7    0.44    0.50 
   6   0   7    0.22    0.50 
  -6   0  -7    0.63    0.61 
   6   0   7    1.01    0.45 
   6   0   7    0.26    0.27 
   8   0   7    0.86    0.60 
  -8   0  -7   -0.23    0.57 
   8   0   7    0.19    0.55 
  -8   0  -7    0.59    0.68 
  -8   0  -7    0.06    0.77 
  -8   0  -7   -0.04    0.73 
 -10   0  -7   -0.01    0.40 
 -10   0  -7    1.44    0.91 
  10   0   7   -0.06    0.71 
  10   0   7    0.54    0.46 
  12   0   7    1.16    0.63 
  12   0   7    2.04    0.94 
 -12   0  -7    0.72    1.11 
 -12   0  -7    0.53    0.52 
 -14   0  -7    0.59    1.39 
  14   0   7    0.12    0.76 
 -14   0  -7   -0.13    0.69 
  14   0   7    0.30    1.09 
 -15  -1   7    1.31    1.75 
  15  -1  -7    1.85    1.26 
  15  -1  -7    1.47    1.20 
  15   1  -7    0.88    1.23 
  15   1  -7    0.87    1.13 
 -15   1   7    2.01    1.77 
  13  -1  -7   15.16    1.76 
 -13  -1   7   15.76    2.01 
  13  -1  -7   13.34    1.92 
  13   1  -7   11.35    1.41 
  13   1  -7   11.91    1.31 
 -13   1   7   15.45    1.90 
  11  -1  -7   -0.29    0.81 
 -11  -1   7    1.13    1.15 
  11  -1  -7    0.34    0.74 
 -11   1   7   -0.19    1.12 
  11   1  -7   -0.18    0.36 
  11   1  -7    0.27    0.71 
  11   1  -7   -0.09    0.79 
  -9  -1   7   67.55    3.53 
   9  -1  -7   64.18    3.81 
  -9  -1   7   57.45    4.49 
   9  -1  -7   67.45    3.81 
  -9  -1   7   68.93    3.58 
   9  -1  -7   64.24    3.63 
   9  -1  -7   65.56    3.66 
   9   1  -7   66.90    3.34 
   9   1  -7   64.68    3.78 
  -9   1   7   56.53    4.06 
  -9   1   7   70.26    3.61 
   9   1  -7   65.01    3.55 
  -7  -1   7   18.76    1.11 
  -7  -1   7   19.48    1.28 
   7  -1  -7   17.69    1.34 
  -7  -1   7   17.88    1.86 
   7  -1  -7   18.27    1.66 
   7  -1  -7   16.21    1.59 
   7  -1  -7   15.81    1.33 
   7   1  -7   18.56    1.38 
   7   1  -7   18.50    1.20 
   7   1  -7   20.32    1.57 
  -7   1   7   13.45    1.81 
  -7   1   7   20.14    1.34 
   7   1  -7   16.98    1.26 
  -7   1   7   19.45    1.38 
  -5  -1   7   19.21    1.75 
   5  -1  -7   18.09    1.28 
  -5  -1   7   18.28    1.34 
   5  -1  -7   18.18    1.26 
   5  -1  -7   19.99    1.55 
   5  -1  -7   17.33    1.54 
  -5   1   7   19.85    1.13 
   5   1  -7   17.95    1.33 
  -5   1   7   18.55    1.28 
  -5   1   7   17.90    1.79 
   5   1  -7   15.52    1.18 
  -5   1   7   18.72    1.63 
   5   1  -7   18.91    1.30 
   5   1  -7   18.33    1.15 
   5   1  -7   20.02    1.14 
  -5   1   7   17.84    1.38 
  -3  -1   7   10.92    0.72 
   3  -1  -7   10.88    0.88 
   3  -1  -7   10.21    1.20 
  -3  -1   7    9.96    1.30 
   3  -1  -7   10.21    0.95 
   3  -1  -7    9.79    0.85 
   3   1  -7   10.48    0.71 
  -3   1   7    9.61    0.98 
  -3   1   7    7.04    0.98 
  -3   1   7   10.10    0.88 
   3   1  -7    9.93    0.79 
   3   1  -7   11.21    0.91 
   3   1  -7   11.17    0.80 
   1  -1  -7   61.02    3.13 
  -1  -1   7   56.59    3.04 
   1  -1  -7   63.09    3.05 
   1  -1  -7   61.83    3.14 
  -1  -1   7   61.37    3.02 
   1  -1  -7   57.96    3.42 
   1   1  -7   57.53    3.38 
   1   1  -7   60.00    3.40 
   1   1  -7   56.33    3.17 
  -1   1   7   57.27    3.17 
   1   1  -7   59.07    3.15 
   1   1  -7   57.81    3.04 
   1   1  -7   61.84    3.15 
  -1   1   7   61.56    3.17 
   1   1  -7   65.66    3.67 
  -1  -1  -7    4.08    0.45 
  -1  -1  -7    2.51    0.51 
  -1  -1  -7    2.31    0.36 
  -1  -1  -7    2.44    0.35 
  -1  -1  -7    2.43    0.65 
   1   1   7    2.39    0.49 
  -1   1  -7    2.29    0.59 
   1   1   7    2.02    0.38 
  -1   1  -7    2.21    0.41 
  -1   1  -7    4.26    0.98 
   1   1   7    3.01    0.45 
  -1   1  -7    2.25    0.51 
  -1   1  -7    3.18    0.85 
  -1   1  -7    2.62    0.24 
  -1   1  -7    2.29    0.67 
  -3  -1  -7   58.15    2.99 
  -3  -1  -7   56.32    2.92 
  -3  -1  -7   52.88    3.24 
  -3  -1  -7   54.45    2.86 
  -3  -1  -7   53.62    2.91 
  -3  -1  -7   52.56    3.22 
  -3  -1  -7   56.19    2.91 
   3   1   7   59.31    2.99 
   3   1   7   56.86    2.91 
   3   1   7   56.82    2.99 
  -3   1  -7   54.15    2.82 
  -3   1  -7   53.92    3.17 
  -3   1  -7   56.59    3.10 
  -3   1  -7   55.35    3.07 
  -3   1  -7   54.15    3.13 
  -3   1  -7   59.10    3.23 
  -5  -1  -7   11.94    0.70 
  -5  -1  -7   10.94    1.31 
   5  -1   7   10.69    1.14 
  -5  -1  -7   12.16    1.02 
   5  -1   7   12.42    0.81 
  -5  -1  -7   12.08    0.78 
  -5  -1  -7   11.24    1.32 
  -5  -1  -7   10.83    0.86 
   5  -1   7   11.68    0.72 
  -5   1  -7   10.64    1.23 
   5   1   7   12.45    0.86 
  -5   1  -7   11.17    1.17 
   5   1   7   12.29    1.06 
  -5   1  -7   11.59    1.30 
   5   1   7   11.85    1.03 
  -5   1  -7   12.03    1.27 
  -5   1  -7   11.86    0.72 
  -7  -1  -7   55.90    2.86 
  -7  -1  -7   52.21    2.84 
  -7  -1  -7   49.71    3.20 
   7  -1   7   53.19    3.05 
  -7  -1  -7   51.87    3.18 
   7  -1   7   51.92    2.79 
  -7   1  -7   54.87    3.11 
  -7   1  -7   51.55    3.00 
  -7   1  -7   54.53    3.02 
   7   1   7   53.48    2.85 
  -7   1  -7   54.96    2.77 
   7   1   7   52.12    2.98 
   7   1   7   58.71    3.00 
  -7   1  -7   51.35    3.13 
  -9  -1  -7    3.47    0.97 
   9  -1   7    3.38    0.50 
   9  -1   7    2.72    0.76 
  -9  -1  -7    3.18    0.82 
   9  -1   7    4.98    0.77 
  -9  -1  -7    4.44    0.55 
   9   1   7    3.61    0.82 
  -9   1  -7    4.33    0.97 
   9   1   7    4.08    0.80 
  -9   1  -7    3.45    0.70 
  -9   1  -7    3.60    0.47 
   9   1   7    3.74    0.56 
  11  -1   7    4.71    0.66 
  11  -1   7    4.96    0.93 
  11  -1   7    5.15    0.96 
 -11  -1  -7    4.71    0.67 
 -11  -1  -7    6.46    1.26 
 -11   1  -7    4.36    1.11 
 -11   1  -7    4.40    0.57 
  11   1   7    4.76    0.70 
  11   1   7    5.01    0.93 
 -13  -1  -7    4.63    0.78 
 -13  -1  -7    3.16    1.75 
  13  -1   7    4.21    0.77 
  13  -1   7    4.46    1.13 
  13   1   7    3.09    0.82 
 -13   1  -7    3.96    0.69 
 -13   1  -7    4.51    1.35 
  13   1   7    2.48    1.03 
  14  -2  -7    2.91    1.09 
  14  -2  -7    4.90    1.28 
 -14  -2   7    2.51    1.77 
 -14   2   7    4.89    1.53 
  14   2  -7    3.88    1.16 
  12  -2  -7    3.50    0.89 
  12  -2  -7    5.12    1.11 
 -12  -2   7    3.18    1.42 
  12   2  -7    4.09    0.61 
 -12   2   7    4.05    1.27 
  12   2  -7    3.91    1.00 
 -10  -2   7   22.79    2.47 
  10  -2  -7   23.72    2.02 
  10  -2  -7   23.41    1.76 
 -10   2   7   21.75    2.25 
  10   2  -7   24.30    1.42 
  10   2  -7   20.96    1.77 
   8  -2  -7    8.58    1.11 
   8  -2  -7    7.20    1.09 
  -8  -2   7    6.10    1.12 
  -8  -2   7    8.73    0.92 
   8  -2  -7    6.73    0.93 
  -8  -2   7    8.05    0.95 
   8  -2  -7    7.54    0.80 
   8   2  -7    6.82    1.01 
   8   2  -7    7.13    0.87 
   8   2  -7    6.77    0.63 
  -8   2   7    9.76    1.02 
  -8   2   7    8.63    0.90 
  -8   2   7    8.88    1.30 
   8   2  -7    7.78    0.88 
  -8   2   7    4.46    0.83 
   6  -2  -7    1.30    0.73 
   6  -2  -7    0.35    0.46 
  -6  -2   7    1.78    0.78 
   6  -2  -7    0.45    0.54 
  -6  -2   7    1.31    0.43 
   6  -2  -7    0.82    1.07 
   6   2  -7    1.69    0.41 
   6   2  -7    0.97    0.34 
  -6   2   7    2.28    0.57 
  -6   2   7    0.90    0.80 
  -6   2   7    0.95    0.61 
  -6   2   7    1.03    0.55 
   6   2  -7    0.98    0.47 
   6   2  -7    1.01    0.61 
  -4  -2   7    5.11    0.89 
  -4  -2   7    6.65    0.63 
   4  -2  -7    7.23    0.86 
   4  -2  -7    6.55    0.78 
   4  -2  -7    5.85    0.85 
   4  -2  -7    4.03    0.81 
   4   2  -7    7.27    0.89 
  -4   2   7    6.56    0.81 
   4   2  -7    6.91    0.66 
  -4   2   7    5.66    1.01 
   4   2  -7    6.60    0.74 
  -4   2   7    6.81    0.74 
   4   2  -7    6.81    0.75 
   4   2  -7    6.51    0.59 
  -4   2   7    7.36    0.75 
  -4   2   7    7.39    0.78 
  -2  -2   7    4.24    0.76 
   2  -2  -7    4.10    0.48 
  -2  -2   7    3.90    0.40 
   2  -2  -7    3.27    0.73 
   2  -2  -7    4.19    0.53 
   2   2  -7    2.51    0.49 
  -2   2   7    2.38    0.54 
  -2   2   7    4.30    0.60 
   2   2  -7    3.16    1.08 
   2   2  -7    3.58    0.37 
   2   2  -7    4.62    0.62 
   2   2  -7    3.23    0.52 
   0  -2  -7    7.87    0.69 
   0  -2  -7    7.76    1.19 
   0  -2  -7    8.17    0.77 
   0  -2  -7    8.84    0.67 
   0   2  -7   10.42    1.26 
   0   2  -7    9.75    0.87 
   0   2  -7    7.89    1.19 
   0   2  -7    8.73    0.82 
   0   2  -7    8.31    0.89 
   0   2   7   11.12    1.00 
   0   2   7    8.10    0.86 
   0   2  -7    8.15    1.03 
   0   2   7    8.38    0.76 
  -2  -2  -7   37.39    1.97 
  -2  -2  -7   34.71    1.99 
  -2  -2  -7   36.27    1.84 
  -2  -2  -7   34.63    2.32 
  -2  -2  -7   35.17    1.96 
  -2  -2  -7   34.35    1.88 
  -2  -2  -7   35.84    2.30 
  -2   2  -7   33.48    2.18 
   2   2   7   36.80    1.98 
  -2   2  -7   37.55    2.37 
  -2   2  -7   35.74    2.52 
  -2   2  -7   38.85    2.34 
   2   2   7   37.14    2.18 
   2   2   7   33.46    2.01 
  -2   2  -7   33.75    2.17 
  -2   2  -7   33.17    2.16 
  -4  -2  -7    8.84    1.28 
  -4  -2  -7    9.99    0.83 
  -4  -2  -7    8.67    0.78 
  -4  -2  -7    6.46    0.94 
  -4  -2  -7    8.12    0.81 
  -4   2  -7    9.15    1.26 
   4   2   7    9.59    0.83 
  -4   2  -7    9.71    1.10 
  -4   2  -7    8.05    1.03 
  -4   2  -7    8.75    0.52 
   4   2   7    8.73    0.89 
  -4   2  -7    9.90    1.03 
  -6  -2  -7    8.24    0.85 
  -6  -2  -7    8.54    1.13 
  -6  -2  -7    8.52    1.08 
  -6  -2  -7    7.73    0.81 
   6  -2   7    7.52    0.62 
  -6   2  -7    8.33    0.99 
  -6   2  -7    7.46    0.56 
  -6   2  -7    7.25    1.04 
   6   2   7    7.86    0.84 
   6   2   7    8.22    0.80 
  -6   2  -7    7.45    0.92 
  -6   2  -7    6.50    1.00 
   8  -2   7   14.86    1.53 
  -8  -2  -7   15.31    1.63 
   8  -2   7   12.78    0.97 
  -8  -2  -7   12.60    1.43 
  -8  -2  -7   14.80    1.21 
  -8  -2  -7   13.06    1.08 
   8   2   7   12.01    1.29 
   8   2   7   12.71    1.10 
  -8   2  -7   12.67    0.89 
   8   2   7   14.34    1.72 
  -8   2  -7   13.19    1.16 
  -8   2  -7   13.36    1.49 
 -10  -2  -7    0.80    0.86 
  10  -2   7    1.02    0.92 
 -10  -2  -7    0.57    0.54 
  10  -2   7    0.22    0.83 
  10  -2   7    0.38    0.49 
 -10  -2  -7    0.79    0.99 
 -10   2  -7    0.67    0.39 
  10   2   7    1.14    0.74 
  10   2   7    1.50    0.59 
 -10   2  -7    0.63    0.93 
 -12  -2  -7    0.58    0.67 
  12  -2   7    1.56    1.11 
  12  -2   7    0.97    1.03 
  12  -2   7    0.56    0.63 
 -12  -2  -7    0.22    1.31 
 -12   2  -7    1.64    0.55 
  12   2   7    0.76    0.72 
 -12   2  -7    1.48    1.09 
  12   2   7    2.15    0.91 
 -14  -2  -7    9.50    2.77 
 -14  -2  -7    7.16    1.03 
  14   2   7    5.99    1.31 
 -14   2  -7    7.75    1.28 
 -14   2  -7    7.52    1.51 
  14   2   7    7.93    1.26 
  13  -3  -7    4.01    1.27 
 -13  -3   7    1.50    1.58 
  13  -3  -7    2.51    1.01 
  13   3  -7    2.48    1.04 
 -13   3   7    3.59    1.28 
 -13   3   7    3.47    1.39 
  11  -3  -7   61.69    3.61 
  11  -3  -7   56.45    3.36 
 -11  -3   7   54.57    3.86 
 -11   3   7   54.79    3.50 
  11   3  -7   56.10    3.39 
 -11   3   7   55.88    3.68 
  11   3  -7   57.85    3.11 
   9  -3  -7    0.42    0.75 
  -9  -3   7    0.99    0.58 
   9  -3  -7    1.02    0.80 
  -9  -3   7   -0.83    1.44 
   9   3  -7    0.99    0.63 
   9   3  -7    0.12    0.53 
  -9   3   7    0.60    0.87 
  -9   3   7    1.55    0.96 
   7  -3  -7   73.63    4.21 
  -7  -3   7   72.83    3.94 
   7  -3  -7   73.11    4.09 
   7  -3  -7   74.02    3.93 
   7  -3  -7   72.68    4.24 
  -7  -3   7   72.19    4.27 
  -7   3   7   79.41    4.11 
  -7   3   7   78.14    4.00 
   7   3  -7   68.04    3.79 
   7   3  -7   74.96    3.84 
  -7   3   7   70.13    4.09 
   7   3  -7   71.49    4.06 
   7   3  -7   74.10    3.99 
  -7   3   7   65.79    4.27 
   5  -3  -7    1.36    0.48 
  -5  -3   7    2.48    0.81 
   5  -3  -7    1.46    0.62 
   5  -3  -7    1.18    0.88 
  -5  -3   7    1.50    0.42 
   5  -3  -7    1.53    0.74 
  -5   3   7    1.11    0.77 
  -5   3   7    2.14    0.57 
   5   3  -7    2.71    0.58 
   5   3  -7    1.25    0.55 
   5   3  -7    1.38    0.35 
  -5   3   7    1.60    0.64 
   5   3  -7    2.13    0.52 
   3  -3  -7   83.86    4.78 
  -3  -3   7   84.44    4.66 
   3  -3  -7   85.42    4.42 
   3  -3  -7   88.84    4.51 
   3  -3  -7   84.90    4.62 
   3   3  -7   80.31    4.56 
  -3   3   7   85.59    4.46 
   3   3  -7   83.44    4.52 
   3   3  -7   82.24    4.46 
  -3   3   7   94.89    4.61 
  -3   3   7   75.71    4.56 
   3   3  -7   84.95    4.31 
  -3   3   7   90.63    4.43 
   3   3  -7   86.89    4.89 
   1  -3  -7    1.84    0.39 
   1  -3  -7    2.45    0.33 
   1  -3  -7    2.20    0.81 
   1  -3  -7    2.25    0.51 
   1  -3  -7    3.21    0.66 
   1   3  -7    3.39    1.02 
   1   3  -7    1.91    0.25 
  -1   3   7    2.36    0.66 
   1   3  -7    2.57    0.55 
   1   3  -7    2.19    0.76 
   1   3  -7    2.73    0.57 
  -1   3   7    1.40    0.55 
  -1   3   7    2.18    0.32 
  -1  -3  -7   96.75    5.64 
  -1  -3  -7  107.95    5.29 
  -1  -3  -7  107.45    5.33 
  -1  -3  -7  102.59    5.27 
  -1  -3  -7  101.03    5.73 
  -1  -3  -7  107.62    5.47 
   1   3   7  107.34    5.34 
   1   3   7  113.67    5.53 
   1   3   7   95.80    5.45 
  -1   3  -7  111.19    5.67 
  -1   3  -7  102.33    5.46 
  -3  -3  -7   10.42    0.95 
  -3  -3  -7   11.75    1.40 
  -3  -3  -7   11.09    1.00 
  -3  -3  -7   11.12    1.06 
  -3  -3  -7   11.52    1.44 
  -3   3  -7    8.97    1.19 
  -3   3  -7   10.19    1.21 
   3   3   7    9.23    1.03 
  -3   3  -7   10.56    1.10 
   3   3   7   11.20    1.18 
  -3   3  -7   10.44    0.62 
   3   3   7   10.47    1.15 
  -5  -3  -7   81.78    4.48 
  -5  -3  -7   82.18    4.81 
  -5  -3  -7   79.75    4.73 
  -5  -3  -7   88.87    4.48 
  -5   3  -7   82.40    4.53 
   5   3   7   81.38    4.44 
  -5   3  -7   85.55    4.77 
  -5   3  -7   83.07    4.29 
   5   3   7   98.16    4.63 
   5   3   7   85.38    4.49 
  -5   3  -7   87.55    4.65 
  -5   3  -7   83.14    4.54 
   7  -3   7    0.99    0.56 
  -7  -3  -7    1.70    0.81 
   7  -3   7    0.65    0.81 
  -7  -3  -7    1.35    0.65 
  -7  -3  -7    1.15    0.91 
  -7  -3  -7    0.99    0.49 
   7   3   7    1.03    0.55 
  -7   3  -7    1.29    0.56 
  -7   3  -7    2.15    0.70 
  -7   3  -7    0.82    0.31 
   7   3   7    0.44    0.55 
   7   3   7    0.78    0.75 
  -9  -3  -7   46.84    2.64 
   9  -3   7   46.03    2.54 
  -9  -3  -7   42.28    3.04 
  -9  -3  -7   45.81    3.17 
   9  -3   7   49.54    3.09 
  -9   3  -7   46.06    2.47 
   9   3   7   49.50    2.71 
   9   3   7   41.26    2.72 
  -9   3  -7   45.79    2.84 
  11  -3   7    1.08    0.63 
  11  -3   7    1.14    1.13 
 -11  -3  -7   -0.02    1.16 
 -11  -3  -7    1.74    0.69 
 -11   3  -7    1.21    0.93 
  11   3   7    0.69    0.72 
  11   3   7    1.66    0.86 
 -11   3  -7    1.02    0.50 
  13  -3   7   34.97    2.29 
 -13  -3  -7   33.05    3.32 
 -13  -3  -7   32.93    2.39 
  13  -3   7   34.24    3.16 
 -13   3  -7   35.42    2.12 
  13   3   7   32.90    2.46 
 -13   3  -7   34.61    2.69 
  13   3   7   29.83    2.64 
  12  -4  -7   19.86    2.41 
 -12  -4   7   20.30    2.19 
  12  -4  -7   18.16    1.97 
  12   4  -7   18.95    1.65 
  12   4  -7   19.48    2.03 
 -12   4   7   18.87    2.38 
 -12   4   7   19.34    2.29 
  10  -4  -7   15.36    1.57 
  10  -4  -7   15.11    1.97 
 -10  -4   7   13.69    1.76 
 -10   4   7   12.44    1.58 
  10   4  -7   15.28    1.68 
 -10   4   7   15.56    1.57 
  10   4  -7   14.86    1.36 
  -8  -4   7   23.46    1.73 
  -8  -4   7   23.36    2.21 
   8  -4  -7   24.50    2.14 
   8  -4  -7   22.13    1.73 
   8   4  -7   21.79    1.78 
   8   4  -7   24.05    1.62 
  -8   4   7   22.60    2.19 
  -8   4   7   23.77    2.18 
   6  -4  -7   45.70    2.66 
  -6  -4   7   44.54    2.95 
   6  -4  -7   48.00    3.23 
  -6  -4   7   49.52    2.61 
   6   4  -7   44.21    2.51 
   6   4  -7   47.64    2.64 
  -6   4   7   41.51    2.87 
  -6   4   7   50.72    2.79 
   6   4  -7   43.40    2.73 
  -6   4   7   49.51    3.02 
   6   4  -7   45.22    2.71 
  -4  -4   7   47.05    2.47 
  -4  -4   7   46.29    2.82 
  -4  -4   7   42.62    2.96 
   4  -4  -7   46.65    2.56 
   4  -4  -7   48.56    2.77 
   4  -4  -7   44.93    2.97 
   4  -4  -7   45.45    2.99 
  -4   4   7   49.98    2.88 
   4   4  -7   43.96    2.60 
   4   4  -7   42.38    2.41 
  -4   4   7   49.89    2.65 
  -4   4   7   42.01    2.76 
  -4   4   7   43.18    2.67 
   4   4  -7   43.85    2.67 
   2  -4  -7   29.45    2.04 
  -2  -4   7   30.90    1.68 
   2  -4  -7   28.17    2.23 
   2  -4  -7   28.93    2.32 
   2  -4  -7   29.97    1.77 
  -2   4   7   31.09    1.84 
   2   4  -7   29.54    2.33 
  -2   4   7   32.14    1.86 
  -2   4   7   31.16    2.07 
   2   4  -7   29.64    1.94 
   2   4  -7   30.55    1.95 
   2   4  -7   29.48    1.65 
   0  -4  -7   32.19    1.98 
   0  -4  -7   27.18    2.28 
   0  -4  -7   31.58    1.74 
   0   4   7   27.95    1.98 
   0   4  -7   30.20    2.45 
   0   4   7   30.02    1.66 
   0   4  -7   28.88    1.61 
   0   4   7   32.68    2.11 
   0   4  -7   29.51    1.94 
  -2  -4  -7   33.82    2.41 
  -2  -4  -7   34.83    2.58 
  -2  -4  -7   35.29    2.16 
  -2  -4  -7   36.36    2.20 
  -2  -4  -7   35.46    2.13 
  -2   4  -7   36.38    2.20 
   2   4   7   35.96    2.01 
  -2   4  -7   39.14    2.46 
   2   4   7   33.66    2.20 
  -2   4  -7   35.17    2.12 
  -2   4  -7   34.09    1.86 
   2   4   7   38.83    2.31 
  -4  -4  -7   34.76    2.54 
  -4  -4  -7   35.06    2.23 
  -4  -4  -7   37.28    2.27 
  -4  -4  -7   36.29    2.69 
   4   4   7   37.21    2.26 
  -4   4  -7   35.91    1.95 
   4   4   7   38.60    2.45 
  -4   4  -7   36.03    2.28 
  -4   4  -7   38.26    2.66 
  -4   4  -7   40.44    2.61 
  -4   4  -7   36.33    2.18 
   4   4   7   37.05    2.13 
  -6  -4  -7   25.28    2.27 
   6  -4   7   27.72    2.13 
  -6  -4  -7   25.39    2.17 
  -6  -4  -7   24.66    1.75 
  -6   4  -7   25.68    1.72 
   6   4   7   23.86    1.70 
   6   4   7   24.94    1.76 
  -6   4  -7   23.99    1.44 
  -6   4  -7   24.22    1.74 
   6   4   7   29.21    2.08 
  -8  -4  -7   15.23    2.09 
   8  -4   7   13.41    1.79 
   8  -4   7   17.61    1.17 
  -8  -4  -7   15.18    1.41 
  -8  -4  -7   17.72    2.16 
  -8   4  -7   17.67    1.48 
  -8   4  -7   15.88    1.13 
   8   4   7   14.90    1.52 
   8   4   7   16.24    1.48 
 -10  -4  -7   24.27    2.44 
  10  -4   7   23.39    1.63 
  10  -4   7   26.77    2.55 
 -10  -4  -7   23.08    1.79 
 -10  -4  -7   23.54    2.55 
  10   4   7   21.36    1.97 
  10   4   7   24.36    1.88 
 -10   4  -7   23.26    1.86 
 -10   4  -7   22.29    1.55 
  12  -4   7   30.35    2.12 
 -12  -4  -7   31.68    2.28 
  12  -4   7   31.55    3.01 
 -12  -4  -7   31.13    3.30 
  12   4   7   26.68    2.41 
  12   4   7   28.75    2.30 
 -12   4  -7   29.97    1.96 
  11  -5  -7    4.89    1.14 
 -11  -5   7    5.49    1.67 
  11  -5  -7    3.89    1.37 
  11   5  -7    4.56    1.06 
 -11   5   7    3.30    1.32 
  11   5  -7    4.61    0.91 
 -11   5   7    4.03    1.23 
  -9  -5   7   53.80    3.61 
  -9  -5   7   52.53    3.77 
   9  -5  -7   56.89    3.33 
   9  -5  -7   58.69    3.67 
   9   5  -7   55.07    3.16 
  -9   5   7   51.42    3.47 
   9   5  -7   53.90    3.28 
  -9   5   7   54.10    3.51 
   7  -5  -7   18.41    1.69 
  -7  -5   7   22.19    2.05 
  -7  -5   7   18.06    2.24 
   7  -5  -7   20.04    2.17 
  -7  -5   7   21.55    1.59 
  -7   5   7   21.43    2.03 
   7   5  -7   19.30    1.64 
  -7   5   7   18.86    2.00 
   7   5  -7   21.63    1.74 
  -5  -5   7  108.74    5.30 
   5  -5  -7  104.42    5.77 
  -5  -5   7  102.49    5.54 
  -5  -5   7  100.56    5.80 
   5  -5  -7   98.82    5.36 
   5   5  -7   98.59    5.39 
  -5   5   7  101.55    5.73 
   5   5  -7  100.68    5.44 
   5   5  -7  101.42    5.40 
  -3  -5   7    8.88    0.91 
   3  -5  -7    8.50    0.84 
  -3  -5   7    8.67    0.99 
   3  -5  -7    8.37    1.25 
   3  -5  -7    8.78    1.34 
   3   5  -7    7.67    0.97 
  -3   5   7    8.07    0.96 
  -3   5   7   11.09    1.49 
   3   5  -7    8.44    1.27 
  -3   5   7    7.91    1.07 
   3   5  -7    7.70    0.93 
  -3   5   7   10.51    1.19 
   3   5  -7    9.05    0.82 
   1  -5  -7  166.58    8.83 
   1  -5  -7  165.73    8.72 
  -1  -5   7  164.14    8.91 
   1  -5  -7  167.77    9.02 
   1  -5  -7  161.20    8.47 
   1  -5  -7  162.99    8.49 
  -1  -5   7  169.24    8.47 
  -1   5   7  173.82    8.42 
  -1   5   7  150.30    8.77 
  -1   5   7  171.74    8.48 
  -1   5   7  173.65    8.59 
  -1   5   7  186.23    8.82 
   1   5  -7  162.45    8.45 
   1   5  -7  172.20    8.71 
   1   5  -7  173.09    8.66 
  -1  -5  -7    2.59    1.30 
  -1  -5  -7    3.69    0.82 
  -1  -5  -7    1.90    0.81 
   1  -5   7    2.71    0.98 
  -1  -5  -7    2.72    0.69 
  -1  -5  -7    1.75    0.95 
   1   5   7    2.92    0.50 
  -1   5  -7    3.12    0.56 
   1   5   7    2.69    0.74 
  -1   5  -7    4.32    1.08 
   1   5   7    3.79    1.02 
  -3  -5  -7   59.44    3.55 
  -3  -5  -7   56.61    3.73 
   3   5   7   54.05    3.48 
  -3   5  -7   57.81    3.01 
   3   5   7   54.96    3.11 
  -3   5  -7   59.99    3.10 
  -3   5  -7   59.49    3.29 
  -5  -5  -7   12.03    1.39 
  -5  -5  -7   11.62    1.38 
  -5  -5  -7   13.08    1.97 
   5   5   7   13.60    1.42 
  -5   5  -7   12.15    1.42 
   5   5   7   10.81    1.25 
  -5   5  -7   12.50    1.09 
  -5   5  -7   12.11    0.93 
  -7  -5  -7   68.67    3.98 
  -7  -5  -7   70.07    4.53 
  -7  -5  -7   72.43    4.36 
   7  -5   7   77.98    4.38 
   7  -5   7   74.84    3.79 
  -7   5  -7   71.09    3.76 
  -7   5  -7   73.59    3.87 
   7   5   7   65.34    3.96 
  -7   5  -7   72.24    4.04 
   7   5   7   73.60    4.05 
  -9  -5  -7   10.54    1.64 
   9  -5   7   12.44    1.18 
  -9  -5  -7   12.23    1.19 
   9  -5   7   11.77    1.63 
  -9  -5  -7   11.76    1.78 
  -9   5  -7    9.47    1.10 
   9   5   7    8.69    1.21 
   9   5   7   12.37    1.58 
 -11  -5  -7   72.77    5.05 
  11  -5   7   80.69    4.76 
 -11  -5  -7   70.71    4.19 
  11  -5   7   75.51    3.99 
 -11  -5  -7   75.63    4.86 
  11   5   7   66.85    4.30 
  11   5   7   69.97    4.21 
 -11   5  -7   71.93    3.93 
 -10  -6   7   37.00    3.11 
  10  -6  -7   42.91    3.38 
  10  -6  -7   36.81    3.47 
 -10  -6   7   34.03    3.51 
 -10   6   7   41.50    3.13 
  10   6  -7   41.15    2.58 
  10   6  -7   36.99    2.72 
 -10   6   7   36.08    2.97 
   8  -6  -7   56.59    3.48 
   8  -6  -7   60.29    3.92 
  -8  -6   7   56.03    3.88 
  -8  -6   7   52.71    4.04 
   8   6  -7   56.38    3.45 
  -8   6   7   57.05    3.72 
   8   6  -7   57.45    3.36 
   6  -6  -7   52.64    3.76 
  -6  -6   7   59.84    3.39 
   6  -6  -7   53.69    3.20 
  -6  -6   7   50.53    3.86 
   6   6  -7   53.83    3.23 
   6   6  -7   55.52    3.26 
  -6   6   7   54.43    3.52 
  -4  -6   7   60.62    4.16 
  -4  -6   7   66.60    3.49 
   4  -6  -7   63.29    4.16 
   4  -6  -7   60.92    3.48 
  -4  -6   7   63.97    3.57 
  -4   6   7   61.68    3.84 
   4   6  -7   65.80    3.67 
   4   6  -7   61.98    3.64 
   2  -6  -7   77.13    4.93 
  -2  -6   7   81.16    4.29 
   2  -6  -7   81.28    4.28 
  -2  -6   7   78.54    4.93 
  -2   6   7   79.98    4.63 
  -2   6   7   86.62    4.23 
   2   6  -7   85.20    4.54 
   2   6  -7   79.59    4.49 
   0  -6  -7   73.70    4.75 
   0  -6   7   67.22    5.20 
   0  -6  -7   63.72    4.39 
   0  -6  -7   77.49    4.66 
   0   6  -7   74.08    3.87 
   0   6   7   79.00    3.88 
   0   6  -7   75.22    3.88 
   0   6   7   75.11    4.28 
   0   6  -7   79.38    4.17 
  -2  -6  -7   35.36    2.86 
  -2  -6  -7   33.11    2.40 
  -2  -6  -7   37.81    2.55 
   2  -6   7   33.48    2.74 
  -2   6  -7   36.48    2.35 
   2   6   7   34.07    2.06 
   2   6   7   34.29    2.48 
  -2   6  -7   33.71    1.97 
  -4  -6  -7   27.00    2.09 
  -4  -6  -7   26.28    2.34 
  -4  -6  -7   29.80    2.68 
  -4   6  -7   28.70    2.12 
   4   6   7   26.52    2.16 
   4   6   7   26.95    1.85 
  -4   6  -7   26.77    1.66 
  -6  -6  -7   58.02    3.83 
  -6  -6  -7   63.24    3.52 
   6  -6   7   58.50    3.24 
  -6  -6  -7   63.20    4.16 
  -6   6  -7   60.54    3.52 
  -6   6  -7   61.68    3.20 
   6   6   7   54.30    3.39 
   6   6   7   56.87    3.56 
  -8  -6  -7   53.97    3.75 
  -8  -6  -7   51.05    3.99 
   8  -6   7   54.88    2.97 
   8  -6   7   53.90    3.72 
  -8  -6  -7   52.43    3.28 
   8   6   7   46.80    3.24 
  -8   6  -7   51.00    2.90 
  -8   6  -7   53.93    3.29 
   8   6   7   52.05    3.37 
 -10  -6  -7   37.63    3.60 
  10  -6   7   36.84    2.43 
 -10  -6  -7   37.55    2.79 
  10  -6   7   37.41    3.51 
 -10  -6  -7   37.68    3.63 
  10   6   7   37.46    2.93 
  10   6   7   37.48    2.88 
 -10   6  -7   45.64    3.74 
 -10   6  -7   45.26    2.92 
   9  -7  -7   11.41    1.95 
  -9  -7   7   13.14    3.18 
   9  -7  -7   11.85    1.49 
   9   7  -7   13.42    1.51 
   9   7  -7   12.69    1.43 
  -9   7   7   10.72    1.59 
   7  -7  -7   97.82    5.32 
   7  -7  -7   96.99    5.89 
  -7  -7   7   89.19    6.03 
   7   7  -7   96.41    5.37 
   7   7  -7   99.11    5.36 
  -7   7   7  101.47    5.67 
   5  -7  -7   18.90    1.74 
   5  -7  -7   19.88    2.64 
  -5  -7   7   16.55    2.19 
   5   7  -7   19.48    2.06 
  -5   7   7   20.40    2.37 
   5   7  -7   19.50    1.90 
   3  -7  -7  103.00    5.61 
   3  -7  -7   99.83    6.16 
   3  -7  -7  116.32    5.75 
  -3  -7   7   96.95    6.25 
  -3   7   7  104.59    5.88 
   3   7  -7   98.56    5.66 
   3   7  -7  112.58    5.76 
   1  -7  -7   27.41    2.76 
   1  -7  -7   22.97    2.21 
  -1  -7   7   28.07    2.98 
   1  -7  -7   26.56    2.31 
  -1  -7   7   27.99    1.95 
   1   7  -7   28.45    2.28 
  -1   7   7   26.15    2.50 
  -1  -7  -7   94.71    5.25 
  -1  -7  -7   96.72    5.27 
  -1  -7  -7   95.14    5.69 
   1  -7   7   87.05    5.66 
  -1   7  -7   90.13    4.88 
  -1   7  -7   98.94    5.23 
   1   7   7   97.12    4.95 
   1   7   7   91.47    5.35 
  -3  -7  -7   19.39    2.16 
   3  -7   7   16.74    2.46 
  -3  -7  -7   15.54    1.98 
  -3  -7  -7   18.97    2.03 
   3   7   7   15.23    1.62 
  -3   7  -7   15.78    1.33 
   3   7   7   18.27    2.08 
  -3   7  -7   19.23    1.93 
  -5  -7  -7   94.33    5.29 
  -5  -7  -7  101.67    5.52 
  -5  -7  -7  100.50    5.93 
  -5   7  -7   94.69    5.27 
   5   7   7   97.09    5.39 
  -5   7  -7   91.15    4.95 
   5   7   7   88.37    5.11 
  -7  -7  -7   12.47    1.41 
  -7  -7  -7   16.76    1.88 
   7  -7   7   13.47    1.52 
  -7  -7  -7   16.09    2.22 
   7   7   7   11.72    1.35 
  -7   7  -7   13.08    1.44 
  -7   7  -7   12.26    1.34 
   7   7   7   17.59    2.15 
   4  -8  -7   90.14    4.68 
   4  -8  -7   85.06    5.31 
   4  -8  -7   85.57    4.76 
  -4  -8   7   73.21    5.56 
  -4   8   7   71.01    4.87 
   4   8  -7   71.58    4.64 
   4   8  -7   81.96    4.77 
   2  -8  -7   48.01    3.21 
  -2  -8   7   39.23    4.11 
   2  -8  -7   49.55    3.08 
   2  -8  -7   43.14    3.79 
  -2   8   7   41.92    3.42 
   2   8  -7   41.45    3.02 
   2   8  -7   40.42    3.17 
   0  -8  -7   48.84    3.31 
   0  -8  -7   50.11    3.22 
   0  -8   7   39.28    4.07 
   0  -8  -7   47.82    3.87 
   0   8  -7   47.12    3.25 
   0   8   7   44.14    3.53 
  -2  -8  -7   89.80    5.89 
  -2  -8  -7   90.72    5.33 
   2  -8   7   91.92    5.88 
  -2  -8  -7  102.08    5.34 
   2   8   7   92.48    5.48 
  -2   8  -7   88.38    4.93 
  -2   8  -7   96.15    5.30 
  -4  -8  -7   61.02    3.82 
  -4  -8  -7   58.83    4.46 
  -4  -8  -7   62.28    3.99 
   4   8   7   56.39    4.09 
   4   8   7   62.83    3.99 
  -4   8  -7   60.04    3.77 
  -4   8  -7   54.50    3.31 
 -14   0   8   92.17    5.81 
  14   0  -8   85.08    5.13 
  14   0  -8   92.38    5.28 
 -12   0   8  146.66    8.34 
  12   0  -8  152.47    8.06 
  12   0  -8  151.21    7.90 
  10   0  -8   56.54    3.27 
  10   0  -8   57.16    3.47 
 -10   0   8   52.23    3.77 
  -8   0   8  235.82   13.31 
   8   0  -8  253.02   13.18 
   8   0  -8  259.25   12.92 
  -8   0   8  275.52   12.95 
  -6   0   8   57.48    3.91 
   6   0  -8   65.47    3.39 
   6   0  -8   62.83    3.60 
  -6   0   8   65.15    3.55 
   6   0  -8   64.23    3.47 
   6   0  -8   63.72    3.71 
   4   0  -8  377.61   19.15 
  -4   0   8  361.16   19.19 
  -4   0   8  335.87   18.91 
   4   0  -8  410.75   18.74 
   4   0  -8  369.17   18.85 
   4   0  -8  360.15   18.83 
   4   0  -8  392.86   18.93 
  -4   0   8  412.87   18.86 
  -2   0   8  119.93    5.95 
   2   0  -8  115.83    6.33 
   2   0  -8  120.99    6.03 
  -2   0   8  108.32    5.98 
   2   0  -8  122.01    5.95 
   2   0  -8  118.97    6.23 
   2   0  -8  122.57    5.93 
   2   0  -8  112.83    5.96 
   0   0  -8  306.12   14.97 
   0   0  -8  291.85   14.91 
   0   0  -8  294.33   15.05 
   0   0  -8  298.64   15.23 
   0   0   8  288.25   14.89 
   0   0  -8  311.39   14.93 
   0   0   8  302.69   14.89 
  -2   0  -8  201.64    9.93 
  -2   0  -8  194.65   10.20 
  -2   0  -8  191.54   10.18 
   2   0   8  203.04    9.85 
  -2   0  -8  187.16    9.88 
  -2   0  -8  201.43   10.01 
  -2   0  -8  195.74    9.88 
   2   0   8  198.07    9.86 
  -2   0  -8  206.01    9.97 
  -4   0  -8  287.14   14.73 
  -4   0  -8  296.41   14.82 
   4   0   8  286.78   14.70 
   4   0   8  313.62   14.74 
  -4   0  -8  292.74   15.04 
  -4   0  -8  301.63   14.74 
   4   0   8  299.01   14.87 
  -4   0  -8  290.34   15.01 
  -4   0  -8  290.72   14.73 
   6   0   8   25.00    1.85 
  -6   0  -8   28.75    1.57 
  -6   0  -8   27.96    2.32 
  -6   0  -8   28.58    1.52 
  -6   0  -8   24.33    1.60 
   6   0   8   29.48    1.66 
  -6   0  -8   26.25    2.01 
   6   0   8   24.72    1.55 
  -6   0  -8   26.74    2.06 
  -6   0  -8   30.67    2.41 
  -8   0  -8  237.78   12.07 
   8   0   8  254.91   11.93 
  -8   0  -8  224.54   12.17 
  -8   0  -8  241.29   11.80 
   8   0   8  227.76   11.85 
  -8   0  -8  239.57   11.85 
   8   0   8  227.33   12.02 
  10   0   8   61.19    3.74 
 -10   0  -8   63.19    3.40 
 -10   0  -8   62.72    3.97 
  10   0   8   61.22    3.42 
  10   0   8   72.96    3.75 
 -12   0  -8  157.34    7.82 
 -12   0  -8  153.70    8.31 
  12   0   8  142.71    7.84 
  12   0   8  160.31    8.12 
 -13  -1   8   87.37    5.65 
  13  -1  -8   89.55    5.15 
  13  -1  -8   86.40    4.96 
 -13   1   8   87.16    5.50 
  13   1  -8   86.67    5.13 
  13   1  -8   89.02    5.00 
  11  -1  -8  119.68    6.29 
 -11  -1   8  108.22    6.55 
  11  -1  -8  116.04    6.09 
  11   1  -8  109.94    6.08 
  11   1  -8  116.61    6.26 
 -11   1   8  110.79    6.49 
   9  -1  -8  115.87    6.14 
   9  -1  -8  116.38    5.93 
  -9  -1   8  100.51    6.29 
   9   1  -8  112.46    5.93 
   9   1  -8  117.58    6.13 
  -9   1   8  106.83    6.31 
   7  -1  -8  123.87    6.69 
  -7  -1   8  128.49    6.29 
   7  -1  -8  126.38    6.34 
  -7  -1   8  112.25    7.09 
   7  -1  -8  125.10    6.99 
   7  -1  -8  123.96    6.37 
   7   1  -8  109.64    6.49 
   7   1  -8  129.41    6.26 
  -7   1   8  122.27    6.20 
  -7   1   8  132.14    6.35 
  -7   1   8  111.98    6.42 
  -7   1   8  113.19    6.73 
   7   1  -8  125.11    6.30 
   7   1  -8  126.24    6.38 
   7   1  -8  120.74    6.59 
  -5  -1   8  171.31    9.59 
   5  -1  -8  182.10    9.25 
   5  -1  -8  180.15    9.53 
  -5  -1   8  196.29    9.20 
   5  -1  -8  185.80    9.29 
   5  -1  -8  186.46    9.35 
   5   1  -8  184.79    9.52 
   5   1  -8  189.26    9.15 
   5   1  -8  174.64    9.18 
   5   1  -8  183.43    9.30 
   5   1  -8  191.69    9.14 
  -5   1   8  174.84    9.62 
   5   1  -8  187.02    9.19 
  -5   1   8  166.42    9.32 
   3  -1  -8  182.31    9.49 
   3  -1  -8  190.26    9.21 
   3  -1  -8  177.48    9.18 
  -3  -1   8  170.44    9.45 
  -3  -1   8  163.14    9.15 
  -3  -1   8  188.95    9.10 
   3  -1  -8  176.67    9.17 
  -3   1   8  171.60    9.23 
   3   1  -8  186.27    9.13 
  -3   1   8  175.31    9.53 
   3   1  -8  187.45    9.10 
   3   1  -8  190.15    9.47 
  -3   1   8  194.28    9.20 
   3   1  -8  183.82    9.23 
   3   1  -8  186.64    9.12 
   1  -1  -8  202.83   10.26 
   1  -1  -8  200.48   10.15 
   1  -1  -8  210.08   10.11 
   1  -1  -8  196.46   10.44 
   1  -1  -8  203.91   10.15 
  -1   1   8  185.54   10.14 
   1   1  -8  203.21   10.13 
   1   1  -8  203.45   10.37 
   1   1  -8  203.86   10.18 
   1   1  -8  196.11   10.40 
   1   1  -8  202.20   10.06 
  -1   1   8  203.54   10.15 
   1   1  -8  209.54   10.16 
  -1  -1  -8  228.87   10.75 
  -1  -1  -8  211.26   10.75 
  -1  -1  -8  219.86   10.75 
  -1  -1  -8  206.31   11.06 
  -1  -1  -8  219.36   10.81 
   1   1   8  223.49   10.79 
  -1   1  -8  216.79   10.80 
  -1   1  -8  214.07   10.68 
  -1   1  -8  210.41   10.80 
  -1   1  -8  204.27   11.01 
   1   1   8  205.44   10.76 
  -1   1  -8  212.79   10.90 
  -3  -1  -8  175.43    8.73 
  -3  -1  -8  168.66    8.72 
  -3  -1  -8  179.71    8.67 
  -3  -1  -8  165.41    9.01 
  -3  -1  -8  171.48    8.71 
  -3  -1  -8  174.26    8.76 
  -3  -1  -8  164.47    9.01 
  -3   1  -8  166.31    8.63 
  -3   1  -8  170.97    8.64 
  -3   1  -8  177.33    8.75 
  -3   1  -8  175.09    8.98 
   3   1   8  181.53    8.80 
  -3   1  -8  170.16    8.85 
  -3   1  -8  166.73    8.96 
   3   1   8  190.82    8.78 
   3   1   8  171.82    8.70 
  -5  -1  -8  131.50    7.46 
  -5  -1  -8  132.63    7.15 
  -5  -1  -8  138.99    7.07 
  -5  -1  -8  133.84    7.46 
  -5  -1  -8  146.66    7.16 
   5   1   8  141.71    7.26 
  -5   1  -8  141.14    7.34 
  -5   1  -8  138.31    7.37 
  -5   1  -8  144.41    7.42 
  -5   1  -8  135.32    7.41 
   5   1   8  159.24    7.24 
  -5   1  -8  147.33    7.07 
   5   1   8  143.12    7.14 
  -7  -1  -8  106.65    5.88 
  -7  -1  -8  106.53    5.93 
   7  -1   8   91.80    5.94 
  -7  -1  -8  106.79    5.54 
   7  -1   8  122.12    5.54 
   7  -1   8  107.08    5.48 
  -7  -1  -8  113.59    5.58 
   7   1   8  119.25    5.67 
   7   1   8  108.62    5.54 
  -7   1  -8  101.27    5.87 
  -7   1  -8  111.15    5.48 
   7   1   8  105.91    5.69 
  -7   1  -8  101.78    5.73 
   9  -1   8  122.71    5.81 
  -9  -1  -8  107.94    6.20 
  -9  -1  -8  110.94    5.74 
   9  -1   8  110.93    5.99 
   9  -1   8  105.97    5.70 
  -9  -1  -8  107.39    5.98 
   9   1   8  108.27    5.75 
  -9   1  -8  114.27    6.14 
   9   1   8  105.58    5.92 
   9   1   8  124.43    5.93 
  -9   1  -8  110.34    5.68 
 -11  -1  -8  103.43    6.07 
  11  -1   8  106.30    5.56 
 -11  -1  -8  108.62    5.56 
  11  -1   8  113.90    5.90 
 -11   1  -8  107.61    5.51 
  11   1   8  105.96    5.59 
 -11   1  -8  106.31    6.03 
  11   1   8  105.84    5.80 
 -13  -1  -8   74.21    4.28 
  13  -1   8   79.83    4.75 
 -13  -1  -8   78.97    4.95 
  13   1   8   76.88    4.51 
 -13   1  -8   72.33    4.84 
 -12  -2   8   51.46    4.10 
  12  -2  -8   55.74    3.35 
  12  -2  -8   54.64    3.58 
  12   2  -8   53.00    3.36 
 -12   2   8   52.60    3.86 
  10  -2  -8  214.54   10.76 
  10  -2  -8  223.46   10.57 
 -10  -2   8  183.50   10.87 
 -10   2   8  199.80   10.86 
  10   2  -8  207.84   10.57 
 -10   2   8  201.92   10.60 
   8  -2  -8   86.52    4.71 
  -8  -2   8   85.54    4.33 
  -8  -2   8   76.94    4.82 
  -8   2   8   76.97    4.83 
   8   2  -8   80.32    4.44 
   8   2  -8   84.36    4.19 
  -8   2   8   78.15    4.51 
  -6  -2   8  198.18   10.91 
   6  -2  -8  188.38   10.93 
  -6  -2   8  224.20   10.52 
   6  -2  -8  210.45   10.62 
   6  -2  -8  209.29   10.61 
   6  -2  -8  201.75   11.24 
   6   2  -8  205.41   10.54 
  -6   2   8  224.04   10.65 
  -6   2   8  219.37   10.52 
   6   2  -8  201.73   10.56 
   6   2  -8  212.65   10.65 
   6   2  -8  221.09   10.49 
  -6   2   8  190.97   11.03 
   6   2  -8  212.97   10.49 
   4  -2  -8   81.22    4.55 
   4  -2  -8   81.44    4.20 
   4  -2  -8   82.10    4.24 
   4  -2  -8   81.02    4.40 
  -4  -2   8   78.19    4.52 
  -4  -2   8   81.62    4.07 
   4   2  -8   79.24    4.06 
   4   2  -8   82.18    4.15 
  -4   2   8   88.14    4.28 
  -4   2   8   72.01    4.58 
   4   2  -8   78.25    4.25 
   4   2  -8   78.20    4.23 
  -4   2   8   70.76    4.29 
   2  -2  -8  343.34   17.47 
   2  -2  -8  340.33   17.49 
   2  -2  -8  354.36   17.78 
   2  -2  -8  353.98   17.44 
   2   2  -8  339.53   17.33 
  -2   2   8  335.13   17.51 
   2   2  -8  353.43   17.51 
   2   2  -8  339.91   17.56 
   2   2  -8  356.99   17.45 
  -2   2   8  371.85   17.57 
   0  -2  -8   75.42    3.89 
   0  -2  -8   73.52    3.95 
   0  -2  -8   79.09    3.87 
   0  -2  -8   78.32    4.02 
   0  -2  -8   74.38    4.33 
   0   2   8   81.07    4.05 
   0   2  -8   74.21    3.99 
   0   2  -8   78.64    4.01 
   0   2   8   68.89    3.97 
   0   2  -8   72.91    4.22 
   0   2  -8   74.99    4.07 
  -2  -2  -8  267.87   13.16 
  -2  -2  -8  264.63   13.06 
  -2  -2  -8  272.73   13.13 
  -2  -2  -8  266.63   13.08 
  -2  -2  -8  246.80   13.41 
  -2  -2  -8  244.53   13.45 
  -2  -2  -8  249.05   13.16 
   2   2   8  274.94   13.16 
  -2   2  -8  253.18   13.31 
  -2   2  -8  268.18   13.21 
  -2   2  -8  251.79   13.36 
   2   2   8  300.79   13.26 
   2   2   8  247.48   13.17 
  -4  -2  -8   66.22    3.72 
  -4  -2  -8   67.91    3.76 
  -4  -2  -8   66.71    4.13 
  -4  -2  -8   67.50    4.06 
  -4   2  -8   68.63    3.89 
  -4   2  -8   75.38    4.24 
   4   2   8   67.46    3.68 
  -4   2  -8   68.36    3.90 
  -4   2  -8   67.26    3.50 
   4   2   8   75.38    3.74 
   4   2   8   78.33    3.81 
  -6  -2  -8  238.25   12.67 
  -6  -2  -8  237.12   12.65 
  -6  -2  -8  248.69   12.36 
  -6  -2  -8  252.62   12.36 
  -6   2  -8  239.43   12.48 
  -6   2  -8  242.20   12.23 
  -6   2  -8  229.21   12.52 
   6   2   8  253.36   12.36 
   6   2   8  239.17   12.40 
   6   2   8  275.17   12.47 
   8  -2   8   93.66    4.37 
   8  -2   8   80.62    4.20 
  -8  -2  -8   80.30    4.32 
  -8  -2  -8   81.02    4.80 
  -8  -2  -8   77.55    4.68 
   8   2   8   78.31    4.44 
  -8   2  -8   81.85    4.20 
   8   2   8   90.05    4.55 
   8   2   8   80.09    4.32 
  -8   2  -8   78.04    4.48 
 -10  -2  -8  134.10    7.02 
  10  -2   8  136.75    6.96 
 -10  -2  -8  142.94    7.54 
 -10   2  -8  138.87    7.34 
  10   2   8  132.05    7.16 
  10   2   8  137.68    7.06 
 -10   2  -8  135.16    6.93 
  12  -2   8   37.32    2.23 
 -12  -2  -8   34.94    3.23 
 -12  -2  -8   35.89    2.30 
  12   2   8   32.07    2.65 
 -12   2  -8   36.01    2.13 
 -12   2  -8   35.87    2.97 
  12   2   8   35.74    2.33 
  13  -3  -8   80.95    4.74 
 -13  -3   8   73.14    5.30 
  13  -3  -8   76.26    4.42 
 -13   3   8   77.34    4.89 
 -13   3   8   70.02    4.59 
  13   3  -8   71.14    4.47 
 -11  -3   8  113.31    7.07 
  11  -3  -8  128.70    6.87 
  11  -3  -8  126.39    6.61 
  11   3  -8  131.93    6.67 
 -11   3   8  120.89    6.94 
 -11   3   8  121.55    6.72 
  -9  -3   8  103.30    6.22 
   9  -3  -8  112.67    5.83 
   9  -3  -8  111.68    6.12 
  -9   3   8  110.41    6.23 
   9   3  -8  110.51    5.64 
   9   3  -8  113.36    5.88 
  -9   3   8  105.53    5.96 
   7  -3  -8  162.97    8.45 
   7  -3  -8  159.27    8.14 
  -7  -3   8  170.63    8.06 
  -7  -3   8  147.61    9.11 
   7   3  -8  165.73    8.03 
  -7   3   8  148.22    8.45 
   7   3  -8  157.00    8.18 
  -7   3   8  151.10    8.26 
  -5  -3   8  161.13    7.85 
   5  -3  -8  160.74    8.29 
   5  -3  -8  158.01    7.95 
   5  -3  -8  164.71    8.04 
  -5  -3   8  153.73    8.22 
   5   3  -8  155.19    7.81 
  -5   3   8  159.90    7.92 
   5   3  -8  144.25    8.02 
  -5   3   8  139.45    8.13 
  -5   3   8  141.22    8.29 
  -5   3   8  171.71    8.08 
   5   3  -8  151.95    7.90 
   3  -3  -8  105.36    5.83 
   3  -3  -8  100.82    6.02 
   3  -3  -8  111.58    5.72 
   3  -3  -8  107.50    5.61 
  -3  -3   8  114.70    5.50 
  -3  -3   8  102.21    5.84 
   3   3  -8  112.65    5.90 
   3   3  -8  107.92    5.49 
  -3   3   8  103.83    5.76 
   3   3  -8  111.99    5.65 
  -3   3   8  120.67    5.80 
   3   3  -8  108.54    5.71 
   1  -3  -8  191.41    9.87 
   1  -3  -8  186.01   10.27 
   1  -3  -8  192.13    9.96 
   1   3  -8  195.32   10.00 
   1   3  -8  194.13    9.78 
  -1   3   8  187.92   10.01 
   1   3  -8  206.12    9.98 
  -1   3   8  218.89   10.07 
  -1  -3  -8  131.40    6.74 
  -1  -3  -8  130.55    6.90 
  -1  -3  -8  133.07    7.27 
  -1  -3  -8  131.01    7.15 
  -1  -3  -8  133.51    6.76 
  -1  -3  -8  130.37    6.80 
   1   3   8  153.33    7.04 
   1   3   8  144.56    6.83 
  -1   3  -8  134.69    6.95 
   1   3   8  130.07    6.93 
  -1   3  -8  128.22    6.94 
  -3  -3  -8   86.40    5.00 
  -3  -3  -8   97.04    4.63 
  -3  -3  -8   90.85    4.61 
  -3  -3  -8   82.08    5.13 
  -3  -3  -8   79.45    4.81 
   3   3   8   85.52    5.25 
  -3   3  -8   87.87    4.73 
  -3   3  -8   88.74    4.80 
  -3   3  -8   90.67    4.67 
   3   3   8   90.80    4.57 
   3   3   8   82.17    4.72 
  -5  -3  -8  192.96   10.18 
  -5  -3  -8  191.97    9.89 
  -5  -3  -8  187.71   10.25 
  -5  -3  -8  207.15    9.91 
   5   3   8  199.18    9.89 
   5   3   8  197.68    9.91 
  -5   3  -8  192.31   10.00 
  -5   3  -8  167.13    9.81 
  -5   3  -8  195.62   10.01 
   5   3   8  219.62   10.04 
  -7  -3  -8  143.68    7.08 
  -7  -3  -8  137.82    7.44 
  -7  -3  -8  135.76    7.47 
   7   3   8  139.71    7.09 
  -7   3  -8  143.11    6.91 
  -7   3  -8  135.73    7.12 
  -7   3  -8  132.26    7.21 
   7   3   8  130.26    7.12 
  -9  -3  -8   83.96    4.93 
   9  -3   8   85.52    4.33 
  -9  -3  -8   86.85    5.07 
  -9  -3  -8   82.49    4.48 
   9   3   8   84.70    4.51 
  -9   3  -8   85.80    4.34 
  -9   3  -8   81.72    4.70 
   9   3   8   81.67    4.60 
  11  -3   8   84.15    4.60 
 -11  -3  -8   88.66    4.73 
 -11  -3  -8   90.95    5.41 
 -11   3  -8   88.42    4.57 
  11   3   8   83.43    4.89 
 -11   3  -8   91.88    5.04 
  11   3   8   86.77    4.78 
  12  -4  -8  119.65    6.24 
  12  -4  -8  119.06    6.58 
 -12  -4   8  111.88    6.78 
 -12   4   8  111.76    6.39 
  12   4  -8  107.10    6.23 
 -12   4   8  112.78    6.54 
  10  -4  -8   32.02    2.29 
  10  -4  -8   31.30    2.72 
 -10  -4   8   24.03    2.96 
 -10   4   8   31.77    2.50 
  10   4  -8   31.51    2.01 
 -10   4   8   30.13    2.81 
  10   4  -8   29.47    2.34 
  -8  -4   8  180.62    9.95 
   8  -4  -8  185.94    9.67 
   8  -4  -8  200.78   10.01 
  -8   4   8  184.57    9.94 
  -8   4   8  184.77    9.79 
   8   4  -8  188.63    9.72 
   8   4  -8  193.56    9.56 
   6  -4  -8   69.13    3.80 
  -6  -4   8   72.84    3.69 
  -6  -4   8   66.15    4.15 
   6  -4  -8   72.43    4.25 
   6   4  -8   70.41    3.76 
   6   4  -8   68.81    3.65 
   6   4  -8   67.79    3.89 
  -6   4   8   69.50    4.22 
  -6   4   8   66.43    4.00 
   4  -4  -8  187.39    9.66 
   4  -4  -8  187.25    9.25 
  -4  -4   8  176.64    9.44 
  -4  -4   8  189.76    9.15 
  -4   4   8  168.67    9.40 
   4   4  -8  177.32    9.34 
   4   4  -8  180.85    9.13 
   4   4  -8  186.69    9.29 
   2  -4  -8   35.39    2.07 
   2  -4  -8   39.08    2.76 
   2   4  -8   35.06    1.93 
   2   4  -8   35.13    2.24 
  -2   4   8   38.90    2.51 
  -2   4   8   34.03    2.34 
   0  -4  -8  152.23    8.75 
   0  -4  -8  166.77    8.92 
   0  -4  -8  170.04    9.26 
   0  -4  -8  170.77    9.17 
   0   4   8  165.09    8.95 
   0   4  -8  180.31    8.94 
   0   4   8  193.82    8.75 
   0   4   8  196.84    9.06 
   0   4  -8  172.40    8.94 
  -2  -4  -8   45.22    3.44 
  -2  -4  -8   49.80    2.90 
  -2  -4  -8   51.50    3.21 
   2   4   8   52.84    2.76 
  -2   4  -8   50.41    2.59 
   2   4   8   55.32    3.09 
  -2   4  -8   50.37    2.93 
   2   4   8   48.85    2.94 
  -2   4  -8   51.55    2.95 
  -4  -4  -8  200.46   10.48 
  -4  -4  -8  200.03   10.23 
  -4  -4  -8  192.57   10.61 
   4   4   8  209.23   10.25 
  -4   4  -8  203.52   10.26 
   4   4   8  202.63   10.15 
  -4   4  -8  204.08   10.01 
  -4   4  -8  192.46   10.22 
  -6  -4  -8   52.39    3.40 
  -6  -4  -8   50.51    2.93 
  -6  -4  -8   52.53    3.53 
  -6   4  -8   51.18    2.65 
   6   4   8   52.11    2.96 
  -6   4  -8   48.95    2.99 
  -6   4  -8   50.80    2.97 
   6   4   8   48.62    2.92 
  -8  -4  -8  146.55    7.51 
  -8  -4  -8  153.97    7.96 
  -8  -4  -8  140.56    7.96 
  -8   4  -8  144.15    7.58 
  -8   4  -8  151.77    7.36 
   8   4   8  135.83    7.54 
   8   4   8  144.09    7.55 
  10  -4   8   42.90    3.21 
 -10  -4  -8   37.17    2.41 
  10  -4   8   35.82    2.14 
 -10  -4  -8   37.70    3.34 
 -10  -4  -8   36.10    3.20 
 -10   4  -8   37.23    3.02 
  10   4   8   35.06    2.46 
  10   4   8   34.92    2.63 
 -10   4  -8   38.06    2.17 
 -11  -5   8   60.56    4.55 
  11  -5  -8   71.95    4.11 
  11  -5  -8   68.69    4.52 
 -11   5   8   64.51    4.33 
  11   5  -8   67.03    4.11 
 -11   5   8   64.65    4.23 
   9  -5  -8   67.91    3.78 
   9  -5  -8   64.09    4.17 
  -9  -5   8   65.07    4.12 
   9   5  -8   61.84    3.54 
   9   5  -8   63.15    3.73 
  -9   5   8   58.64    3.91 
  -9   5   8   57.36    4.00 
   7  -5  -8  111.12    5.87 
  -7  -5   8  102.01    6.40 
   7  -5  -8  113.67    6.29 
   7   5  -8  108.66    5.92 
   7   5  -8  112.56    5.80 
  -7   5   8  111.42    6.07 
  -5  -5   8  123.44    6.77 
   5  -5  -8  126.21    6.59 
  -5  -5   8  132.97    6.50 
   5  -5  -8  131.48    7.08 
   5   5  -8  123.33    6.69 
  -5   5   8  122.69    6.83 
  -3  -5   8   71.36    3.76 
   3  -5  -8   70.48    3.87 
   3  -5  -8   74.59    4.48 
   3   5  -8   71.58    4.02 
  -3   5   8   70.88    4.16 
   3   5  -8   73.81    3.75 
   1  -5  -8   89.92    5.28 
   1  -5  -8   91.81    5.01 
   1  -5  -8   88.83    4.57 
   1   5  -8   89.99    4.83 
   1   5  -8   86.28    4.90 
  -1   5   8   85.67    4.88 
  -1  -5  -8  100.96    5.87 
  -1  -5  -8  105.78    5.67 
  -1  -5  -8  108.40    6.18 
  -1   5  -8  114.61    5.71 
   1   5   8  103.67    5.74 
   1   5   8  110.27    5.48 
  -1   5  -8  105.78    5.58 
  -3  -5  -8  100.01    5.68 
  -3  -5  -8   96.47    5.17 
  -3  -5  -8   93.82    5.41 
  -3   5  -8   93.35    5.04 
   3   5   8   94.41    5.20 
   3   5   8   96.93    5.02 
  -3   5  -8  103.22    5.22 
  -3   5  -8   94.33    4.89 
  -5  -5  -8   97.14    5.84 
  -5  -5  -8  100.43    5.35 
  -5  -5  -8  101.24    5.70 
  -5   5  -8  101.96    5.39 
  -5   5  -8  102.01    5.10 
  -5   5  -8   98.94    5.26 
   5   5   8  102.60    5.40 
   5   5   8   96.86    5.27 
  -7  -5  -8   63.94    4.14 
  -7  -5  -8   63.72    4.33 
  -7  -5  -8   63.38    3.61 
   7   5   8   62.56    3.65 
  -7   5  -8   63.45    3.72 
  -7   5  -8   63.53    3.32 
   7   5   8   60.14    3.59 
  -9  -5  -8   60.66    4.25 
  -9  -5  -8   60.59    4.26 
  -9  -5  -8   57.00    3.48 
   9  -5   8   63.95    3.17 
   9   5   8   57.90    3.54 
  -9   5  -8   60.67    3.23 
   9   5   8   53.09    3.55 
  -8  -6   8   24.10    2.71 
   8  -6  -8   25.66    2.90 
   8  -6  -8   24.46    2.26 
   8   6  -8   28.28    2.13 
   8   6  -8   21.69    2.18 
  -8   6   8   24.90    2.77 
  -6  -6   8   79.83    5.36 
   6  -6  -8   88.59    5.28 
  -6  -6   8   92.40    4.89 
   6  -6  -8   81.34    4.79 
   6   6  -8   85.95    4.72 
   6   6  -8   80.44    4.78 
  -6   6   8   89.69    5.04 
   4  -6  -8   39.81    3.29 
  -4  -6   8   31.50    3.19 
   4  -6  -8   38.43    2.34 
  -4  -6   8   37.00    2.23 
  -4   6   8   36.06    2.81 
   4   6  -8   35.98    2.55 
   4   6  -8   37.19    2.59 
   2  -6  -8  147.11    8.19 
  -2  -6   8  149.72    7.45 
   2  -6  -8  156.25    7.82 
  -2  -6   8  138.58    8.09 
   2   6  -8  140.23    7.68 
  -2   6   8  139.76    7.79 
   2   6  -8  154.31    7.71 
   0  -6  -8   22.72    1.93 
   0  -6  -8   24.16    2.20 
   0  -6  -8   20.10    2.63 
   0   6   8   22.25    2.08 
   0   6  -8   21.89    1.99 
  -2  -6  -8  150.32    7.87 
  -2  -6  -8  146.71    8.18 
  -2  -6  -8  147.09    7.71 
   2   6   8  142.87    7.76 
  -2   6  -8  150.64    7.69 
   2   6   8  145.09    7.48 
  -2   6  -8  144.28    7.41 
  -4  -6  -8   21.94    2.83 
  -4  -6  -8   24.09    2.42 
  -4  -6  -8   21.03    2.02 
   4   6   8   25.30    2.05 
   4   6   8   22.40    1.82 
  -4   6  -8   24.47    2.04 
  -4   6  -8   22.09    1.43 
  -6  -6  -8   82.77    4.95 
  -6  -6  -8   78.55    5.21 
  -6  -6  -8   80.76    4.51 
   6   6   8   78.03    4.44 
   6   6   8   81.71    4.55 
  -6   6  -8   81.07    4.61 
  -6   6  -8   77.90    4.31 
  -8  -6  -8   30.45    3.24 
  -8  -6  -8   27.94    3.32 
  -8  -6  -8   26.28    2.35 
  -8   6  -8   24.74    2.38 
   8   6   8   29.82    2.44 
   8   6   8   28.20    2.37 
  -8   6  -8   26.76    1.80 
  -5  -7   8   33.25    3.69 
   5  -7  -8   38.51    3.48 
  -5   7   8   32.69    3.39 
   5   7  -8   36.08    2.74 
   5   7  -8   34.46    2.67 
  -3  -7   8   57.16    4.62 
   3  -7  -8   72.20    3.99 
   3  -7  -8   63.38    4.50 
  -3   7   8   63.50    4.13 
   3   7  -8   60.15    3.86 
   3   7  -8   65.62    3.92 
   1  -7  -8   61.48    4.50 
  -1  -7   8   58.50    4.51 
   1  -7  -8   69.25    3.94 
   1  -7  -8   70.76    4.09 
   1   7  -8   65.96    3.93 
  -1   7   8   62.45    4.05 
   1   7  -8   63.27    3.90 
  -1  -7  -8   50.40    4.00 
  -1  -7  -8   53.59    3.55 
  -1  -7  -8   53.18    3.47 
   1   7   8   52.81    3.54 
  -1   7  -8   49.61    3.38 
  -3  -7  -8   38.12    2.82 
  -3  -7  -8   35.24    3.54 
  -3  -7  -8   42.18    3.15 
   3   7   8   38.64    2.97 
  -3   7  -8   41.85    2.81 
  -3   7  -8   36.58    2.24 
  -5  -7  -8   31.46    2.70 
  -5  -7  -8   32.52    3.58 
  -5  -7  -8   36.82    3.19 
  -5   7  -8   33.82    2.04 
  -5   7  -8   29.79    2.60 
   5   7   8   34.47    2.76 
  12   0  -9    1.56    1.21 
  12   0  -9    0.37    1.03 
 -12   0   9    0.36    1.61 
 -10   0   9    1.85    1.47 
  10   0  -9    1.16    1.06 
  10   0  -9    0.62    0.84 
   8   0  -9    0.60    0.89 
  -8   0   9    1.49    1.31 
   8   0  -9    0.40    0.67 
  -6   0   9   -0.32    0.59 
  -6   0   9    0.09    0.51 
  -6   0   9   -0.08    0.98 
   6   0  -9    0.17    0.58 
   6   0  -9    0.13    0.85 
   4   0  -9   -0.13    0.38 
  -4   0   9    0.75    0.40 
  -4   0   9    0.14    0.89 
   4   0  -9    0.21    0.74 
   4   0  -9    0.42    0.49 
  -4   0   9    0.10    0.51 
   2   0  -9    0.39    0.35 
  -2   0   9    0.19    0.33 
   2   0  -9   -0.48    0.44 
  -2   0   9    0.24    0.37 
   2   0  -9   -0.01    0.73 
   2   0  -9    0.15    0.45 
   2   0  -9    0.15    0.36 
   0   0   9    0.21    0.24 
   0   0  -9    0.37    0.41 
   0   0  -9    0.60    0.36 
   0   0   9    0.59    0.26 
   0   0  -9    0.78    0.58 
   0   0  -9   -0.97    0.91 
   0   0  -9   -0.24    0.72 
   0   0  -9    0.82    0.46 
  -2   0  -9    0.17    0.72 
  -2   0  -9   -0.04    1.12 
  -2   0  -9    0.27    0.87 
  -2   0  -9   -0.47    0.69 
  -2   0  -9    0.24    0.33 
  -2   0  -9    0.11    0.37 
  -4   0  -9    0.38    0.85 
  -4   0  -9    0.17    0.30 
  -4   0  -9    0.54    0.37 
  -4   0  -9   -0.65    1.27 
  -4   0  -9    0.25    0.34 
  -6   0  -9    0.47    0.34 
   6   0   9   -0.44    0.74 
   6   0   9    0.01    0.29 
  -6   0  -9    0.29    0.89 
  -6   0  -9    0.34    0.39 
  -6   0  -9    0.47    0.86 
   6   0   9    0.47    0.64 
  -6   0  -9   -0.12    0.43 
  -8   0  -9   -0.07    0.39 
  -8   0  -9   -0.51    1.06 
   8   0   9   -0.18    0.86 
   8   0   9    0.04    0.41 
   8   0   9    0.64    0.64 
  -8   0  -9   -0.23    1.09 
 -10   0  -9   -0.17    1.22 
  10   0   9   -0.27    1.04 
  10   0   9    0.25    0.52 
 -10   0  -9    0.45    0.50 
 -11  -1   9   14.53    2.03 
  11  -1  -9   17.07    1.85 
  11  -1  -9   15.65    2.15 
 -11   1   9   13.25    1.95 
  11   1  -9   13.47    1.38 
  11   1  -9   16.65    2.16 
  -9  -1   9    0.33    1.29 
   9  -1  -9    1.13    0.77 
   9  -1  -9    2.21    1.11 
  -9   1   9    1.80    1.25 
   9   1  -9    0.47    1.04 
   9   1  -9    0.45    0.75 
  -9   1   9    1.53    0.84 
  -7  -1   9   13.76    1.22 
  -7  -1   9   11.28    1.56 
   7  -1  -9   15.55    1.84 
   7  -1  -9   16.04    1.41 
   7   1  -9   15.91    1.79 
   7   1  -9   16.92    1.42 
  -7   1   9   13.86    1.53 
  -7   1   9   12.49    1.61 
  -5  -1   9    2.28    0.96 
  -5  -1   9    2.76    0.63 
  -5  -1   9    3.44    0.49 
   5  -1  -9    2.64    0.63 
   5  -1  -9    2.98    0.90 
   5  -1  -9    3.22    0.61 
   5   1  -9    4.13    0.50 
   5   1  -9    3.71    1.00 
   5   1  -9    2.61    0.64 
  -5   1   9    2.14    0.60 
  -5   1   9    4.02    1.14 
   5   1  -9    2.97    0.47 
  -5   1   9    2.89    0.72 
   3  -1  -9   73.93    3.75 
  -3  -1   9   66.75    3.68 
  -3  -1   9   74.08    3.58 
   3  -1  -9   70.50    3.71 
   3  -1  -9   66.01    4.09 
  -3   1   9   73.30    3.71 
  -3   1   9   64.23    3.74 
   3   1  -9   73.09    3.64 
   3   1  -9   69.37    3.75 
   3   1  -9   66.02    4.30 
   3   1  -9   72.15    3.61 
   1  -1  -9    5.73    0.53 
   1  -1  -9    5.60    0.62 
   1  -1  -9    7.20    1.06 
   1  -1  -9    4.76    0.62 
   1  -1  -9    5.01    1.08 
   1  -1  -9    6.06    0.63 
   1   1  -9    6.61    0.54 
   1   1  -9    7.07    0.67 
   1   1  -9    6.32    0.77 
   1   1  -9    5.59    1.15 
  -1   1   9    5.68    0.61 
   1   1  -9    5.03    0.64 
  -1  -1  -9   12.35    0.96 
  -1  -1  -9   13.43    1.00 
  -1  -1  -9   12.20    1.63 
  -1  -1  -9   12.80    1.33 
  -1  -1  -9   13.06    1.22 
  -1   1  -9   13.94    1.56 
  -1   1  -9   12.08    0.79 
  -1   1  -9   13.55    1.18 
   1   1   9   12.65    1.00 
  -1   1  -9   12.06    1.04 
  -1   1  -9   13.47    1.49 
  -3  -1  -9    8.46    0.82 
  -3  -1  -9    8.20    1.12 
  -3  -1  -9    8.58    1.19 
  -3  -1  -9    8.13    0.84 
  -3  -1  -9    9.36    0.75 
  -3   1  -9    8.36    1.09 
  -3   1  -9    9.39    0.90 
  -3   1  -9    8.59    0.60 
  -3   1  -9    9.03    1.10 
   3   1   9    8.47    0.93 
   3   1   9    9.05    0.73 
  -3   1  -9    9.03    0.63 
  -5  -1  -9   21.75    1.43 
  -5  -1  -9   20.34    2.08 
  -5  -1  -9   20.57    2.07 
  -5  -1  -9   21.49    1.37 
  -5   1  -9   21.02    1.87 
   5   1   9   20.74    1.31 
  -5   1  -9   22.50    1.23 
  -5   1  -9   21.97    1.29 
   5   1   9   25.36    1.55 
  -5   1  -9   26.26    1.45 
  -5   1  -9   20.64    1.98 
   5   1   9   22.71    1.72 
  -7  -1  -9    1.30    0.46 
  -7  -1  -9   -0.01    1.03 
  -7  -1  -9    0.40    1.00 
  -7   1  -9    2.07    0.98 
   7   1   9    1.61    0.74 
  -7   1  -9    1.16    0.43 
  -7   1  -9    1.19    0.34 
  -7   1  -9    0.68    0.91 
   7   1   9    1.26    0.42 
   7   1   9    0.86    0.78 
  -7   1  -9    1.34    0.51 
  -9  -1  -9   20.84    2.50 
   9  -1   9   20.90    1.34 
  -9  -1  -9   21.47    1.44 
  -9   1  -9   22.15    1.34 
   9   1   9   20.22    2.01 
  -9   1  -9   20.22    2.39 
   9   1   9   20.20    1.41 
 -11  -1  -9    3.58    0.72 
 -11  -1  -9    3.45    1.54 
  11  -1   9    3.91    0.71 
  11  -1   9    2.78    1.26 
 -11   1  -9    3.46    0.64 
  11   1   9    4.22    1.21 
 -11   1  -9    5.00    1.49 
  11   1   9    3.70    0.75 
  12  -2  -9   -0.66    1.01 
  12  -2  -9   -0.16    1.29 
 -12  -2   9    1.72    1.78 
  12   2  -9    0.40    1.22 
 -12   2   9    0.25    1.50 
 -12   2   9    1.94    1.13 
  12   2  -9    1.81    1.14 
  10  -2  -9    3.23    1.17 
  10  -2  -9    3.76    0.98 
 -10  -2   9    2.93    1.55 
  10   2  -9    3.43    1.18 
 -10   2   9    3.35    1.03 
  10   2  -9    3.36    0.92 
 -10   2   9    3.62    1.55 
   8  -2  -9    7.18    0.95 
   8  -2  -9    4.92    1.13 
  -8  -2   9    4.39    1.37 
   8   2  -9    7.32    0.94 
  -8   2   9    7.83    1.55 
  -8   2   9    6.88    1.08 
   6  -2  -9    3.58    0.98 
  -6  -2   9    4.26    0.54 
  -6  -2   9    2.99    1.10 
   6  -2  -9    3.57    0.71 
   6   2  -9    3.07    0.51 
   6   2  -9    3.81    0.53 
   6   2  -9    1.97    0.66 
  -6   2   9    2.03    0.81 
  -6   2   9    2.72    1.21 
  -4  -2   9   14.56    2.10 
   4  -2  -9   17.57    1.39 
   4  -2  -9   18.06    1.55 
  -4  -2   9   16.67    1.27 
   4  -2  -9   19.36    1.95 
  -4  -2   9   20.09    1.14 
   4   2  -9   18.37    1.88 
   4   2  -9   19.51    1.14 
  -4   2   9   18.35    1.57 
   4   2  -9   20.29    1.31 
  -4   2   9   21.64    1.55 
   2  -2  -9   17.47    1.42 
   2  -2  -9   18.67    1.91 
   2  -2  -9   17.35    1.27 
  -2   2   9   19.40    1.43 
  -2   2   9   17.44    1.40 
   2   2  -9   19.22    1.40 
   2   2  -9   17.95    1.04 
   2   2  -9   19.19    1.32 
   0  -2  -9    1.31    0.41 
   0  -2  -9    1.92    0.54 
   0   2  -9    1.26    0.79 
   0   2  -9    1.03    0.58 
   0   2  -9    0.45    0.50 
   0   2   9    2.21    0.62 
   0   2   9    0.99    0.47 
  -2  -2  -9    2.16    0.93 
  -2  -2  -9    3.11    0.57 
  -2  -2  -9    2.54    0.98 
  -2  -2  -9    2.47    0.43 
  -2  -2  -9    3.16    0.54 
  -2   2  -9    2.54    0.86 
   2   2   9    3.10    0.70 
  -2   2  -9    3.16    0.59 
  -2   2  -9    2.75    0.82 
   2   2   9    2.92    0.52 
   2   2   9    3.44    0.65 
  -2   2  -9    1.88    0.75 
  -4  -2  -9    5.05    1.11 
  -4  -2  -9    4.84    1.13 
  -4  -2  -9    4.34    0.65 
  -4  -2  -9    4.04    0.59 
  -4   2  -9    4.08    0.67 
  -4   2  -9    4.18    0.95 
   4   2   9    4.23    0.57 
   4   2   9    4.41    0.74 
  -4   2  -9    4.62    0.95 
   4   2   9    4.17    0.78 
  -6  -2  -9    1.63    1.10 
  -6  -2  -9    2.67    0.55 
  -6  -2  -9    1.91    1.21 
  -6   2  -9    2.35    0.87 
   6   2   9    2.32    0.77 
   6   2   9    2.57    0.83 
  -6   2  -9    1.99    0.95 
  -6   2  -9    2.52    0.31 
   6   2   9    2.35    0.52 
  -8  -2  -9   11.81    1.14 
  -8  -2  -9   12.43    1.61 
  -8  -2  -9   14.26    1.68 
   8   2   9   10.54    1.12 
  -8   2  -9   11.93    0.86 
   8   2   9   14.38    1.62 
  -8   2  -9   11.14    1.47 
  10  -2   9    7.06    0.77 
 -10  -2  -9    7.36    1.64 
 -10  -2  -9    7.69    0.87 
  10  -2   9    6.71    0.83 
  10   2   9    5.55    1.17 
  10   2   9    6.13    0.83 
 -10   2  -9    6.82    0.68 
 -10   2  -9    6.65    1.40 
 -11  -3   9    0.18    1.61 
  11  -3  -9   -0.42    1.30 
  11  -3  -9    1.69    1.05 
  11   3  -9    1.10    1.05 
 -11   3   9   -0.19    1.42 
 -11   3   9    0.61    1.17 
   9  -3  -9   44.30    3.24 
   9  -3  -9   43.20    2.78 
  -9  -3   9   46.51    3.53 
   9   3  -9   42.97    2.86 
  -9   3   9   43.68    3.40 
  -9   3   9   43.53    2.99 
  -7  -3   9    2.58    0.61 
   7  -3  -9    1.90    1.13 
  -7  -3   9    2.12    1.21 
   7  -3  -9    2.82    0.74 
   7   3  -9    1.35    0.71 
   7   3  -9    1.79    0.59 
  -7   3   9    2.06    1.26 
  -7   3   9    1.53    0.91 
  -5  -3   9   72.59    3.59 
   5  -3  -9   71.55    4.22 
   5  -3  -9   68.84    3.74 
  -5  -3   9   65.88    4.14 
   5   3  -9   68.10    3.83 
   5   3  -9   71.72    3.69 
   5   3  -9   68.00    3.57 
  -5   3   9   63.42    3.92 
   3  -3  -9    1.61    0.97 
   3  -3  -9    0.84    0.51 
  -3   3   9    1.68    0.73 
  -3   3   9    0.84    1.21 
   3   3  -9    1.85    0.59 
   3   3  -9    0.78    0.64 
   3   3  -9    1.64    0.33 
   1  -3  -9   49.14    3.30 
   1  -3  -9   49.47    2.65 
  -1   3   9   56.10    3.00 
   1   3  -9   48.88    2.51 
  -1   3   9   45.87    2.84 
   1   3  -9   46.15    3.05 
   1   3  -9   49.76    2.82 
  -1  -3  -9    1.31    0.90 
  -1  -3  -9    1.43    0.58 
  -1  -3  -9    1.34    1.02 
   1   3   9    1.78    0.58 
  -1   3  -9    1.80    0.67 
  -1   3  -9    1.76    0.61 
  -1   3  -9    0.85    0.84 
   1   3   9    1.90    0.56 
  -1   3  -9    1.37    0.77 
   1   3   9    1.32    0.83 
  -3  -3  -9   55.99    3.17 
  -3  -3  -9   55.74    3.69 
  -3  -3  -9   56.37    3.62 
  -3   3  -9   56.67    3.24 
  -3   3  -9   57.39    3.38 
  -3   3  -9   55.54    3.43 
   3   3   9   54.17    3.16 
   3   3   9   63.69    3.38 
   3   3   9   61.92    3.17 
  -5  -3  -9    0.43    1.00 
  -5  -3  -9    1.04    1.23 
  -5  -3  -9    1.17    0.57 
   5   3   9    1.30    0.57 
  -5   3  -9    1.64    0.87 
  -5   3  -9    0.83    0.81 
   5   3   9    0.04    0.67 
  -7  -3  -9   40.99    3.06 
  -7  -3  -9   39.42    2.32 
  -7  -3  -9   34.98    3.12 
   7   3   9   33.68    2.49 
  -7   3  -9   39.89    2.05 
  -7   3  -9   37.50    2.68 
   7   3   9   38.39    2.31 
  -9  -3  -9    2.34    0.74 
  -9  -3  -9    2.50    1.51 
   9   3   9    2.07    0.74 
   9   3   9    3.76    1.02 
  -9   3  -9    2.62    1.15 
  -9   3  -9    3.04    0.53 
  10  -4  -9   10.20    1.30 
 -10  -4   9   11.10    1.95 
  10  -4  -9   13.97    1.86 
 -10   4   9   11.61    1.79 
  10   4  -9    9.11    1.36 
 -10   4   9    9.53    1.42 
   8  -4  -9   24.16    2.59 
  -8  -4   9   22.06    2.72 
   8  -4  -9   20.95    1.92 
  -8   4   9   22.36    2.56 
   8   4  -9   23.29    2.02 
   8   4  -9   25.17    1.74 
  -8   4   9   19.85    2.21 
   6  -4  -9   30.53    2.06 
  -6  -4   9   31.25    2.66 
   6  -4  -9   28.73    2.71 
  -6  -4   9   32.53    1.88 
  -6   4   9   28.71    2.38 
   6   4  -9   32.35    2.24 
   6   4  -9   30.24    1.98 
  -4  -4   9   14.58    1.02 
   4  -4  -9   15.44    1.80 
   4  -4  -9   13.49    1.30 
   4   4  -9   14.50    1.55 
   4   4  -9   14.09    1.01 
  -4   4   9   15.12    1.75 
   4   4  -9   13.21    1.40 
   2  -4  -9   19.33    2.31 
   2  -4  -9   18.85    1.37 
   2   4  -9   19.71    1.64 
   2   4  -9   18.96    1.69 
   2   4  -9   18.42    1.14 
  -2   4   9   18.79    1.74 
   0  -4  -9   32.49    2.72 
   0  -4  -9   30.61    2.41 
   0   4  -9   29.79    2.08 
   0   4   9   28.74    2.07 
  -2  -4  -9   32.20    2.79 
  -2  -4  -9   28.55    2.52 
  -2  -4  -9   31.04    2.08 
   2   4   9   34.25    1.94 
  -2   4  -9   31.13    2.16 
  -2   4  -9   31.46    2.15 
   2   4   9   27.32    2.05 
  -2   4  -9   31.15    2.15 
  -4  -4  -9   26.04    1.79 
  -4  -4  -9   24.13    2.67 
  -4  -4  -9   24.89    2.41 
  -4   4  -9   25.41    1.92 
  -4   4  -9   27.21    1.97 
   4   4   9   24.67    1.75 
   4   4   9   23.89    1.80 
  -4   4  -9   22.98    2.07 
  -6  -4  -9   18.89    2.54 
  -6  -4  -9   14.88    1.46 
  -6  -4  -9   16.08    1.85 
   6   4   9   14.82    1.55 
   6   4   9   13.43    1.50 
  -6   4  -9   15.70    1.70 
  -6   4  -9   15.26    0.99 
  -6   4  -9   15.93    1.41 
  -8  -4  -9   13.75    1.96 
  -8  -4  -9   16.38    2.00 
  -8  -4  -9   15.44    1.54 
   8   4   9   12.34    1.32 
  -8   4  -9   14.85    1.10 
  -8   4  -9   16.95    2.04 
   8   4   9   13.06    1.57 
   9  -5  -9    6.00    1.24 
   9  -5  -9    5.03    1.63 
  -9  -5   9    3.92    1.65 
  -9   5   9    6.60    1.50 
   9   5  -9    3.17    1.11 
   7  -5  -9   56.22    3.87 
   7  -5  -9   51.34    3.21 
  -7  -5   9   53.47    3.67 
   7   5  -9   54.05    3.32 
  -7   5   9   48.02    3.45 
   7   5  -9   53.87    3.11 
   5  -5  -9    6.66    1.56 
   5  -5  -9    6.55    0.97 
  -5  -5   9    7.44    0.75 
  -5  -5   9    5.40    1.28 
   5   5  -9    6.21    0.98 
   5   5  -9    5.56    1.06 
  -5   5   9    6.91    1.27 
   3  -5  -9   50.31    3.78 
  -3   5   9   50.26    3.35 
   3   5  -9   57.11    3.20 
   3   5  -9   51.34    3.21 
   3   5  -9   55.07    2.89 
   1  -5  -9    9.40    1.62 
   1  -5  -9    8.45    1.27 
   1   5  -9    9.44    1.12 
  -1   5   9    8.63    1.18 
   1   5  -9    8.52    1.06 
  -1  -5  -9   86.39    5.19 
  -1  -5  -9   89.44    4.92 
  -1  -5  -9   88.85    5.54 
  -1   5  -9   89.39    4.85 
  -1   5  -9   98.51    4.97 
   1   5   9   88.99    4.96 
  -1   5  -9   91.75    4.97 
  -3  -5  -9    5.62    1.33 
  -3  -5  -9    5.37    1.52 
  -3  -5  -9    5.22    0.97 
   3   5   9    4.19    0.93 
  -3   5  -9    4.65    0.43 
  -3   5  -9    6.53    1.04 
  -5  -5  -9   85.26    4.54 
  -5  -5  -9   75.84    4.99 
  -5  -5  -9   88.72    5.24 
   5   5   9   80.99    4.57 
  -5   5  -9   81.73    4.30 
  -5   5  -9   82.16    4.60 
  -7  -5  -9    6.37    1.85 
  -7  -5  -9    8.98    1.83 
  -7  -5  -9   10.71    1.19 
   7   5   9    8.76    1.18 
   7   5   9    9.01    1.17 
  -7   5  -9    9.90    1.30 
  -7   5  -9   10.25    0.95 
   6  -6  -9   32.74    3.34 
  -6   6   9   31.76    2.91 
   6   6  -9   31.98    2.37 
   6   6  -9   30.09    2.54 
   4  -6  -9   27.03    3.18 
  -4  -6   9   29.48    1.86 
   4   6  -9   30.44    2.43 
   4   6  -9   28.65    2.33 
  -4   6   9   27.75    2.61 
   2  -6  -9   53.40    3.49 
   2  -6  -9   52.59    4.06 
   2   6  -9   49.86    3.62 
  -2   6   9   50.46    3.41 
   2   6  -9   51.07    3.29 
   0  -6  -9   46.09    3.11 
   0  -6  -9   47.59    3.41 
   0  -6  -9   51.60    3.91 
   0   6   9   46.49    3.22 
   0   6  -9   46.69    3.13 
   0   6  -9   52.42    3.17 
  -2  -6  -9   35.27    2.92 
  -2  -6  -9   33.31    3.37 
  -2  -6  -9   34.96    2.52 
   2   6   9   29.33    2.53 
  -2   6  -9   32.52    2.54 
  -4  -6  -9   48.31    3.99 
  -4  -6  -9   51.93    3.20 
  -4  -6  -9   51.59    3.66 
   4   6   9   49.72    3.23 
  -4   6  -9   48.99    2.65 
  -4   6  -9   47.70    3.20 
   1  -7  -9   76.97    4.69 
   1  -7  -9   75.02    4.48 
   1   7  -9   74.59    4.82 
   1   7  -9   72.35    4.46 
  -1   7   9   70.76    4.59 
 -10   0  10  136.42    8.34 
  10   0 -10  152.71    8.09 
 -10   0  10  143.87    7.79 
  10   0 -10  157.40    7.82 
   8   0 -10   97.63    5.13 
   8   0 -10   99.91    5.46 
  -8   0  10   90.32    5.15 
  -8   0  10   89.88    5.73 
  -6   0  10  196.11   11.20 
  -6   0  10  232.21   10.75 
   6   0 -10  226.66   10.85 
   6   0 -10  218.11   11.14 
  -6   0  10  188.40   10.80 
   4   0 -10   47.61    2.79 
  -4   0  10   52.44    2.61 
   4   0 -10   48.80    3.24 
  -4   0  10   43.25    2.67 
   4   0 -10   48.09    2.63 
   2   0 -10  200.08   10.32 
   2   0 -10  198.74    9.86 
  -2   0  10  180.23    9.83 
   2   0 -10  199.53    9.96 
  -2   0  10  204.49    9.83 
   0   0 -10   61.65    3.19 
   0   0 -10   59.28    3.16 
   0   0 -10   59.68    3.66 
   0   0 -10   55.87    3.08 
  -2   0 -10  207.68   10.97 
  -2   0 -10  212.71   10.53 
  -2   0 -10  216.15   10.58 
  -2   0 -10  208.23   10.92 
  -2   0 -10  206.78   10.53 
  -4   0 -10   83.72    4.22 
  -4   0 -10   81.28    4.19 
  -4   0 -10   80.95    4.75 
  -6   0 -10  159.00    7.62 
  -6   0 -10  152.33    8.13 
  -6   0 -10  141.60    8.15 
   8   0  10   66.79    3.43 
  -8   0 -10   61.54    4.22 
  -8   0 -10   67.00    3.45 
  -9  -1  10  120.06    7.05 
   9  -1 -10  123.34    6.42 
   9  -1 -10  124.17    6.75 
   9   1 -10  123.52    6.42 
   9   1 -10  126.08    6.75 
  -9   1  10  113.94    6.45 
  -9   1  10  109.32    6.95 
  -7  -1  10   93.41    5.41 
   7  -1 -10  105.66    5.48 
  -7  -1  10  102.11    6.01 
   7  -1 -10  109.28    5.85 
  -7   1  10   95.42    5.50 
   7   1 -10  109.29    5.83 
   7   1 -10  105.40    5.48 
  -7   1  10   98.01    5.98 
   5  -1 -10  105.58    5.95 
  -5  -1  10   98.49    6.04 
  -5  -1  10  107.90    5.40 
  -5  -1  10   99.18    5.49 
   5   1 -10  113.83    5.96 
   5   1 -10  109.69    5.59 
  -5   1  10   98.78    5.58 
  -5   1  10  113.43    5.53 
   3  -1 -10  134.48    6.72 
  -3  -1  10  131.24    6.53 
   3  -1 -10  137.41    7.15 
  -3  -1  10  120.08    6.54 
  -3   1  10  121.96    6.69 
   3   1 -10  134.53    6.58 
   3   1 -10  128.29    6.68 
   3   1 -10  131.78    7.10 
  -3   1  10  135.90    6.66 
   1  -1 -10   86.53    5.13 
   1  -1 -10   91.16    4.66 
   1  -1 -10   89.67    4.65 
   1   1 -10   88.18    5.08 
   1   1 -10   88.43    4.52 
  -1   1  10   90.86    4.60 
   1   1 -10   93.32    4.65 
   1   1 -10   88.82    4.69 
  -1   1  10   87.42    4.61 
  -1  -1 -10  121.27    5.93 
  -1  -1 -10  112.03    6.33 
  -1  -1 -10  118.29    5.91 
  -1  -1 -10  111.39    5.92 
  -1  -1 -10  116.20    6.39 
   1   1  10  117.43    5.87 
   1   1  10  118.65    5.87 
  -1   1 -10  110.36    6.32 
  -1   1 -10  111.43    5.81 
  -1   1 -10  118.16    6.01 
  -1   1 -10  120.81    6.00 
  -1   1 -10  114.07    5.80 
  -1   1 -10  116.52    6.28 
  -3  -1 -10  130.21    7.26 
  -3  -1 -10  137.09    6.85 
  -3  -1 -10  133.53    6.83 
  -3  -1 -10  135.17    7.32 
   3   1  10  133.47    6.79 
  -3   1 -10  136.51    6.71 
  -3   1 -10  138.08    6.87 
  -3   1 -10  136.14    7.20 
  -3   1 -10  132.14    6.73 
   3   1  10  132.32    6.76 
  -5  -1 -10   94.16    5.32 
  -5  -1 -10   92.74    4.76 
  -5  -1 -10   86.88    5.30 
  -5   1 -10   85.84    5.18 
  -5   1 -10   95.39    4.65 
  -5   1 -10   96.25    5.25 
  -5   1 -10   94.54    4.83 
   5   1  10   91.27    4.69 
  -5   1 -10   89.86    4.69 
   5   1  10   96.01    4.77 
  -7  -1 -10  103.73    6.18 
  -7  -1 -10  108.08    5.60 
  -7   1 -10  111.18    5.52 
   7   1  10  123.01    6.07 
   7   1  10  104.76    5.55 
  -7   1 -10  108.16    6.11 
   7   1  10  107.21    5.89 
  -9  -1 -10   87.34    4.57 
  -9  -1 -10   85.64    5.40 
   9   1  10   84.93    4.54 
   9   1  10   87.16    4.98 
  -9   1 -10   88.77    5.31 
  -9   1 -10   89.06    4.48 
 -10  -2  10   38.43    3.79 
  10  -2 -10   40.51    2.82 
  10  -2 -10   40.44    3.25 
 -10   2  10   34.97    3.57 
  10   2 -10   42.56    2.83 
 -10   2  10   38.02    2.88 
  10   2 -10   37.01    3.22 
   8  -2 -10  135.87    6.71 
   8  -2 -10  130.44    7.07 
  -8  -2  10  120.83    7.20 
   8   2 -10  134.50    6.74 
  -8   2  10  115.08    7.16 
  -8   2  10  117.04    6.75 
   8   2 -10  129.96    7.03 
   6  -2 -10   60.01    3.32 
  -6  -2  10   59.51    3.90 
  -6  -2  10   50.31    3.22 
  -6  -2  10   60.63    3.10 
   6  -2 -10   60.87    3.84 
  -6   2  10   54.49    3.45 
   6   2 -10   62.64    3.40 
   6   2 -10   59.84    3.78 
   4  -2 -10  188.47    9.75 
   4  -2 -10  181.97    9.32 
   4   2 -10  183.69    9.28 
  -4   2  10  177.81    9.39 
   4   2 -10  184.57    9.69 
   4   2 -10  180.64    9.37 
   4   2 -10  185.04    9.18 
   2  -2 -10   71.64    3.84 
   2  -2 -10   71.96    4.40 
   2   2 -10   77.63    3.96 
   2   2 -10   67.57    4.29 
  -2   2  10   67.22    3.89 
   2   2 -10   70.51    3.67 
  -2   2  10   78.28    3.92 
   2   2 -10   74.98    3.86 
   0  -2 -10  189.37   10.24 
   0  -2 -10  202.50    9.77 
   0   2  10  181.21    9.80 
   0   2 -10  206.96    9.86 
   0   2 -10  192.08   10.16 
   0   2  10  198.18    9.82 
   0   2 -10  187.20    9.91 
  -2  -2 -10   38.79    2.86 
  -2  -2 -10   38.10    2.24 
  -2  -2 -10   36.99    2.93 
   2   2  10   41.02    2.32 
  -2   2 -10   39.64    2.71 
   2   2  10   37.17    2.18 
  -2   2 -10   37.71    2.29 
  -2   2 -10   38.20    2.75 
  -2   2 -10   38.09    2.40 
  -4  -2 -10  181.76   10.23 
  -4  -2 -10  198.65    9.79 
  -4  -2 -10  195.91   10.21 
  -4   2 -10  194.45   10.06 
   4   2  10  208.22    9.85 
   4   2  10  208.66    9.88 
   4   2  10  190.96    9.74 
  -4   2 -10  174.04   10.11 
  -4   2 -10  187.62    9.81 
  -6  -2 -10   59.17    3.20 
  -6  -2 -10   61.91    3.94 
  -6  -2 -10   55.63    3.92 
  -6   2 -10   58.93    3.00 
  -6   2 -10   59.02    2.97 
   6   2  10   56.46    3.13 
  -6   2 -10   57.71    3.71 
  -6   2 -10   60.13    3.28 
   6   2  10   56.62    3.44 
  -8  -2 -10  101.69    6.15 
  -8  -2 -10  102.86    5.43 
   8   2  10  104.44    5.41 
  -8   2 -10  108.41    5.29 
   8   2  10  103.50    5.67 
  -8   2 -10  103.62    5.96 
  -9  -3  10   61.15    4.44 
   9  -3 -10   61.72    4.14 
   9  -3 -10   59.93    3.63 
  -9   3  10   56.92    4.26 
  -9   3  10   56.08    3.78 
   9   3 -10   63.69    3.68 
   7  -3 -10   67.84    3.76 
  -7  -3  10   63.27    4.36 
   7  -3 -10   71.06    4.33 
  -7   3  10   63.63    3.97 
   7   3 -10   66.57    3.90 
  -5  -3  10  106.73    5.48 
   5  -3 -10  107.69    5.51 
   5  -3 -10  108.06    6.03 
  -5  -3  10   98.49    5.34 
   5   3 -10  105.11    5.59 
  -5   3  10  101.52    5.68 
   3  -3 -10  127.73    6.75 
   3  -3 -10  115.81    6.16 
   3   3 -10  119.02    6.30 
  -3   3  10  116.39    6.31 
   3   3 -10  118.18    6.01 
   3   3 -10  121.43    6.19 
   3   3 -10  119.01    6.62 
   1  -3 -10  115.94    6.45 
   1   3 -10  116.38    6.00 
  -1   3  10  103.38    5.92 
   1   3 -10  115.23    6.30 
   1   3 -10  117.25    5.93 
  -1  -3 -10  123.25    6.30 
  -1  -3 -10  121.69    6.71 
  -1  -3 -10  121.69    6.85 
  -1   3 -10  120.71    6.50 
  -1   3 -10  128.13    6.38 
  -1   3 -10  118.42    6.65 
  -1   3 -10  128.86    6.44 
   1   3  10  110.74    6.29 
  -3  -3 -10   84.48    4.92 
  -3  -3 -10   79.40    5.03 
  -3  -3 -10   81.30    4.40 
  -3   3 -10   82.62    4.78 
  -3   3 -10   83.23    4.68 
   3   3  10   81.65    4.39 
  -3   3 -10   84.05    4.53 
  -3   3 -10   84.64    4.49 
  -5  -3 -10   73.69    5.00 
  -5  -3 -10   80.96    4.88 
  -5  -3 -10   83.26    4.28 
  -5   3 -10   77.58    4.57 
  -5   3 -10   81.61    4.44 
  -5   3 -10   75.20    4.58 
   5   3  10   86.05    4.39 
   5   3  10   78.14    4.24 
  -5   3 -10   79.50    4.33 
  -7  -3 -10   81.64    4.35 
  -7  -3 -10   82.28    5.06 
  -7  -3 -10   74.09    5.12 
   7   3  10   79.79    4.33 
  -7   3 -10   82.06    4.75 
  -7   3 -10   81.76    4.10 
   7   3  10   83.90    4.55 
  -8  -4  10   20.91    2.24 
   8  -4 -10   20.09    1.99 
   8  -4 -10   21.58    2.83 
   8   4 -10   21.02    2.14 
  -8   4  10   17.89    1.86 
  -6  -4  10  132.99    7.72 
  -6  -4  10  152.40    7.18 
   6  -4 -10  142.69    7.89 
   6  -4 -10  140.99    7.36 
   6   4 -10  138.68    7.46 
  -6   4  10  138.57    7.58 
   4  -4 -10   22.22    2.70 
  -4   4  10   24.75    2.20 
   4   4 -10   25.37    2.06 
   2  -4 -10  146.56    7.88 
   2   4 -10  138.92    7.38 
  -2   4  10  131.53    7.38 
   2   4 -10  152.51    7.32 
   2   4 -10  135.75    7.08 
   0  -4 -10   70.47    4.60 
   0  -4 -10   71.91    4.41 
   0  -4 -10   72.02    3.97 
   0   4 -10   73.31    4.05 
   0   4 -10   73.76    4.04 
   0   4  10   69.24    4.00 
   0   4 -10   69.39    4.07 
  -2  -4 -10  128.00    6.58 
  -2  -4 -10  122.87    7.14 
  -2  -4 -10  129.19    7.00 
   2   4  10  120.54    6.56 
  -2   4 -10  123.24    6.87 
  -2   4 -10  129.97    6.65 
  -2   4 -10  129.02    6.69 
  -2   4 -10  122.85    6.62 
  -4  -4 -10   27.78    2.77 
  -4  -4 -10   24.89    3.07 
  -4  -4 -10   27.38    1.96 
  -4   4 -10   25.29    2.47 
  -4   4 -10   28.48    2.16 
   4   4  10   28.30    1.94 
  -4   4 -10   23.65    2.18 
  -4   4 -10   25.78    2.21 
  -6  -4 -10   91.37    5.88 
  -6  -4 -10   96.90    5.07 
  -6  -4 -10   95.92    5.73 
   6   4  10   88.97    5.06 
  -6   4 -10  100.79    5.28 
   5  -5 -10   61.48    4.46 
   5   5 -10   65.27    3.81 
  -5   5  10   61.28    3.97 
   5   5 -10   63.72    3.68 
   3  -5 -10   64.75    4.55 
   3   5 -10   65.24    3.89 
  -3   5  10   61.79    3.99 
   3   5 -10   68.97    3.82 
   1  -5 -10   69.53    4.32 
   1  -5 -10   68.68    4.72 
   1  -5 -10   65.99    3.94 
   1   5 -10   75.86    3.99 
  -1   5  10   64.28    4.00 
   1   5 -10   64.37    3.97 
  -1  -5 -10   91.46    5.01 
  -1  -5 -10   90.52    5.41 
  -1  -5 -10   90.55    5.78 
  -1   5 -10   91.48    5.07 
  -1   5 -10   94.97    5.05 
   1   5  10   86.47    5.01 
  -3  -5 -10   60.46    4.49 
  -3  -5 -10   60.01    3.54 
  -3  -5 -10   60.39    4.08 
  -3   5 -10   59.97    3.64 
  -3   5 -10   55.21    3.86 
   3   5  10   60.41    3.55 
  -3   5 -10   60.34    3.68 
  -8   0  11    1.19    1.61 
   8   0 -11   -0.10    1.31 
   8   0 -11   -0.50    0.94 
  -8   0  11    0.52    0.99 
   6   0 -11    0.11    0.82 
  -6   0  11    1.37    0.78 
   6   0 -11    1.23    1.33 
   4   0 -11    0.91    1.20 
  -4   0  11    0.16    0.55 
   4   0 -11    0.18    0.70 
  -4   0  11    0.45    0.55 
   2   0 -11   -0.32    1.04 
   0   0 -11    0.56    0.60 
   0   0 -11    0.50    0.45 
   0   0 -11    0.66    1.13 
  -2   0 -11   -0.68    1.04 
  -2   0 -11   -0.77    1.14 
  -2   0 -11    0.35    0.42 
  -2   0 -11    0.07    0.47 
  -4   0 -11    0.08    0.39 
  -4   0 -11   -0.15    1.21 
  -4   0 -11    0.93    1.27 
  -6   0 -11    1.89    1.36 
  -6   0 -11    0.64    0.44 
   7  -1 -11    3.99    1.37 
   7  -1 -11    4.59    1.02 
  -7  -1  11    3.68    0.94 
  -7  -1  11    5.74    1.70 
   7   1 -11    5.29    1.51 
  -7   1  11    4.86    1.04 
   7   1 -11    4.83    1.01 
   5  -1 -11    9.51    1.48 
   5  -1 -11   12.32    1.48 
  -5  -1  11   10.82    0.91 
  -5  -1  11   10.47    1.06 
  -5   1  11   10.36    1.09 
   5   1 -11   11.11    1.13 
   5   1 -11    8.44    1.50 
   3  -1 -11    0.48    0.81 
   3  -1 -11    0.03    1.13 
   3   1 -11    1.02    1.19 
  -3   1  11   -0.29    0.56 
  -3   1  11    0.95    0.60 
   3   1 -11   -0.35    0.70 
   1  -1 -11   11.43    1.61 
   1   1 -11   12.68    1.35 
  -1   1  11   12.66    1.02 
   1   1 -11   12.90    1.59 
   1   1 -11   13.91    0.89 
  -1  -1 -11    5.63    1.28 
  -1  -1 -11    6.41    0.70 
  -1  -1 -11    6.80    1.44 
  -1   1 -11    5.91    0.61 
  -1   1 -11    7.78    1.22 
  -1   1 -11    9.62    1.12 
  -1   1 -11    5.55    1.29 
  -1   1 -11    7.03    1.30 
  -3  -1 -11   37.19    2.97 
  -3  -1 -11   33.96    2.10 
  -3  -1 -11   32.34    3.02 
  -3   1 -11   35.71    2.82 
  -3   1 -11   34.89    2.34 
  -3   1 -11   35.80    2.86 
  -5  -1 -11    0.28    0.50 
  -5  -1 -11    0.16    1.25 
  -5  -1 -11    0.47    1.39 
  -5   1 -11    1.53    1.38 
  -5   1 -11    0.86    0.30 
  -5   1 -11   -0.29    1.27 
  -5   1 -11    0.44    0.41 
   6  -2 -11    0.98    1.37 
  -6  -2  11    0.94    0.51 
   6  -2 -11    1.33    0.84 
  -6  -2  11    1.08    0.65 
   6   2 -11    1.52    0.90 
  -6   2  11    0.59    0.95 
   6   2 -11    1.88    1.41 
   4  -2 -11    2.97    1.36 
   4  -2 -11    2.81    0.96 
  -4   2  11    2.42    0.86 
   4   2 -11    2.68    0.90 
   4   2 -11    2.62    1.32 
   2  -2 -11    6.35    1.44 
   2   2 -11    5.82    0.63 
   2   2 -11    5.11    1.33 
  -2   2  11    5.61    0.78 
   2   2 -11    4.95    0.84 
   0  -2 -11    3.16    1.32 
   0  -2 -11    1.47    1.28 
   0   2 -11    3.03    0.92 
   0   2 -11    1.79    1.23 
   0   2 -11    2.82    0.75 
   0   2  11    1.85    0.59 
   0   2 -11    1.97    1.15 
  -2  -2 -11    7.98    0.86 
  -2  -2 -11    7.42    1.67 
  -2  -2 -11   11.32    1.60 
  -2   2 -11    8.12    1.45 
  -2   2 -11    9.37    1.39 
  -2   2 -11    8.83    0.95 
  -2   2 -11    9.76    1.05 
   2   2  11    8.98    0.96 
   2   2  11    8.64    0.92 
  -4  -2 -11   12.57    1.27 
  -4  -2 -11   11.96    1.73 
  -4  -2 -11   13.55    1.88 
  -4   2 -11   13.83    1.64 
   4   2  11   12.40    1.05 
  -4   2 -11   12.53    1.29 
  -4   2 -11   13.97    1.68 
   5  -3 -11    0.96    1.40 
   5   3 -11    1.72    1.37 
  -5   3  11    0.67    1.03 
   5   3 -11    0.56    0.92 
   3  -3 -11   32.41    3.05 
  -3   3  11   27.90    2.20 
   3   3 -11   32.02    2.82 
   3   3 -11   30.44    2.28 
   1  -3 -11    1.45    1.30 
   1  -3 -11    0.67    1.38 
   1   3 -11    0.98    0.87 
   1   3 -11    2.99    1.31 
   1   3 -11    1.28    1.40 
  -1   3  11    1.35    0.75 
  -1  -3 -11   40.94    3.29 
  -1  -3 -11   41.61    2.56 
  -1  -3 -11   42.94    3.55 
  -1   3 -11   46.09    2.71 
  -1   3 -11   43.26    3.00 
   1   3  11   36.86    2.49 
  -1   3 -11   44.40    2.72 
  -1   3 -11   42.10    3.26 
  -3  -3 -11    2.24    0.75 
  -3  -3 -11    2.74    1.50 
  -3  -3 -11    3.21    1.67 
  -3   3 -11    3.16    0.98 
  -3   3 -11    2.60    1.16 
  -3   3 -11    2.17    1.31 
  -3   3 -11    1.18    0.79 
   3   3  11    1.91    0.68 
   2  -4 -11   11.65    1.78 
   2  -4 -11   14.56    2.07 
   2   4 -11   15.23    1.93 
  -2   4  11   12.06    1.33 
   2   4 -11   12.37    1.35 
   0  -4 -11   23.83    2.01 
   0  -4 -11   26.51    3.22 
   0  -4 -11   26.62    2.92 
   0   4 -11   28.56    2.17 
   0   4  11   23.09    2.01 
   0   4 -11   25.55    2.74 
   0   4 -11   21.06    2.42 
   0   4 -11   26.30    2.24 
  -2  -4 -11   14.87    1.72 
  -2  -4 -11   12.73    2.08 
  -2  -4 -11   13.12    2.52 
  -2   4 -11   13.13    1.77 
  -2   4 -11   11.04    1.32 
  -2   4 -11   17.23    1.45 
   2   0 -12   63.87    4.27 
   0   0 -12  145.86    7.55 
   0   0 -12  155.77    8.30 
   0   0 -12  148.06    8.15 
   1  -1 -12   99.77    5.97 
   1  -1 -12   98.02    5.93 
   1   1 -12   98.53    5.84 
   0   0   0    0.00    0.00 
;
_shelx_hkl_checksum              28434
loop_
_space_group_symop_operation_xyz
'x, y, z'
'-x, y, -z+1/2'
'x+1/2, y+1/2, z'
'-x+1/2, y+1/2, -z+1/2'
'-x, -y, -z'
'x, -y, z-1/2'
'-x+1/2, -y+1/2, -z'
'x+1/2, -y+1/2, z-1/2'
loop_
_atom_site_label
_atom_site_type_symbol
_atom_site_fract_x
_atom_site_fract_y
_atom_site_fract_z
_atom_site_U_iso_or_equiv
_atom_site_adp_type
_atom_site_occupancy
_atom_site_site_symmetry_order
_atom_site_calc_flag
_atom_site_refinement_flags_posn
_atom_site_refinement_flags_adp
_atom_site_refinement_flags_occupancy
U1 U 0.0000 0.01807(2) 0.2500 0.00802(4) Uani 1 2 d S T P
Zn1 Zn 0.2500 0.2500 0.0000 0.00939(6) Uani 1 2 d S . P
F1 F 0.16988(9) 0.14466(17) 0.19745(14) 0.0126(2) Uani 1 1 d . . .
F2 F 0.38076(10) 0.28654(17) 0.16174(14) 0.0124(2) Uani 1 1 d . . .
F3 F 0.06857(10) 0.13579(17) 0.50601(14) 0.0132(2) Uani 1 1 d . . .
O1 O 0.18212(14) 0.5185(2) 0.0658(2) 0.0141(3) Uani 1 1 d . . .
H1A H 0.215(3) 0.571(5) 0.137(5) 0.025(8) Uiso 1 1 d . . .
H1B H 0.157(3) 0.604(6) 0.008(5) 0.041(10) Uiso 1 1 d . . .
O2 O 0.0000 0.3846(3) 0.2500 0.0226(5) Uani 1 2 d S T P
H2 H 0.044(4) 0.456(6) 0.209(6) 0.040(11) Uiso 1 1 d . . .
loop_
_atom_site_aniso_label
_atom_site_aniso_U_11
_atom_site_aniso_U_22
_atom_site_aniso_U_33
_atom_site_aniso_U_23
_atom_site_aniso_U_13
_atom_site_aniso_U_12
U1 0.00791(5) 0.00744(6) 0.00876(6) 0.000 0.00096(3) 0.000
Zn1 0.00918(13) 0.00978(13) 0.00928(13) 0.00002(9) 0.00101(10) -0.00126(9)
F1 0.0113(5) 0.0137(5) 0.0131(5) 0.0013(4) 0.0021(4) -0.0012(4)
F2 0.0130(5) 0.0119(5) 0.0122(5) 0.0000(4) -0.0002(4) -0.0021(4)
F3 0.0142(5) 0.0139(5) 0.0116(5) -0.0013(4) 0.0012(4) -0.0033(4)
O1 0.0155(7) 0.0107(6) 0.0160(7) -0.0009(5) -0.0011(6) 0.0011(5)
O2 0.0231(11) 0.0103(9) 0.0358(14) 0.000 0.0152(10) 0.000
loop_
_atom_type_symbol
_atom_type_description
_atom_type_scat_dispersion_real
_atom_type_scat_dispersion_imag
_atom_type_scat_source
O O 0.0106 0.0060 'International Tables Vol C Tables 4.2.6.8 and 6.1.1.4'
H H 0.0000 0.0000 'International Tables Vol C Tables 4.2.6.8 and 6.1.1.4'
F F 0.0171 0.0103 'International Tables Vol C Tables 4.2.6.8 and 6.1.1.4'
Zn Zn 0.2839 1.4301 'International Tables Vol C Tables 4.2.6.8 and 6.1.1.4'
U U -9.6767 9.6646 'International Tables Vol C Tables 4.2.6.8 and 6.1.1.4'
loop_
_geom_angle_atom_site_label_1
_geom_angle_atom_site_label_2
_geom_angle_atom_site_label_3
_geom_angle
_geom_angle_site_symmetry_1
_geom_angle_site_symmetry_3
F2 U1 F2 89.01(6) 3_445 4_545
F2 U1 F1 76.18(4) 3_445 2
F2 U1 F1 141.56(4) 4_545 2
F2 U1 F1 141.56(4) 3_445 .
F2 U1 F1 76.18(4) 4_545 .
F1 U1 F1 135.12(6) 2 .
F2 U1 F3 77.16(4) 3_445 2
F2 U1 F3 136.40(4) 4_545 2
F1 U1 F3 75.05(4) 2 2
F1 U1 F3 89.39(4) . 2
F2 U1 F3 136.40(4) 3_445 .
F2 U1 F3 77.16(4) 4_545 .
F1 U1 F3 89.39(4) 2 .
F1 U1 F3 75.05(4) . .
F3 U1 F3 138.79(6) 2 .
F2 U1 F3 70.93(4) 3_445 6
F2 U1 F3 72.25(4) 4_545 6
F1 U1 F3 131.84(4) 2 6
F1 U1 F3 70.79(4) . 6
F3 U1 F3 64.15(5) 2 6
F3 U1 F3 138.39(5) . 6
F2 U1 F3 72.25(4) 3_445 5_556
F2 U1 F3 70.93(4) 4_545 5_556
F1 U1 F3 70.79(4) 2 5_556
F1 U1 F3 131.84(4) . 5_556
F3 U1 F3 138.40(5) 2 5_556
F3 U1 F3 64.15(5) . 5_556
F3 U1 F3 127.44(6) 6 5_556
F2 U1 O2 135.49(3) 3_445 .
F2 U1 O2 135.49(3) 4_545 .
F1 U1 O2 67.56(3) 2 .
F1 U1 O2 67.56(3) . .
F3 U1 O2 69.40(3) 2 .
F3 U1 O2 69.39(3) . .
F3 U1 O2 116.28(3) 6 .
F3 U1 O2 116.28(3) 5_556 .
F2 U1 U1 71.03(3) 3_445 5
F2 U1 U1 103.64(3) 4_545 5
F1 U1 U1 104.58(3) 2 5
F1 U1 U1 78.23(3) . 5
F3 U1 U1 32.76(3) 2 5
F3 U1 U1 152.25(3) . 5
F3 U1 U1 31.39(3) 6 5
F3 U1 U1 142.96(3) 5_556 5
O2 U1 U1 93.586(3) . 5
F2 U1 U1 103.64(3) 3_445 5_556
F2 U1 U1 71.03(3) 4_545 5_556
F1 U1 U1 78.23(3) 2 5_556
F1 U1 U1 104.58(3) . 5_556
F3 U1 U1 152.25(3) 2 5_556
F3 U1 U1 32.76(3) . 5_556
F3 U1 U1 142.96(3) 6 5_556
F3 U1 U1 31.39(3) 5_556 5_556
O2 U1 U1 93.586(2) . 5_556
U1 U1 U1 172.829(5) 5 5_556
F2 Zn1 F2 180.0 . 7
F2 Zn1 F1 86.49(5) . .
F2 Zn1 F1 93.51(5) 7 .
F2 Zn1 F1 93.51(5) . 7
F2 Zn1 F1 86.49(5) 7 7
F1 Zn1 F1 180.0 . 7
F2 Zn1 O1 91.93(6) . .
F2 Zn1 O1 88.07(6) 7 .
F1 Zn1 O1 85.12(6) . .
F1 Zn1 O1 94.88(6) 7 .
F2 Zn1 O1 88.07(6) . 7
F2 Zn1 O1 91.93(6) 7 7
F1 Zn1 O1 94.88(6) . 7
F1 Zn1 O1 85.12(6) 7 7
O1 Zn1 O1 180.0 . 7
Zn1 F1 U1 138.44(6) . .
Zn1 F2 U1 139.92(6) . 3
U1 F3 U1 115.85(5) . 5_556
loop_
_geom_bond_atom_site_label_1
_geom_bond_atom_site_label_2
_geom_bond_distance
_geom_bond_site_symmetry_2
U1 F2 2.2461(11) 3_445
U1 F2 2.2461(11) 4_545
U1 F1 2.2947(11) 2
U1 F1 2.2947(11) .
U1 F3 2.3143(11) 2
U1 F3 2.3143(11) .
U1 F3 2.4040(12) 6
U1 F3 2.4040(12) 5_556
U1 O2 2.536(2) .
U1 U1 3.9985(2) 5
U1 U1 3.9985(2) 5_556
Zn1 F2 2.0079(11) .
Zn1 F2 2.0079(11) 7
Zn1 F1 2.0278(11) .
Zn1 F1 2.0278(11) 7
Zn1 O1 2.1090(15) .
Zn1 O1 2.1090(15) 7
F2 U1 2.2462(11) 3
F3 U1 2.4041(12) 5_556
loop_
_geom_hbond_atom_site_label_D
_geom_hbond_atom_site_label_H
_geom_hbond_atom_site_label_A
_geom_hbond_distance_DH
_geom_hbond_distance_HA
_geom_hbond_distance_DA
_geom_hbond_angle_DHA
_geom_hbond_site_symmetry_A
O1 H1A F1 0.77(4) 1.94(4) 2.683(2) 163(4) 4
O1 H1A F2 0.77(4) 2.52(3) 2.986(2) 121(3) 4
O1 H1B F3 0.80(4) 2.09(4) 2.7881(19) 145(4) 6_565
O2 H2 O1 0.81(4) 2.11(4) 2.8662(19) 154(4) .
