#------------------------------------------------------------------------------
#$Date: 2019-11-23 14:19:33 +0200 (Sat, 23 Nov 2019) $
#$Revision: 233592 $
#$URL: file:///home/coder/svn-repositories/cod/cif/4/34/91/4349117.cif $
#------------------------------------------------------------------------------
#
# This file is available in the Crystallography Open Database (COD),
# http://www.crystallography.net/
#
# All data on this site have been placed in the public domain by the
# contributors.
#
data_4349117
loop_
_publ_author_name
'Valverde-Mu\~noz, Francisco Javier'
'Seredyuk, Maksym'
'Mu\~noz, M Carmen'
'Znovjyak, Kateryna'
'Fritsky, Igor O.'
'Real, Jos\'e Antonio'
_publ_section_title
;
 Strong Cooperative Spin Crossover in 2D and 3D
 Fe<sup>II</sup>-M<sup>I,II</sup> Hofmann-Like Coordination Polymers Based
 on 2-Fluoropyrazine.
;
_journal_issue                   20
_journal_name_full               'Inorganic chemistry'
_journal_page_first              10654
_journal_page_last               10665
_journal_paper_doi               10.1021/acs.inorgchem.6b01901
_journal_volume                  55
_journal_year                    2016
_chemical_formula_sum            'C12 H6 F2 Fe N8 Pd'
_chemical_formula_weight         462.50
_space_group_crystal_system      orthorhombic
_space_group_IT_number           53
_space_group_name_Hall           '-P 2ac 2'
_space_group_name_H-M_alt        'P m n a'
_atom_sites_solution_hydrogens   geom
_audit_creation_method           SHELXL-2014
_cell_angle_alpha                90
_cell_angle_beta                 90
_cell_angle_gamma                90
_cell_formula_units_Z            2
_cell_length_a                   7.2646(2)
_cell_length_b                   6.9726(3)
_cell_length_c                   14.7703(5)
_cell_measurement_reflns_used    914
_cell_measurement_temperature    98.5(3)
_cell_measurement_theta_max      29.1180
_cell_measurement_theta_min      3.1080
_cell_volume                     748.16(5)
_computing_cell_refinement       'CrysAlisPro 2015'
_computing_data_collection       'CrysAlisPro 2015'
_computing_data_reduction        'CrysAlisPro 2015'
_computing_structure_refinement  'SHELXL-2014 (Sheldrick, 2014)'
_computing_structure_solution    'SHELXS-2014 (Sheldrick, 2014)'
_diffrn_ambient_temperature      98.5(3)
_diffrn_measured_fraction_theta_full 0.964
_diffrn_measured_fraction_theta_max 0.891
_diffrn_measurement_device_type  'SuperNova Sapphire3'
_diffrn_radiation_type           MoK\a
_diffrn_radiation_wavelength     0.71073
_diffrn_reflns_av_R_equivalents  0.0381
_diffrn_reflns_av_unetI/netI     0.0481
_diffrn_reflns_Laue_measured_fraction_full 0.964
_diffrn_reflns_Laue_measured_fraction_max 0.891
_diffrn_reflns_limit_h_max       9
_diffrn_reflns_limit_h_min       -9
_diffrn_reflns_limit_k_max       9
_diffrn_reflns_limit_k_min       -7
_diffrn_reflns_limit_l_max       19
_diffrn_reflns_limit_l_min       -19
_diffrn_reflns_number            3318
_diffrn_reflns_point_group_measured_fraction_full 0.964
_diffrn_reflns_point_group_measured_fraction_max 0.891
_diffrn_reflns_theta_full        25.000
_diffrn_reflns_theta_max         29.712
_diffrn_reflns_theta_min         2.921
_exptl_absorpt_coefficient_mu    2.206
_exptl_absorpt_correction_T_max  1.00000
_exptl_absorpt_correction_T_min  0.88663
_exptl_absorpt_correction_type   multi-scan
_exptl_absorpt_process_details   'CrysAlisPro 1.171.38.41q'
_exptl_crystal_colour            red
_exptl_crystal_density_diffrn    2.053
_exptl_crystal_description       prismatic
_exptl_crystal_F_000             448
_exptl_crystal_size_max          0.150
_exptl_crystal_size_mid          0.080
_exptl_crystal_size_min          0.080
_refine_diff_density_max         0.645
_refine_diff_density_min         -0.537
_refine_diff_density_rms         0.125
_refine_ls_extinction_method     none
_refine_ls_goodness_of_fit_ref   0.975
_refine_ls_hydrogen_treatment    constr
_refine_ls_matrix_type           full
_refine_ls_number_parameters     69
_refine_ls_number_reflns         1018
_refine_ls_number_restraints     0
_refine_ls_restrained_S_all      0.975
_refine_ls_R_factor_all          0.0564
_refine_ls_R_factor_gt           0.0346
_refine_ls_shift/su_max          0.025
_refine_ls_shift/su_mean         0.007
_refine_ls_structure_factor_coef Fsqd
_refine_ls_weighting_details
'w=1/[\s^2^(Fo^2^)+(0.0177P)^2^+1.5654P] where P=(Fo^2^+2Fc^2^)/3'
_refine_ls_weighting_scheme      calc
_refine_ls_wR_factor_gt          0.0591
_refine_ls_wR_factor_ref         0.0683
_reflns_Friedel_coverage         0.000
_reflns_number_gt                761
_reflns_number_total             1018
_reflns_threshold_expression     'I > 2\s(I)'
_cod_data_source_file            ic6b01901_si_003.cif
_cod_data_source_block           shelx
_cod_original_cell_volume        748.17(5)
_cod_database_code               4349117
_shelx_space_group_comment
;
The symmetry employed for this shelxl refinement is uniquely defined
by the following loop, which should always be used as a source of
symmetry information in preference to the above space-group names.
They are only intended as comments.
;
_shelx_estimated_absorpt_t_min   0.733
_shelx_estimated_absorpt_t_max   0.843
_shelxl_version_number           2014-1
_shelx_res_file
;
TITL ja1419 in Pnc2
CELL  0.71073    7.264595    6.972648  14.770313  90.0000    90.0000    90.0000
zerr 2    0.000213  0.000271   0.000537       0.0000     0.0000     0.0000
LATT   1
SYMM  1/2 - X, - Y, 1/2 + Z
SYMM    X, - Y, - Z
SYMM  1/2 - X,   Y, 1/2 - Z
SFAC  C    H    N    F    FE   PD
UNIT  24   12   16   4    2    2
MERG   2
omit -3 180
acta 50
bond
bond $H
size 0.08 0.08 0.15
FMAP   2
PLAN   25
L.S.   4
WGHT    0.017700    1.565400
FVAR       4.63398
PD    6    0.500000    0.000000    0.500000    10.25000    0.00488    0.00444 =
         0.00991    0.00014    0.00000    0.00000
FE    5    0.000000   -0.500000    0.500000    10.25000    0.00470    0.00421 =
         0.01082    0.00134    0.00000    0.00000
N1    3    0.000000   -0.580593    0.629057    10.50000    0.00449    0.01018 =
         0.01227    0.00058    0.00000    0.00000
N2    3    0.190080   -0.309968    0.522584    11.00000    0.00878    0.00744 =
         0.01052    0.00007   -0.00171    0.00246
N3    3    0.000000   -0.695193    0.810518    10.50000    0.03150    0.02960 =
         0.01188    0.00588    0.00000    0.00000
C1    1    0.000000   -0.767522    0.652437    10.50000    0.01441    0.01516 =
         0.01338   -0.00093    0.00000    0.00000
AFIX  43
H1    2    0.000000   -0.862571    0.608265    10.50000   -1.20000
AFIX   0
C2    1    0.000000   -0.815526    0.743727    10.50000    0.02425    0.01612 =
         0.01721    0.01083    0.00000    0.00000
C3    1    0.000000   -0.509808    0.786813    10.50000    0.02177    0.02272 =
         0.01756   -0.00126    0.00000    0.00000
AFIX  43
H3    2    0.000000   -0.416943    0.832009    10.50000   -1.20000
AFIX   0
C4    1    0.000000   -0.452383    0.697602    10.50000    0.01529    0.00803 =
         0.01621   -0.00353    0.00000    0.00000
AFIX  43
H4    2    0.000000   -0.322052    0.684220    10.50000   -1.20000
AFIX   0
C5    1    0.304702   -0.197405    0.519781    11.00000    0.00962    0.01091 =
         0.01082    0.00034   -0.00093    0.00424
F     4    0.000000   -1.005005    0.763995    10.50000    0.07750    0.01501 =
         0.01937    0.00973    0.00000    0.00000
HKLF    4

REM  ja1419 in Pnc2
REM R1 =  0.0346 for     761 Fo > 4sig(Fo)  and  0.0564 for all    1018 data
REM     69 parameters refined using      0 restraints

END

WGHT      0.0153      0.3988

REM Highest difference peak  0.645,  deepest hole -0.537,  1-sigma level  0.125
Q1    1   0.0000 -0.9873  0.8132  10.50000  0.05    0.64
Q2    1   0.0000 -0.6687  0.6516  10.50000  0.05    0.46
Q3    1   0.1825 -0.3795  0.4971  11.00000  0.05    0.46
Q4    1   0.1910 -0.4332  0.4324  11.00000  0.05    0.44
Q5    1  -0.0782 -0.4582  0.8567  11.00000  0.05    0.43
Q6    1   0.5000 -0.2866  0.4994  10.50000  0.05    0.41
Q7    1   0.3260 -0.2838  0.4983  11.00000  0.05    0.41
Q8    1   0.0000 -0.7571  0.8468  10.50000  0.05    0.40
Q9    1   0.4163 -0.1732  0.4998  11.00000  0.05    0.39
Q10   1   0.0000 -0.1803  0.5717  10.50000  0.05    0.39
Q11   1   0.0000 -1.1351  0.7842  10.50000  0.05    0.38
Q12   1  -0.0618 -0.9919  0.7122  11.00000  0.05    0.38
Q13   1   0.0000 -0.5825  0.5903  10.50000  0.05    0.37
Q14   1   0.0000 -0.3219  0.8533  10.50000  0.05    0.37
Q15   1  -0.1652 -0.5550  0.8901  11.00000  0.05    0.37
Q16   1  -0.1933 -0.6972  0.7775  11.00000  0.05    0.36
Q17   1  -0.1450 -0.9879  0.7623  11.00000  0.05    0.36
Q18   1   0.0000 -0.4385  0.9030  10.50000  0.05    0.36
Q19   1   0.0000 -1.0104  0.8716  10.50000  0.05    0.36
Q20   1   0.2187 -0.1967  0.5295  11.00000  0.05    0.36
Q21   1   0.0000 -0.7758  0.6260  10.50000  0.05    0.35
Q22   1  -0.2243 -0.8982  0.7135  11.00000  0.05    0.35
Q23   1  -0.2112 -0.4854  0.8493  11.00000  0.05    0.35
Q24   1  -0.2013 -1.1197  0.7071  11.00000  0.05    0.35
Q25   1   0.5000 -0.0922  0.5843  10.50000  0.05    0.35
;
_shelx_res_checksum              22469
_shelx_hkl_file
;
   9   0   0-543.946 867.891   4
   8   0   0 83281.2 6071.24   4
   7   0   0 450.022 636.908   4
   6   0   0 392977. 10833.1   4
   5   0   0 1090.23 585.122   4
   4   0   0 734592. 11647.3   4
   3   0   0 35.6164 378.681   4
   2   0   0 962953. 9307.15   4
   2   0   0 987266. 9645.89   1
  -2   0   0 999999. 7783.08   3
  -2   0   0 956959. 9783.00   1
  -3   0   0 176.549 267.517   3
  -3   0   0 30.1513 346.404   1
  -4   0   0 712283. 11990.7   1
  -5   0   0 506.419 636.715   1
  -6   0   0 394898. 11200.8   1
  -6   0   0 406136. 7613.06   5
  -7   0   0 662.449 602.125   5
  -7   0   0 476.921 788.748   1
  -8   0   0 76215.7 6048.23   1
  -9   0   0 473.099 969.093   1
   9   0   1 2215.38 1334.42   4
   9   0  -1 4397.27 1603.88   4
   8   0   1-207.353 757.295   4
   8   0  -1-401.670 727.824   4
   7   0   1 3696.18 1293.86   4
   7   0  -1 4823.81 1446.68   4
   6   0   1 916.256 670.729   4
   6   0  -1 1389.71 805.844   4
   5   0  -1 2039.51 858.258   4
   5   0   1 1948.73 847.887   4
   4   0   1 437.721 474.262   4
   4   0  -1 26.3256 433.732   4
   3   0   1 10650.3 1236.58   4
   3   0  -1 12293.1 1335.85   4
   2   0  -1 331.852 335.014   4
   2   0   1-43.0855 325.620   4
   2   0   1 18.6035 265.813   1
   2   0  -1-53.8722 278.070   1
   2   0   1-21.6887 164.334   3
   1   0   1 1734.05 335.770   1
   1   0   1 1791.74 307.674   4
   1   0  -1 1894.22 336.203   4
   1   0   1 1790.94 228.744   5
   1   0  -1 1626.92 347.617   1
  -1   0   1 1784.51 366.200   1
  -1   0  -1 1620.29 325.537   1
  -2   0  -1 73.5924 265.569   1
  -2   0  -1 42.7869 166.201   3
  -2   0   1-407.165 330.354   1
  -2   0  -1-73.1483 161.596   5
  -3   0  -1 12918.5 929.046   5
  -3   0  -1 11202.6 926.426   3
  -3   0   1 12263.5 1159.28   3
  -3   0   1 12461.6 1410.15   1
  -3   0  -1 12768.5 1392.07   1
  -4   0  -1 29.0868 219.786   5
  -4   0  -1-276.164 440.042   1
  -4   0   1 268.485 394.416   1
  -4   0  -1 318.365 285.429   3
  -5   0  -1 1623.75 771.593   1
  -5   0  -1 2398.16 556.852   5
  -5   0   1 1829.57 832.637   1
  -6   0   1 551.425 665.598   1
  -6   0  -1 85.1334 345.356   5
  -6   0  -1 631.685 615.678   1
  -7   0  -1 2397.15 1139.20   1
  -7   0   1 3147.71 1278.57   1
  -8   0   1-203.426 680.423   1
  -8   0  -1 1944.72 1120.81   1
  -9   0  -1 2213.62 1360.33   1
  -9   0   1 4430.27 1692.67   1
   9   0   2 1197.41 944.460   4
   9   0  -2 1299.61 1025.34   4
   8   0   2 14384.1 2657.70   4
   8   0  -2 6439.96 1781.90   4
   7   0  -2 847.108 883.555   4
   7   0   2-656.086 750.150   4
   6   0   2 83615.9 5024.38   4
   6   0  -2 83644.4 5064.54   4
   5   0   2 1430.91 685.949   4
   5   0  -2-193.753 505.851   4
   4   0   2 49058.8 3038.14   4
   4   0  -2 46104.6 2949.51   4
   3   0   2-40.7077 361.918   4
   3   0  -2-1.33368 314.287   4
   3   0   2 236.749 228.100   3
   2   0   2 21106.2 971.639   5
   2   0  -2 20107.8 1364.44   4
   2   0   2 21988.2 1411.79   4
   2   0   2 19666.0 873.104   3
   2   0  -2 22442.3 1627.59   1
   2   0   2 21156.4 1490.06   1
   1   0  -2 89.4655 194.513   4
   1   0   2 50.3925 170.968   4
   1   0  -2 19.0954 223.631   1
  -1   0   2-51.3809 239.903   1
  -1   0   2-143.509 257.980   2
  -2   0   2 21883.2 1581.95   1
  -2   0  -2 20676.0 1454.86   1
  -3   0   2 1.51165 366.906   1
  -3   0  -2 125.095 187.000   5
  -3   0  -2 185.482 380.569   1
  -4   0  -2 50175.4 2047.55   5
  -4   0  -2 49290.5 3124.51   1
  -4   0   2 48156.9 3180.08   1
  -5   0  -2-335.342 277.396   5
  -5   0   2-501.519 521.644   1
  -5   0  -2-163.747 405.144   1
  -6   0   2 73631.6 4975.20   1
  -6   0  -2 80629.0 5075.09   1
  -6   0  -2 83775.1 3232.03   5
  -7   0  -2 553.902 773.047   1
  -7   0   2-667.722 806.920   1
  -8   0  -2 10981.0 2366.51   1
  -8   0   2 6886.58 1914.56   1
  -9   0  -2-1153.95 1069.60   1
  -9   0   2-320.085 447.504   1
   9   0  -3 10513.2 2488.46   4
   9   0   3 14961.3 2909.63   4
   8   0  -3-538.816 811.726   4
   8   0   3 718.126 961.667   4
   7   0  -3 12778.9 2249.66   4
   7   0   3 16260.5 2492.32   4
   6   0   3 434.189 549.939   4
   6   0  -3 353.996 596.610   4
   5   0  -3 19048.2 2221.74   4
   5   0   3 20166.7 2237.05   4
   4   0   3 149.412 308.669   4
   4   0   3-77.9454 169.304   3
   4   0  -3 584.861 442.306   4
   3   0  -3 43020.6 2474.27   4
   3   0   3 48420.3 2574.26   4
   3   0   3 44870.9 1737.41   5
   3   0   3 43257.7 1604.18   3
   2   0   3-320.909 288.672   1
   2   0  -3 103.375 250.419   4
   2   0   3 53.4208 228.058   4
   2   0  -3 96.1567 352.291   1
   1   0  -3 42743.6 1390.50   4
   1   0   3 42782.3 1357.52   4
   0   0   3 80.2532 237.403   2
   0   0  -3-109.180 251.131   2
  -1   0   3 44941.4 2030.67   2
  -1   0   3 41253.0 1930.82   1
  -2   0   3-18.6126 310.025   1
  -2   0   3 283.945 316.482   2
  -3   0   3 47642.2 2836.21   1
  -3   0  -3 45833.8 2627.13   1
  -4   0  -3-153.090 329.874   1
  -4   0   3 389.503 429.109   1
  -5   0  -3 19504.9 2262.93   1
  -5   0   3 15603.8 2114.21   1
  -6   0   3 201.693 694.187   1
  -6   0  -3 479.024 603.419   1
  -7   0   3 10651.6 2153.58   1
  -7   0  -3 13517.7 2367.41   1
  -8   0  -3 917.828 964.063   1
  -8   0   3 671.663 956.280   1
  -9   0   3 17782.6 3288.15   1
  -9   0  -3 14484.1 2930.91   1
   9   0   4-1829.81 1161.80   4
   9   0  -4 500.448 808.276   4
   8   0  -4 27670.9 3609.22   4
   8   0   4 26758.5 3477.80   4
   7   0  -4 1310.41 894.807   4
   7   0   4 945.691 772.655   4
   6   0   4 152082. 6796.51   4
   6   0  -4 160931. 7054.68   4
   5   0  -4 400.003 527.405   4
   5   0   4 282.186 420.610   4
   4   0   4 211553. 4117.00   3
   4   0  -4 233212. 6670.43   4
   4   0   4 217015. 6383.30   4
   3   0  -4 25.0942 355.353   4
   3   0   4 74.0109 167.547   3
   3   0   4 32.3994 163.774   5
   3   0   4 279.846 285.763   4
   2   0   4 156212. 4374.65   1
   2   0   4 149033. 3658.17   4
   2   0  -4 157630. 3793.73   4
   1   0  -4 0.53710 331.872   2
   1   0   4 138.414 176.740   4
   1   0  -4 78.0193 168.837   4
   0   0  -4 982204. 9561.06   2
   0   0   4 996190. 9583.45   2
  -1   0   4 36.4868 308.404   2
  -1   0  -4-6.40509 284.822   2
  -2   0   4 147182. 4532.74   1
  -3   0   4 150.667 490.261   1
  -4   0   4 209768. 6907.56   1
  -5   0   4-909.734 638.585   1
  -5   0  -4-258.799 496.892   1
  -6   0   4 154715. 7331.19   1
  -6   0  -4 147322. 6957.19   1
  -7   0  -4-1120.70 816.634   1
  -7   0   4-251.222 700.409   1
  -8   0   4 34134.7 4068.58   1
  -9   0   4 992.967 1062.51   1
   9   0   5 11026.7 2480.59   4
   9   0  -5 11077.1 2520.27   4
   8   0   5-346.781 744.836   4
   8   0  -5 652.442 912.793   4
   7   0  -5 16905.1 2583.54   4
   7   0   5 13966.4 2361.03   4
   6   0  -5-4.59978 513.485   4
   6   0   5 1547.32 807.986   4
   5   0  -5 23952.5 2472.12   4
   5   0   5 24230.5 2458.07   4
   4   0   5 401.390 411.775   4
   4   0  -5 5.63583 430.289   4
   4   0   5 115.672 250.175   5
   4   0   5-43.2981 183.749   3
   3   0  -5 70402.1 3162.84   4
   3   0   5 66704.3 3034.39   4
   2   0   5-317.530 272.903   4
   2   0  -5 201.953 269.864   4
   1   0  -5 93458.7 3591.35   2
   1   0   5 91295.2 1958.62   4
   1   0  -5 92671.8 2032.21   4
   0   0  -5 16.0074 361.661   2
   0   0   5-36.9050 271.566   2
  -1   0  -5 91475.7 3180.42   2
  -2   0   5 147.822 406.958   1
  -3   0   5 70910.3 3748.89   1
  -4   0   5 711.649 548.177   1
  -5   0   5 23184.6 2648.95   1
  -6   0   5 526.371 646.207   1
  -7   0   5 14619.3 2588.38   1
  -8   0   5 364.814 802.582   1
  -9   0   5 9146.01 2443.69   1
   9   0  -6 941.820 997.712   4
   9   0   6-684.567 1165.76   4
   8   0   6 39366.6 4251.00   4
   8   0  -6 34343.7 4038.79   4
   7   0  -6-399.829 601.883   4
   7   0   6-546.974 812.286   4
   6   0  -6 138096. 6600.09   4
   6   0   6 140780. 6594.52   4
   5   0   6 274.822 256.251   3
   5   0  -6 424.994 655.418   4
   5   0   6 777.657 542.621   4
   4   0   6 165478. 5594.97   4
   4   0   6 161674. 3393.26   3
   4   0  -6 163726. 5655.70   4
   3   0  -6 163.368 302.870   4
   3   0   6 360.234 348.807   4
   2   0  -6 106406. 3150.95   4
   2   0   6 106365. 3102.29   4
   1   0  -6 366.335 395.909   2
   1   0  -6 58.0197 142.986   4
   1   0   6 278.177 160.676   4
   0   0  -6 490616. 8424.36   2
  -1   0  -6-91.8305 366.460   2
  -2   0   6 106812. 4384.70   1
  -2   0  -6 108280. 3672.57   2
  -3   0   6 516.021 504.266   1
  -4   0   6 166027. 6519.05   1
  -5   0   6 95.5430 551.348   1
  -6   0   6 137209. 7134.88   1
  -7   0   6-116.305 565.420   1
  -8   0   6 42668.0 4757.69   1
   9   0   7 3158.07 1581.36   4
   9   0  -7 1864.43 1377.54   4
   8   0  -7 1050.78 1060.84   4
   8   0   7-466.710 901.051   4
   7   0   7-1022.84 957.482   4
   7   0  -7 1476.80 913.015   4
   6   0  -7 208.376 533.873   4
   6   0   7 886.643 728.523   4
   5   0   7 676.986 554.189   4
   5   0   7 553.897 277.261   3
   5   0  -7-515.824 648.756   4
   4   0   7 351.717 379.810   4
   4   0  -7 986.576 535.817   4
   3   0  -7 454.995 402.387   4
   3   0   7 140.734 298.280   4
   2   0  -7 81.0405 222.665   4
   2   0   7 256.643 224.101   4
   1   0  -7 3825.01 907.091   2
   1   0   7 4593.14 422.129   4
   0   0  -7 180.011 337.048   2
  -1   0  -7 3174.10 802.471   2
  -2   0   7 290.713 508.416   1
  -2   0  -7 283.164 346.384   2
  -3   0  -7 88.7073 223.798   2
  -3   0   7 1010.47 666.535   1
  -4   0   7 770.884 763.031   1
  -5   0   7-638.398 640.929   1
  -6   0   7 516.246 753.320   1
  -7   0   7 703.331 698.965   1
  -8   0   7 120.496 840.899   1
   9   0  -8 2401.26 1410.00   4
   9   0   8-1283.18 1070.44   4
   8   0  -8 43404.0 4485.96   4
   8   0   8 41149.8 4344.95   4
   7   0  -8-57.0429 450.117   4
   7   0   8 1404.10 917.522   4
   6   0  -8 121169. 6216.22   4
   6   0   8 110175. 5908.68   4
   5   0  -8 644.970 494.519   4
   5   0   8 332.316 495.514   4
   4   0   8 157737. 5524.26   4
   4   0  -8 163790. 5673.96   4
   3   0   8 602.110 365.121   4
   3   0  -8 371.924 394.712   4
   2   0  -8 151876. 3659.67   4
   2   0   8 151539. 3592.77   4
   1   0  -8 267.808 397.570   2
   0   0  -8 367461. 8537.59   2
  -1   0  -8-309.046 433.151   2
  -2   0   8 158154. 5958.79   1
  -2   0  -8 156795. 5266.77   2
  -3   0  -8 735.687 442.469   2
  -3   0   8-160.888 467.661   1
  -4   0   8 159448. 6917.71   1
  -4   0  -8 151578. 5045.91   2
  -5   0   8 957.561 716.515   1
  -5   0  -8-215.274 327.532   2
  -6   0   8 115442. 6854.43   1
  -7   0   8-1469.90 1029.09   1
  -8   0   8 35170.0 4536.93   1
   9   0   9 5275.43 1737.71   4
   8   0   9 967.259 1013.57   4
   8   0  -9 145.907 684.918   4
   7   0  -9 6056.24 1692.02   4
   7   0   9 9187.25 1945.81   4
   6   0  -9 1123.03 787.454   4
   6   0   9 1002.44 574.980   4
   5   0   9 11657.1 1750.02   4
   5   0  -9 15454.9 2030.94   4
   4   0  -9 681.639 616.108   4
   4   0   9-370.421 420.888   4
   3   0   9 15813.2 1492.77   4
   3   0  -9 19367.5 1670.42   4
   2   0   9 180.604 207.315   4
   2   0  -9 138.997 210.382   4
   1   0  -9 29341.6 2693.55   2
   0   0  -9 15.5601 375.624   2
  -1   0  -9 29226.8 2512.18   2
  -2   0   9 489.869 560.881   1
  -2   0  -9 1041.98 548.799   2
  -3   0   9 18811.0 2336.46   1
  -3   0  -9 16246.0 1852.60   2
  -4   0   9-220.016 458.104   1
  -4   0  -9 79.0499 432.160   2
  -5   0  -9 13130.7 1605.70   2
  -5   0   9 14966.7 2398.76   1
  -6   0   9-495.568 693.694   1
  -7   0   9 11537.0 2426.19   1
  -8   0   9-179.263 976.944   1
   8   0  10 41207.1 4435.64   4
   8   0 -10 36290.2 4171.98   4
   7   0  10-500.997 811.755   4
   7   0 -10 128.027 550.365   4
   6   0 -10 73035.4 4805.70   4
   6   0  10 75876.2 4915.05   4
   5   0  10 947.764 646.614   4
   5   0 -10-621.996 602.785   4
   4   0  10 104654. 4440.62   4
   4   0 -10 97876.7 4369.00   4
   3   0  10 222.673 271.431   4
   3   0 -10-367.223 347.756   4
   1   0 -10 15.7351 553.526   2
   0   0 -10 148833. 6176.44   2
  -1   0 -10 635.670 511.194   2
  -2   0  10 86399.5 4902.09   1
  -2   0 -10 96912.7 4723.76   2
  -3   0 -10 378.033 523.130   2
  -3   0  10 867.774 683.816   1
  -4   0 -10 98822.0 4683.01   2
  -4   0  10 94631.0 5748.57   1
  -5   0 -10 416.588 472.850   2
  -5   0  10 145.990 523.082   1
  -6   0  10 67819.8 5548.63   1
  -7   0  10 87.6249 502.193   1
  -8   0  10 36634.3 4817.88   1
   7   0 -11 12467.4 2280.19   4
   6   0 -11-209.287 593.902   4
   6   0  11 528.311 676.333   4
   5   0  11 15923.8 2022.08   4
   5   0 -11 13354.8 1897.03   4
   4   0 -11 287.777 431.221   4
   4   0  11-730.576 456.838   4
   3   0 -11 11570.7 1285.27   4
   3   0  11 9698.81 1134.20   4
   1   0 -11 15693.0 2211.77   2
   0   0 -11 163.358 640.312   2
  -1   0 -11 16453.9 2144.58   2
  -2   0  11-255.791 515.001   1
  -2   0 -11 402.173 513.857   2
  -3   0  11 9143.01 1801.09   1
  -3   0 -11 11058.0 1723.04   2
  -4   0  11 716.498 716.753   1
  -4   0 -11 1405.29 723.434   2
  -5   0  11 17968.5 2784.57   1
  -5   0 -11 11751.2 1761.49   2
  -6   0  11 1201.57 912.184   1
  -7   0  11 7307.28 2233.43   1
   0   0 -12 92056.3 5421.42   2
  -1   0 -12 313.069 613.243   2
  -2   0 -12 87512.9 5046.76   2
  -2   0  12 89574.1 5422.71   1
  -3   0 -12 935.411 650.339   2
  -3   0  12-445.991 519.335   1
  -4   0 -12 69334.6 4363.80   2
  -4   0  12 66211.0 5217.08   1
  -5   0  12 436.404 655.126   1
  -6   0  12 45225.2 4825.04   1
  -7   0  12 490.252 922.052   1
   0   0 -13 634.042 736.795   2
  -1   0 -13 13565.7 2182.79   2
  -2   0  13 1411.65 824.704   1
  -2   0 -13 749.610 731.562   2
  -3   0 -13 7484.28 1580.55   2
  -3   0  13 5486.90 1554.45   1
  -4   0  13 692.753 744.368   1
  -4   0 -13-68.3840 480.188   2
  -5   0  13 8368.33 2137.07   1
  -6   0  13-71.7215 907.340   1
  -7   0  13 3828.82 1599.32   1
   0   0 -14 66677.2 5063.63   2
  -1   0 -14 1073.03 775.768   2
  -2   0  14 89308.1 5851.93   1
  -2   0 -14 88005.9 5642.86   2
  -3   0  14 1079.63 878.565   1
  -3   0 -14 820.621 706.601   2
  -4   0  14 59652.1 5268.15   1
  -4   0 -14 66314.9 4737.15   2
  -5   0  14-474.273 833.913   1
  -6   0  14 41475.9 4869.10   1
  -1   0 -15 4841.92 1422.88   2
  -2   0 -15-949.313 836.720   2
  -2   0  15 233.740 680.391   1
  -3   0  15 1820.43 1106.19   1
  -3   0 -15 2961.71 1160.22   2
  -4   0  15 264.442 716.771   1
  -4   0 -15-1477.39 996.789   2
  -5   0  15 3033.66 1486.77   1
  -6   0  15 1305.79 1251.19   1
  -1   0 -16 800.764 991.858   2
  -2   0 -16 94696.8 6334.35   2
  -2   0  16 95886.7 6456.74   1
  -3   0 -16-1107.20 981.612   2
  -3   0  16-944.637 880.610   1
  -4   0  16 55882.2 5400.14   1
  -5   0  16 1968.40 1187.51   1
  -2   0 -17 435.701 837.866   2
  -2   0  17-373.426 762.551   1
  -3   0 -17 4265.04 1522.51   2
  -3   0  17 7193.58 2006.30   1
  -4   0  17-783.502 1027.50   1
  -5   0  17 6844.19 2182.54   1
  -2   0  18 33381.1 4013.15   1
  -3   0  18-2306.78 1298.79   1
  -4   0  18 17519.3 3197.13   1
  -1   0  19 4389.29 1580.37   1
  -2   0  19 2768.78 1356.77   1
  -3   0  19 4912.67 1708.95   1
   9  -1   0-473.793 897.088   4
   9   1   0 276.703 870.435   4
   8   1   0 3576.10 1317.88   4
   8  -1   0 2860.05 1363.99   4
   7  -1   0-53.9069 587.813   4
   7   1   0-315.291 567.891   4
   6   1   0 1495.60 813.283   4
   6  -1   0-202.507 574.964   4
   5  -1   0 134.653 515.317   4
   5   1   0 765.984 697.656   4
   4  -1   0 2824.92 836.570   4
   4   1   0 1247.91 502.423   3
   3  -1   0 308.185 423.823   4
   3   1   0-97.1611 294.017   3
   2  -1   0 2500.42 640.023   1
   2   1   0 2519.92 496.718   3
   2  -1   0 2783.56 615.415   4
   2   1   0 3202.38 590.812   1
   1   1   0-50.3418 188.395   3
   1  -1   0 235.722 294.462   1
   0  -1   0-14.2593 120.978   5
   0   1   0 89.0346 141.271   5
  -1   1   0 112.694 246.005   1
  -1  -1   0 22.8929 192.525   1
  -2   1   0 2096.55 607.274   1
  -2   1   0 2339.71 575.135   4
  -2  -1   0 2901.71 503.485   3
  -2  -1   0 3315.49 629.070   1
  -2  -1   0 3045.37 341.509   2
  -3   1   0 334.282 372.756   1
  -3  -1   0 60.4254 284.919   1
  -3  -1   0 93.1748 167.382   2
  -4   1   0 2214.87 817.096   1
  -4   1   0 2349.02 550.901   3
  -4  -1   0 2342.95 479.360   2
  -4  -1   0 2710.92 814.443   1
  -5   1   0 477.832 616.677   1
  -5  -1   0 536.984 357.099   2
  -5   1   0-81.2260 287.567   5
  -5  -1   0 67.2738 453.574   1
  -6   1   0 1720.58 652.274   5
  -6   1   0 2174.33 959.207   1
  -6  -1   0 1341.01 727.144   1
  -7   1   0-357.121 504.790   5
  -7  -1   0-534.292 710.883   1
  -8  -1   0 3453.75 1412.95   1
  -8   1   0 1272.66 1014.01   1
  -9  -1   0 1530.70 1205.38   1
  -9   1   0 1109.39 1200.42   1
   9  -1  -1 57345.5 5551.35   4
   9   1   1 63804.2 5761.01   4
   9   1  -1 58984.5 5557.52   4
   9  -1   1 60273.9 5737.85   4
   8   1  -1 3423.60 1352.44   4
   8  -1   1 3890.30 1457.46   4
   8   1   1 2411.27 1203.44   4
   8  -1  -1 2920.76 1286.85   4
   7  -1  -1 75231.9 5359.19   4
   7   1   1 84110.6 5488.24   4
   7   1  -1 91798.1 5739.85   4
   7  -1   1 99968.3 6153.27   4
   6  -1   1 3556.32 1165.74   4
   6   1  -1 3464.96 1103.01   4
   6  -1  -1 3312.52 1143.42   4
   6   1   1 4096.29 1169.28   4
   5   1   1 213602. 7032.46   4
   5  -1   1 213375. 7349.60   4
   5   1  -1 228158. 7260.56   4
   5  -1  -1 207614. 7271.76   4
   4  -1   1 15836.1 1809.00   4
   4   1   1 14814.2 1431.91   3
   4  -1  -1 17889.1 1943.04   4
   3  -1  -1 207381. 5531.27   4
   3   1  -1 202956. 5026.64   3
   3   1   1 203948. 4577.08   3
   3  -1   1 208670. 5537.53   4
   2   1  -1 63400.7 1939.55   2
   2   1  -1 61620.6 2409.66   3
   2  -1  -1 66416.4 2710.56   1
   2  -1  -1 68636.7 2677.65   4
   2   1   1 61281.6 2121.77   3
   2  -1   1 62412.4 2742.05   1
   2   1   1 64330.7 2339.17   1
   2   1  -1 64302.9 2652.64   1
   2  -1   1 68384.5 2659.44   4
   1  -1  -1 523329. 5719.38   1
   1   1  -1 514517. 5595.61   3
   1  -1   1 526023. 5580.95   5
   1   1   1 517641. 4329.84   1
   0   1  -1 52585.6 1321.28   3
  -1   1   1 517616. 5650.35   1
  -1  -1  -1 520601. 4253.17   1
  -1  -1   1 517601. 5565.22   3
  -1   1  -1 512650. 5455.28   5
  -2  -1  -1 63093.3 2316.01   1
  -2   1  -1 63393.3 2573.82   4
  -2   1   1 61954.0 2544.40   4
  -2  -1   1 67698.0 2458.25   3
  -2   1  -1 64010.5 2750.06   1
  -2   1   1 63170.7 2691.82   1
  -2   1  -1 64107.7 2279.73   5
  -2  -1   1 64306.3 2593.06   1
  -2  -1   1 67638.4 1980.31   2
  -3   1  -1 198431. 5687.46   1
  -3  -1  -1 188849. 2600.01   2
  -3   1  -1 198025. 4515.84   5
  -3  -1   1 209563. 4029.95   2
  -3   1   1 197778. 5670.53   1
  -3  -1  -1 206559. 5291.72   1
  -3  -1   1 194374. 5347.37   1
  -3   1  -1 197880. 3471.02   3
  -4  -1  -1 14515.7 950.529   2
  -4   1  -1 16275.3 1903.57   1
  -4  -1  -1 15521.7 877.172   5
  -4   1  -1 15443.5 1192.57   3
  -4  -1  -1 14269.0 1688.50   1
  -4  -1   1 15325.0 1267.90   2
  -4  -1   1 15844.4 1787.66   1
  -4   1   1 16316.3 1938.14   1
  -4   1  -1 16609.3 1467.41   5
  -5  -1  -1 219919. 3896.75   5
  -5  -1   1 226419. 5401.84   2
  -5  -1  -1 217821. 7269.22   1
  -5   1  -1 219868. 5785.52   5
  -5  -1  -1 219940. 4328.57   2
  -5  -1   1 214562. 7384.73   1
  -5   1   1 231252. 7882.38   1
  -5   1  -1 221650. 7731.23   1
  -6   1   1 5409.63 1410.48   1
  -6   1  -1 2418.11 1051.01   1
  -6  -1  -1 4210.00 622.109   5
  -6   1  -1 4302.00 956.620   5
  -6  -1   1 4171.41 1235.22   1
  -6  -1  -1 6279.33 1510.75   1
  -7   1  -1 92449.4 4368.14   5
  -7   1   1 91376.4 4486.94   5
  -7  -1  -1 86184.4 5704.59   1
  -7   1  -1 85408.0 5957.67   1
  -7   1   1 79886.4 5735.83   1
  -7  -1   1 83946.4 5731.53   1
  -8  -1   1 4792.75 1598.91   1
  -8  -1  -1 1553.76 1013.27   1
  -8   1   1 4448.13 1597.21   1
  -8   1  -1 3926.11 1522.10   1
  -9   1   1 67715.3 6280.83   1
  -9   1  -1 65883.4 6140.23   1
  -9  -1   1 65624.2 5985.95   1
  -9  -1  -1 68926.3 5964.81   1
   9  -1  -2 1717.17 1174.95   4
   9  -1   2 67.9211 844.501   4
   9   1  -2 2739.48 1314.72   4
   9   1   2 3843.19 1583.36   4
   8  -1  -2 12247.7 2443.85   4
   8   1   2 10063.6 2223.38   4
   8  -1   2 10621.2 2325.34   4
   8   1  -2 11279.0 2327.43   4
   7   1   2 398.700 613.226   4
   7  -1   2-315.380 631.103   4
   7  -1  -2 194.869 604.836   4
   7   1  -2 1112.94 788.288   4
   6   1  -2 11729.1 1906.52   4
   6  -1  -2 13673.6 2145.74   4
   6   1   2 13846.2 2049.26   4
   6  -1   2 13985.9 2185.06   4
   5  -1   2 118.128 685.664   4
   5   1   2 942.111 452.101   3
   5   1  -2 300.943 427.973   4
   5   1   2 617.310 622.263   4
   5  -1  -2 574.265 540.252   4
   4   1   2 20718.0 1640.02   3
   4   1  -2 18469.5 1871.16   4
   4  -1  -2 16531.5 1846.83   4
   4  -1   2 15477.1 1803.05   4
   3   1   2 2218.01 502.387   3
   3  -1  -2 2113.25 642.678   4
   3   1   2 2300.08 602.113   1
   3  -1   2 2433.57 661.420   4
   2   1   2 27923.2 1496.72   1
   2   1  -2 28902.6 1568.10   2
   2  -1   2 28429.8 1733.07   4
   2  -1  -2 29149.7 1846.38   1
   2  -1   2 27982.6 1915.93   1
   2   1  -2 26878.8 1701.36   3
   2  -1  -2 27921.9 1727.79   4
   2  -1   2 28967.9 1551.18   5
   1   1  -2 3543.19 566.022   2
   1   1   2 2757.52 319.900   1
   1  -1  -2 2407.96 442.832   1
   1   1  -2 3292.39 569.484   3
   0   1  -2 22627.6 1022.49   3
   0  -1   2 24157.4 1031.61   3
  -1   1   2 2571.15 478.513   4
  -1  -1  -2 2593.90 321.169   1
  -1   1   2 2916.62 490.166   1
  -1  -1   2 2402.30 496.520   3
  -1   1  -2 2449.77 460.489   4
  -2  -1   2 31638.1 1617.12   2
  -2  -1  -2 28606.5 1523.03   1
  -2  -1   2 28223.3 1847.62   1
  -2   1  -2 27217.6 1688.02   4
  -2  -1   2 26972.3 1721.04   3
  -2   1   2 29536.8 1776.52   4
  -2   1   2 29276.6 1857.10   1
  -3   1  -2 3054.89 370.018   3
  -3   1  -2 2827.92 767.595   1
  -3  -1   2 2311.40 532.367   2
  -3  -1   2 3844.76 847.678   1
  -3   1   2 2530.29 725.223   1
  -3  -1  -2 2924.93 705.555   1
  -3   1  -2 2705.41 596.714   5
  -4   1  -2 19579.7 1129.85   3
  -4   1  -2 19866.7 1585.87   5
  -4  -1   2 19082.5 1553.74   2
  -4   1   2 19014.8 2108.36   1
  -4   1  -2 17094.0 1972.21   1
  -4  -1  -2 20441.6 1940.69   1
  -4  -1   2 17065.3 1900.31   1
  -5  -1   2 823.089 633.885   1
  -5   1  -2 518.126 402.316   5
  -5   1   2 436.073 543.993   1
  -5  -1  -2 699.760 543.630   1
  -5   1  -2 981.224 633.670   1
  -5   1  -2 287.271 258.101   3
  -6   1  -2 12472.2 2126.33   1
  -6   1  -2 12363.0 1464.35   5
  -6  -1  -2 13663.7 2070.73   1
  -6   1   2 13195.6 2147.35   1
  -6  -1   2 16487.2 2344.14   1
  -7   1   2-137.368 695.344   1
  -7   1  -2-276.665 697.521   1
  -7   1  -2 2597.02 810.162   5
  -7  -1   2 1388.54 932.550   1
  -7  -1  -2 327.763 672.083   1
  -8  -1  -2 10632.4 2246.87   1
  -8   1   2 9729.00 2306.75   1
  -8   1   2 11912.6 1830.18   5
  -8   1  -2 9811.45 2314.89   1
  -8  -1   2 10630.2 2340.84   1
  -9   1  -2 186.835 928.412   1
  -9  -1   2 585.101 900.636   1
  -9   1   2 986.836 936.450   1
  -9  -1  -2-440.576 665.019   1
   9   1  -3 43629.5 4794.21   4
   9  -1   3 39781.4 4686.81   4
   9  -1  -3 39716.0 4661.15   4
   9   1   3 47977.8 5073.94   4
   8  -1   3 829.065 906.179   4
   8   1  -3 2128.02 1169.64   4
   8  -1  -3 2150.61 1070.47   4
   8   1   3 1789.67 1215.22   4
   7  -1   3 63596.0 4925.89   4
   7   1  -3 63418.4 4797.94   4
   7   1   3 63695.3 4828.26   4
   7  -1  -3 65469.4 4995.67   4
   6  -1   3 2193.96 1074.52   4
   6  -1  -3 1572.39 906.455   4
   6   1  -3 980.812 704.851   4
   6   1   3 1469.67 761.289   4
   5   1  -3 160139. 6178.85   4
   5   1   3 151727. 5963.13   4
   5   1   3 149208. 4749.43   3
   5  -1   3 159645. 6343.78   4
   5  -1  -3 157560. 6401.02   4
   4  -1   3-57.9877 351.739   4
   4   1   3 953.988 415.577   3
   4   1  -3 869.223 483.661   4
   4  -1  -3 238.626 382.498   4
   4   1   3 1456.90 612.700   4
   3  -1   3 124489. 3621.35   5
   3   1   3 127973. 3347.03   3
   3  -1  -3 130100. 4411.44   4
   3  -1   3 127004. 4332.14   4
   3   1   3 126435. 4072.52   1
   2   1  -3 3566.55 665.802   2
   2  -1  -3 3753.34 699.029   4
   2  -1   3 3608.48 675.893   4
   2  -1  -3 4681.10 783.400   1
   2  -1   3 3868.60 614.260   5
   2   1   3 4409.35 627.123   1
   1  -1  -3 309370. 4854.34   1
   1   1   3 304932. 3482.38   1
   1   1  -3 295899. 5255.81   2
   1   1   3 298930. 3931.97   2
   1  -1   3 296836. 2809.94   3
   0  -1   3 34116.7 1417.12   3
  -1   1   3 297913. 4549.35   4
  -1   1  -3 307264. 4492.25   4
  -1   1   3 303705. 4723.27   1
  -1  -1   3 314096. 5257.35   3
  -2   1   3 3619.57 671.965   4
  -2   1   3 3056.34 673.048   1
  -2  -1  -3 3243.67 336.354   2
  -2   1  -3 3239.56 611.390   4
  -2  -1   3 3456.01 661.166   2
  -2  -1  -3 5162.06 685.114   1
  -2  -1   3 3318.21 732.968   1
  -3  -1   3 122596. 3933.03   2
  -3   1   3 118558. 4523.98   1
  -3  -1  -3 123661. 3993.33   1
  -3  -1   3 129948. 4763.33   1
  -4  -1  -3 249.369 427.744   1
  -4  -1   3 379.425 408.376   1
  -4   1   3 921.823 539.134   1
  -5  -1   3 153401. 6390.78   1
  -5   1  -3 155985. 6586.02   1
  -5  -1  -3 150765. 5996.05   1
  -5   1   3 158031. 6700.23   1
  -6  -1   3 1657.59 912.250   1
  -6   1  -3 822.066 544.512   1
  -6  -1  -3 813.399 700.583   1
  -6   1   3 2323.78 1017.31   1
  -7   1   3 58698.3 4977.13   1
  -7   1  -3 55063.4 4786.35   1
  -7  -1   3 61966.9 5009.25   1
  -7  -1  -3 60971.6 4815.72   1
  -8   1   3 1180.09 883.687   1
  -8  -1  -3 563.838 839.182   1
  -8  -1   3 825.611 901.040   1
  -9  -1  -3 43190.4 4867.49   1
  -9   1   3 48894.2 5417.85   1
  -9  -1   3 43328.7 5000.87   1
   9   1   4-283.318 950.216   4
   9  -1  -4 123.616 650.827   4
   9  -1   4-1266.60 1027.11   4
   9   1  -4 894.630 977.049   4
   8  -1   4 11466.8 2333.53   4
   8  -1  -4 10391.3 2312.12   4
   8   1   4 10539.1 2197.16   4
   8   1  -4 12828.5 2405.33   4
   7   1  -4-26.9818 648.231   4
   7  -1   4 321.790 757.543   4
   7   1   4-405.801 656.739   4
   7  -1  -4-542.642 789.987   4
   6   1   4 16025.3 2233.72   4
   6  -1   4 17381.8 2377.45   4
   6  -1  -4 18839.8 2486.36   4
   6   1  -4 17255.0 2304.83   4
   6   1   4 19632.7 1857.34   3
   5  -1   4 597.609 547.933   4
   5   1  -4-405.449 505.264   4
   5  -1  -4 138.604 556.093   4
   5   1   4 470.327 347.982   3
   5   1   4-211.585 469.721   4
   4  -1   4 43148.4 2957.81   4
   4   1  -4 39260.8 2718.76   4
   4  -1  -4 36911.5 2741.29   4
   4   1   4 40806.4 2761.11   4
   4   1   4 40409.0 2149.41   3
   3  -1   4 3945.44 819.966   4
   3   1   4 2824.95 335.960   5
   3  -1  -4 3846.09 840.864   4
   2  -1  -4 77558.4 2926.16   4
   2   1  -4 79523.3 3256.74   2
   2   1   4 82689.3 2730.00   1
   2  -1   4 80203.7 2918.41   4
   1   1   4 2756.20 487.811   2
   1   1  -4 2480.54 611.517   2
   0   1   4 102361. 3201.50   2
  -1   1   4 3182.30 577.405   1
  -1   1   4 1794.82 383.375   4
  -1  -1   4 2111.55 571.652   3
  -1   1  -4 1906.87 393.733   4
  -2  -1   4 85752.9 3348.28   2
  -2   1  -4 83695.1 2890.24   4
  -2  -1  -4 83710.7 2183.36   2
  -2  -1   4 81709.7 3631.95   1
  -2   1   4 84421.3 2977.96   4
  -2   1   4 85616.7 3331.39   1
  -3   1   4 4158.86 915.975   1
  -3  -1   4 4676.53 1011.36   1
  -3  -1  -4 3272.14 410.031   2
  -4  -1   4 34756.2 2867.17   1
  -4   1   4 38596.1 3012.38   1
  -4  -1  -4 33428.3 1221.41   2
  -4  -1  -4 40676.5 2770.97   1
  -5   1   4-54.5174 530.675   1
  -5  -1  -4 705.508 498.016   1
  -5  -1   4 521.183 547.686   1
  -6  -1   4 19022.9 2594.80   1
  -6  -1  -4 15947.0 2293.56   1
  -6   1   4 19065.0 2639.65   1
  -7  -1   4 2024.14 1029.32   1
  -7  -1  -4 3.68656 248.238   1
  -7   1   4 1485.68 962.126   1
  -8   1   4 11937.7 2480.90   1
  -8  -1  -4 8814.14 2036.15   1
  -8  -1   4 8814.49 2279.35   1
  -9  -1   4 1453.76 1204.22   1
  -9   1   4-632.189 1125.58   1
   9  -1  -5 45563.0 5060.80   4
   9  -1   5 43837.1 4954.05   4
   9   1   5 46290.0 4937.37   4
   9   1  -5 52673.5 5312.67   4
   8  -1  -5 757.098 850.055   4
   8   1   5 2322.88 1214.33   4
   8  -1   5-778.058 869.002   4
   8   1  -5-147.624 640.773   4
   7  -1  -5 62895.2 4959.44   4
   7  -1   5 69098.1 5134.67   4
   7   1   5 63221.6 4802.51   4
   7   1  -5 72355.8 5204.17   4
   6   1  -5 4922.76 1323.95   4
   6   1   5 5137.21 1316.19   4
   6  -1  -5 4861.11 1376.56   4
   6  -1   5 6365.97 1481.95   4
   6   1   5 4021.55 873.186   3
   5   1  -5 141941. 5881.29   4
   5  -1  -5 140092. 6027.87   4
   5   1   5 144310. 4495.21   3
   5  -1   5 140471. 5965.89   4
   5   1   5 140735. 5799.23   4
   4   1  -5 2818.52 858.822   4
   4   1   5 2556.16 579.963   3
   4  -1  -5 2095.89 754.711   4
   4  -1   5 2024.64 740.725   4
   4   1   5 3267.28 842.031   4
   3  -1   5 134454. 4471.30   4
   3  -1  -5 130999. 4489.57   4
   2   1  -5 3254.98 788.533   2
   2   1   5 4285.32 695.578   1
   1   1   5 276192. 5210.09   2
   1   1  -5 269933. 6241.05   2
   0   1  -5 64571.8 2906.79   2
   0   1   5 68668.8 2919.30   2
  -1   1   5 278416. 5384.37   1
  -1   1   5 281181. 4332.10   4
  -1   1  -5 281456. 4166.82   4
  -2  -1  -5 3767.35 602.562   2
  -2   1  -5 4372.11 675.415   4
  -2   1   5 3823.59 675.215   4
  -2   1   5 4275.15 827.030   1
  -3  -1   5 131015. 5253.94   1
  -3   1   5 138597. 5102.35   1
  -3  -1  -5 133371. 3049.93   2
  -4  -1  -5 2187.48 392.427   2
  -4  -1   5 3874.56 1049.67   1
  -4   1   5 3090.60 920.809   1
  -5  -1  -5 127226. 2728.38   2
  -5  -1   5 142344. 6549.58   1
  -5   1   5 142110. 6535.74   1
  -6   1   5 4505.79 1434.07   1
  -6  -1   5 3950.40 1285.60   1
  -7  -1   5 61121.1 5132.06   1
  -7   1   5 63122.6 5284.06   1
  -8   1   5 289.387 926.878   1
  -8  -1   5 1811.06 1292.15   1
  -9   1   5 35032.5 4665.79   1
  -9  -1   5 41914.8 5046.70   1
   9   1   6 354.096 941.293   4
   9  -1  -6-1623.62 1213.42   4
   9   1  -6 921.170 985.585   4
   9  -1   6 1552.81 1187.70   4
   8   1   6 4361.45 1467.78   4
   8  -1  -6 3499.07 1475.34   4
   8   1  -6 5033.35 1629.60   4
   8  -1   6 5886.28 1761.91   4
   7  -1   6 2473.07 1087.90   4
   7   1   6 2567.02 1176.85   4
   7   1  -6 4200.18 1290.05   4
   7  -1  -6 2131.08 1103.82   4
   6  -1   6 4872.90 1311.49   4
   6  -1  -6 2382.12 1013.29   4
   6   1  -6 1523.40 874.534   4
   6   1   6 2105.37 876.557   4
   6   1   6 2627.22 676.427   3
   5   1  -6 6721.30 1374.77   4
   5   1   6 5654.97 931.916   3
   5  -1  -6 5761.00 1335.82   4
   5   1   6 5185.99 1163.53   4
   5  -1   6 6212.10 1330.46   4
   4   1   6 1028.92 265.034   5
   4  -1  -6 849.070 636.011   4
   4   1  -6 708.608 437.815   4
   4   1   6 360.975 525.596   4
   4  -1   6 1354.31 621.053   4
   3   1  -6 5863.11 950.833   4
   3  -1  -6 6811.51 1065.68   4
   3  -1   6 6142.92 1000.31   4
   2   1  -6 473.077 503.663   2
   2   1   6 333.499 271.695   1
   1   1  -6 20832.9 1904.58   2
   1   1   6 21859.1 1666.55   2
   0   1  -6 2353.78 711.567   2
  -1   1  -6 22753.0 1176.17   4
  -1   1   6 21838.1 1676.38   1
  -1   1   6 22844.3 1244.73   4
  -2   1   6 181.975 311.648   1
  -2  -1  -6 23.3105 305.741   2
  -2   1   6 15.8579 228.573   4
  -2   1  -6-134.767 212.455   4
  -3  -1  -6 5821.46 769.268   2
  -3  -1   6 5942.21 1235.72   1
  -3   1   6 4911.15 1032.09   1
  -4  -1  -6 631.841 298.095   2
  -4   1   6 829.553 631.659   1
  -4  -1   6 966.608 661.197   1
  -5   1   6 6448.38 1534.84   1
  -5  -1  -6 4903.46 637.626   2
  -5  -1   6 5383.61 1379.83   1
  -6  -1   6 1142.09 803.063   1
  -6   1   6 3876.88 1342.55   1
  -7   1   6 2403.21 1201.63   1
  -7  -1   6 2184.87 1151.95   1
  -8   1   6 1181.31 1070.49   1
  -8  -1   6 3719.80 1662.76   1
   9  -1  -7 54209.0 5568.29   4
   9   1  -7 45274.6 4973.39   4
   9   1   7 50947.6 5279.70   4
   9  -1   7 57141.8 5733.98   4
   8  -1  -7 3983.14 1499.46   4
   8   1  -7 4588.08 1546.75   4
   8   1   7 3401.19 1421.73   4
   8  -1   7 5277.51 1687.05   4
   7  -1   7 80446.2 5652.87   4
   7   1   7 77934.0 5420.06   4
   7   1  -7 71225.8 5209.10   4
   7  -1  -7 80769.5 5662.66   4
   6  -1   7 3650.49 1132.65   4
   6  -1  -7 1109.80 821.245   4
   6   1  -7 3686.03 1105.16   4
   6   1   7 3262.28 1099.65   4
   5   1   7 133785. 5706.85   4
   5   1   7 137007. 4290.12   3
   5  -1   7 143911. 6076.39   4
   5   1  -7 140352. 5905.24   4
   5  -1  -7 143859. 6144.31   4
   4  -1   7 843.600 500.717   4
   4   1   7 411.618 251.836   5
   4   1  -7 622.227 479.811   4
   4  -1  -7 642.783 502.998   4
   4   1   7-172.414 363.367   4
   3  -1   7 147069. 4730.66   4
   3  -1  -7 141387. 4739.29   4
   3   1   7 148791. 4552.59   4
   3   1  -7 152399. 4645.39   4
   2   1  -7 13831.4 1733.21   2
   1   1  -7 233309. 6665.99   2
   0   1  -7 37777.1 2652.85   2
  -1   1  -7 230909. 3617.52   4
  -1  -1  -7 232149. 5913.10   2
  -1   1  -7 231062. 6283.98   2
  -1   1   7 231165. 5848.05   1
  -1   1   7 229629. 3844.67   4
  -2   1   7 13206.2 1563.86   1
  -2   1  -7 14355.2 1185.61   4
  -2   1   7 11716.0 1105.45   4
  -2  -1  -7 11131.6 1250.42   2
  -3  -1   7 147321. 6118.18   1
  -3  -1  -7 149991. 4268.84   2
  -3   1   7 149244. 5703.69   1
  -4  -1  -7 374.701 287.805   2
  -4  -1   7 1095.89 707.238   1
  -4   1   7 595.876 540.061   1
  -5  -1   7 148333. 7088.65   1
  -5  -1  -7 136856. 3560.29   2
  -5   1   7 145151. 6832.06   1
  -6   1   7 2248.99 1079.55   1
  -6  -1   7 3311.03 1252.56   1
  -7   1   7 74417.3 5965.73   1
  -7  -1   7 79081.3 6034.48   1
  -8  -1   7 1782.50 1177.12   1
  -8   1   7 3700.98 1571.41   1
   9  -1   8-1083.12 1134.95   4
   9   1   8 954.581 1003.72   4
   8   1  -8 9678.94 2199.20   4
   8  -1  -8 8857.55 2181.92   4
   8  -1   8 4452.82 1660.55   4
   8   1   8 12165.4 2416.73   4
   7   1  -8-50.7210 421.917   4
   7  -1  -8 7.87612 620.932   4
   7   1   8 129.913 490.897   4
   7  -1   8-344.057 626.009   4
   6  -1  -8 10044.1 1886.77   4
   6  -1   8 16352.6 2308.19   4
   6   1  -8 12140.6 1987.58   4
   6   1   8 16109.5 2260.00   4
   5  -1   8 1083.26 611.150   4
   5  -1  -8 732.344 742.931   4
   5   1   8 579.853 575.707   4
   5   1   8 159.657 295.690   3
   5   1  -8 326.925 546.279   4
   4   1   8 24613.3 2210.74   4
   4  -1   8 26268.2 2344.57   4
   4  -1  -8 25815.4 2383.33   4
   4   1  -8 24518.4 2220.59   4
   3   1   8 3367.52 734.973   4
   3   1  -8 3374.68 745.977   4
   2   1  -8 46637.1 2113.48   4
   2   1  -8 44888.9 3283.66   2
   1   1  -8 1488.21 681.559   2
   0   1  -8 54352.3 3380.22   2
   0   1  -8 43369.0 1143.38   4
  -1   1   8 1278.53 517.562   1
  -1   1  -8 1229.46 281.755   4
  -1  -1  -8 588.915 485.773   2
  -1   1  -8 1158.12 547.191   2
  -1   1   8 1188.77 289.024   4
  -2  -1  -8 41809.3 2617.79   2
  -2   1  -8 44559.1 2020.81   4
  -2   1   8 42779.2 2924.21   1
  -2   1   8 43418.6 2082.63   4
  -3   1   8 2656.48 890.611   1
  -3  -1  -8 3763.12 786.181   2
  -3  -1   8 4440.24 1237.86   1
  -4  -1   8 23975.9 2796.48   1
  -4  -1  -8 26381.7 1874.28   2
  -4   1   8 24328.7 2678.69   1
  -5  -1   8 2394.92 1050.34   1
  -5   1   8 503.064 654.960   1
  -6   1   8 7974.93 1898.36   1
  -6  -1   8 13461.5 2477.73   1
  -7  -1   8 3501.21 1392.55   1
  -7   1   8 16.6709 610.964   1
  -8  -1   8 6881.16 2081.44   1
  -8   1   8 7660.36 2124.48   1
   8  -1  -9 6532.08 1875.50   4
   8   1  -9 8896.63 2061.00   4
   8   1   9 11528.2 2378.27   4
   8  -1   9 11807.3 2456.50   4
   7  -1  -9 65328.6 5192.07   4
   7  -1   9 64078.0 5065.51   4
   7   1  -9 63207.5 4930.77   4
   7   1   9 62080.0 4878.51   4
   6  -1  -9 93.4494 527.034   4
   6   1   9-52.3047 491.706   4
   6  -1   9 1448.10 770.120   4
   6   1  -9 424.475 626.984   4
   5   1   9 110890. 5261.88   4
   5  -1   9 119297. 5617.51   4
   5  -1  -9 108335. 5456.31   4
   5   1  -9 111534. 5298.68   4
   4  -1  -9 273.993 445.614   4
   4  -1   9 630.639 479.853   4
   4   1   9 1019.37 594.061   4
   4   1  -9 488.121 464.855   4
   3   1  -9 139309. 4475.15   4
   3   1   9 139968. 4438.05   4
   2   1   9 25523.1 1539.11   4
   2   1  -9 25234.7 2616.59   2
   2   1  -9 25410.6 1552.13   4
   1   1  -9 209672. 7218.08   2
   1   1  -9 195739. 3028.06   4
   0   1  -9 16304.3 1996.37   2
  -1   1  -9 206120. 6887.69   2
  -1   1   9 200134. 3268.50   4
  -2  -1  -9 23579.7 2133.47   2
  -2   1   9 22960.7 2280.66   1
  -2   1  -9 26292.9 2411.44   2
  -3   1   9 134597. 5955.06   1
  -3  -1  -9 140671. 4954.67   2
  -3  -1   9 136525. 6438.18   1
  -4  -1   9 461.216 666.797   1
  -4   1   9 555.346 485.762   1
  -4  -1  -9 5.53952 393.657   2
  -5  -1   9 113803. 6680.41   1
  -5   1   9 110923. 6313.75   1
  -6  -1   9-28.4048 643.932   1
  -6   1   9 2779.92 1172.35   1
  -7   1   9 58097.4 5461.62   1
  -7  -1   9 65748.8 5789.34   1
  -8  -1   9 11373.8 2725.84   1
  -8   1   9 8338.50 2354.27   1
   8   1 -10 1364.38 1086.97   4
   8   1  10 1966.09 1185.15   4
   8  -1 -10 2415.16 1296.44   4
   8  -1  10 416.860 884.176   4
   7   1 -10-535.082 740.570   4
   7   1  10 1425.34 911.932   4
   7  -1 -10 1095.02 945.817   4
   7  -1  10-685.838 822.909   4
   6  -1 -10 570.707 730.446   4
   6   1 -10 2052.32 895.900   4
   6   1  10 2768.60 954.809   4
   6  -1  10 995.727 778.857   4
   5  -1  10 1138.34 713.928   4
   5   1  10 896.323 663.424   4
   5  -1 -10 836.632 695.154   4
   5   1 -10 968.486 706.072   4
   4   1 -10-404.260 460.412   4
   4   1  10 387.553 455.336   4
   3   1 -10 4160.71 809.457   4
   3   1  10 4472.68 848.106   4
   2   1  10 427.824 264.027   4
   2   1 -10-36.6905 202.694   4
   2   1 -10 308.334 634.709   2
   1   1 -10 3485.41 1137.87   2
   1   1  10 2092.81 295.726   4
   1   1 -10 1934.59 268.579   4
   0   1 -10 282.454 479.138   2
  -1   1 -10 2467.37 952.256   2
  -2   1 -10-362.126 511.124   2
  -2  -1 -10 610.095 522.161   2
  -2   1  10 71.2052 378.497   1
  -3   1  10 4165.46 1168.42   1
  -3  -1 -10 4245.48 1000.30   2
  -3  -1  10 4062.38 1222.63   1
  -3   1 -10 4441.43 1110.61   2
  -4  -1 -10 804.050 500.321   2
  -4  -1  10 362.458 536.450   1
  -4   1  10 1132.75 745.916   1
  -4   1 -10 377.428 524.101   2
  -5  -1  10 2307.26 1154.86   1
  -5   1  10 597.111 703.500   1
  -6   1  10 3039.16 1415.89   1
  -6  -1  10-71.7827 580.153   1
  -7   1  10-1018.85 971.435   1
  -7  -1  10 436.034 774.057   1
  -8   1  10 2888.29 1442.29   1
   7   1 -11 38332.4 3883.98   4
   6   1 -11 5981.51 1477.45   4
   6   1  11 6089.28 1443.90   4
   5   1 -11 65417.3 4106.28   4
   5   1  11 62581.9 4014.97   4
   4   1 -11 1572.57 689.424   4
   4   1  11 1217.00 536.962   4
   3   1 -11 72747.7 3195.23   4
   3   1  11 74056.2 3173.66   4
   2   1 -11 5562.84 1404.07   2
   2   1 -11 4462.48 627.833   4
   2   1  11 5073.78 666.070   4
   1   1 -11 85541.7 5156.13   2
   0   1 -11 28821.8 2941.79   2
  -1   1 -11 92010.8 5115.30   2
  -2   1 -11 2962.00 951.081   2
  -2   1  11 4832.62 1177.08   1
  -2  -1 -11 4896.20 1186.83   2
  -3   1  11 75840.9 4843.08   1
  -3  -1 -11 73010.2 4132.48   2
  -3   1 -11 77482.8 4605.14   2
  -3  -1  11 72269.7 5102.79   1
  -4   1 -11 1187.42 696.746   2
  -4  -1 -11 1151.00 562.921   2
  -4  -1  11 299.348 619.734   1
  -4   1  11 1692.44 802.918   1
  -5  -1  11 64490.2 5403.54   1
  -5   1 -11 63786.6 4212.88   2
  -5   1  11 71655.6 5390.32   1
  -6   1  11 5589.77 1744.56   1
  -6  -1  11 5016.17 1694.28   1
  -7   1  11 39913.4 4734.35   1
  -7  -1  11 46963.9 5170.73   1
   2   1 -12 34452.3 3522.79   2
   1   1 -12 8071.11 1781.85   2
   0   1 -12 45735.0 3849.19   2
  -1   1 -12 7424.91 1656.64   2
  -2   1  12 41366.1 3484.13   1
  -2   1 -12 37776.7 3442.40   2
  -3   1  12 4015.98 1200.36   1
  -3  -1  12 4378.37 1408.84   1
  -3   1 -12 2294.46 947.305   2
  -3  -1 -12 4729.04 1180.67   2
  -4  -1 -12 23558.2 2416.01   2
  -4  -1  12 27481.9 3442.85   1
  -4   1 -12 28614.8 3002.72   2
  -4   1  12 22699.5 2957.31   1
  -5  -1  12 1946.75 1085.92   1
  -5   1 -12 2299.13 986.385   2
  -5   1  12 4617.56 1491.07   1
  -6   1  12 23996.7 3457.13   1
  -6  -1  12 18088.9 3054.49   1
  -7   1  12 2041.27 1341.94   1
  -7  -1  12 1147.24 1258.46   1
   2   1 -13 7428.53 1767.53   2
   1   1 -13 90624.3 5883.15   2
   0   1 -13 13526.9 2242.83   2
  -1   1 -13 75217.6 5095.22   2
  -2   1 -13 7802.60 1657.80   2
  -2   1  13 7818.57 1644.74   1
  -3  -1  13 75317.6 5662.05   1
  -3   1  13 73262.4 5113.82   1
  -3   1 -13 74080.0 5003.52   2
  -4  -1 -13 130.616 388.053   2
  -4   1 -13 1744.68 900.804   2
  -4  -1  13 144.737 754.026   1
  -4   1  13 363.270 648.218   1
  -5  -1  13 50127.6 5046.77   1
  -5   1 -13 49273.4 4126.36   2
  -5   1  13 53118.2 4981.12   1
  -6   1  13 2528.87 1372.48   1
  -6  -1  13 633.408 901.981   1
  -7   1  13 40723.3 4946.93   1
   2   1 -14 2499.32 1178.95   2
   1   1 -14-299.284 759.675   2
   0   1 -14 763.344 843.433   2
  -1   1 -14 2021.61 1016.63   2
  -1   1  14 3362.70 1119.86   1
  -2   1  14 2025.32 884.146   1
  -2   1 -14 1704.98 1023.35   2
  -3  -1  14 3230.52 1288.37   1
  -3   1  14 2660.23 1235.55   1
  -3   1 -14 236.969 717.361   2
  -4   1  14 4180.38 1401.15   1
  -4   1 -14 2351.63 1073.28   2
  -4  -1  14 1711.38 1132.30   1
  -5   1  14 143.214 692.376   1
  -5  -1  14 1552.58 1150.26   1
  -6   1  14 2446.08 1387.21   1
  -6  -1  14-1103.35 1153.51   1
   1   1 -15 65946.3 5437.76   2
   0   1 -15 10220.8 2155.61   2
  -1   1  15 63208.1 4656.45   1
  -1   1 -15 58449.1 4924.32   2
  -2   1 -15 2189.18 1044.11   2
  -2   1  15 2148.77 977.044   1
  -3   1  15 65183.2 5202.17   1
  -3  -1  15 71798.2 5891.19   1
  -3   1 -15 72175.4 5366.02   2
  -4   1  15-704.427 886.366   1
  -4   1 -15 388.976 817.912   2
  -4  -1  15-17.6632 676.729   1
  -5  -1  15 51440.0 5444.20   1
  -5   1  15 55556.6 5358.88   1
  -6   1  15 4350.08 1714.50   1
   1   1 -16 1478.92 1059.98   2
   0   1 -16 6093.95 1790.52   2
  -1   1 -16-375.965 812.507   2
  -1   1  16 272.160 694.046   1
  -2   1  16 4917.18 1636.03   1
  -2   1 -16 5177.22 1614.49   2
  -3   1  16 1031.60 770.014   1
  -3   1 -16-74.7307 681.974   2
  -3  -1  16 165.739 692.918   1
  -4   1 -16 2174.75 1146.23   2
  -4   1  16 3024.44 1383.43   1
  -4  -1  16 6300.30 1913.79   1
  -5  -1  16 2435.57 1472.85   1
  -5   1  16-851.739 1012.80   1
   0   1 -17 44.7420 846.657   2
  -1   1 -17 61281.8 5551.93   2
  -1   1  17 60477.1 4872.14   1
  -2   1  17 4672.22 1453.84   1
  -2   1 -17 4828.50 1667.00   2
  -3   1  17 58767.7 5125.43   1
  -3   1 -17 61199.4 5451.71   2
  -3  -1  17 57500.2 5536.97   1
  -4   1 -17-465.584 857.820   2
  -4  -1  17 1112.30 1208.08   1
  -4   1  17 1826.21 1067.00   1
  -5   1  17 38750.3 4805.34   1
   0   1 -18 8880.37 2315.85   2
  -1   1 -18 324.582 882.004   2
  -2  -1  18 3856.61 1633.23   1
  -2   1 -18 9926.20 2382.19   2
  -3   1  18-939.442 975.241   1
  -3   1 -18-188.100 795.392   2
  -3  -1  18-316.792 740.687   1
  -4  -1  18 6456.75 2037.86   1
  -4   1  18 8636.54 2197.00   1
  -1   1 -19 14239.1 2911.49   2
  -2   1 -19-1000.25 1003.85   2
  -2  -1  19 2328.08 1410.12   1
  -3   1 -19 32170.2 4169.91   2
  -3  -1  19 24265.7 3781.48   1
   9  -2   0-988.226 979.261   4
   9   2   0 15.1814 400.312   4
   8  -2   0 123741. 7793.80   4
   8   2   0 113711. 7049.76   4
   7  -2   0 1785.20 1009.19   4
   7   2   0 1138.88 827.776   4
   6   2   0 88928.5 5132.08   4
   6  -2   0 82631.4 5325.18   4
   5  -2   0 132.315 552.784   4
   5   2   0 371.301 418.405   3
   4  -2   0 212545. 6903.08   4
   4   2   0 199266. 5856.95   3
   3   2   0 307.686 362.896   3
   2   2   0 602785. 8134.10   3
   1  -2   0 25.7838 227.754   1
   0  -2   0 170853. 3572.47   5
   0   2   0 173281. 3572.26   5
  -1   2   0 363.420 347.000   5
  -1  -2   0 100.358 219.556   5
  -2  -2   0 619073. 7838.80   1
  -2   2   0 610757. 8483.40   5
  -3   2   0 120.251 393.508   1
  -3   2   0 174.443 368.573   5
  -3  -2   0 145.071 315.516   1
  -4   2   0 199757. 5773.54   5
  -4   2   0 188872. 6647.13   1
  -4  -2   0 200550. 6126.15   1
  -5  -2   0 256.890 411.676   1
  -5   2   0-390.030 382.159   5
  -5   2   0 485.519 566.272   1
  -6   2   0 91573.3 4572.18   5
  -6  -2   0 99729.5 5543.08   1
  -6   2   0 85770.3 5542.11   1
  -7   2   0-1135.83 664.646   5
  -7  -2   0-130.453 603.896   1
  -8   2   0 120503. 7867.01   1
  -8  -2   0 115489. 7149.43   1
  -8   2   0 117589. 5805.28   5
  -9   2   0-14.7384 885.779   1
  -9  -2   0 139.725 752.909   1
   9  -2   1 3004.56 1521.25   4
   9   2  -1 3836.86 1550.18   4
   9   2   1 6146.14 1879.33   4
   9  -2  -1 5690.58 1914.86   4
   8  -2   1-538.446 760.912   4
   8   2  -1-34.2773 610.942   4
   8   2   1 1632.57 1002.65   4
   8  -2  -1 647.496 886.363   4
   7   2   1 8462.82 1830.07   4
   7   2  -1 10944.6 2035.06   4
   7  -2   1 11360.5 2243.48   4
   7  -2  -1 9422.98 2046.30   4
   6  -2  -1 538.204 641.521   4
   6  -2   1 1037.58 801.279   4
   6   2   1 244.116 652.664   4
   6   2  -1-141.378 620.071   4
   6   2   1 766.584 574.184   3
   5  -2   1 12162.5 1892.61   4
   5  -2  -1 12453.6 1900.98   4
   5   2  -1 10123.8 1510.72   3
   5   2   1 14334.1 1719.67   3
   4   2  -1 51.2237 320.538   3
   4  -2  -1 332.725 467.621   4
   4  -2   1 414.803 627.341   4
   4   2   1-273.934 353.865   3
   3   2  -1 11853.7 986.064   2
   3   2   1 10656.9 1226.68   1
   3   2  -1 12913.8 1415.51   3
   3   2   1 11373.5 1276.85   3
   2   2  -1 248.711 299.182   3
   2  -2  -1 117.233 453.008   1
   1   2  -1 25000.9 1499.04   3
   1  -2   1 25872.0 1620.11   5
   1  -2  -1 25061.5 1482.83   1
   1   2   1 25950.1 1155.83   5
   0  -2   1-6.85688 258.768   5
   0   2   1 198.488 239.543   5
  -1   2  -1 25941.7 1602.10   5
  -2  -2   1 216.114 323.353   1
  -2   2   1 284.100 351.887   1
  -2  -2  -1 201.505 280.310   1
  -2   2  -1-1.13990 309.191   5
  -3  -2   1 11424.9 1350.97   1
  -3   2  -1 11890.1 1361.93   5
  -3   2   1 11080.3 1449.63   1
  -3  -2  -1 12426.5 1293.99   1
  -4  -2  -1 257.575 372.586   1
  -4   2  -1 265.794 452.239   1
  -4   2  -1-117.746 347.557   5
  -4   2   1 709.694 522.042   1
  -4  -2   1 676.236 470.597   1
  -5   2  -1 12534.2 1605.35   5
  -5   2  -1 10736.0 1859.42   1
  -5  -2   1 13889.2 1903.08   1
  -5   2   1 11908.7 1922.06   1
  -5  -2  -1 13369.2 1804.58   1
  -5   2  -1 12269.7 1188.50   3
  -6  -2   1-209.770 520.229   1
  -6   2  -1 413.906 674.148   1
  -6   2  -1 496.769 551.426   5
  -6   2   1-25.9236 289.111   5
  -6   2   1 243.237 500.555   1
  -6  -2  -1-341.746 575.639   1
  -7   2  -1 9684.72 1581.47   5
  -7  -2   1 10377.7 2020.90   1
  -7   2  -1 7759.30 1894.21   1
  -7   2   1 10604.3 2137.13   1
  -7  -2  -1 9322.29 1889.62   1
  -7   2   1 10479.6 1713.99   5
  -8   2  -1-1099.69 758.226   5
  -8   2  -1-57.9470 763.257   1
  -8   2   1-32.0403 453.426   5
  -8   2   1 1907.39 1080.31   1
  -8  -2  -1 1599.67 977.375   1
  -8  -2   1 1508.76 1115.13   1
  -9   2   1 3086.57 1594.41   1
  -9  -2  -1 2234.54 1207.17   1
  -9  -2   1 3866.46 1449.56   1
   9  -2   2 847.886 832.931   4
   9  -2  -2-1136.65 1087.03   4
   9   2  -2 63.7217 722.955   4
   9   2   2-2189.79 1127.75   4
   8   2  -2 101264. 6646.86   4
   8  -2  -2 91863.4 6747.81   4
   8  -2   2 102855. 7112.17   4
   8   2   2 89000.1 6271.74   4
   7   2  -2 658.328 724.758   4
   7  -2  -2 79.2200 592.988   4
   7  -2   2 981.642 837.385   4
   7   2   2 544.671 650.448   4
   6   2   2 65678.1 4423.50   4
   6  -2  -2 66590.9 4809.79   4
   6  -2   2 58246.9 4496.22   4
   6   2  -2 59690.7 4295.64   4
   6   2   2 60442.7 3710.15   3
   5  -2   2 487.212 568.983   4
   5  -2  -2 696.520 525.213   4
   5   2   2 709.952 455.322   3
   4  -2  -2 109861. 5013.12   4
   4  -2   2 115623. 5114.67   4
   4   2  -2 122641. 4872.82   3
   4   2   2 116045. 4272.80   3
   3   2   2 1167.96 474.193   3
   3   2  -2 540.970 350.340   2
   3   2   2 353.733 279.241   1
   3   2  -2 498.930 485.136   3
   2   2   2 315508. 4860.08   1
   2   2  -2 326210. 6474.41   3
   2  -2  -2 323549. 6467.56   1
   2   2  -2 325782. 5542.82   2
   1  -2   2 1749.64 485.185   5
   1   2  -2 1789.78 483.754   3
   1  -2  -2 1395.85 382.846   1
   0  -2  -2 29929.0 1015.11   1
   0   2  -2 31754.8 1502.52   3
  -1   2   2 1848.50 451.759   1
  -1  -2  -2 1750.96 240.468   1
  -2   2   2 311356. 6340.06   1
  -2  -2  -2 323181. 4814.50   1
  -2   2  -2 320381. 6206.04   5
  -3   2  -2 1081.04 510.241   5
  -3  -2   2 1115.86 527.934   1
  -3   2   2 910.841 529.551   1
  -3  -2  -2 1042.43 443.505   1
  -4   2   2 123593. 5363.54   1
  -4  -2  -2 115982. 4507.22   1
  -4   2  -2 112489. 4339.71   5
  -4  -2   2 119850. 5028.35   1
  -5  -2  -2 642.038 524.749   1
  -5   2  -2 628.275 429.825   5
  -5   2   2 938.113 662.807   1
  -5  -2   2 778.141 612.421   1
  -5   2  -2 316.437 256.144   3
  -6   2  -2 66362.6 3837.37   5
  -6   2   2 65090.5 4827.80   1
  -6  -2  -2 63647.5 4307.30   1
  -6  -2   2 61139.8 4459.51   1
  -7   2  -2-28.7895 400.251   5
  -7   2   2-103.125 411.407   5
  -7   2   2 1618.72 943.629   1
  -7  -2  -2 350.877 571.601   1
  -7  -2   2 1526.32 893.644   1
  -8   2   2 92938.1 5351.32   5
  -8   2   2 105124. 7356.22   1
  -8  -2  -2 96652.5 6486.31   1
  -8  -2   2 94460.1 6647.90   1
  -9   2   2 782.096 674.274   1
  -9  -2  -2 1192.97 914.025   1
  -9  -2   2 1032.54 903.864   1
   9   2  -3 3120.32 1465.48   4
   9  -2  -3 5642.63 1859.39   4
   9   2   3 3952.09 1640.57   4
   9  -2   3 4436.72 1900.98   4
   8  -2   3 1982.25 1228.23   4
   8  -2  -3 3352.13 1468.59   4
   8   2  -3 240.527 875.767   4
   8   2   3 752.343 775.124   4
   7  -2  -3 11194.7 2208.93   4
   7  -2   3 8843.52 1960.68   4
   7   2   3 7490.44 1719.08   4
   7   2  -3 9434.40 1967.33   4
   6  -2  -3 645.427 651.979   4
   6  -2   3 1059.71 848.121   4
   6   2  -3 546.238 633.330   4
   6   2   3 1954.33 877.618   4
   6   2   3 752.015 573.811   3
   5  -2   3 12827.0 1920.96   4
   5   2   3 12068.8 1544.13   3
   5  -2  -3 10955.2 1808.27   4
   4   2   3 2213.26 689.695   3
   3   2   3 12262.9 1212.38   1
   3   2  -3 11120.0 1230.84   2
   3   2  -3 12526.8 1478.20   3
   2   2   3 6413.63 650.800   1
   2   2  -3 6927.96 949.535   2
   2  -2  -3 5659.08 928.385   1
   2   2  -3 4771.36 857.526   3
   1   2  -3 19862.9 1494.43   3
   1  -2  -3 19825.7 1265.62   1
   0  -2  -3 2803.52 302.058   1
   0  -2   3 3275.18 518.654   3
   0   2  -3 2783.84 512.641   3
  -1   2  -3 20046.3 1038.93   3
  -1   2   3 19261.6 1249.05   1
  -1  -2   3 19146.7 1442.65   3
  -2   2   3 4920.63 848.411   1
  -2  -2  -3 6183.85 643.067   1
  -2   2  -3 5041.87 393.820   3
  -3  -2   3 12370.9 1548.48   1
  -3  -2  -3 11285.5 1168.06   1
  -3   2   3 11144.8 1461.21   1
  -4   2  -3 1673.66 216.174   3
  -4  -2   3 1710.12 712.965   1
  -4  -2  -3 1320.92 555.720   1
  -4   2   3 3328.87 998.367   1
  -5  -2  -3 11838.2 1664.28   1
  -5   2   3 13557.0 2017.61   1
  -5  -2   3 12928.3 1924.32   1
  -6  -2  -3 568.118 716.096   1
  -6   2   3-23.0324 484.270   1
  -7  -2   3 6319.11 1661.61   1
  -7  -2  -3 8831.84 1891.77   1
  -7   2   3 10067.6 2204.69   1
  -8   2   3 1505.59 791.606   5
  -8  -2  -3 1371.98 884.029   1
  -8   2   3 1794.09 1182.16   1
  -8  -2   3 341.136 905.453   1
  -9  -2  -3 2111.71 1404.23   1
  -9   2   3 4550.08 1770.30   1
  -9  -2   3 7108.85 2113.53   1
   9  -2  -4-1516.52 1294.25   4
   9  -2   4-369.645 895.430   4
   9   2  -4 2206.92 1327.91   4
   9   2   4 1769.17 1193.41   4
   8  -2  -4 98831.8 7042.72   4
   8  -2   4 102800. 7139.32   4
   8   2  -4 104211. 6820.97   4
   8   2   4 101987. 6741.01   4
   7  -2   4 2169.04 1126.96   4
   7   2  -4 1495.06 952.989   4
   7   2   4 3579.99 1223.17   4
   7   2   4 2258.25 864.561   3
   7  -2  -4 4015.64 1398.31   4
   6  -2  -4 84401.2 5454.61   4
   6  -2   4 85945.0 5440.36   4
   6   2   4 89185.9 5193.68   4
   6   2   4 79582.3 4188.61   3
   6   2  -4 86750.9 5127.20   4
   5   2   4 558.325 587.109   3
   5  -2   4-1043.11 714.646   4
   5  -2  -4-513.226 613.272   4
   4   2   4 183669. 5195.01   3
   3   2  -4 18953.8 1724.99   2
   3   2   4 17436.4 1402.00   1
   2   2   4 495185. 5367.82   2
   2   2  -4 487289. 8402.16   2
   2   2  -4 482866. 8403.99   3
   2   2   4 482570. 5359.46   1
   1   2  -4 3652.75 723.525   3
   1  -2  -4 4681.67 664.639   1
   0   2  -4 190396. 4188.66   3
   0  -2   4 196047. 4127.82   3
   0   2   4 183563. 2538.21   1
  -1   2  -4 3790.58 515.105   3
  -1   2   4 3720.79 591.214   1
  -2   2   4 499444. 8238.91   1
  -3  -2   4 18114.5 1992.66   1
  -3  -2  -4 16776.3 1387.24   1
  -3   2   4 18187.6 1854.65   1
  -4  -2   4 194533. 6925.41   1
  -4  -2  -4 188417. 5584.11   1
  -4   2   4 180849. 6641.27   1
  -5  -2  -4-84.8763 409.206   1
  -5  -2   4 221.149 515.242   1
  -6  -2  -4 84095.9 4931.92   1
  -6   2   4 86398.7 5615.08   1
  -6  -2   4 80619.0 5268.81   1
  -7  -2   4 2705.83 1181.52   1
  -7  -2  -4 1732.51 952.766   1
  -7   2   4 648.075 716.306   1
  -8  -2  -4 104345. 6733.71   1
  -8   2   4 98612.1 7192.02   1
  -8  -2   4 105261. 7215.14   1
  -9  -2   4 1555.18 1129.84   1
  -9  -2  -4 2766.57 1385.95   1
   9   2  -5 4695.55 1639.07   4
   9   2   5 4677.02 1750.99   4
   8  -2   5 2939.01 1374.31   4
   8   2   5 1954.44 1105.14   4
   8   2  -5 1899.75 1040.33   4
   8  -2  -5 510.308 693.392   4
   7   2  -5 6199.17 1616.18   4
   7  -2  -5 10583.7 2140.04   4
   7  -2   5 12381.4 2256.87   4
   7   2   5 7040.19 1330.16   3
   7   2   5 10233.3 1956.09   4
   6  -2  -5 1496.10 865.232   4
   6  -2   5 1686.11 916.607   4
   6   2   5 2638.61 1065.47   4
   6   2  -5 2057.50 974.663   4
   6   2   5 1426.71 635.827   3
   5   2   5 12060.4 1498.68   3
   5  -2   5 12752.7 1930.99   4
   3   2  -5 17793.2 1810.70   2
   3   2   5 19339.6 1467.62   1
   2   2   5 2335.49 408.214   1
   2   2   5 2397.24 473.821   2
   2   2  -5 2530.46 711.618   2
   1   2   5 33953.9 1956.13   2
   1   2  -5 34628.2 2335.69   2
   1  -2   5 32083.4 1460.91   3
   0  -2   5 11113.8 1075.13   3
   0   2   5 9338.65 677.377   1
  -1   2   5 30981.8 1695.09   1
  -2   2   5 2770.38 650.753   1
  -3  -2   5 19291.8 2147.83   1
  -3   2   5 17654.0 1882.22   1
  -4  -2   5 448.717 598.588   1
  -4   2   5 2154.93 815.718   1
  -5  -2  -5 11070.2 1615.76   1
  -5   2   5 10437.5 1838.27   1
  -5  -2   5 13002.4 2039.65   1
  -6  -2  -5 1631.05 846.119   1
  -6  -2   5 2721.37 1078.48   1
  -6   2   5 2215.54 979.758   1
  -7  -2  -5 12060.1 2099.68   1
  -7   2   5 9003.93 2067.47   1
  -7  -2   5 14490.4 2487.14   1
  -8  -2   5-27.6004 798.011   1
  -8   2   5-1423.84 1082.26   1
  -9  -2   5 5744.39 1853.77   1
   9   2   6 247.642 752.131   4
   8   2  -6 74281.1 5768.59   4
   8   2   6 73461.3 5745.21   4
   7  -2  -6 378.049 808.661   4
   7  -2   6 478.286 754.269   4
   7   2  -6 389.562 676.642   4
   7   2   6 415.598 808.573   4
   6   2   6 55225.6 4127.66   4
   6  -2   6 57324.4 4471.47   4
   6   2  -6 56340.1 4222.03   4
   6   2   6 53837.5 3362.09   3
   5   2   6 15455.2 1658.58   3
   3   2   6-55.8668 248.590   1
   3   2  -6 110.467 478.483   2
   2   2   6 181159. 4315.11   2
   2   2   6 178231. 3637.28   1
   2   2  -6 172404. 5779.32   2
   1   2   6 27861.0 1933.14   2
   1  -2   6 28130.1 1531.81   3
   1   2  -6 25460.1 2191.24   2
   0   2   6 44200.4 1717.81   1
  -1   2   6 28144.7 1725.33   1
  -2   2   6 179273. 5168.00   1
  -3   2   6 1329.99 579.451   1
  -3  -2   6 349.885 606.021   1
  -4  -2   6 84083.0 4935.15   1
  -4   2   6 92572.2 4894.20   1
  -5  -2   6 19677.5 2630.75   1
  -5   2   6 15112.9 2241.87   1
  -6   2   6 57082.1 4724.11   1
  -6  -2   6 55405.3 4642.48   1
  -7  -2   6-72.3682 791.342   1
  -7   2   6 1671.16 1014.93   1
  -8   2   6 81898.0 6677.51   1
  -8  -2   6 73678.8 6260.72   1
   8   2  -7 2825.25 1267.38   4
   8   2   7-785.995 744.142   4
   7   2  -7 8030.35 1809.31   4
   7   2   7 6390.79 1660.12   4
   6   2  -7 802.747 668.748   4
   6   2   7 788.461 706.824   4
   6   2   7 1321.18 552.946   3
   5   2   7 7384.55 1171.41   3
   5   2  -7 6006.49 1321.19   4
   5   2   7 9100.84 1529.20   4
   3   2  -7 8018.40 1437.63   2
   3   2   7 8628.39 1047.60   1
   2  -2   7 481.894 219.474   3
   2   2  -7 394.191 447.717   2
   2   2   7-137.650 291.585   2
   2   2   7 356.680 228.221   1
   1   2  -7 7202.02 1267.49   2
   1  -2   7 6258.98 834.062   3
   0   2   7 636.136 307.196   1
  -1   2   7 7973.02 1011.93   1
  -2   2   7 183.500 389.812   1
  -3   2   7 6765.55 1235.10   1
  -3  -2   7 7961.26 1570.52   1
  -4  -2   7 697.387 668.573   1
  -4   2   7-70.0234 431.267   1
  -5  -2   7 7879.03 1781.93   1
  -5   2   7 7587.74 1648.95   1
  -6  -2   7-1309.55 955.450   1
  -6   2   7 382.789 743.926   1
  -7  -2   7 7832.15 2020.74   1
  -7   2   7 6565.29 1853.88   1
  -8   2   7-295.723 793.190   1
  -8  -2   7-2058.14 1266.81   1
   8   2  -8 55913.3 5107.54   4
   8   2   8 61834.5 5309.00   4
   7   2  -8 965.535 853.649   4
   7   2   8 785.244 696.041   4
   6   2  -8 68779.0 4678.05   4
   6   2   8 68248.7 4636.95   4
   6   2   8 63250.7 3575.58   3
   5   2  -8 3080.96 946.646   4
   5   2   8 3677.64 1000.06   4
   3   2  -8 13375.5 1935.54   2
   2   2   8 230566. 4933.19   1
   2   2  -8 231552. 7524.96   2
   2  -2   8 231501. 4243.02   3
   1   2  -8 768.111 497.286   2
   0   2   8 149037. 4050.47   1
   0   2  -8 154024. 5856.88   2
  -1   2   8-234.330 286.870   1
  -1   2   8-171.637 284.125   4
  -1   2  -8-74.2106 200.765   4
  -2   2   8 228722. 6399.83   1
  -3  -2   8 10128.4 1810.68   1
  -3   2   8 12520.1 1712.72   1
  -4  -2   8 115614. 6232.71   1
  -4   2   8 118383. 5758.30   1
  -5   2   8 351.158 619.782   1
  -5  -2   8 3115.73 1230.41   1
  -6  -2   8 66237.9 5390.23   1
  -6   2   8 72412.3 5499.17   1
  -7  -2   8 4727.85 1550.32   1
  -7   2   8 1845.91 1015.85   1
  -8   2   8 73633.5 6540.07   1
  -8  -2   8 71509.8 6402.38   1
   8   2  -9 1229.78 1077.38   4
   8   2   9 360.419 516.579   4
   7   2  -9 6619.39 1769.31   4
   7   2   9 7179.72 1797.87   4
   6   2   9 1014.01 741.058   4
   6   2  -9 1322.79 775.755   4
   5   2  -9 10333.1 1641.20   4
   5   2   9 10269.4 1657.07   4
   4   2  -9 735.707 522.023   4
   3   2  -9 17490.0 2322.70   2
   3  -2   9 14755.8 718.422   3
   2   2   9 477.470 352.732   1
   2   2  -9 801.929 603.373   2
   2  -2   9 743.967 355.407   3
   1   2  -9 21232.6 2434.03   2
   0   2  -9 419.187 480.701   2
   0   2   9 376.049 308.169   1
  -1   2   9 23090.2 1938.83   1
  -1   2  -9 23966.4 2460.06   2
  -1   2   9 23156.3 1603.66   4
  -1   2  -9 24809.7 1558.65   4
  -2   2   9 244.852 324.279   1
  -3   2   9 19411.3 2197.85   1
  -4   2   9 866.703 675.084   1
  -4  -2   9-325.875 681.177   1
  -5   2   9 10278.7 2031.62   1
  -5  -2   9 10186.4 2139.64   1
  -6  -2   9 865.658 955.762   1
  -6   2   9 1751.60 1205.95   1
  -7  -2   9 9879.75 2320.89   1
  -7   2   9 8590.74 2153.08   1
  -8  -2   9 1876.70 1258.78   1
  -8   2   9-130.984 744.981   1
   8   2 -10 73737.0 5914.37   4
   8   2  10 66532.8 5591.10   4
   7   2  10 2077.19 1001.06   4
   7   2 -10 2556.01 1128.70   4
   6   2 -10 84117.7 5197.50   4
   6   2  10 81257.3 5123.08   4
   5   2  10 1784.13 785.898   4
   5   2 -10 1495.20 774.781   4
   4   2  10 113589. 4838.15   4
   4   2 -10 111724. 4766.77   4
   3   2 -10 13173.5 2126.80   2
   2   2 -10 152893. 6820.23   2
   2  -2  10 149361. 4206.05   3
   1   2 -10 83.9323 472.758   2
   0   2 -10 124131. 5930.66   2
   0   2  10 116062. 4289.13   1
  -1   2  10 418.400 317.381   4
  -1   2 -10-82.3874 222.023   4
  -1   2 -10 660.379 592.429   2
  -1   2  10 128.282 296.908   1
  -2   2  10 156097. 5833.70   1
  -3   2  10 12621.7 1862.35   1
  -4  -2  10 107259. 6517.53   1
  -4   2  10 105712. 5751.04   1
  -5   2  10 1946.87 1052.54   1
  -5  -2  10 1929.43 1171.58   1
  -6  -2  10 81324.2 6332.89   1
  -6   2  10 85259.1 6180.84   1
  -7  -2  10 2631.54 1406.40   1
  -7   2  10 3115.75 1459.38   1
  -8   2  10 66270.6 6438.67   1
   7   2 -11 894.198 879.532   4
   6   2 -11 665.577 620.812   4
   6   2  11-15.8775 577.115   4
   5   2 -11 802.383 576.427   4
   5   2  11 700.317 597.497   4
   4   2 -11 1172.11 567.777   4
   4   2  11 575.690 575.334   4
   3   2 -11 1720.05 585.712   4
   3   2  11 835.882 424.567   4
   2   2 -11 1227.04 777.440   2
   1   2 -11 463.655 669.182   2
   0   2 -11 699.587 627.231   2
   0   2  11 120.222 294.234   1
  -1   2 -11-236.896 566.469   2
  -1   2  11 495.542 431.341   1
  -2   2  11 1565.08 728.417   1
  -2   2 -11 1182.11 776.757   2
  -3   2 -11 515.684 678.177   2
  -3   2  11 1150.84 713.811   1
  -4   2  11 1071.58 672.969   1
  -4  -2  11 1178.63 959.402   1
  -5   2  11-307.701 599.044   1
  -5  -2  11 2560.54 1211.72   1
  -6   2  11-259.316 880.836   1
  -6  -2  11 499.200 824.152   1
  -7  -2  11 4051.64 1760.87   1
  -7   2  11-278.655 915.908   1
   3   2 -12 2907.04 1123.13   2
   2   2 -12 59007.2 4717.77   2
   1   2 -12 5477.78 1514.37   2
   0   2  12 62862.2 3576.03   1
   0   2 -12 68768.4 4887.09   2
  -1   2 -12 3299.69 1176.32   2
  -1   2  12 2292.31 795.159   1
  -2   2  12 54977.5 3843.88   1
  -2   2 -12 54573.4 4261.71   2
  -3   2 -12 2181.53 925.902   2
  -3   2  12 1463.74 844.564   1
  -4   2 -12 41204.7 3696.01   2
  -4  -2  12 43573.5 4461.68   1
  -4   2  12 47582.2 4137.39   1
  -5  -2  12 7014.06 1976.25   1
  -5   2  12 5410.78 1587.76   1
  -5   2 -12 5744.17 1442.48   2
  -6  -2  12 35837.0 4503.42   1
  -6   2  12 31844.1 3978.90   1
  -7  -2  12 433.201 930.374   1
  -7   2  12-1750.00 1200.46   1
   3   2 -13 35434.3 3891.17   2
   2   2 -13 1001.02 973.168   2
   1   2 -13 37198.4 3815.36   2
   0   2  13 2068.75 727.443   1
   0   2 -13 2520.68 1123.91   2
  -1   2  13 38228.8 3094.10   1
  -1   2 -13 45895.7 4104.52   2
  -2   2 -13 1258.54 783.278   2
  -2   2  13 461.452 585.583   1
  -3   2 -13 35710.9 3646.40   2
  -3   2  13 43300.3 3822.68   1
  -4   2  13-176.999 540.312   1
  -4   2 -13 174.514 410.477   2
  -4  -2  13 652.895 832.305   1
  -5   2  13 19984.5 3058.67   1
  -5   2 -13 14229.8 2372.63   2
  -5  -2  13 19658.6 3264.74   1
  -6   2  13 1747.73 1045.82   1
  -6  -2  13 709.350 743.872   1
  -7   2  13 15318.6 3119.45   1
   3   2 -14 1657.13 995.342   2
   2   2 -14 70134.7 5587.15   2
   1   2 -14 1011.16 826.062   2
   0   2 -14 104151. 6537.56   2
   0   2  14 97217.0 4933.23   1
  -1   2 -14 1863.32 1122.68   2
  -1   2  14-389.583 527.664   1
  -2   2  14 70864.1 4687.86   1
  -2   2 -14 71219.3 5364.98   2
  -3  -2  14 2224.13 1187.53   1
  -3   2 -14 3288.77 1240.11   2
  -3   2  14 2718.78 1024.19   1
  -4  -2  14 68924.6 5931.97   1
  -4   2 -14 66587.2 5214.06   2
  -4   2  14 67066.2 5231.99   1
  -5   2  14 3628.62 1376.22   1
  -5   2 -14 3775.20 1410.79   2
  -5  -2  14 5648.63 1784.80   1
  -6  -2  14 52767.5 5834.20   1
  -6   2  14 52244.5 5350.72   1
   2   2 -15 1871.06 1130.15   2
   1   2 -15-168.067 709.757   2
   0   2 -15 207.965 677.745   2
  -1   2 -15 177.566 743.552   2
  -1   2  15-4.33333 397.498   1
  -2   2 -15-637.479 876.004   2
  -2   2  15 500.543 582.713   1
  -3   2 -15 275.039 720.257   2
  -3   2  15 1113.81 742.232   1
  -3  -2  15-42.7609 637.749   1
  -4   2 -15-141.393 614.749   2
  -4   2  15 14.7590 701.334   1
  -4  -2  15 1305.35 982.289   1
  -5   2  15 584.684 779.136   1
  -5   2 -15-927.239 1023.77   2
  -5  -2  15-943.323 1222.69   1
  -6   2  15 1707.53 1297.33   1
   2   2 -16 38554.0 4499.91   2
   1   2 -16-1921.03 1214.25   2
   0   2 -16 78300.6 6184.71   2
  -1   2 -16 108.063 571.671   2
  -2   2 -16 38585.4 4259.70   2
  -3   2 -16 1380.40 1041.04   2
  -3  -2  16 2559.14 1288.54   1
  -3   2  16 2999.22 1130.43   1
  -4  -2  16 53637.3 5588.29   1
  -4   2 -16 43335.0 4544.67   2
  -4   2  16 41139.8 4375.64   1
  -5   2  16-743.167 1060.33   1
  -6   2  16 43256.8 5000.62   1
   2   2 -17 1357.94 1138.24   2
   1   2 -17 7403.69 2046.63   2
   0   2 -17 345.851 712.369   2
  -1   2 -17 5260.62 1777.35   2
  -2   2 -17-782.058 810.537   2
  -3   2 -17 8130.65 2099.63   2
  -3  -2  17 6564.53 2108.82   1
  -4  -2  17 1023.64 1126.41   1
  -4   2 -17-128.076 905.713   2
   1   2 -18-1267.59 1138.84   2
   0   2 -18 64230.7 6024.26   2
  -1   2 -18 447.745 1004.45   2
  -2   2 -18 31636.8 4353.50   2
  -3   2 -18 2982.70 1407.52   2
  -3  -2  18 225.937 1072.48   1
  -4   2 -18 40069.2 4715.28   2
  -1   2 -19 4055.24 1716.62   2
  -2   2 -19 64.2273 883.081   2
   8   3   0 711.995 894.992   4
   7   3   0 1345.07 787.209   4
   6   3   0 5911.14 1433.28   3
   5   3   0 75.6399 455.848   3
   4   3   0 8368.38 1356.09   3
   3   3   0 333.026 392.065   3
   3   3   0 206.437 189.922   2
   2   3   0 11576.0 1290.63   3
   0   3   0 34511.6 1984.05   5
  -1   3   0 123.876 305.258   5
  -1  -3   0 69.3609 285.337   5
  -2   3   0 9840.41 1280.86   5
  -2  -3   0 9695.94 1101.01   1
  -2  -3   0 10270.3 927.481   5
  -3  -3   0 334.575 396.400   1
  -3  -3   0 464.011 229.933   5
  -3   3   0 12.3253 406.431   5
  -4   3   0 6475.34 1246.26   5
  -4  -3   0 7949.05 1250.41   1
  -4  -3   0 6153.58 589.287   5
  -5   3   0 847.477 578.971   5
  -5   3   0 637.291 647.187   1
  -5  -3   0 769.932 592.931   1
  -6  -3   0 6088.40 1475.46   1
  -6   3   0 7722.64 1749.28   1
  -6   3   0 7433.13 1521.31   5
  -7   3   0 454.660 572.067   5
  -7  -3   0-647.518 756.234   1
  -8   3   0 3965.55 1211.66   5
  -8  -3   0 2023.43 1027.44   1
  -9  -3   0 1193.26 1024.12   1
   8   3  -1 3125.62 1353.06   4
   8   3   1-482.774 811.731   4
   7   3  -1 112185. 6530.15   4
   7   3   1 120836. 6785.46   4
   7   3   1 116622. 6030.93   3
   6   3  -1 810.202 726.502   3
   6   3   1 1425.42 741.921   3
   5   3  -1 63005.3 4030.34   3
   5   3   1 66829.9 4006.78   3
   4   3   1 2684.54 827.744   3
   4   3  -1 2673.75 540.983   2
   4   3  -1 1494.21 794.034   3
   3   3  -1 384028. 6202.10   2
   3   3  -1 388101. 8354.64   3
   3   3   1 399118. 8089.89   3
   2   3  -1 8304.76 1166.14   3
   1  -3  -1 207524. 4851.14   1
   1   3   1 194362. 4137.78   5
   0   3   1 6427.70 885.996   5
  -1   3  -1 201823. 5176.34   5
  -1  -3   1 203637. 4602.42   5
  -1   3   1 198644. 5200.05   5
  -2  -3  -1 8085.10 900.056   1
  -2   3   1 9178.33 1221.55   5
  -2   3  -1 7514.85 1114.98   5
  -3  -3   1 382491. 7990.31   1
  -3   3  -1 375724. 8255.58   5
  -3   3   1 392461. 8988.65   1
  -3   3   1 387814. 8379.39   5
  -3  -3  -1 381766. 7058.09   1
  -4   3  -1 3943.66 1023.77   5
  -4  -3  -1 2677.15 739.001   1
  -4   3   1 2854.57 841.056   5
  -4   3   1 3185.38 1001.90   1
  -4  -3   1 1821.49 723.441   1
  -5   3  -1 61841.7 3839.29   5
  -5   3   1 62038.1 3930.80   5
  -5   3   1 64113.8 4530.09   1
  -5  -3  -1 59889.4 3766.66   1
  -5  -3   1 68707.5 4181.76   1
  -6  -3   1 349.838 513.403   1
  -6   3  -1 695.132 610.741   5
  -6   3   1 337.412 553.656   5
  -6  -3  -1 171.493 412.410   1
  -6   3   1 77.1345 611.998   1
  -7   3  -1 111519. 5753.16   5
  -7   3   1 113585. 5943.86   5
  -7   3   1 127214. 7607.21   1
  -7  -3  -1 102149. 6108.42   1
  -7  -3   1 108004. 6440.26   1
  -8   3  -1-193.787 554.181   5
  -8   3   1 741.163 1024.11   1
  -8   3   1-1278.22 892.312   5
  -8  -3  -1-805.520 838.526   1
  -8  -3   1 51.6053 519.714   1
  -9  -3  -1 60793.6 5576.89   1
  -9  -3   1 56323.9 5519.70   1
   8   3  -2 9706.00 2144.75   4
   8   3   2 9048.44 2257.48   4
   7   3  -2 908.384 832.362   4
   7   3   2 405.165 680.209   4
   7   3   2 796.470 715.158   3
   6   3   2 15535.1 2079.19   3
   5   3  -2 1154.67 642.629   3
   5   3   2 670.836 604.982   3
   4   3  -2 16002.1 1450.81   2
   4   3   2 13001.4 1608.59   3
   4   3  -2 12703.2 1742.62   3
   3   3  -2 367.288 276.073   2
   3   3  -2 161.987 406.868   3
   2   3  -2 7355.78 1124.05   3
   1   3  -2 994.489 474.084   3
   1   3   2 730.502 355.932   5
   1  -3  -2 1195.77 390.450   1
   0   3   2 23907.3 1640.99   5
   0  -3  -2 24867.4 1261.40   1
   0   3  -2 26067.2 1637.75   3
  -2   3   2 9329.46 1221.95   1
  -2  -3  -2 10046.0 883.789   1
  -3   3   2 383.175 436.605   1
  -3  -3   2 607.219 523.002   1
  -3  -3  -2 513.098 371.711   1
  -3   3  -2 729.307 490.350   5
  -4  -3   2 16685.0 1970.48   1
  -4   3  -2 12722.7 1691.20   5
  -4   3   2 13369.2 1882.86   1
  -4  -3  -2 12247.8 1473.58   1
  -5   3   2 134.722 495.134   1
  -5   3  -2 969.604 578.087   5
  -5  -3   2 865.019 568.705   1
  -5  -3  -2 51.2577 368.897   1
  -6   3  -2 16218.1 2142.10   5
  -6   3   2 15094.2 2080.19   5
  -6  -3   2 14520.4 2227.04   1
  -6   3   2 18719.5 2693.19   1
  -6  -3  -2 15630.3 2131.94   1
  -7  -3   2 254.065 613.956   1
  -7   3  -2 794.362 762.012   5
  -7   3   2 1078.78 897.775   1
  -7   3   2 338.400 642.130   5
  -7  -3  -2 96.7024 476.772   1
  -8   3   2 9408.83 2306.90   1
  -8  -3  -2 11177.1 2173.04   1
  -8   3   2 7689.11 1750.37   5
  -8  -3   2 9134.68 2209.23   1
  -9  -3  -2 1255.95 944.031   1
  -9  -3   2 2525.64 1320.02   1
   8   3  -3 26.8016 736.481   4
   8   3   3-599.463 879.305   4
   7   3  -3 84741.8 5694.67   4
   7   3   3 80964.1 5577.26   4
   7   3   3 80177.2 4911.44   3
   6   3   3 3389.93 1009.32   3
   5   3  -3 36451.0 3135.76   3
   5   3   3 30680.4 2652.90   3
   4   3   3 4276.51 950.224   3
   4   3  -3 3438.92 773.729   2
   4   3  -3 3394.82 983.810   3
   3   3  -3 229921. 5848.28   2
   3   3  -3 228830. 6845.23   3
   2   3   3 2463.14 436.866   5
   2   3  -3 1408.53 530.660   3
   1   3  -3 85718.3 3440.47   3
   1  -3  -3 89830.9 2920.38   1
   0   3  -3 19743.8 1492.50   3
   0  -3  -3 21860.2 1020.49   1
  -1   3  -3 93448.9 2803.94   3
  -2   3   3 2701.47 675.215   1
  -2  -3  -3 2649.18 412.656   1
  -3  -3   3 230650. 6956.72   1
  -3   3   3 235090. 6840.24   1
  -3  -3  -3 229793. 4944.43   1
  -4   3   3 3797.05 1076.78   1
  -4  -3   3 4599.52 1162.03   1
  -4  -3  -3 3367.79 800.714   1
  -5   3   3 37754.6 3474.84   1
  -5  -3  -3 37928.4 2880.16   1
  -5  -3   3 34411.6 3183.29   1
  -6   3   3 3261.44 1212.71   1
  -6  -3   3 3936.01 1241.08   1
  -6  -3  -3 2587.97 910.673   1
  -7   3   3 86354.2 5263.91   5
  -7   3   3 83233.0 6182.54   1
  -7  -3  -3 84508.3 5423.12   1
  -7  -3   3 81795.2 5768.23   1
  -8   3   3 87.8915 880.400   1
  -8  -3  -3 663.394 818.019   1
  -8   3   3 39.1365 387.075   5
  -8  -3   3 1467.67 1013.80   1
  -9  -3   3 44693.3 4952.18   1
   8   3  -4 2835.24 1261.63   4
   8   3   4 3930.16 1504.07   4
   7   3  -4 317.717 642.982   4
   7   3   4 41.6258 571.530   4
   7   3   4-590.275 613.585   3
   6   3   4 9052.10 1567.42   3
   5   3   4 799.288 507.039   3
   4   3  -4 12351.2 1529.16   2
   4   3  -4 9181.42 1572.48   3
   3   3   4 535.356 160.470   2
   3   3  -4 520.036 560.556   2
   3   3  -4 1533.82 671.878   3
   2   3  -4 15779.5 1696.94   3
   1  -3  -4 2037.61 472.215   1
   1   3  -4 279.980 362.249   3
   0  -3  -4 30398.7 1056.42   1
   0   3  -4 36657.1 2114.24   3
  -1   3   4 1569.18 468.264   1
  -1   3  -4 1111.11 406.823   3
  -2   3   4 14838.9 1501.20   1
  -2   3  -4 16470.5 1061.81   3
  -3  -3   4 288.909 476.813   1
  -3  -3  -4 952.671 395.207   1
  -3   3   4 733.209 510.968   1
  -3   3  -4 599.719 174.239   3
  -4   3   4 11238.5 1724.04   1
  -4  -3   4 9037.39 1625.28   1
  -4  -3  -4 10765.0 1313.60   1
  -5  -3   4 858.083 684.224   1
  -5  -3  -4 905.838 534.022   1
  -5   3   4-469.383 585.134   1
  -6  -3  -4 8428.82 1578.64   1
  -6   3   4 6325.44 1698.84   1
  -6  -3   4 11200.5 2144.70   1
  -7   3   4 632.427 850.913   1
  -7  -3   4 496.362 737.824   1
  -7  -3  -4 1814.38 998.167   1
  -8  -3   4 4380.97 1646.41   1
  -8  -3  -4 3325.33 1280.18   1
  -8   3   4 3767.65 1283.15   5
  -8   3   4 2.68654 1808.20   1
  -9   3   4 1178.93 870.383   5
  -9  -3   4-634.495 697.050   1
   8   3  -5 980.624 875.461   4
   8   3   5-316.660 734.317   4
   7   3  -5 92096.3 5969.93   4
   7   3   5 99876.1 6237.47   4
   7   3   5 100665. 5445.54   3
   6   3   5-219.491 415.678   3
   5   3   5 73349.1 3990.61   3
   4   3  -5 201.976 429.262   2
   3   3   5 266067. 3442.26   5
   3   3   5 278324. 4933.82   1
   3   3   5 265573. 3878.03   2
   3   3  -5 288477. 7586.57   2
   2   3  -5 2562.99 756.710   2
   2   3  -5 2264.28 752.153   3
   1  -3  -5 212506. 4481.10   1
   1   3  -5 197785. 5577.71   3
   0   3  -5 3543.10 753.078   3
  -1   3  -5 209073. 4581.47   3
  -1   3   5 206507. 4442.76   1
  -2   3   5 2739.40 684.002   1
  -2   3  -5 3690.80 549.092   3
  -3   3   5 294741. 7747.41   1
  -4   3   5 464.333 572.188   1
  -4  -3  -5-90.6210 316.434   1
  -5  -3   5 71161.2 4869.44   1
  -5  -3  -5 71663.4 3829.42   1
  -5   3   5 78308.7 5039.10   1
  -6  -3  -5 836.971 681.043   1
  -6   3   5 583.773 658.548   1
  -6  -3   5 552.980 682.091   1
  -7  -3  -5 99937.7 5809.95   1
  -7   3   5 99713.7 6877.60   1
  -7  -3   5 92344.3 6368.16   1
  -8  -3   5 270.027 780.211   1
  -8   3   5 2368.45 1281.29   1
  -9   3   5 57686.2 4953.43   5
   8   3  -6 7810.37 2035.34   4
   8   3   6 5976.47 1751.90   4
   7   3  -6 1795.78 956.398   4
   7   3   6 3793.41 1250.19   4
   7   3   6 2194.98 892.062   3
   6   3   6 11344.2 1717.57   3
   5   3   6 1908.53 725.413   3
   4   3  -6 10810.3 1674.81   2
   3   3  -6 1534.49 731.611   2
   3   3   6 2853.88 479.926   2
   3   3   6 2090.68 434.347   1
   2   3   6 10498.8 1143.23   2
   2   3  -6 12919.5 1693.64   2
   0   3   6 15319.2 800.354   1
  -1   3   6 4019.99 674.110   1
  -2   3   6 12522.7 1416.21   1
  -3   3   6 2489.37 807.108   1
  -4  -3   6 11230.2 1923.48   1
  -4   3   6 10510.2 1743.82   1
  -5  -3   6 468.901 595.247   1
  -5   3   6 95.3092 446.233   1
  -6   3   6 10024.0 2030.13   1
  -6  -3   6 12393.2 2255.51   1
  -7  -3   6 1723.41 1044.78   1
  -7   3   6-599.803 760.039   1
  -8  -3   6 7652.26 2114.97   1
  -8   3   6 5860.42 1885.04   1
  -9   3   6-560.474 634.988   5
   8   3  -7 2296.57 1209.05   4
   8   3   7 4485.64 1636.78   4
   7   3  -7 74985.4 5426.04   4
   7   3   7 86046.7 5844.53   4
   6   3   7 1529.92 693.925   3
   4   3  -7 910.636 665.989   2
   3   3   7 147946. 3401.54   1
   3   3   7 156591. 3925.34   2
   3   3  -7 158880. 6283.21   2
   2   3  -7 11372.3 1695.74   2
   1   3  -7 103884. 4846.33   2
   0   3   7-13.6733 109.049   1
  -1   3   7 101760. 3334.31   1
  -2   3   7 12846.5 1481.08   1
  -3   3   7 157240. 5876.53   1
  -4  -3   7 929.883 729.068   1
  -4   3   7 993.430 651.690   1
  -5  -3   7 52097.6 4461.81   1
  -5   3   7 50672.4 4172.99   1
  -6   3   7 1688.20 1068.04   1
  -6  -3   7 1456.02 979.344   1
  -7   3   7 71975.6 5940.07   1
  -7  -3   7 82640.1 6359.49   1
  -8  -3   7 6491.99 2049.96   1
  -8   3   7 3708.56 1617.22   1
   8   3  -8 3479.97 1380.50   4
   8   3   8 3809.65 1335.98   4
   7   3  -8 646.584 798.234   4
   7   3   8 748.581 744.271   4
   6   3   8 5541.83 1206.19   3
   6   3  -8 5816.89 1429.58   4
   6   3   8 8883.48 1832.53   4
   4   3  -8 8517.50 1647.83   2
   3   3  -8 584.554 620.673   2
   2   3  -8 9720.26 1745.42   2
   1   3  -8-478.236 558.669   2
   0   3   8 13085.2 954.944   1
  -1   3   8 78.4947 221.581   1
  -2   3   8 10065.0 1351.38   1
  -3   3   8 10.1088 415.787   1
  -4  -3   8 9493.29 1921.07   1
  -4   3   8 6979.24 1473.47   1
  -5  -3   8 2171.42 1053.39   1
  -5   3   8 105.756 584.856   1
  -6  -3   8 9813.78 2175.86   1
  -6   3   8 3934.49 1398.77   1
  -7  -3   8 311.522 884.641   1
  -7   3   8-2327.40 1210.36   1
  -8  -3   8 7235.64 2067.52   1
  -8   3   8 3161.87 1598.66   1
   8   3  -9-590.110 995.440   4
   8   3   9-575.814 873.659   4
   7   3  -9 56568.8 4761.35   4
   7   3   9 59443.1 4906.23   4
   6   3   9 1722.59 741.895   3
   6   3  -9 3466.65 1137.96   4
   6   3   9 1649.45 802.788   4
   4   3  -9 1460.21 835.521   2
   3   3  -9 139077. 6535.74   2
   2   3  -9 424.297 507.236   2
   1   3   9 104990. 2341.05   1
   1   3  -9 124210. 5998.89   2
   0   3  -9 12152.8 1869.26   2
   0   3   9 9271.88 915.880   1
  -1   3   9 121429. 4013.91   1
  -2   3   9-29.7382 257.135   1
  -3   3   9 142695. 5857.62   1
  -4   3   9 1944.11 902.766   1
  -4  -3   9 1382.00 826.318   1
  -5  -3   9 56139.1 4968.52   1
  -5   3   9 61942.4 4782.81   1
  -6  -3   9 691.158 1011.76   1
  -6   3   9 2054.56 1123.99   1
  -7   3   9 59895.1 5561.23   1
  -7  -3   9 55461.9 5538.02   1
  -8   3   9-649.778 836.463   1
   8   3 -10 3404.58 1443.85   4
   8   3  10 6270.25 1798.85   4
   7   3 -10-247.060 495.586   4
   7   3  10 437.174 759.899   4
   6   3 -10 6266.29 1543.46   4
   6   3  10 5689.73 1436.01   4
   4   3 -10 8081.47 1768.62   2
   3   3 -10-132.007 669.182   2
   2   3 -10 8501.80 1726.44   2
   1   3  10 1288.16 328.468   1
   1   3 -10 1289.07 770.009   2
   0   3 -10 6715.13 1425.76   2
   0   3  10 6658.11 859.197   1
  -1   3  10 861.751 458.836   1
  -2   3  10 7571.39 1267.47   1
  -3   3  10 1327.03 719.473   1
  -4   3  10 7418.49 1499.34   1
  -4  -3  10 6676.26 1780.69   1
  -5  -3  10-337.583 658.426   1
  -5   3  10 388.983 665.696   1
  -6  -3  10 4668.24 1681.71   1
  -6   3  10 3076.73 1261.89   1
  -7   3  10-99.0427 691.245   1
  -7  -3  10-47.9737 868.334   1
   7   3 -11 48447.0 4434.87   4
   6   3 -11 738.607 640.991   4
   6   3  11 1389.33 763.386   4
   5   3 -11 61577.3 4144.14   4
   5   3  11 52852.0 3879.59   4
   4   3 -11 1043.84 868.257   2
   3   3 -11 88497.7 5762.57   2
   2   3 -11 688.807 748.386   2
   1   3 -11 78543.8 5212.53   2
   0   3 -11 12216.1 2149.55   2
   0   3  11 9770.14 1131.38   1
  -1   3 -11 91006.2 5442.59   2
  -1   3  11 78809.3 3637.18   1
  -2   3  11 393.438 452.376   1
  -3   3  11 86871.2 4845.09   1
  -4  -3  11-969.356 953.117   1
  -4   3  11 2099.41 915.769   1
  -5  -3  11 62108.1 5539.50   1
  -5   3  11 59765.4 4941.09   1
  -6  -3  11 333.374 896.615   1
  -6   3  11 612.494 791.898   1
  -7   3  11 50998.7 5324.81   1
  -7  -3  11 55034.1 5803.07   1
   4   3 -12 8385.78 2052.97   2
   3   3 -12 1623.67 908.283   2
   2   3 -12 13105.4 2300.93   2
   1   3 -12-402.991 715.696   2
   0   3 -12 11656.3 2160.95   2
  -1   3 -12 22.8798 557.067   2
  -1   3  12 621.631 349.050   1
  -2   3  12 13933.0 1843.28   1
  -2   3 -12 12846.7 2252.08   2
  -3   3  12 589.207 596.463   1
  -4   3  12 9053.28 1776.03   1
  -4  -3  12 11185.4 2328.74   1
  -5  -3  12 1432.95 1197.87   1
  -5   3  12 309.136 789.222   1
  -6  -3  12 6359.62 2146.43   1
  -6   3  12 8186.29 2038.34   1
  -7   3  12-1578.40 1104.84   1
   4   3 -13 2982.24 1457.31   2
   3   3 -13 67608.7 5506.02   2
   2   3 -13 7152.15 1899.82   2
   1   3 -13 79657.2 5712.12   2
   0   3 -13 1670.31 1008.13   2
  -1   3 -13 88878.4 5932.68   2
  -2   3  13 6582.22 1339.80   1
  -2   3 -13 4689.86 1407.58   2
  -3   3 -13 58932.1 4818.19   2
  -3   3  13 57106.8 4165.30   1
  -4   3  13-1211.65 871.816   1
  -4  -3  13 185.050 851.182   1
  -4   3 -13 1008.12 867.480   2
  -5  -3  13 58315.3 5712.01   1
  -5   3  13 59054.8 5126.53   1
  -6  -3  13 1061.58 1046.82   1
  -6   3  13 809.308 885.689   1
  -7   3  13 42102.2 5022.72   1
   4   3 -14 1438.42 1010.99   2
   3   3 -14 1528.72 956.784   2
   2   3 -14 3283.51 1307.73   2
   1   3 -14 677.515 754.466   2
   0   3 -14 2127.68 1119.65   2
  -1   3 -14-54.9445 739.143   2
  -2   3 -14 2281.00 1132.24   2
  -3   3 -14 269.922 882.870   2
  -4  -3  14 2415.37 1386.93   1
  -4   3 -14 3187.85 1270.53   2
  -4   3  14 1088.19 800.340   1
  -5   3  14 598.010 867.526   1
  -5   3 -14-1732.73 1188.02   2
  -5  -3  14 588.383 1042.92   1
  -6   3  14 3055.14 1464.73   1
   3   3 -15 33384.0 4201.28   2
   2   3 -15 2439.44 1226.57   2
   1   3 -15 48351.3 4823.01   2
   0   3 -15 347.104 840.070   2
  -1   3 -15 51123.3 4894.35   2
  -2   3 -15-619.220 755.987   2
  -3   3 -15 31199.0 3860.39   2
  -4   3 -15-647.332 893.625   2
  -4  -3  15-434.831 771.489   1
  -5   3 -15 56099.7 5266.26   2
   3   3 -16-1038.92 878.122   2
   2   3 -16 12702.1 2671.72   2
   1   3 -16 1401.24 1017.98   2
   0   3 -16 6448.91 1951.67   2
  -1   3 -16-542.227 994.304   2
  -2   3 -16 10672.3 2358.62   2
  -3   3 -16 243.888 804.702   2
  -4   3 -16 8113.75 2217.57   2
  -4  -3  16 10547.7 2625.33   1
  -5   3 -16-1097.57 898.472   2
   3   3 -17 43271.9 5109.28   2
   2   3 -17 1972.43 1435.29   2
   1   3 -17 72047.8 6394.83   2
   0   3 -17 879.994 1123.69   2
  -1   3 -17 66062.9 5994.88   2
  -2   3 -17 1733.54 1168.26   2
  -3   3 -17 28753.8 4074.88   2
  -3  -3  17 38125.7 4891.84   1
  -4   3 -17-1593.85 1257.63   2
   0   3 -18 3260.30 1456.34   2
  -1   3 -18 329.049 930.674   2
  -2   3 -18 5870.21 1891.75   2
   8   4   0 68781.1 5806.68   4
   7   4   0-28.7284 570.216   3
   6   4   0 115475. 6195.72   3
   5   4   0 450.046 671.320   3
   4   4   0 195104. 4402.73   2
   4   4   0 195563. 6913.55   3
   3   4   0 617.295 684.432   3
   2   4   0 287174. 7156.50   3
  -1   4   0-200.189 350.447   5
  -2   4   0 278448. 7389.27   5
  -3   4   0 351.508 472.408   5
  -3  -4   0 119.088 235.380   5
  -3  -4   0 594.586 494.512   1
  -4   4   0 202551. 7160.06   5
  -4  -4   0 206739. 6459.80   1
  -5   4   0-695.216 629.606   5
  -5  -4   0 1208.42 587.730   1
  -6   4   0 115769. 6086.06   5
  -6  -4   0 119539. 6054.79   1
  -7   4   0-208.304 557.079   5
  -7  -4   0-253.207 575.184   1
  -8   4   0 68642.8 5192.04   5
  -8  -4   0 68184.4 5544.68   1
   8   4  -1 2474.54 1193.45   4
   8   4   1 1358.45 957.627   4
   7   4  -1 8943.73 1844.06   3
   7   4   1 5599.02 1541.60   3
   6   4  -1 770.254 637.404   3
   6   4   1 1829.69 897.686   3
   5   4  -1 11417.0 1886.16   3
   5   4   1 12956.2 1955.43   3
   4   4   1 442.517 553.208   3
   4   4   1 501.377 225.562   2
   4   4  -1 790.205 393.436   2
   4   4  -1 1088.07 596.149   3
   3   4  -1 11539.8 1629.85   3
   3   4   1 13292.8 1686.68   3
   2   4  -1 830.125 489.061   3
   0   4   1 1659.81 560.959   5
  -1   4   1 20304.3 1892.43   5
  -2   4  -1 475.242 426.318   5
  -2   4   1 1153.65 621.777   5
  -2  -4  -1 1195.60 462.977   1
  -3  -4  -1 10443.0 1287.34   1
  -3  -4   1 13849.3 1628.06   1
  -3   4  -1 12828.0 1731.57   5
  -3   4   1 12616.4 1722.71   5
  -4  -4   1 678.958 534.843   1
  -4   4  -1 750.296 732.347   5
  -4   4   1-353.217 507.775   5
  -4  -4  -1 420.647 430.755   1
  -5  -4  -1 14658.2 1906.47   1
  -5   4  -1 12072.3 1885.94   5
  -5   4   1 13552.3 2011.77   5
  -5  -4   1 11902.7 1801.12   1
  -6  -4   1 752.870 618.022   1
  -6   4  -1-13.9201 459.768   5
  -6   4   1 1671.03 824.933   5
  -6  -4  -1 1065.28 729.228   1
  -7  -4   1 7125.16 1736.69   1
  -7   4  -1 5258.48 1405.62   5
  -7   4   1 6542.18 1655.42   5
  -7  -4  -1 6562.04 1580.71   1
  -8   4  -1-603.266 864.813   5
  -8   4   1 1098.16 933.144   5
  -8  -4  -1 1812.70 912.305   1
  -8  -4   1 617.849 754.655   1
  -9  -4   1 6031.69 1772.67   1
  -9   4   1 8216.48 1869.54   5
   8   4  -2 41641.3 4482.84   4
   8   4   2 38029.1 4374.22   4
   8   4   2 35862.4 3795.37   3
   7   4   2 56.0298 568.734   3
   6   4  -2 67285.0 4814.49   3
   6   4   2 59226.6 4363.81   3
   5   4   2 6017.21 1357.35   3
   5   4  -2 5397.40 1302.27   3
   4   4  -2 74559.3 4446.00   3
   4   4   2 80468.2 4358.18   3
   4   4  -2 75263.6 3381.77   2
   3   4  -2 684.695 577.553   3
   2   4  -2 63687.1 3524.17   3
   1   4   2 11761.1 1252.26   5
   1  -4  -2 11903.3 1247.56   1
   1   4  -2 11821.5 1401.13   3
   0   4   2 91826.5 3729.44   5
   0  -4  -2 90338.1 2914.81   1
  -1   4   2 12253.7 1470.09   5
  -2  -4  -2 66125.7 2423.94   1
  -2   4   2 62012.1 3511.70   5
  -3   4  -2 1537.71 706.422   5
  -3  -4   2 899.808 510.335   1
  -3  -4  -2 1207.86 458.819   1
  -3   4   2 472.975 486.003   5
  -4   4  -2 83180.4 4569.86   5
  -4  -4   2 74144.7 4275.15   1
  -4   4   2 75853.9 4458.29   5
  -4  -4  -2 75839.3 3580.13   1
  -5   4   2 4840.36 1225.74   5
  -5  -4   2 4300.18 1184.78   1
  -5  -4  -2 5791.51 1180.50   1
  -5   4  -2 4278.75 1238.71   5
  -6   4   2 65757.7 4661.22   5
  -6   4  -2 63481.7 4465.45   5
  -6   4   2 55334.4 4765.57   1
  -6  -4  -2 66443.1 4350.95   1
  -6  -4   2 60793.0 4524.14   1
  -7  -4   2 116.092 620.892   1
  -7  -4  -2 313.791 552.242   1
  -7   4   2-198.721 619.733   5
  -8   4   2 39639.2 4042.34   5
  -8  -4   2 40024.3 4385.22   1
  -9   4   2-186.467 922.683   5
  -9  -4   2-599.125 793.912   1
   8   4  -3 956.197 903.668   4
   8   4   3 1784.21 1186.06   4
   8   4   3 262.903 709.470   3
   7   4   3 6774.59 1670.22   3
   6   4   3 517.726 630.983   3
   5   4   3 9089.21 1553.15   3
   5   4  -3 12023.8 1529.13   2
   5   4  -3 11144.1 1919.71   3
   4   4   3 403.563 497.554   3
   4   4  -3 1178.86 555.894   2
   4   4  -3 622.736 584.144   3
   3   4  -3 10089.1 1300.99   2
   3   4  -3 8239.14 1469.95   3
   2   4   3-122.308 256.065   5
   2   4  -3-27.7547 350.482   3
   1   4  -3 9591.91 1327.94   3
   1   4   3 8861.78 1091.66   5
   1  -4  -3 10976.8 1136.58   1
   0   4  -3 2359.73 660.501   3
   0   4   3 1957.59 655.310   5
   0  -4  -3 1646.56 377.527   1
  -1   4  -3 9655.11 1095.87   3
  -2  -4  -3 17.5352 145.621   1
  -3  -4  -3 6591.84 837.362   1
  -3  -4   3 6508.68 1287.35   1
  -4  -4   3 294.820 480.030   1
  -4  -4  -3 383.549 390.937   1
  -4   4   3 219.795 476.719   1
  -5  -4   3 11854.4 1952.36   1
  -5   4   3 8390.66 1764.86   1
  -5   4   3 11367.8 1859.57   5
  -5  -4  -3 9086.35 1444.31   1
  -6   4   3 2207.10 1072.54   1
  -6   4   3 1416.26 873.395   5
  -6  -4   3 659.924 707.518   1
  -6  -4  -3-465.880 565.556   1
  -7   4   3 7106.81 1903.59   1
  -7  -4   3 6913.19 1746.24   1
  -7   4   3 8814.95 1834.56   5
  -8  -4   3-123.392 695.169   1
  -8   4   3-1022.81 1229.56   1
  -9   4   3 5037.78 1523.69   5
  -9  -4   3 1818.68 1215.00   1
   8   4  -4 57817.0 5326.66   4
   8   4   4 60649.2 5512.39   4
   8   4   4 50975.9 4448.68   3
   7   4   4 2643.82 994.909   3
   6   4   4 98165.8 5425.21   3
   5   4   4 2513.71 946.884   3
   5   4  -4 3744.03 933.308   2
   5   4  -4 2509.96 934.712   3
   4   4  -4 160792. 5708.24   2
   4   4  -4 154593. 6558.83   3
   3   4  -4 7434.48 1256.87   2
   3   4  -4 10958.0 1688.63   3
   2   4   4 207659. 4679.76   5
   2   4  -4 208931. 6708.43   3
   1  -4  -4-173.910 250.260   1
   1   4   4 5.81888 195.125   5
   1   4  -4 199.414 456.837   3
   0   4  -4 295567. 6690.11   3
   0  -4  -4 268067. 3794.04   1
  -1   4  -4 43.3837 255.462   3
  -2   4  -4 210341. 4658.04   3
  -3   4   4 8179.97 1401.30   1
  -3  -4  -4 7670.75 794.393   1
  -3   4  -4 7934.97 805.089   3
  -4  -4   4 149750. 6546.48   1
  -4   4   4 156733. 6632.20   1
  -4  -4  -4 153684. 4588.87   1
  -5  -4   4 2284.20 1022.55   1
  -5   4   4 3112.01 1134.65   1
  -5  -4  -4 3415.43 844.663   1
  -6   4   4 92448.2 6196.71   1
  -6  -4   4 107091. 6348.07   1
  -7   4   4-493.112 1004.89   1
  -7   4   4 1985.62 976.493   5
  -7  -4   4 3601.51 1311.93   1
  -8   4   4 58848.0 5027.66   5
  -8   4   4 50307.8 5489.49   1
  -8  -4   4 54593.6 5295.22   1
   8   4  -5-286.131 768.311   4
   8   4   5 951.170 950.972   4
   7   4   5 8913.33 1726.85   3
   6   4   5 861.552 637.193   3
   5   4   5 11670.7 1764.37   3
   5   4  -5 14634.2 1919.33   2
   4   4  -5-163.690 434.367   2
   4   4  -5-58.9815 553.811   3
   3   4   5 15119.3 1041.05   5
   3   4  -5 15333.9 1897.11   2
   3   4  -5 15073.5 2011.41   3
   2   4   5 451.639 301.569   5
   2   4  -5 470.980 514.094   3
   1  -4  -5 25165.6 1629.60   1
   1   4  -5 22852.0 2127.19   3
   0   4  -5 2324.42 686.476   3
  -1   4  -5 23688.6 1820.02   3
  -2   4   5 21.3118 273.979   1
  -2   4  -5-41.1362 243.121   3
  -3   4   5 15326.1 1889.83   1
  -3   4  -5 14950.2 1085.59   3
  -4  -4  -5 560.106 355.246   1
  -4   4   5 885.066 676.972   1
  -4  -4   5 648.921 648.802   1
  -5   4   5 12678.8 2057.98   1
  -5  -4   5 12628.4 2154.17   1
  -6   4   5 995.296 845.757   1
  -6  -4   5 204.980 645.995   1
  -7   4   5 4529.29 1566.32   1
  -7  -4   5 8425.89 2014.04   1
  -8  -4   5 1326.99 1080.20   1
  -8   4   5 1457.79 1075.82   1
  -8   4   5-2.13456 537.224   5
   8   4  -6 47655.1 4817.75   4
   8   4   6 47847.1 4986.61   4
   7   4   6 3863.43 1368.15   3
   6   4   6 74511.5 4697.02   3
   5   4   6 1672.34 776.394   3
   5   4  -6 1784.79 797.550   2
   4   4  -6 99056.9 5040.14   2
   3   4   6 17069.9 1201.68   5
   3   4  -6 16543.4 2064.71   2
   3   4  -6 15577.0 2075.43   3
   2   4  -6 103954. 4908.86   3
   1  -4  -6-130.355 261.141   1
   1   4  -6-231.284 391.900   3
   0   4  -6 130243. 4746.29   3
  -1   4  -6-387.852 375.721   3
  -2   4   6 111481. 4320.05   1
  -2   4  -6 105373. 3395.05   3
  -3   4   6 18158.8 2052.94   1
  -4  -4   6 99342.7 5830.69   1
  -4   4   6 108844. 5576.75   1
  -5   4   6 1576.62 825.195   1
  -5  -4   6 2968.79 1132.54   1
  -6  -4   6 77469.5 5801.19   1
  -6   4   6 75778.2 5644.57   1
  -7   4   6 3342.61 1511.13   1
  -7  -4   6 7107.25 1881.64   1
  -8   4   6 48540.5 4691.15   5
  -8   4   6 47426.5 5302.03   1
  -8  -4   6 45224.6 5024.55   1
   8   4  -7 3927.36 1427.21   4
   8   4   7 5876.58 1821.91   4
   7   4   7 1956.71 1007.53   3
   6   4   7 2251.71 914.168   3
   5   4  -7 2991.90 997.861   2
   4   4  -7 6741.98 1463.89   2
   3   4   7 1286.99 395.420   5
   3   4  -7 2610.99 950.240   2
   2   4  -7 13284.1 1915.10   2
  -1   4   7 1554.58 427.986   1
  -2   4   7 13930.9 1566.76   1
  -3   4   7 2004.34 748.783   1
  -4  -4   7 6627.05 1627.64   1
  -4   4   7 6964.41 1503.85   1
  -5   4   7 3008.52 1194.77   1
  -5  -4   7 4215.33 1437.66   1
  -6  -4   7 3067.24 1364.24   1
  -6   4   7 2173.57 1382.01   1
  -7   4   7 551.415 746.056   1
  -7  -4   7 2731.56 1295.52   1
  -8   4   7 4798.63 1793.19   1
  -8  -4   7 3589.60 1448.08   1
   8   4   8 41740.6 4607.65   4
   8   4  -8 35158.2 4250.60   4
   7   4  -8-14.4589 759.450   4
   7   4   8 799.842 915.771   4
   6   4   8 59271.6 4234.78   3
   5   4  -8 9473.49 1800.21   2
   4   4  -8 84005.0 5174.82   2
   3   4  -8 4726.38 1258.13   2
   2   4  -8 106280. 5609.18   2
  -1   4   8 6271.77 842.962   1
  -2   4   8 104831. 4234.20   1
  -3   4   8 5870.51 1254.51   1
  -4  -4   8 85480.9 5829.50   1
  -4   4   8 86207.9 5048.51   1
  -5   4   8 11630.3 2194.20   1
  -5  -4   8 10939.9 2203.88   1
  -6  -4   8 58310.1 5341.06   1
  -6   4   8 63989.5 5280.04   1
  -7   4   8 1416.66 1046.08   1
  -7  -4   8 1542.03 1203.36   1
   8   4   9 3581.21 1353.36   4
   7   4  -9 11277.0 2249.45   4
   7   4   9 10585.7 2114.27   4
   6   4   9 7882.69 1665.29   3
   5   4  -9 17693.7 2595.13   2
   4   4  -9 10455.8 2035.90   2
   3   4  -9 21175.8 2687.72   2
   2   4  -9 13795.3 2156.73   2
   1   4  -9 37862.7 3467.14   2
  -1   4   9 35085.5 2008.14   1
  -2   4   9 11245.3 1437.69   1
  -3   4   9 24008.5 2428.79   1
  -4   4   9 5248.93 1292.06   1
  -4  -4   9 7008.96 1711.98   1
  -5   4   9 20940.1 2851.05   1
  -5  -4   9 16848.7 2797.69   1
  -6  -4   9 5807.61 1884.69   1
  -6   4   9 4872.39 1573.80   1
  -7   4   9 11134.2 2477.73   1
  -7  -4   9 10314.9 2498.81   1
   7   4 -10-157.594 747.825   4
   7   4  10 2123.19 1160.57   4
   6   4  10 52907.6 4028.79   3
   5   4 -10 12496.3 2252.05   2
   4   4 -10 67288.3 5073.63   2
   3   4 -10 7414.74 1767.71   2
   2   4 -10 72353.5 5086.26   2
   1   4 -10 3555.92 1294.60   2
  -2   4  10 77720.3 3817.96   1
  -3   4  10 4924.31 1159.86   1
  -4  -4  10 73312.9 5809.40   1
  -4   4  10 67180.5 4608.01   1
  -5  -4  10 6226.21 1892.10   1
  -5   4  10 8080.79 1866.87   1
  -6  -4  10 50483.1 5357.23   1
  -6   4  10 47209.3 4652.35   1
  -7   4  10 4516.20 1650.35   1
  -7  -4  10 2637.54 1302.74   1
   6   4 -11 1191.66 890.416   4
   5   4 -11 4908.67 1661.48   2
   4   4 -11 1710.62 1129.26   2
   3   4 -11 2167.46 1062.18   2
   2   4 -11 3825.54 1340.46   2
   1   4 -11 2794.40 995.238   2
   0   4 -11 2637.56 1058.97   2
  -3   4  11 2534.56 922.626   1
  -4  -4  11 2521.78 1213.13   1
  -4   4  11 3417.82 1121.59   1
  -5  -4  11 2931.22 1429.33   1
  -5   4  11 4535.55 1399.06   1
  -6  -4  11 1117.86 943.852   1
  -6   4  11 1198.07 1015.81   1
  -7   4  11 2228.64 1173.54   1
   5   4 -12 3140.04 1287.91   2
   4   4 -12 57478.6 5115.22   2
   3   4 -12 8546.20 1952.22   2
   2   4 -12 70472.8 5442.59   2
   1   4 -12 1044.84 861.921   2
   0   4 -12 84721.2 5825.37   2
  -1   4 -12 696.978 817.841   2
  -4  -4  12 62012.1 5716.17   1
  -5  -4  12 2852.28 1436.96   1
  -5   4  12 3207.82 1188.42   1
  -6  -4  12 46638.1 5359.37   1
  -6   4  12 40592.3 4450.62   1
  -7   4  12 525.659 911.037   1
   4   4 -13 1713.80 1088.70   2
   3   4 -13 6896.93 1876.77   2
   2   4 -13 350.658 685.135   2
   1   4 -13 9765.42 2191.19   2
   0   4 -13-1863.69 1054.75   2
  -1   4 -13 5835.01 1683.61   2
  -2   4 -13 2044.76 1135.38   2
  -4  -4  13 458.174 886.478   1
  -5  -4  13 5878.65 1978.31   1
   4   4 -14 55467.7 5440.52   2
   3   4 -14 5199.10 1789.22   2
   2   4 -14 67627.1 5738.66   2
   1   4 -14 401.190 787.304   2
   0   4 -14 70698.3 5812.95   2
  -1   4 -14 1884.05 1068.65   2
  -2   4 -14 68322.7 5696.74   2
  -3   4 -14 7411.88 1933.21   2
  -4   4 -14 61728.7 5498.87   2
  -4  -4  14 39297.4 4805.98   1
   4   4 -15 591.069 1088.49   2
   3   4 -15 5669.08 1809.88   2
   2   4 -15 28.3431 758.129   2
   1   4 -15 4478.44 1642.39   2
   0   4 -15 142.408 567.231   2
  -1   4 -15 8015.30 2178.70   2
  -2   4 -15-52.2063 705.055   2
  -3   4 -15 2988.50 1383.28   2
  -4  -4  15-1771.66 1177.21   1
  -4   4 -15 1376.92 1249.61   2
  -5   4 -15 4034.75 1594.29   2
   3   4 -16 6130.44 1914.78   2
   2   4 -16 36661.3 4632.49   2
   1   4 -16 1050.58 1039.64   2
   0   4 -16 29341.7 4028.24   2
  -1   4 -16-1241.27 1084.89   2
  -2   4 -16 37235.6 4573.02   2
  -3   4 -16 3366.06 1567.84   2
  -4   4 -16 28209.9 4042.27   2
   1   4 -17 11077.3 2646.40   2
   0   4 -17 447.772 601.040   2
  -1   4 -17 12025.9 2705.22   2
  -2   4 -17-137.881 600.319   2
   7   5   0 1399.42 922.616   3
   6   5   0 10185.1 2013.87   3
   5   5   0 1190.39 774.089   3
   4   5   0 22038.2 2552.71   3
   3   5   0 266.536 560.881   3
   2   5   0 35910.6 2830.03   3
  -1   5   0 95.9996 479.200   5
  -2   5   0 34483.1 2885.80   5
  -3  -5   0-70.7670 400.622   1
  -3   5   0 189.085 610.599   5
  -4  -5   0 20474.6 2145.14   1
  -4   5   0 20277.5 2487.39   5
  -5   5   0 2397.20 923.382   5
  -5  -5   0 194.022 472.038   1
  -6  -5   0 11225.8 1963.87   1
  -6   5   0 8611.94 1898.34   5
  -7   5   0 1392.61 937.509   5
  -8   5   0 12147.3 2434.95   5
   8   5   1-2.24038 617.362   3
   7   5   1 30792.4 3665.47   3
   7   5  -1 26516.4 3402.98   3
   6   5  -1-167.048 703.463   3
   6   5   1 1196.70 792.082   3
   5   5  -1 145282. 7068.63   3
   5   5   1 128618. 6471.89   3
   4   5   1 488.038 721.558   3
   4   5  -1 53.8196 265.511   2
   4   5  -1 341.981 555.549   3
   3   5  -1 34721.7 3026.11   3
   3   5   1 36933.5 3068.70   3
   2   5  -1 623.079 488.361   3
   0   5   1 1172.56 516.730   5
  -1   5   1 142389. 5552.25   5
  -2   5  -1 837.895 571.301   5
  -2   5   1 440.607 598.670   5
  -3  -5  -1 34459.8 2362.86   1
  -3  -5   1 35145.3 2760.40   1
  -3   5  -1 36255.6 3135.29   5
  -3   5   1 34763.7 3103.48   5
  -4   5  -1 187.310 452.674   5
  -4   5   1 1494.19 824.905   5
  -4  -5   1-227.035 382.206   1
  -4  -5  -1 948.858 550.347   1
  -5   5  -1 136123. 6685.68   5
  -5   5   1 131410. 6689.55   5
  -5  -5  -1 125463. 5490.77   1
  -5  -5   1 135925. 6165.58   1
  -6  -5   1-314.683 544.628   1
  -6   5  -1 166.506 667.673   5
  -6   5   1-73.7654 593.779   5
  -7  -5   1 26450.6 3226.55   1
  -7   5  -1 23861.9 3119.36   5
  -7   5   1 24332.5 3287.13   5
  -8   5   1-2.21845 706.069   5
   8   5   2 5058.77 1567.03   3
   7   5  -2 1039.80 917.049   3
   7   5   2 2087.57 1125.97   3
   6   5  -2 3815.83 1338.03   3
   6   5   2 2290.64 1038.50   3
   5   5   2 349.984 599.711   3
   5   5  -2 2617.90 1126.02   3
   4   5   2 7553.39 1494.32   3
   4   5  -2 5974.22 1064.99   2
   4   5  -2 6932.34 1562.50   3
   3   5  -2 917.744 632.120   3
   2   5  -2 4585.83 1110.63   3
   1   5  -2 918.444 621.396   3
   1   5   2 992.905 553.030   5
   0   5   2 2461.08 772.414   5
   0  -5  -2 2008.24 550.801   1
  -1   5   2 1034.51 495.798   5
  -2  -5  -2 4705.83 752.388   1
  -2   5   2 6627.38 1296.45   5
  -3  -5   2-50.0119 414.574   1
  -3   5   2-301.713 582.809   5
  -3  -5  -2 897.517 410.961   1
  -4  -5  -2 6633.83 1132.71   1
  -4   5   2 5212.79 1324.02   5
  -4  -5   2 8670.66 1539.12   1
  -5   5   2 1005.86 800.963   5
  -5  -5   2 1529.87 776.504   1
  -6   5   2 7308.35 1721.44   5
  -6  -5   2 5001.51 1358.49   1
  -7  -5   2 1723.49 1068.63   1
  -7   5   2-213.452 577.587   5
  -8   5   2 9332.08 2109.79   5
   8   5   3-1395.99 1054.57   3
   7   5   3 58118.8 4889.56   3
   6   5  -3 4517.50 1407.81   3
   6   5   3 1418.32 803.338   3
   5   5  -3 182191. 8027.41   3
   5   5   3 185769. 7631.08   3
   4   5   3 1878.61 801.894   3
   4   5  -3 1381.25 613.854   2
   4   5  -3 278.552 680.870   3
   3   5  -3 87256.5 4969.18   3
   2   5  -3 3140.86 967.861   3
   1   5   3 237189. 6348.91   5
   1   5  -3 220313. 6847.93   3
   0   5  -3 4522.12 944.694   3
   0   5   3 5127.24 1068.30   5
   0  -5  -3 4651.83 701.863   1
  -1   5   3 235120. 7208.22   5
  -1  -5  -3 221278. 4025.23   1
  -1   5  -3 245050. 6246.84   3
  -2   5   3 1028.44 683.345   5
  -2  -5  -3 1166.33 337.527   1
  -3   5   3 86049.6 4865.60   5
  -3  -5  -3 85961.9 2968.38   1
  -4  -5   3 3444.12 1026.12   1
  -4   5   3 1280.06 816.326   5
  -5  -5   3 190530. 7964.99   1
  -5   5   3 182260. 7942.66   5
  -6   5   3 1362.99 912.610   5
  -6  -5   3 314.356 536.110   1
  -7   5   3 49244.0 4649.36   5
  -7  -5   3 52984.1 4777.41   1
  -8  -5   3-2103.75 1243.11   1
  -8   5   3 81.0446 504.694   5
   8   5   4 3376.30 1338.90   3
   7   5   4 1579.66 982.970   3
   6   5   4 3681.93 1269.14   3
   5   5   4 1966.75 922.897   3
   5   5  -4 1578.53 931.507   3
   4   5  -4 8682.23 1464.56   2
   4   5  -4 10528.4 1940.92   3
   3   5  -4 58.2297 601.733   3
   2   5   4 11579.6 1307.22   5
   2   5  -4 11245.5 1726.05   3
   1  -5  -4 356.355 357.337   1
   1   5   4 422.040 439.531   5
   1   5  -4 332.522 573.869   3
   0   5   4 13449.1 1657.06   5
   0   5  -4 12589.0 1571.90   3
   0  -5  -4 13846.0 1043.98   1
  -1   5  -4 259.966 363.324   3
  -1   5   4 581.468 501.800   5
  -2   5   4 13615.9 1893.66   5
  -2   5  -4 13951.9 1456.09   3
  -3   5  -4-71.8467 281.112   3
  -3   5   4 580.457 533.608   5
  -4   5   4 8660.35 1721.96   5
  -4  -5   4 8505.30 1698.78   1
  -5   5   4 397.335 676.422   5
  -5  -5   4 1936.71 985.675   1
  -6   5   4 3799.52 1351.54   5
  -6  -5   4 1904.11 1055.40   1
  -7   5   4-549.029 955.288   5
  -7  -5   4 290.118 864.902   1
  -8  -5   4 2640.00 1424.11   1
  -8   5   4 2793.67 1283.14   5
   8   5   5 1510.65 1140.82   3
   7   5   5 33117.0 3711.64   3
   6   5   5 754.717 681.261   3
   5   5  -5 111854. 6496.92   3
   5   5   5 113522. 5892.16   3
   4   5  -5 2773.22 928.483   2
   4   5  -5 2092.68 970.598   3
   3   5  -5 51472.2 3624.91   2
   3   5  -5 49313.9 3855.17   3
   2   5   5 5006.29 931.003   5
   2   5  -5 5365.01 1290.11   3
   1   5   5 138078. 4991.35   5
   1   5  -5 143090. 5779.56   3
   0   5   5 811.169 559.911   5
   0   5  -5 1881.86 746.902   3
  -1   5  -5 144444. 5028.10   3
  -2   5  -5 4497.57 851.370   3
  -3   5  -5 52419.2 2497.55   3
  -4  -5   5 4396.18 1276.55   1
  -5  -5   5 126717. 6947.95   1
  -6   5   5-131.828 658.137   5
  -6  -5   5 2097.93 1022.84   1
  -7   5   5 36843.3 4054.28   5
  -7  -5   5 34909.5 4128.34   1
  -8  -5   5 2732.86 1404.78   1
   7   5   6 5424.21 1583.54   3
   6   5   6 4034.04 1277.77   3
   5   5   6 1934.76 986.395   3
   5   5  -6 1060.37 749.725   2
   4   5  -6 5198.93 1262.35   2
   4   5  -6 944.253 749.450   3
   3   5  -6 7038.23 1414.99   2
   3   5  -6 7502.12 1500.35   3
   2   5   6 1310.46 531.084   5
   2   5  -6 973.714 574.813   3
   1   5   6 4302.15 971.880   5
   1   5  -6 4849.19 1168.62   3
   0   5  -6 272.557 478.450   3
  -1   5  -6 5607.38 1055.15   3
  -2   5  -6 2062.64 633.394   3
  -4   5   6 3190.06 1094.29   1
  -4  -5   6 3338.48 1296.08   1
  -5   5   6 3768.65 1299.62   1
  -5  -5   6 3206.25 1226.66   1
  -6  -5   6 1940.30 961.810   1
  -6   5   6 2690.11 1142.57   1
  -7   5   6 3929.50 1618.51   1
  -7   5   6 1380.17 1032.20   5
  -7  -5   6 4191.66 1546.97   1
   7   5   7 36392.9 3808.63   3
   6   5   7 950.457 762.632   3
   5   5  -7 101204. 5791.95   2
   4   5  -7 936.173 697.275   2
   3   5  -7 50724.8 3954.33   2
   2   5   7 560.750 502.741   5
   2   5  -7 128.206 646.190   3
   1   5  -7 108212. 5190.17   3
   0   5  -7 695.840 533.790   3
  -1   5  -7 103439. 4422.33   3
  -2   5  -7 846.023 473.067   3
  -4   5   7 1726.18 747.397   1
  -4  -5   7 1125.88 839.104   1
  -5  -5   7 89899.4 6311.50   1
  -5   5   7 93252.8 5938.98   1
  -6  -5   7 239.807 711.574   1
  -6   5   7 678.414 796.132   1
  -7   5   7 36224.0 4426.41   1
  -7  -5   7 32228.8 4131.56   1
   7   5   8 3351.95 1259.13   3
   6   5   8 16927.4 2476.57   3
   5   5  -8 2341.91 1173.68   2
   4   5  -8 34589.8 3445.21   2
   3   5  -8 1539.44 881.060   2
   2   5  -8 38018.7 3529.87   2
  -3   5   8 819.098 605.237   1
  -4  -5   8 32092.3 3756.45   1
  -4   5   8 26374.5 2902.14   1
  -5  -5   8 25.1303 672.426   1
  -5   5   8 2040.76 1058.32   1
  -6  -5   8 21161.9 3331.01   1
  -6   5   8 18481.7 2979.74   1
  -7   5   8 232.616 509.982   1
  -7  -5   8-1689.70 1164.32   1
   6   5   9 1126.19 845.861   3
   5   5  -9 67114.0 5143.06   2
   4   5  -9 1099.57 782.293   2
   3   5  -9 60942.1 4745.68   2
   2   5  -9 889.799 786.761   2
  -4   5   9 1397.00 813.799   1
  -4  -5   9 1488.24 1122.23   1
  -5  -5   9 74240.2 6078.28   1
  -5   5   9 71785.6 5279.85   1
  -6   5   9 361.507 761.360   1
  -6  -5   9 2281.67 1326.41   1
  -7   5   9 28280.8 3891.15   1
   7   5 -10 830.408 722.176   4
   6   5  10-1368.11 886.672   3
   5   5 -10 1781.15 1063.77   2
   4   5 -10-5.94828 529.178   2
   3   5 -10 289.025 679.601   2
   2   5 -10 1460.76 849.288   2
   1   5 -10 1175.79 830.885   2
  -4  -5  10 787.914 919.334   1
  -5  -5  10-860.714 1058.14   1
  -6  -5  10 1571.83 1292.61   1
   6   5  11-551.975 665.907   3
   5   5 -11 53937.6 5021.23   2
   4   5 -11 1742.79 1061.71   2
   3   5 -11 57759.7 5027.13   2
   2   5 -11 260.715 779.371   2
   1   5 -11 76112.4 5638.78   2
  -4  -5  11 388.049 886.842   1
  -5  -5  11 52152.1 5434.70   1
   5   5 -12 1883.24 959.010   2
   4   5 -12 6707.15 1898.62   2
   3   5 -12-434.159 790.012   2
   2   5 -12 9543.64 2143.58   2
   1   5 -12 794.484 881.203   2
   0   5 -12 17154.5 2768.77   2
  -4  -5  12 8887.39 2330.65   1
  -5  -5  12 1170.38 1064.98   1
   5   5 -13 42482.5 4826.60   2
   4   5 -13-142.278 723.022   2
   3   5 -13 68215.0 5858.79   2
   2   5 -13 1601.56 998.791   2
   1   5 -13 68682.0 5840.85   2
   0   5 -13 230.006 685.386   2
  -1   5 -13 74469.9 5959.39   2
  -4  -5  13 1620.91 1294.67   1
   5   5 -14 1379.38 1119.54   2
   4   5 -14 1053.86 1090.84   2
   3   5 -14 507.525 834.428   2
   2   5 -14 2942.01 1413.71   2
   1   5 -14-1693.52 1241.45   2
   0   5 -14 4334.89 1549.46   2
  -1   5 -14 483.594 1155.40   2
  -2   5 -14 4041.43 1519.03   2
   3   5 -15 42452.4 4934.53   2
   2   5 -15 2012.39 1226.39   2
   1   5 -15 24012.5 3695.97   2
   0   5 -15 2926.45 1675.90   2
  -1   5 -15 19632.9 3388.23   2
  -2   5 -15-589.319 855.784   2
  -3   5 -15 32304.6 4300.78   2
   7   6   0-797.733 978.401   3
   6   6   0 75870.7 5758.51   3
   5   6   0 589.731 768.302   3
   4   6   0 99113.5 5798.02   3
   3   6   0-13.5308 475.620   3
   2   6   0 100112. 5165.25   3
  -2   6   0 98590.9 5331.59   5
  -3  -6   0 571.047 525.384   1
  -3   6   0 327.113 535.709   5
  -4   6   0 93617.0 5717.30   5
  -5   6   0 770.088 730.945   5
  -6   6   0 80169.7 5852.40   5
  -7   6   0 779.620 898.601   5
   7   6  -1 14128.1 2634.38   3
   7   6   1 10393.2 2357.85   3
   6   6  -1 1402.57 1052.95   3
   6   6   1 1421.61 987.962   3
   5   6  -1 12920.7 2382.09   3
   5   6   1 13039.7 2274.77   3
   4   6   1 531.965 679.220   3
   4   6  -1 748.165 742.788   3
   3   6  -1 21679.9 2589.00   3
   3   6   1 21664.0 2573.18   3
   2   6  -1 1082.12 802.157   3
   1   6  -1 17483.0 2118.02   3
  -1   6   1 21687.2 2385.60   5
  -2   6   1 493.643 623.944   5
  -3  -6   1 25464.2 2505.03   1
  -3   6   1 24902.4 2846.86   5
  -4   6   1 1485.65 981.366   5
  -4  -6   1 1879.47 802.874   1
  -5   6   1 12088.8 2249.03   5
  -6   6   1-833.602 964.351   5
  -7   6   1 11977.5 2420.01   5
   7   6  -2-1412.58 1004.05   3
   7   6   2 244.149 940.910   3
   6   6  -2 47895.4 4699.86   3
   6   6   2 51419.5 4715.23   3
   5   6   2 3903.69 1306.39   3
   5   6  -2 2264.88 1170.70   3
   4   6  -2 55102.5 4513.43   3
   4   6   2 57482.4 4384.05   3
   3   6  -2 648.285 630.636   3
   3   6   2-29.0209 499.573   3
   2   6  -2 36817.4 3266.92   3
   1   6  -2 2633.16 898.284   3
   0   6   2 104413. 4963.58   5
   0   6  -2 96884.4 4649.21   3
  -1   6   2 2702.11 954.928   5
  -2   6   2 39742.2 3465.09   5
  -3   6   2 58.6682 445.594   5
  -3  -6   2 586.162 579.920   1
  -4  -6   2 53185.1 3970.47   1
  -4   6   2 55931.6 4479.18   5
  -5  -6   2 2883.44 1046.37   1
  -5   6   2 2333.70 1119.91   5
  -6   6   2 62630.3 5319.88   5
  -7   6   2 411.485 757.018   5
   7   6   3 798.415 933.122   3
   6   6  -3 1401.62 937.154   3
   6   6   3 445.296 754.705   3
   5   6   3-200.904 576.143   3
   5   6  -3 796.203 868.259   3
   4   6   3 1138.38 1048.57   3
   4   6  -3 224.143 695.767   3
   3   6  -3 1930.39 938.897   3
   2   6  -3-44.0107 526.099   3
   1   6  -3 892.718 650.680   3
   1   6   3 1055.32 528.707   5
   0   6  -3 984.039 631.455   3
   0   6   3 1440.09 678.440   5
  -1   6  -3 439.997 483.095   3
  -1   6   3 1795.46 748.597   5
  -2   6   3 653.392 540.312   5
  -3   6   3 2104.86 1072.13   5
  -4  -6   3 217.063 545.854   1
  -4   6   3-653.343 745.434   5
  -5  -6   3-866.190 702.042   1
  -5   6   3 467.491 609.380   5
  -6   6   3-1737.04 1145.58   5
  -6  -6   3-297.568 623.217   1
  -7   6   3 2015.06 974.463   5
   7   6   4 2267.92 1253.37   3
   6   6  -4 109438. 7163.77   3
   6   6   4 116039. 6904.37   3
   5   6   4 654.311 548.572   3
   5   6  -4-620.840 836.394   3
   4   6  -4 123258. 5760.53   2
   4   6  -4 130406. 7091.66   3
   3   6  -4 11226.9 1995.65   3
   2   6  -4 139064. 6482.35   3
   1   6   4 1835.58 721.404   5
   1   6  -4 2097.31 866.314   3
   0   6   4 246378. 7798.95   5
   0   6  -4 259866. 7824.63   3
  -1   6  -4 2018.63 708.121   3
  -1   6   4 2129.06 827.033   5
  -2   6   4 152063. 6772.17   5
  -2   6  -4 142578. 5177.13   3
  -3   6   4 9687.64 1807.87   5
  -4  -6   4 125306. 6629.31   1
  -4   6   4 129167. 6924.09   5
  -5   6   4 68.2435 583.167   5
  -5  -6   4 961.645 888.410   1
  -6  -6   4 115856. 7020.73   1
  -6   6   4 102889. 6834.09   5
   7   6   5 6917.76 1818.67   3
   6   6   5 2246.72 1083.24   3
   5   6   5 11285.1 2105.77   3
   5   6  -5 8846.06 2098.97   3
   4   6  -5 296.319 568.827   2
   4   6  -5 1165.51 892.466   3
   3   6  -5 15645.6 2380.24   3
   2   6   5 507.153 462.752   5
   2   6  -5 799.087 667.189   3
   1   6   5 15972.2 1916.80   5
   1   6  -5 16421.0 2194.97   3
   0   6   5-110.186 444.868   5
   0   6  -5-666.683 561.992   3
  -1   6   5 12604.6 1932.59   5
  -1   6  -5 11938.6 1665.66   3
  -2   6   5 342.814 540.218   5
  -2   6  -5 617.604 521.660   3
  -3   6   5 17339.4 2484.82   5
  -4   6   5 535.723 788.540   5
  -4  -6   5 234.628 657.582   1
  -5   6   5 8986.74 2037.40   5
  -5  -6   5 10913.4 2162.14   1
  -6  -6   5-627.776 899.088   1
  -6   6   5 2086.79 1157.99   5
  -7  -6   5 8570.89 2161.68   1
   7   6   6 1014.24 709.799   3
   6   6   6 47130.9 4422.86   3
   5   6   6 5655.34 1515.61   3
   4   6  -6 46987.2 3937.01   2
   4   6  -6 47399.5 4380.21   3
   3   6  -6 1415.50 767.122   2
   3   6  -6 989.474 817.667   3
   2   6   6 39774.9 2800.02   5
   2   6  -6 39335.4 3570.77   3
   1   6   6 4165.50 972.412   5
   1   6  -6 4882.95 1275.62   3
   0   6   6 81286.5 4595.84   5
   0   6  -6 74331.9 4398.40   3
  -1   6   6 3061.07 1012.86   5
  -1   6  -6 4961.52 1169.11   3
  -2   6   6 35405.2 3362.14   5
  -2   6  -6 36080.2 2687.27   3
  -3   6   6 642.946 736.809   5
  -4  -6   6 46795.9 4472.97   1
  -4   6   6 43383.1 4103.71   5
  -5   6   6 6967.60 1754.80   5
  -5  -6   6 6516.68 1796.71   1
  -6  -6   6 46007.3 4781.94   1
  -6   6   6 40787.5 4410.30   5
  -7  -6   6 5324.76 1717.37   1
   7   6   7 7757.29 1904.96   3
   6   6   7 828.717 782.914   3
   5   6   7 8448.06 1769.03   3
   4   6  -7 1428.73 848.375   2
   3   6  -7 12763.7 2165.74   2
   3   6  -7 10969.8 2128.81   3
   2   6   7-550.350 458.476   5
   2   6  -7 62.9376 538.512   3
   1   6   7 6872.08 1332.49   5
   1   6  -7 5538.45 1336.39   3
   0   6   7 1516.00 728.205   5
   0   6  -7 1192.80 704.202   3
  -1   6  -7 6642.73 1288.30   3
  -4  -6   7 1737.89 1015.00   1
  -5   6   7 6558.04 1742.45   5
  -5  -6   7 7034.54 1918.38   1
  -6  -6   7-1873.49 1291.82   1
  -6   6   7 969.985 979.757   5
  -7  -6   7 7682.47 2118.09   1
   6   6   8 47333.5 4495.04   3
   4   6  -8 60073.8 4800.08   2
   3   6  -8 3599.06 1258.38   2
   1   6   8 1273.44 564.161   5
   1   6  -8-354.786 601.940   3
   0   6  -8 94376.6 5076.78   3
  -1   6  -8 549.672 551.233   3
  -4  -6   8 59543.3 5345.93   1
  -5  -6   8 3987.75 1511.80   1
  -6  -6   8 52803.9 5436.62   1
   6   6   9 1226.67 811.246   3
   4   6  -9 1371.68 1026.85   2
   3   6  -9 12573.5 2326.79   2
   2   6  -9-437.997 786.639   2
  -4  -6   9-1523.84 1016.12   1
  -5  -6   9 11952.1 2522.92   1
  -6  -6   9 3465.43 1514.51   1
   6   6  10 45028.3 4406.65   3
   4   6 -10 52805.0 4824.76   2
   3   6 -10 6756.55 1769.62   2
   2   6 -10 61308.9 5166.12   2
  -4  -6  10 61090.0 5766.94   1
  -5  -6  10 3861.01 1596.63   1
   4   6 -11-158.005 582.198   2
   3   6 -11 2180.72 1113.90   2
   2   6 -11 2273.67 1128.89   2
   1   6 -11 3310.72 1239.45   2
  -4  -6  11 2824.67 1410.85   1
  -5  -6  11 2679.42 1401.49   1
   4   6 -12 52361.3 5176.10   2
   3   6 -12 3633.33 1476.66   2
   2   6 -12 68166.2 5929.15   2
   1   6 -12 3278.49 1404.58   2
   0   6 -12 70117.8 5883.47   2
  -4  -6  12 50671.6 5571.68   1
   4   6 -13-750.193 1212.66   2
   3   6 -13 3927.15 1563.63   2
   2   6 -13 1055.36 1196.77   2
   1   6 -13 7060.10 2034.00   2
   0   6 -13 353.916 790.139   2
   3   6 -14 6100.29 1886.61   2
   2   6 -14 37756.0 4717.31   2
   1   6 -14 845.294 853.508   2
   0   6 -14 28429.7 4085.56   2
  -1   6 -14-1442.64 1066.04   2
   6   7   0 13419.4 2754.98   3
   5   7   0 938.901 927.382   3
   4   7   0 10539.4 2167.70   3
   3   7   0 392.695 596.476   3
   2   7   0 21979.1 2744.84   3
   6   7  -1 1835.45 1247.11   3
   6   7   1-2532.36 1377.82   3
   5   7  -1 31021.3 3875.19   3
   5   7   1 31400.9 3736.80   3
   4   7   1 1553.72 1008.50   3
   4   7  -1-64.9638 761.846   3
   3   7  -1 100490. 6075.91   3
   3   7   1 104385. 6115.47   3
   2   7  -1 578.348 608.379   3
   2   7   1 553.009 602.551   3
   1   7  -1 68449.6 4508.67   3
  -2   7   1-296.468 578.463   5
  -3   7   1 93704.4 5906.30   5
  -4   7   1 63.7505 594.164   5
  -5   7   1 33952.1 3959.72   5
  -6   7   1 2569.47 1117.23   5
   6   7   2 3687.32 1472.36   3
   5   7   2 1034.31 1066.37   3
   5   7  -2 3719.30 1413.11   3
   4   7   2 4138.24 1378.70   3
   4   7  -2 1411.35 1028.55   3
   3   7   2 2709.07 1111.63   3
   3   7  -2 2594.96 1131.34   3
   2   7  -2 6645.11 1574.99   3
   1   7  -2 3924.31 1166.29   3
   0   7  -2 2237.56 873.194   3
  -1   7  -2 4106.59 1055.80   3
  -1   7   2 2758.01 1036.85   5
  -2   7   2 6268.69 1589.82   5
  -3   7   2 2042.36 1156.53   5
  -4   7   2 3492.37 1260.72   5
  -5   7   2 1099.58 907.516   5
   6   7   3 1770.51 1167.82   3
   5   7  -3 38345.8 4318.01   3
   5   7   3 45137.8 4442.60   3
   4   7   3 1634.01 903.318   3
   4   7  -3-816.513 840.409   3
   3   7  -3 94538.6 6066.20   3
   2   7  -3 606.801 644.247   3
   1   7  -3 75603.6 4860.93   3
   0   7  -3 5714.30 1321.85   3
   0   7   3 4206.49 1217.50   5
  -1   7   3 69295.4 4707.06   5
  -1   7  -3 70023.2 4226.45   3
  -2   7  -3 912.589 520.657   3
  -2   7   3-189.056 702.140   5
  -3   7   3 101650. 6230.21   5
  -4   7   3 1722.10 949.226   5
  -5   7   3 36661.0 4164.98   5
   5   7   4-353.560 670.184   3
   5   7  -4 290.107 733.763   3
   4   7   4 7193.73 1712.44   3
   4   7  -4 4839.84 1598.88   3
   3   7  -4 2513.17 1212.96   3
   2   7  -4 8803.41 1872.46   3
   1   7  -4 1202.53 746.382   3
   0   7  -4 7314.80 1545.53   3
   0   7   4 10167.4 1761.41   5
  -1   7  -4 646.047 608.759   3
  -1   7   4 1355.00 779.305   5
  -2   7  -4 8791.14 1471.13   3
  -2   7   4 10457.6 2033.55   5
  -3   7   4 3795.92 1312.69   5
  -4   7   4 7102.44 1802.72   5
  -4  -7   4 3813.42 1337.70   1
  -5   7   4 408.247 782.929   5
   5   7  -5 38129.8 4264.44   3
   5   7   5 41108.8 4283.63   3
   4   7   5-706.084 833.813   3
   4   7  -5 790.394 826.280   3
   3   7  -5 97684.9 6286.57   3
   2   7  -5 4123.54 1359.99   3
   1   7   5 87025.2 4848.86   5
   1   7  -5 79990.0 5201.07   3
   0   7   5 1593.98 840.102   5
   0   7  -5 45.7678 514.682   3
  -1   7   5 83594.6 5320.03   5
  -1   7  -5 78957.0 4607.63   3
  -2   7   5 5854.98 1558.69   5
  -3   7   5 88877.5 5955.42   5
  -4   7   5 921.461 914.287   5
  -4  -7   5-269.343 611.349   1
  -5   7   5 34423.9 4087.80   5
   5   7   6 1687.44 972.157   3
   5   7  -6 622.036 988.639   3
   4   7  -6 4426.53 1523.54   3
   3   7  -6 1523.13 1041.93   2
   3   7  -6 1633.60 1074.78   3
   2   7  -6 6482.13 1625.47   3
   1   7   6 287.058 443.685   5
   1   7  -6 2657.19 1058.09   3
   0   7   6 4226.38 1221.41   5
   0   7  -6 4338.63 1236.57   3
  -1   7   6 532.734 783.989   5
  -1   7  -6 942.616 644.431   3
  -2   7   6 9609.12 1932.17   5
  -3   7   6 1102.83 817.576   5
  -4  -7   6 5177.04 1661.61   1
  -4   7   6 6632.23 1773.58   5
  -5   7   6 1181.50 994.644   5
  -5  -7   6 1076.06 854.741   1
   5   7   7 39572.3 4209.99   3
   4   7  -7-11.2863 635.161   3
   3   7  -7 76418.8 5477.97   2
   3   7  -7 70436.6 5458.32   3
   2   7  -7 495.479 676.045   3
   1   7   7 60821.7 4216.44   5
   1   7  -7 56794.8 4427.80   3
   0   7   7 4891.03 1314.26   5
   0   7  -7 8148.60 1686.77   3
  -1   7   7 61713.5 4663.26   5
  -1   7  -7 57439.5 4060.45   3
  -2   7   7 2134.59 999.607   5
  -3   7   7 77133.6 5694.99   5
  -4   7   7-876.080 883.758   5
  -4  -7   7 1012.87 1014.55   1
  -5  -7   7 32084.7 4084.86   1
  -6  -7   7 2637.98 1278.51   1
   3   7  -8-349.457 553.102   2
   2   7  -8 11360.9 2210.83   3
   1   7  -8 729.227 797.037   3
   0   7   8 7928.52 1625.18   5
   0   7  -8 7765.08 1659.86   3
  -1   7   8 870.659 737.846   5
  -2   7   8 9935.16 2022.40   5
  -3   7   8 2352.23 1162.36   5
  -4   7   8 7941.88 2030.07   5
  -4  -7   8 6860.93 1965.81   1
  -5  -7   8-670.184 913.815   1
   3   7  -9 45031.8 4549.54   2
   2   7  -9 2261.78 1080.86   2
   0   7   9 7754.27 1757.89   5
  -1   7   9 49992.9 4327.85   5
  -2   7   9 1298.00 882.194   5
  -3   7   9 47292.3 4605.82   5
  -4  -7   9 453.807 679.795   1
  -4   7   9 1236.17 1009.27   5
  -5  -7   9 30022.4 4261.97   1
   3   7 -10 1580.43 1016.95   2
   2   7 -10 8050.96 2020.62   2
   0   7  10 11029.6 2026.78   5
  -4  -7  10 8527.79 2342.60   1
   3   7 -11 49406.2 5111.55   2
   2   7 -11 1141.76 1187.15   2
   1   7 -11 53249.8 5298.24   2
   3   7 -12 1752.20 1040.10   2
   2   7 -12 1965.16 1368.77   2
   1   7 -12-1316.41 1207.70   2
   4   8   0 47346.3 4756.58   3
   3   8   0 1083.25 904.730   3
   2   8   0 94387.0 6112.15   3
   1   8   0 1235.21 889.077   3
   4   8   1-346.690 972.001   3
   4   8  -1 2348.56 1139.90   3
   3   8  -1 7161.63 1784.57   3
   3   8   1 8924.17 2114.95   3
   2   8  -1 217.389 665.583   3
   2   8   1-406.851 728.645   3
   1   8  -1 7888.24 1760.98   3
   0   8  -1 1470.83 807.177   3
   4   8  -2 49252.0 4931.42   3
   4   8   2 55761.5 5116.92   3
   3   8   2 1332.98 876.960   3
   3   8  -2 1282.88 937.207   3
   2   8  -2 104511. 6459.86   3
   2   8   2 98308.9 6180.13   3
   1   8  -2-772.080 669.148   3
   0   8  -2 22510.0 2769.08   3
  -1   8  -2 488.130 579.358   3
  -2   8  -2 98286.0 5263.89   3
  -3   8   2 21.2107 629.693   5
  -4   8   2 55340.7 5104.40   5
   4   8   3 2336.66 1192.40   3
   4   8  -3-1292.89 969.594   3
   3   8   3 1179.41 927.941   3
   3   8  -3 2995.85 1377.13   3
   2   8  -3 2756.71 1183.97   3
   1   8  -3 4604.87 1382.34   3
   0   8  -3-709.302 703.377   3
  -1   8  -3 3732.72 1191.92   3
  -2   8   3 531.448 712.239   5
  -3   8   3 1965.23 986.514   5
  -4   8   3-46.9846 655.876   5
   4   8  -4 50682.9 5138.60   3
   3   8  -4 1205.29 1093.90   3
   2   8  -4 95478.3 6346.50   3
   1   8  -4 1388.80 930.772   3
   0   8  -4 44354.9 3922.34   3
  -1   8  -4 681.583 480.359   3
  -1   8   4-1000.53 889.530   5
  -2   8   4 103372. 6527.13   5
  -3   8   4-266.179 625.193   5
  -4   8   4 55051.8 5226.64   5
   3   8  -5 8570.15 2137.71   3
   2   8  -5 1419.75 906.957   3
   1   8  -5 9360.14 2073.97   3
   0   8   5 1102.75 759.532   5
   0   8  -5-662.179 713.410   3
  -1   8   5 7172.14 1750.70   5
  -1   8  -5 12113.3 2041.67   3
  -2   8   5 218.712 754.964   5
  -3   8   5 11105.6 2363.55   5
   3   8  -6 2131.25 1246.53   3
   2   8  -6 70002.9 5561.07   3
   1   8  -6 366.618 748.585   3
   0   8   6 29231.6 3312.46   5
   0   8  -6 28807.8 3274.16   3
  -1   8   6 634.444 657.602   5
  -2   8   6 66293.1 5341.99   5
  -3   8   6 566.576 822.663   5
   3   8  -7 2035.02 1083.96   3
   2   8  -7 1590.26 1065.59   3
   1   8  -7 1148.04 857.129   3
   0   8   7 477.644 765.134   5
   0   8  -7 2682.78 1082.14   3
  -1   8   7 2419.01 1185.56   5
  -2   8   7 1846.08 1169.21   5
  -3   8   7 1593.67 1149.38   5
   2   8  -8 67569.9 5566.35   3
   1   8  -8 763.599 835.065   3
   0   8   8 43117.7 4081.62   5
  -1   8   8 2364.14 1042.96   5
  -2   8   8 65561.2 5502.09   5
   2   8  -9 9.98871 694.597   2
  -1   8   9 13911.4 2580.55   5
  -2   8   9 1361.51 904.569   5
   3   8 -10 4551.43 1639.27   2
   2   8 -10 46987.0 5082.25   2
  -1   8  10 1397.20 834.297   5
  -2   8  10 39854.5 4404.69   5
  -1   8  11 855.272 888.618   5
   1   9   0 121.108 577.170   3
   0   9   0 17093.4 2623.12   3
   2   9  -1 395.582 882.627   3
   1   9  -1 48670.5 4587.05   3
   1   9   1 42508.9 4290.95   3
   0   9  -1-1667.60 996.790   3
  -1   9  -1 46901.7 4211.52   3
   2   9  -2 953.085 834.252   3
   1   9  -2 1221.31 794.087   3
   0   9  -2 2957.72 1319.62   3
  -1   9  -2 1085.76 923.329   3
   2   9  -3-1203.97 1110.80   3
   1   9  -3 66824.3 5423.65   3
   0   9  -3 681.345 1013.66   3
   1   9  -4-1947.01 1126.71   3
   0   9  -4 4677.67 1577.16   3
   1   9  -5 36015.3 4109.40   3
   0   9  -5 3723.39 1363.15   3
   1   9  -6 600.647 539.337   3
  -1   9   6 75.7379 762.019   5
   1   9  -7 39929.2 4317.38   3
  -1   9   7 41012.1 4365.62   5
   0   0   0    0.00    0.00   0
;
_shelx_hkl_checksum              37974
loop_
_space_group_symop_operation_xyz
'x, y, z'
'-x+1/2, -y, z+1/2'
'x, -y, -z'
'-x+1/2, y, -z+1/2'
'-x, -y, -z'
'x-1/2, y, -z-1/2'
'-x, y, z'
'x-1/2, -y, z-1/2'
loop_
_atom_site_label
_atom_site_type_symbol
_atom_site_fract_x
_atom_site_fract_y
_atom_site_fract_z
_atom_site_U_iso_or_equiv
_atom_site_adp_type
_atom_site_occupancy
_atom_site_site_symmetry_order
_atom_site_calc_flag
_atom_site_refinement_flags_posn
_atom_site_refinement_flags_adp
_atom_site_refinement_flags_occupancy
Pd Pd 0.5000 0.0000 0.5000 0.00641(13) Uani 1 4 d S T P
Fe Fe 0.0000 -0.5000 0.5000 0.0066(2) Uani 1 4 d S T P
N1 N 0.0000 -0.5806(6) 0.6291(3) 0.0090(8) Uani 1 2 d S T P
N2 N 0.1901(3) -0.3100(4) 0.52258(18) 0.0089(6) Uani 1 1 d . . .
N3 N 0.0000 -0.6952(8) 0.8105(3) 0.0243(11) Uani 1 2 d S T P
C1 C 0.0000 -0.7675(8) 0.6524(3) 0.0143(11) Uani 1 2 d S T P
H1 H 0.0000 -0.8626 0.6083 0.017 Uiso 1 2 calc R U P
C2 C 0.0000 -0.8155(8) 0.7437(4) 0.0192(12) Uani 1 2 d S T P
C3 C 0.0000 -0.5098(9) 0.7868(4) 0.0207(11) Uani 1 2 d S T P
H3 H 0.0000 -0.4169 0.8320 0.025 Uiso 1 2 calc R U P
C4 C 0.0000 -0.4524(7) 0.6976(4) 0.0132(11) Uani 1 2 d S T P
H4 H 0.0000 -0.3221 0.6842 0.016 Uiso 1 2 calc R U P
C5 C 0.3047(4) -0.1974(5) 0.5198(2) 0.0104(7) Uani 1 1 d . . .
F F 0.0000 -1.0050(6) 0.7640(2) 0.0373(9) Uani 1 2 d S T P
loop_
_atom_site_aniso_label
_atom_site_aniso_U_11
_atom_site_aniso_U_22
_atom_site_aniso_U_33
_atom_site_aniso_U_23
_atom_site_aniso_U_13
_atom_site_aniso_U_12
Pd 0.00488(19) 0.0044(2) 0.0099(3) 0.0001(3) 0.000 0.000
Fe 0.0047(3) 0.0042(4) 0.0108(5) 0.0013(5) 0.000 0.000
N1 0.0045(15) 0.010(2) 0.012(2) 0.0006(18) 0.000 0.000
N2 0.0088(11) 0.0074(13) 0.0105(15) 0.0001(12) -0.0017(10) 0.0025(10)
N3 0.032(2) 0.030(3) 0.012(2) 0.006(2) 0.000 0.000
C1 0.014(2) 0.015(3) 0.013(3) -0.001(2) 0.000 0.000
C2 0.024(2) 0.016(3) 0.017(3) 0.011(3) 0.000 0.000
C3 0.022(2) 0.023(3) 0.018(3) -0.001(3) 0.000 0.000
C4 0.015(2) 0.008(3) 0.016(3) -0.004(2) 0.000 0.000
C5 0.0096(13) 0.0109(16) 0.0108(19) 0.0003(14) -0.0009(12) 0.0042(12)
F 0.078(2) 0.0150(16) 0.0194(19) 0.0097(19) 0.000 0.000
loop_
_atom_type_symbol
_atom_type_description
_atom_type_scat_dispersion_real
_atom_type_scat_dispersion_imag
_atom_type_scat_source
C C 0.0033 0.0016 'International Tables Vol C Tables 4.2.6.8 and 6.1.1.4'
H H 0.0000 0.0000 'International Tables Vol C Tables 4.2.6.8 and 6.1.1.4'
N N 0.0061 0.0033 'International Tables Vol C Tables 4.2.6.8 and 6.1.1.4'
F F 0.0171 0.0103 'International Tables Vol C Tables 4.2.6.8 and 6.1.1.4'
Fe Fe 0.3463 0.8444 'International Tables Vol C Tables 4.2.6.8 and 6.1.1.4'
Pd Pd -0.9988 1.0072 'International Tables Vol C Tables 4.2.6.8 and 6.1.1.4'
loop_
_geom_angle_atom_site_label_1
_geom_angle_atom_site_label_2
_geom_angle_atom_site_label_3
_geom_angle
_geom_angle_site_symmetry_1
_geom_angle_site_symmetry_3
C5 Pd C5 89.53(17) 5_656 7_655
C5 Pd C5 90.47(17) 5_656 3_556
C5 Pd C5 180.00(18) 7_655 3_556
C5 Pd C5 180.0 5_656 .
C5 Pd C5 90.47(17) 7_655 .
C5 Pd C5 89.53(17) 3_556 .
N1 Fe N1 180.0 . 5_546
N2 Fe N1 91.61(11) . .
N2 Fe N1 88.39(11) 5_546 .
N2 Fe N1 91.61(11) 7 .
N2 Fe N1 88.39(11) 3_546 .
N2 Fe N1 88.39(11) . 5_546
N2 Fe N1 91.61(11) 5_546 5_546
N2 Fe N1 88.39(11) 7 5_546
N2 Fe N1 91.61(11) 3_546 5_546
N2 Fe N2 180.0 . 5_546
N2 Fe N2 90.60(14) . 7
N2 Fe N2 89.40(14) 5_546 7
N2 Fe N2 89.40(14) . 3_546
N2 Fe N2 90.60(14) 5_546 3_546
N2 Fe N2 180.00(15) 7 3_546
C1 N1 C4 116.6(4) . .
C1 N1 Fe 121.3(3) . .
C4 N1 Fe 122.1(3) . .
C5 N2 Fe 168.0(3) . .
C2 N3 C3 115.2(5) . .
N1 C1 C2 118.8(5) . .
N1 C1 H1 120.6 . .
C2 C1 H1 120.6 . .
N3 C2 F 117.6(5) . .
N3 C2 C1 125.7(5) . .
F C2 C1 116.7(5) . .
N3 C3 C4 122.1(6) . .
N3 C3 H3 119.0 . .
C4 C3 H3 119.0 . .
N1 C4 C3 121.7(5) . .
N1 C4 H4 119.2 . .
C3 C4 H4 119.2 . .
N2 C5 Pd 173.6(3) . .
loop_
_geom_bond_atom_site_label_1
_geom_bond_atom_site_label_2
_geom_bond_distance
_geom_bond_site_symmetry_2
Pd C5 1.998(3) 5_656
Pd C5 1.998(3) 7_655
Pd C5 1.998(3) 3_556
Pd C5 1.998(3) .
Fe N1 1.987(4) .
Fe N1 1.987(4) 5_546
Fe N2 1.943(3) .
Fe N2 1.943(3) 5_546
Fe N2 1.943(3) 7
Fe N2 1.943(3) 3_546
N1 C1 1.348(6) .
N1 C4 1.351(6) .
N2 C5 1.145(4) .
N3 C2 1.295(7) .
N3 C3 1.339(8) .
C1 C2 1.389(7) .
C1 H1 0.9300 .
C2 F 1.355(6) .
C3 C4 1.377(7) .
C3 H3 0.9300 .
C4 H4 0.9300 .
