#------------------------------------------------------------------------------
#$Date: 2019-11-23 14:19:17 +0200 (Sat, 23 Nov 2019) $
#$Revision: 233590 $
#$URL: file:///home/coder/svn-repositories/cod/cif/4/34/91/4349116.cif $
#------------------------------------------------------------------------------
#
# This file is available in the Crystallography Open Database (COD),
# http://www.crystallography.net/
#
# All data on this site have been placed in the public domain by the
# contributors.
#
data_4349116
loop_
_publ_author_name
'Valverde-Mu\~noz, Francisco Javier'
'Seredyuk, Maksym'
'Mu\~noz, M Carmen'
'Znovjyak, Kateryna'
'Fritsky, Igor O.'
'Real, Jos\'e Antonio'
_publ_section_title
;
 Strong Cooperative Spin Crossover in 2D and 3D
 Fe<sup>II</sup>-M<sup>I,II</sup> Hofmann-Like Coordination Polymers Based
 on 2-Fluoropyrazine.
;
_journal_issue                   20
_journal_name_full               'Inorganic chemistry'
_journal_page_first              10654
_journal_page_last               10665
_journal_paper_doi               10.1021/acs.inorgchem.6b01901
_journal_volume                  55
_journal_year                    2016
_chemical_formula_sum            'C8 H3 Au2 F Fe N6'
_chemical_formula_weight         651.93
_space_group_crystal_system      orthorhombic
_space_group_IT_number           64
_space_group_name_Hall           '-C 2ac 2'
_space_group_name_H-M_alt        'C m c e'
_audit_creation_method           SHELXL-2014
_cell_angle_alpha                90
_cell_angle_beta                 90
_cell_angle_gamma                90
_cell_formula_units_Z            4
_cell_length_a                   7.1107(10)
_cell_length_b                   10.1715(13)
_cell_length_c                   17.657(2)
_cell_measurement_reflns_used    909
_cell_measurement_temperature    120(1)
_cell_measurement_theta_max      26.0940
_cell_measurement_theta_min      3.6660
_cell_volume                     1277.1(3)
_computing_cell_refinement       'CrysAlisPro 2015'
_computing_data_collection       'CrysAlisPro 2015'
_computing_data_reduction        'CrysAlisPro 2015'
_computing_structure_refinement  'SHELXL-2014 (Sheldrick, 2014)'
_computing_structure_solution    'SHELXS-2014 (Sheldrick, 2014)'
_diffrn_ambient_temperature      120(1)
_diffrn_measured_fraction_theta_full 0.857
_diffrn_measured_fraction_theta_max 0.825
_diffrn_measurement_device_type  'SuperNova Sapphire3'
_diffrn_radiation_type           MoK\a
_diffrn_radiation_wavelength     0.71073
_diffrn_reflns_av_R_equivalents  0.0724
_diffrn_reflns_av_unetI/netI     0.0604
_diffrn_reflns_Laue_measured_fraction_full 0.857
_diffrn_reflns_Laue_measured_fraction_max 0.825
_diffrn_reflns_limit_h_max       9
_diffrn_reflns_limit_h_min       -9
_diffrn_reflns_limit_k_max       13
_diffrn_reflns_limit_k_min       -13
_diffrn_reflns_limit_l_max       23
_diffrn_reflns_limit_l_min       -21
_diffrn_reflns_number            4215
_diffrn_reflns_point_group_measured_fraction_full 0.857
_diffrn_reflns_point_group_measured_fraction_max 0.825
_diffrn_reflns_theta_full        25.000
_diffrn_reflns_theta_max         29.813
_diffrn_reflns_theta_min         3.682
_exptl_absorpt_coefficient_mu    24.040
_exptl_absorpt_correction_T_max  1.00000
_exptl_absorpt_correction_T_min  0.47084
_exptl_absorpt_correction_type   multi-scan
_exptl_absorpt_process_details   'CrysAlisPro 1.171.38.41q'
_exptl_crystal_colour            red
_exptl_crystal_density_diffrn    3.391
_exptl_crystal_description       prismatic
_exptl_crystal_F_000             1143
_exptl_crystal_size_max          0.080
_exptl_crystal_size_mid          0.060
_exptl_crystal_size_min          0.060
_refine_diff_density_max         2.610
_refine_diff_density_min         -3.016
_refine_diff_density_rms         0.320
_refine_ls_extinction_method     none
_refine_ls_goodness_of_fit_ref   0.885
_refine_ls_hydrogen_treatment    undef
_refine_ls_matrix_type           full
_refine_ls_number_parameters     58
_refine_ls_number_reflns         812
_refine_ls_number_restraints     1
_refine_ls_restrained_S_all      0.896
_refine_ls_R_factor_all          0.0825
_refine_ls_R_factor_gt           0.0516
_refine_ls_shift/su_max          0.050
_refine_ls_shift/su_mean         0.005
_refine_ls_structure_factor_coef Fsqd
_refine_ls_weighting_details
'w=1/[\s^2^(Fo^2^)+(0.0155P)^2^+160.1028P] where P=(Fo^2^+2Fc^2^)/3'
_refine_ls_weighting_scheme      calc
_refine_ls_wR_factor_gt          0.0908
_refine_ls_wR_factor_ref         0.1097
_reflns_Friedel_coverage         0.000
_reflns_number_gt                524
_reflns_number_total             812
_reflns_threshold_expression     'I > 2\s(I)'
_cod_data_source_file            ic6b01901_si_009.cif
_cod_data_source_block           shelx
_cod_original_sg_symbol_Hall     '-C 2bc 2'
_cod_original_sg_symbol_H-M      'C m c a'
_cod_database_code               4349116
_shelx_space_group_comment
;
Possible pseudo/newspace group was suggested by checkCIF analysis
for FpzAu at 120 K suggesting the space group Fmmm
(alert type B). However, XPREP analysis corroborates the assigned
Cmca. The quality of the single crystals FpzAu deteriorates when
moving from the HS structure (200 K) to the LS structure (120 K)
due to the strong cooperative spin crossover behavior exhibited
by this compound and consequently the number reflections decreases
in the LS structure.

The symmetry employed for this shelxl refinement is uniquely defined
by the following loop, which should always be used as a source of
symmetry information in preference to the above space-group names.
They are only intended as comments.
;
_shelx_estimated_absorpt_t_min   0.249
_shelx_estimated_absorpt_t_max   0.326
_shelxl_version_number           2014-1
_shelx_res_file
;
TITL ja1374 in Cmce
CELL  0.71073   7.1107  10.1715  17.6572   90.000   90.000   90.000
ZERR     4.00   0.0010   0.0013   0.0021    0.000    0.000    0.000
LATT   7
SYMM  - X, 1/2 - Y, 1/2 + Z
SYMM  - X, 1/2 + Y, 1/2 - Z
SYMM    X, - Y, - Z
SFAC  C        2.31000 20.84392  1.02000 10.20751   1.58860   0.56870 =
         0.86500  51.65125   0.21560   0.003   0.002    11.500   0.770  12.011
SFAC  H        0.49300 10.51091  0.32291 26.12573   0.14019   3.14236 =
         0.04081  57.79977   0.00304   0.000   0.000     0.620   0.320   1.008
SFAC  N       12.21261  0.00570  3.13220  9.89331   2.01250  28.99754 =
         1.16630   0.58260 -11.52901   0.006   0.003    19.600   0.700  14.007
SFAC  F        3.53920 10.28251  2.64120  4.29440   1.51700   0.26150 =
         1.02430  26.14763   0.27760   0.017   0.010    51.500   0.640  18.998
SFAC  FE      11.76951  4.76111  7.35731  0.30720   3.52220  15.35351 =
         2.30450  76.88058   1.03690   0.346   0.844  3490.000   1.260  55.845
SFAC  AU      16.88193  0.46110 18.59132  8.62161  25.55824   1.48260 =
         5.86001  36.39563  12.06581  -2.013   8.802 36500.000   1.440 196.967
UNIT  32   12    24   4    4    8
MERG   2
OMIT    -3.00 180.00
OMIT     2   2   1
OMIT     4   4   3
OMIT     1   5   9
OMIT     2   4   3
OMIT     2   0   0
OMIT     1   1   6
OMIT     4   4   1
OMIT     0   2   1
OMIT     1   1   8
OMIT     0   2   3
OMIT     1   1  10
OMIT     0   4   4
OMIT     1   1  12
OMIT     1   3   8
OMIT     1   3  10
OMIT     2   4   5
OMIT     3   5   9
OMIT     4   2   1
OMIT     1   1   2
OMIT     0  12   9
OMIT     1   1   4
OMIT     0   2   5
OMIT     0   2   2
OMIT     1   7  11
OMIT     3   1   6
OMIT     0   0   4
OMIT     1   1  23
OMIT     5   5  19
OMIT     0   4   3
OMIT     2   2   3
OMIT     2   4   1
OMIT     4   6   3
OMIT     0   6   3
OMIT     2   0   2
OMIT     4   6   5
OMIT     1   3  11
OMIT     3   7  11
OMIT     4   2   3
OMIT     0   4   2

omit     3   3   8
omit     1   3   2
omit     2   2   0
omit     3   3  11
omit     3   1  10
omit     0   4   5
omit     3   1   8
omit     4   4   5
omit     3   3  10
omit     3   1  12
omit     3   5  13
omit     4   6   1
omit     1   3  12
omit     2   6   3
omit     2   6   5
omit     2   2   5
omit     0   4   1
omit     6   6   3
omit     6   4   3
omit     6   4   1
omit     6   8   1

omit     3   7  15
omit     2   2   2
omit     0   8  11
omit     3  11  11
omit     0   6   5
omit     5   5  13
omit     3   1   2
omit     4   2   6
omit     7   1  16
omit     4   2   2
omit     2   2   7
omit     2   8   1
omit     8   6   1
omit     0   6   4
omit     2  12   4
omit     1  11  15
omit     2   8  15
omit     3   7  10
omit     5   5  14
omit     4  12   3
omit     0   8   3
omit     1  13   2
omit     2   6   2
omit     5   7  12
omit     0   6   1
omit     5   7   1
omit     5   1  10
omit     7   5  13
omit     0   2   0
omit     1   9  12
omit     7   1   7
omit     3  11   9
omit     4  10   2
omit     1   5  21
omit     6   2   1
omit     6   6  14
omit     2   0   8
omit     2  12   3
FMAP   2
PLAN   20
ACTA    50.00
L.S.   6
dfix 2.0 0.01 fe n1
size 0.06 0.06 0.08
WGHT    0.015500  160.102798
FVAR       1.22204
AU    6    0.500000    0.244906    0.747787    10.50000    0.03145    0.02970 =
         0.03480    0.01283    0.00000    0.00000
FE    5    0.500000    0.500000    0.500000    10.25000    0.02343    0.02718 =
         0.01770   -0.00076    0.00000    0.00000
N1    3    0.787779    0.500000    0.500000    10.50000    0.05497    0.03013 =
         0.02187   -0.00379    0.00000    0.00000
N2    3    0.500000    0.359157    0.582519    10.50000    0.03770    0.01728 =
         0.02675    0.00705    0.00000    0.00000
N3    3    0.500000    0.362358    0.413409    10.50000    0.02412    0.04632 =
         0.03513    0.02072    0.00000    0.00000
C1    1    0.900468    0.492342    0.564130    11.00000    0.04364    0.02671 =
         0.02839    0.00184   -0.00355   -0.00663
C2    1    0.500000    0.311332    0.654485    10.50000    0.00863    0.02432 =
         0.22239   -0.04298    0.00000    0.00000
C3    1    0.500000    0.181167    0.858019    10.50000    0.04406    0.01675 =
         0.00982    0.00880    0.00000    0.00000
F     4    0.837125    0.498070    0.630321    10.25000    0.02290    0.04504 =
         0.01180   -0.00027    0.01228    0.00060
HKLF    4

REM  ja1374 in Cmce
REM R1 =  0.0516 for     524 Fo > 4sig(Fo)  and  0.0825 for all     812 data
REM     58 parameters refined using      1 restraints

END

WGHT      0.0230     65.1441

REM Highest difference peak  2.610,  deepest hole -3.016,  1-sigma level  0.320
Q1    1   0.8364  0.5000  0.5000  10.50000  0.05    2.61
Q2    1   1.0000  0.5000  0.5000  10.25000  0.05    2.14
Q3    1   0.5000  0.3377  0.7842  10.50000  0.05    2.09
Q4    1   0.5000  0.3492  0.7259  10.50000  0.05    1.54
Q5    1   0.5000  0.0907  0.7668  10.50000  0.05    1.06
Q6    1   0.3057  0.2435  0.7510  11.00000  0.05    0.95
Q7    1   0.5000  0.4019  0.6250  10.50000  0.05    0.87
Q8    1   0.5000  0.3770  0.4552  10.50000  0.05    0.84
Q9    1   1.0000  0.3932  0.5037  10.50000  0.05    0.84
Q10   1   1.0000  0.5328  0.5918  10.50000  0.05    0.81
Q11   1   0.4413  0.2652  0.7407  11.00000  0.05    0.81
Q12   1   0.5000  0.3733  0.5422  10.50000  0.05    0.80
Q13   1   0.6087  0.5057  0.4308  11.00000  0.05    0.80
Q14   1   0.7100  0.2981  0.8378  11.00000  0.05    0.79
Q15   1   0.5467  0.5470  0.5189  11.00000  0.05    0.78
Q16   1   0.5000  0.5548  0.5329  10.50000  0.05    0.77
Q17   1   0.5000  0.0958  0.6961  10.50000  0.05    0.73
Q18   1   0.5000  0.1716  0.6487  10.50000  0.05    0.73
Q19   1   0.5458  0.5396  0.4782  11.00000  0.05    0.72
Q20   1   0.5000  0.4164  0.5932  10.50000  0.05    0.70
;
_shelx_res_checksum              61927
_shelx_hkl_file
;
   0   0   3-79.4066 125.620   4
   0   0  -3-23.1241 107.552   4
   0   0   3-51.3817 126.150   6
   0   0   4 467989. 10675.6   4
   0   0   4 464606. 8835.89   6
   0   0  -4 471065. 10820.5   4
   0   0   5-62.7286 282.413   6
   0   0   5 141.962 279.669   4
   0   0   6 330875. 11012.5   4
   0   0   6 329236. 5362.19   2
   0   0   6 332859. 9260.48   6
   0   0   7 20.3395 80.0895   5
   0   0   7 169.462 128.170   2
   0   0   7 172.802 290.818   6
   0   0   8 396179. 6835.65   2
   0   0   8 393637. 8518.95   5
   0   0   9-19.3051 150.081   2
   0   0   9-162.906 279.134   5
   0   0  10 147285. 5664.01   5
   0   0  10 148337. 4750.14   2
   0   0  11 192.026 177.736   2
   0   0  11 480.433 334.314   5
   0   0  12 249632. 8047.89   5
   0   0  12 248004. 6730.80   2
   0   0  13 157.083 119.520   3
   0   0  13 329.242 341.102   2
   0   0  14 35970.1 2761.77   2
   0   0  14 31439.4 3041.10   3
   0   0  15 203.507 207.745   2
   0   0  15 115.810 325.173   3
   0   0  16 104980. 6155.31   3
   0   2   0 215611. 5772.44   5
   0   2   0 220141. 6554.03   1
   0  -2   0 205514. 6136.33   1
   0   2  -1 9103.87 1243.44   5
   0  -2  -1 10300.2 1558.44   3
   0  -2   1 5943.34 1094.30   1
   0  -2  -1 6460.97 1221.65   1
   0   2  -1 6903.21 1202.94   1
   0   2   1 8745.75 1496.53   1
   0  -2   1 9817.78 1219.96   5
   0  -2  -2 784320. 8744.95   4
   0   2   2 816219. 13678.2   1
   0  -2   2 808321. 10813.5   4
   0  -2   2 796406. 11048.3   5
   0  -2  -2 804527. 13150.8   1
   0   2   2 795608. 13502.3   3
   0   2  -2 797348. 12030.7   1
   0  -2  -2 779725. 13341.0   3
   0   2  -2 814946. 11396.0   5
   0  -2   2 811670. 11611.9   1
   0   2   3 8700.39 1371.26   1
   0  -2  -3 11578.6 1697.85   3
   0   2  -3 12170.6 1427.33   5
   0  -2  -3 6982.46 1040.12   4
   0   2  -3 7628.22 1177.29   1
   0   2   3 11325.0 1643.95   3
   0  -2   3 5541.26 1125.64   4
   0  -2   3 10645.1 1344.15   5
   0  -2   3 7757.98 1212.86   1
   0  -2  -4 216978. 6912.52   4
   0  -2  -4 220387. 7475.73   3
   0   2   4 224582. 7586.72   3
   0  -2   4 217621. 6009.62   5
   0   2   4 217511. 6839.18   4
   0   2  -4 220369. 6216.42   5
   0  -2   4 212929. 6034.78   1
   0  -2   4 221389. 7627.43   4
   0  -2  -4 212041. 6325.65   2
   0  -2  -5 2909.13 732.674   2
   0  -2   5 2876.85 787.128   1
   0  -2  -5 3165.76 972.561   4
   0  -2   5 913.959 737.703   4
   0   2   5 3107.65 970.106   4
   0  -2  -5 3717.66 988.213   3
   0  -2   5 3029.80 775.988   5
   0   2  -5 2731.59 776.136   5
   0   2   5 3344.43 952.427   3
   0   2   6 445163. 12469.2   4
   0  -2   6 414162. 8832.88   5
   0  -2  -6 427443. 10797.7   3
   0  -2  -6 421181. 8397.15   2
   0   2  -6 441386. 11284.2   6
   0   2   6 449599. 11356.6   3
   0   2  -6 442317. 9706.41   5
   0   2  -7 3853.29 1020.21   5
   0  -2   7 2964.32 805.958   5
   0   2  -7 1636.43 695.697   6
   0  -2  -7 3142.51 728.235   2
   0   2   7 4695.25 1228.94   3
   0   2  -8 192698. 8351.70   6
   0   2   8 187396. 7762.07   3
   0  -2   8 175243. 6201.57   5
   0   2  -8 176451. 6628.68   5
   0  -2  -8 179034. 5172.11   2
   0  -2  -9 1220.02 440.504   2
   0  -2   9 2022.48 768.892   5
   0   2  -9 1856.16 695.363   5
   0   2   9 2775.98 1123.90   3
   0   2  -9 2586.02 1068.63   6
   0   2 -10 276236. 11029.4   6
   0  -2  10 270755. 8421.92   5
   0   2  10 294087. 10463.4   3
   0   2 -11 618.448 772.997   6
   0   2  11 942.339 666.856   3
   0   2  12 95720.2 6389.43   3
   0   2 -12 94945.3 7106.14   6
   0   2  13 1602.92 962.605   3
   0   2  14 166903. 9107.96   3
   0   2  15-491.541 505.788   3
   0  -2  16 26198.2 2858.37   2
   0   2  16 32597.6 4349.71   3
   0  -2  23 182.784 437.449   7
   0   4   0 516265. 13030.0   5
   0  -4   0 512924. 13537.6   1
   0   4   0 512300. 6864.15   7
   0   4  -1 28518.2 3179.72   5
   0  -4  -1 14939.6 2545.69   1
   0  -4   1 8497.20 1067.58   4
   0   4   1 25235.3 3028.43   5
   0  -4   1 13284.5 2444.67   1
   0  -4   2 168303. 7515.03   1
   0   4   2 177889. 7435.69   5
   0   4  -2 163569. 7391.80   5
   0  -4  -2 179390. 8421.84   1
   0  -4   2 164107. 5280.42   4
   0  -4   3 6417.34 1401.80   4
   0   4  -3 16528.7 2464.69   5
   0  -4  -3 10306.6 2226.25   1
   0  -4   3 12282.2 2216.58   1
   0   4   3 22159.4 2765.46   5
   0  -4   4 403605. 10873.8   4
   0  -4   4 427707. 11993.6   1
   0  -4   4 392955. 5774.85   7
   0   4   4 398437. 13995.2   3
   0   4  -4 412594. 11866.2   5
   0   4  -5 11968.1 2191.64   5
   0  -4   5 8158.66 1813.08   1
   0   4   5 13183.3 2662.82   3
   0  -4  -6 116727. 6924.55   2
   0  -4   6 125784. 6416.19   1
   0   4  -6 116349. 6395.49   5
   0   4   6 124650. 8051.37   3
   0   4  -7 6723.84 1635.43   5
   0  -4   7 4491.68 1430.07   1
   0  -4  -7 7674.11 1794.75   2
   0  -4   8 281005. 9910.89   1
   0  -4  -8 285661. 10787.1   2
   0   4   8 287174. 12719.1   3
   0   4  -8 287252. 10587.6   5
   0  -4   9 5276.21 1537.81   1
   0   4  -9 3860.76 1332.60   5
   0  -4  -9 7097.34 1648.20   2
   0  -4  10 125224. 6889.43   1
   0   4 -10 127674. 8630.15   6
   0  -4 -10 114864. 6393.31   2
   0   4  10 123223. 8748.80   3
   0   4 -10 121436. 7267.94   5
   0   4  11 5950.96 1985.94   3
   0  -4  11 2027.71 1237.19   1
   0   4 -11 2312.46 1447.62   6
   0   4 -11 2181.18 1165.84   5
   0  -4 -11 3063.94 997.250   2
   0  -4  12 133202. 7452.67   1
   0   4 -12 128605. 9229.66   6
   0   4 -12 123050. 7615.01   5
   0  -4 -12 129343. 6252.02   2
   0   4  12 146954. 10121.1   3
   0   4 -13 1439.72 904.558   5
   0   4 -13 727.997 921.761   6
   0   4  13 1245.21 842.598   3
   0  -4  13 480.917 599.558   1
   0   4 -14 46101.1 5901.22   6
   0   4  14 45058.6 5918.56   3
   0  -4  14 41983.0 4487.06   1
   0   4 -15-190.452 441.397   6
   0  -4  15 1363.92 1053.94   1
   0   4  15 1082.29 722.359   3
   0   4 -16 116883. 9991.65   6
   0  -4  16 113286. 7746.31   1
   0   4  16 119099. 10229.4   3
   0  -4  17 595.713 611.847   1
   0   4 -17 759.043 510.058   6
   0  -4  18 19512.6 3444.59   1
   0  -4  19-381.496 495.152   1
   0  -4  20 38118.8 5189.44   1
   0  -4  20 33054.4 5302.58   7
   0  -4  21-2047.33 1345.23   7
   0  -4  22 9838.82 3015.48   7
   0  -6   0 58455.8 5563.88   1
   0   6   0 51255.8 5141.52   5
   0  -6  -1 5952.18 2266.34   1
   0  -6   1 8686.73 2522.40   1
   0   6  -1 13593.5 2944.49   5
   0   6   1 10804.6 1604.74   7
   0  -6   2 319726. 12853.8   1
   0  -6  -2 305816. 13057.0   1
   0   6  -2 306353. 12766.4   5
   0   6   2 343870. 9517.51   7
   0   6   2 313355. 12507.2   5
   0  -6  -3 13378.2 3153.54   1
   0   6  -3 24762.4 3865.93   5
   0   6   3 31777.6 4165.43   5
   0  -6   3 19999.8 3635.27   1
   0   6   4 141048. 8332.26   5
   0  -6   4 130649. 6152.67   4
   0   6  -4 138191. 8633.82   5
   0  -6  -4 139475. 8918.18   1
   0  -6   4 147973. 8621.10   1
   0   6  -5 11741.7 2796.58   5
   0  -6   5 8634.76 2423.49   1
   0   6   6 210803. 10279.5   5
   0   6  -6 190208. 10272.3   5
   0  -6   6 196475. 9932.89   1
   0  -6   7 5103.63 1972.75   1
   0   6  -7 6489.15 2201.99   5
   0  -6   8 77979.3 3647.85   7
   0   6  -8 78902.5 6715.76   5
   0  -6   8 86633.8 6651.94   1
   0  -6   9 3102.30 988.122   7
   0   6  -9 5857.03 2067.89   5
   0  -6   9 3296.53 1678.16   1
   0  -6  10 121482. 5947.03   7
   0   6 -10 122271. 8757.09   5
   0  -6  10 129722. 8247.10   1
   0  -6  11 1324.84 818.971   7
   0   6 -11 2057.62 1276.26   5
   0  -6  11 2807.25 1520.41   1
   0   6 -12 44558.4 5459.66   5
   0  -6  12 46782.5 5028.02   1
   0   6  12 44493.5 6574.96   3
   0  -6  12 49624.1 4472.51   7
   0   6 -12 53650.5 6886.19   6
   0   6 -13 1810.23 1574.07   6
   0   6  13 4785.56 2014.39   3
   0  -6  13 1899.17 1150.80   7
   0   6 -13 1909.28 1093.11   5
   0  -6  13 1188.08 1135.25   1
   0   6 -14 97003.4 8345.87   5
   0  -6  14 106505. 7392.89   7
   0  -6  14 103565. 7773.04   1
   0   6 -14 113056. 10560.0   6
   0  -6  15 1278.28 1028.29   1
   0  -6  15 580.444 404.105   7
   0   6 -15 1109.23 897.809   5
   0   6 -15 184.247 276.083   6
   0   6 -16 23691.4 4189.50   5
   0   6 -16 23852.6 5090.97   6
   0  -6  16 23198.4 3891.79   1
   0   6 -17 373.501 644.465   6
   0  -6  17-163.872 646.187   1
   0   6 -18 36351.4 6706.08   6
   0  -6  18 36524.8 5184.26   1
   0  -6  19 621.214 759.877   1
   0   6 -19 1712.41 1464.72   6
   0   6 -20 12897.6 4344.44   6
   0   8   0 181604. 11489.3   5
   0  -8   0 196459. 11967.7   1
   0  -8   1 10891.0 3180.46   1
   0   8   1 15546.0 3636.53   5
   0  -8  -1 5824.82 2575.39   1
   0   8  -2 50608.8 6149.91   5
   0  -8   2 57338.6 6381.31   1
   0   8   2 53671.6 6184.17   5
   0   8   2 45747.9 3331.81   7
   0  -8  -2 54056.7 6268.51   1
   0   8   3 11045.2 3181.75   5
   0  -8  -3 3438.19 2055.41   1
   0   8  -3 11110.2 3242.37   5
   0  -8   3 7809.46 2616.13   1
   0   8   3 10758.1 1982.24   7
   0   8   4 140395. 7396.96   7
   0  -8  -4 134111. 9875.93   1
   0  -8   4 146697. 10151.3   1
   0   8   4 148314. 10296.9   5
   0   8  -4 132519. 10155.5   5
   0   8   5 11610.4 2379.14   7
   0  -8   5 7357.60 2613.54   1
   0   8   5 15245.7 3649.65   5
   0  -8  -5 5753.39 2391.08   1
   0   8  -5 10908.8 3377.02   5
   0   8  -6 74318.6 7752.96   5
   0   8   6 78071.4 6249.49   7
   0  -8   6 91661.7 7963.01   1
   0   8   6 85378.7 7906.31   5
   0   8   7 9196.98 2817.89   5
   0   8  -7 4421.71 2108.94   5
   0  -8   7 3569.45 1973.21   1
   0   8  -8 85932.5 8500.03   5
   0  -8   8 94338.3 8026.16   1
   0   8   8 97264.2 8513.01   5
   0   8  -9 4816.74 2349.82   5
   0   8   9 2859.32 1663.21   5
   0  -8   9 1839.46 1522.77   1
   0  -8  10 40342.7 5357.47   1
   0   8 -10 35595.2 5634.25   5
   0   8  10 41072.8 5699.22   5
   0   8 -11 265.195 1539.46   5
   0  -8  11 826.739 1208.83   1
   0  -8  12 81401.1 7639.79   1
   0   8 -12 76776.5 8631.31   5
   0   8  12 87396.9 8625.14   5
   0   8 -13 2280.36 1248.40   5
   0  -8  13 1489.80 1111.98   1
   0   8 -14 18481.4 4220.53   5
   0   8 -14 21225.5 5200.90   6
   0   8  14 22680.3 4489.72   5
   0  -8  14 21519.8 4011.06   1
   0  -8  15-283.000 667.033   1
   0   8  15 2767.00 1654.39   5
   0   8 -15 3610.16 2222.67   6
   0   8 -15 3080.44 1772.71   5
   0   8 -16 41763.9 6559.51   5
   0   8 -16 54609.4 8632.70   6
   0  -8  16 44736.6 6043.07   1
   0   8 -17-928.213 1563.69   6
   0  -8  17 167.111 1058.62   1
   0  -8  18 9422.04 2790.49   1
   0   8  18 7252.63 2845.97   7
   0   8 -18 10899.9 4013.35   6
   0   8 -19 2599.27 2003.75   6
   0   8  19 1159.76 945.430   7
   0  10   0 30852.7 5483.34   5
   0 -10   0 39109.0 5966.23   1
   0 -10   1 1300.93 1943.92   1
   0  10  -1 4702.04 2593.03   5
   0 -10  -1 3372.15 2134.58   1
   0  10   2 72519.4 8416.56   5
   0 -10  -2 88583.6 8903.50   1
   0 -10   2 96488.4 9396.72   1
   0  10  -2 78925.1 8956.92   5
   0  10   3 8744.49 3037.06   5
   0 -10   3 3040.20 1795.85   1
   0  10  -3 9169.94 3401.35   5
   0 -10  -3 2480.40 2060.11   1
   0 -10   4 43141.4 6246.91   1
   0  10   4 36229.7 5827.14   5
   0  10  -4 33732.4 5964.02   5
   0 -10  -4 41613.8 6155.01   1
   0 -10   5 2365.76 1691.21   1
   0  10   5 5501.15 2687.60   5
   0  10  -5 4469.83 2606.11   5
   0  10   6 78408.4 8805.83   5
   0 -10   6 87188.0 8856.77   1
   0  10  -6 68218.4 8683.82   5
   0 -10   7 2305.11 1807.37   1
   0  10   7 3783.27 2239.24   5
   0  10  -7 1723.00 2113.04   5
   0  10  -8 28470.7 5809.18   5
   0  10   8 34166.4 5914.82   5
   0 -10   8 28092.4 4984.31   1
   0  10  -9 1491.96 1330.69   5
   0  10   9 3906.07 2124.67   5
   0 -10   9 1236.35 1344.74   1
   0  10 -10 40154.8 7109.70   5
   0 -10  10 46032.7 6441.04   1
   0  10  10 44980.4 6898.50   5
   0  10  11 3.59618 950.870   5
   0 -10  11 1905.42 1517.75   1
   0  10 -11 857.267 1475.31   5
   0  10  12 21574.5 4907.53   5
   0  10 -12 30376.1 6463.55   5
   0 -10  12 24655.7 4731.46   1
   0  10 -13 1880.09 2189.46   5
   0 -10  13 1756.00 1262.21   1
   0  10  13 4536.13 2283.60   5
   0  10 -14 41153.2 8281.35   6
   0  10  14 40038.8 6919.90   5
   0  10 -14 37510.7 7354.86   5
   0 -10  14 36237.2 5854.74   1
   0 -10  15 2847.34 2032.57   1
   0  10 -15 2143.95 1887.41   6
   0  10 -15 2522.82 1903.87   5
   0 -10  16 4570.02 2126.80   1
   0 -10  17-3.30661 57.3390   1
   0 -12   0 57486.5 7937.80   1
   0  12   0 44966.8 7511.36   5
   0  12   1 5329.10 2756.36   5
   0 -12  -1 1653.48 1920.76   1
   0  12  -1 5175.78 2853.54   5
   0 -12   1 1746.68 1941.64   1
   0  12  -2 17545.8 4672.37   5
   0 -12  -2 23456.3 4977.90   1
   0  12   2 19688.6 5011.70   5
   0 -12   2 26698.3 5433.51   1
   0  12   3 5860.48 2828.87   5
   0 -12  -3 1720.12 1677.57   1
   0 -12   3 1302.48 1373.80   1
   0  12  -3 4088.18 2689.83   5
   0  12   4 37796.0 6930.46   5
   0 -12   4 47660.6 7366.36   1
   0  12  -4 38802.4 7317.25   5
   0 -12   5 2634.67 1641.16   1
   0  12  -5 7656.43 3505.06   5
   0  12   5 2124.35 1869.54   5
   0  12  -6 13260.0 4332.43   5
   0  12   6 17618.4 4858.41   5
   0 -12   6 21647.3 4890.19   1
   0  12   7 4726.88 2591.38   5
   0  12  -7 1682.41 2099.71   5
   0 -12   7 856.454 1165.03   1
   0 -12   8 35554.6 6280.74   1
   0  12   8 31570.5 6484.08   5
   0  12  -8 26732.2 6487.13   5
   0 -12   9-180.822 902.991   1
   0  12  -9-435.902 832.203   5
   0  12  10 16048.6 4711.07   5
   0 -12  10 16884.2 4290.18   1
   0  12 -10 12635.2 4669.07   5
   0 -12  11 1404.77 1661.90   1
   0  12  11 1334.86 662.633   5
   0  12 -12 19500.2 6132.36   5
   0  12  12 28563.0 6432.70   5
   0  12  13 339.575 706.336   5
  -1   1   0-62.2795 106.373   3
   1   1   0 188.893 188.900   5
   1  -1   0 134.541 222.882   3
  -1  -1   0 2.05456 133.307   5
  -1   1   0 37.0569 164.360   2
   1  -1   0 113.582 151.590   1
   1  -1   0 147.686 293.108   2
   1   1  -1 9847.95 1154.17   5
   1  -1   1 9782.26 1068.32   3
  -1  -1  -1 10427.4 1018.26   5
  -1   1  -1 11422.7 1161.45   3
  -1   1   1 10272.8 1195.86   3
  -1   1   1 9437.24 927.284   1
  -1  -1   1 9240.60 1129.42   5
  -1   1   1 10219.5 1293.41   2
   1  -1   1 9259.39 1255.71   2
   1   1   1 9508.73 963.101   5
   1  -1  -1 9835.14 1264.52   2
   1   1  -1 9306.95 1005.29   1
   1  -1  -1 9552.63 950.962   1
   1  -1  -1 9654.57 1080.78   7
  -1   1  -1 10919.8 1396.96   2
   1   1  -2 1709.91 496.862   7
   1   1   2 2536.74 436.925   5
  -1  -1  -2 2056.20 416.921   5
  -1   1   2 2566.95 657.017   7
   1  -1  -2 1582.11 508.049   7
  -1   1   2 1785.16 425.507   1
  -1   1  -2 2199.69 504.247   3
   1  -1  -2 1159.44 361.990   1
   1  -1   2 1321.19 531.861   2
  -1  -1   2 1129.65 334.016   1
  -1  -1   2 1067.42 457.128   5
   1   1  -2 961.124 411.903   6
   1   1  -2 864.334 294.035   1
  -1   1   2 2061.79 630.624   2
   1  -1  -2 1776.71 561.962   2
   1   1  -2 2528.41 686.521   5
  -1   1   2 1411.26 514.043   3
   1  -1   2 1717.33 477.340   3
  -1   1   3 3995.69 696.584   1
   1  -1  -3 3495.64 791.232   2
   1   1  -3 3918.94 808.331   7
  -1  -1  -3 3390.76 488.826   5
   1   1   3 3694.14 487.002   5
  -1  -1   3 3675.76 779.106   7
  -1  -1   3 3152.36 487.596   1
  -1   1   3 3295.20 760.055   2
  -1  -1   3 3561.11 787.901   5
  -1  -1   3 3203.59 769.413   6
   1   1  -3 3568.40 822.884   5
  -1   1   3 4296.07 937.169   7
   1   1  -3 2772.19 426.867   1
   1  -1  -3 2452.95 522.669   1
   1  -1   3 3658.44 571.620   3
   1   1  -3 4270.56 870.268   6
   1  -1  -3 4057.10 897.395   7
  -1   1   4 3671.34 699.142   1
  -1  -1  -4 4444.96 771.031   3
   1  -1   4 4207.36 606.391   3
  -1  -1   4 3235.62 892.711   6
  -1   1  -4 5137.77 655.509   5
  -1  -1   4 4102.03 614.040   1
  -1  -1   4 3601.65 899.839   7
   1  -1  -4 3695.60 841.545   2
  -1   1   4 3956.57 1004.75   7
   1   1  -4 4125.23 1000.92   6
   1   1   4 6449.07 644.112   5
  -1  -1   4 4038.12 929.779   5
  -1   1   4 4032.71 908.626   2
  -1   1  -5 2767.22 1025.56   4
  -1  -1   5 3478.09 896.278   7
   1  -1  -5 3288.27 763.492   2
   1   1  -5 3206.17 870.362   6
  -1  -1   5 3490.58 859.055   5
  -1   1  -5 3307.85 709.134   6
  -1   1  -5 3538.35 507.251   5
  -1  -1  -5 3453.95 653.276   3
   1   1   5 2989.36 440.373   5
  -1   1   5 3085.38 939.030   7
  -1  -1   5 3210.87 882.637   6
  -1   1   5 3044.82 785.669   2
   1   1   6 12850.9 960.379   5
  -1  -1  -6 7366.72 1811.02   4
  -1   1  -6 10395.0 956.691   5
   1   1  -6 8196.42 1628.34   6
  -1  -1  -6 10297.8 1160.43   3
  -1   1   6 8967.07 1463.13   2
  -1   1  -6 7213.28 1943.60   4
  -1   1  -6 7228.60 1214.52   6
  -1  -1   6 11766.0 1762.72   5
  -1  -1   6 8895.08 1599.05   7
   1  -1  -6 9315.37 1447.03   2
  -1  -1   7 10627.8 1800.23   7
  -1   1  -7 9863.86 925.611   5
  -1   1  -7 11095.6 1577.72   6
  -1  -1  -7 9780.88 2209.53   4
   1   1   7 11641.5 1319.26   3
  -1   1   7 11722.2 1626.76   2
   1  -1   7 10856.7 1004.97   5
  -1  -1   7 11529.5 1790.00   5
  -1   1  -7 14130.8 2633.91   4
   1  -1  -7 12524.0 1629.49   2
   1   1  -7 12890.6 2106.78   6
  -1  -1  -8 7199.99 2114.51   4
   1  -1   8 12329.0 1170.68   5
   1   1   8 10001.4 1722.31   6
  -1   1  -8 7442.95 2259.06   4
   1  -1  -8 12955.7 1818.93   2
   1   1   8 14249.7 1589.36   3
  -1   1   8 13205.3 1869.95   2
   1   1  -8 12408.9 2282.52   6
  -1   1  -8 9885.34 1688.96   6
  -1   1   9 6385.55 1276.67   2
   1  -1   9 5770.90 821.943   5
  -1  -1   9 7896.58 1346.62   2
  -1   1  -9 8642.30 2272.18   4
  -1   1  -9 6878.61 1475.95   6
   1   1   9 6460.37 1096.77   3
  -1  -1  -9 5122.02 1821.13   4
  -1   1 -10 8829.19 2611.61   4
   1   1  10 16949.8 2011.63   3
  -1  -1  10 11061.2 1739.34   2
  -1   1  10 13477.8 2047.67   2
  -1  -1 -10 8854.38 2495.04   4
   1  -1  10 9904.18 1164.65   5
  -1   1  11 12346.1 2120.56   3
  -1  -1 -11 10726.5 2871.71   4
  -1  -1  11 12112.4 1804.60   2
   1  -1  11 10481.4 1202.95   5
   1   1  11 10321.2 1605.32   3
  -1   1 -11 9396.60 2705.27   4
  -1   1  11 11178.4 1806.14   2
   1   1  11 8559.56 1029.66   5
  -1  -1 -12 10760.1 2921.74   4
  -1   1 -12 9072.67 3019.66   4
  -1   1  12 14974.6 2513.92   3
  -1  -1  12 10484.2 1789.87   2
   1   1  12 10520.1 1258.66   5
  -1   1  12 12039.6 2059.11   2
   1  -1  12 9125.29 1219.10   5
   1   1  12 16099.3 2197.13   3
  -1   1  13 2789.38 847.973   2
  -1   1  13 3830.31 1294.22   3
   1   1  13 2135.88 572.123   5
  -1  -1 -13 2685.99 1367.98   4
   1   1  13 2139.77 824.035   3
  -1  -1  13 3462.38 1017.55   2
   1  -1  13 1800.93 580.668   3
   1  -1  13 2329.15 608.057   5
   1  -1  14 4829.75 1110.63   3
   1   1  14 7846.94 1720.77   3
  -1   1  14 7520.54 1956.72   3
  -1   1  14 6029.35 1565.82   2
  -1  -1  14 4778.72 1366.43   2
   1  -1  14 2735.45 665.260   2
  -1   1  15 1858.15 1025.92   3
  -1   1  15 800.778 505.032   2
  -1  -1  15 1085.48 482.496   2
   1   1  15 1201.80 644.521   3
  -1   1  16 6083.67 1896.52   3
  -1  -1  16 2998.96 1129.31   2
  -1   1  17 116.480 463.479   3
  -1  -1  17-931.856 1447.06   7
  -1   1  18 5970.77 2005.02   3
  -1  -1  18 3410.49 1758.28   7
  -1  -1  19-529.064 782.535   7
  -1   1  19 1372.21 941.204   7
  -1  -1  20 2142.54 1727.12   7
  -1   1  20 1595.06 1237.25   7
  -1   1  21-2865.51 1677.44   7
  -1  -1  21 240.642 582.317   7
  -1   1  22-258.770 593.798   7
  -1  -1  22 1418.63 1010.64   7
  -1   1  23-835.850 633.701   7
  -1  -1  23-2422.87 1571.80   7
  -1   3   0 507.684 440.883   3
   1  -3   0 302.749 370.964   1
  -1   3   0-428.688 335.481   1
   1   3   0-39.5990 164.229   5
   1  -3   0 87.8749 83.0629   7
  -1  -3   0-97.0853 88.4422   5
   1  -3   0 304.919 286.684   3
  -1  -3   0 97.8862 215.983   1
   1   3   0 280.288 548.683   1
  -1   3  -1 8042.21 1493.60   1
   1  -3  -1 7892.82 1630.23   3
   1   3   1 10607.1 1614.53   5
   1  -3  -1 11397.4 1367.84   7
   1   3  -1 9997.89 1825.67   1
  -1   3   1 9084.64 1604.79   1
   1  -3  -1 8613.10 1536.64   1
  -1  -3  -1 8100.02 1337.61   5
   1  -3   1 7570.01 1553.44   3
  -1  -3   1 8840.66 1605.31   1
   1   3   1 8212.90 1684.10   1
  -1   3   1 9096.78 1213.34   7
   1   3  -1 9008.63 1532.58   5
   1  -3   1 9576.15 1580.28   1
  -1   3   1 8613.51 1762.17   3
  -1  -3   1 8436.70 1430.38   5
  -1   3  -1 7811.82 1646.51   3
  -1  -3  -1 7486.47 1471.60   1
  -1   3   2 3820.15 1219.66   1
   1  -3   2 2139.47 940.751   1
  -1  -3   2 3013.51 1025.73   1
  -1  -3   2 3257.82 1044.49   5
   1  -3   2 3350.97 1177.87   3
  -1  -3  -2 4039.07 965.280   5
   1  -3  -2 4011.45 1225.81   1
   1   3   2 2948.26 1027.52   1
  -1   3   2 4107.98 962.335   7
   1  -3  -2 4960.43 1397.99   3
   1   3  -2 4861.05 1219.06   5
  -1   3   2 4604.57 1411.53   3
  -1   3  -2 3563.62 1060.91   1
   1   3   2 5377.61 1203.95   5
   1   3  -2 2509.21 614.690   7
   1  -3  -2 2372.21 1083.05   2
   1   3  -2 2577.69 1086.93   1
  -1   3  -3 12897.8 1785.88   4
   1   3  -3 14879.2 2033.04   1
   1  -3   3 10332.0 1763.42   3
   1  -3   3 13696.2 1881.62   1
   1   3   3 14078.6 1844.96   5
  -1  -3   3 14144.1 1912.66   1
  -1   3   3 15092.3 2406.76   3
   1  -3  -3 15565.4 2218.15   1
   1   3  -3 15545.5 1527.54   7
   1   3  -3 14117.7 1968.96   5
  -1   3   3 16232.5 2330.89   1
  -1   3  -3 13873.8 1897.47   5
  -1   3   3 17289.4 2149.91   7
   1  -3  -3 14703.0 2323.25   2
  -1  -3  -3 13217.7 1674.54   5
   1   3   4 2238.12 739.344   5
  -1   3  -4 559.675 512.649   4
  -1   3  -4 1732.56 848.302   5
  -1  -3  -4 1437.16 776.663   3
   1  -3   4 556.481 555.638   3
   1  -3  -4 967.212 696.303   1
  -1   3   4 1581.06 947.313   1
  -1  -3   4 960.451 473.310   7
   1   3  -4 1079.98 660.005   1
  -1  -3   4 787.523 569.906   1
   1  -3   4 1301.97 678.270   1
   1  -3  -4 1257.67 802.056   2
  -1   3   4 768.841 624.386   3
  -1   3   4 940.421 625.594   7
   1   3  -4 2140.71 893.153   5
  -1   3   5 42093.2 3928.71   1
  -1   3   5 48532.9 4181.76   7
  -1  -3  -5 39437.1 3844.23   3
  -1   3  -5 40282.5 3268.11   5
   1  -3   5 31871.0 3182.13   3
   1  -3   5 41331.1 3463.92   1
  -1  -3   5 43305.8 2819.33   7
  -1   3   5 42422.5 4085.84   3
   1   3   5 46748.2 3334.39   5
   1  -3  -5 41511.3 3925.26   2
  -1  -3   5 39519.0 3166.88   1
   1   3  -5 44744.5 3780.34   5
  -1   3  -5 37766.7 3832.12   4
   1   3  -5 41874.7 3249.15   1
  -1   3  -6 3845.01 1091.66   5
   1   3   6 6214.49 1167.97   5
  -1   3   6 3447.01 1348.80   4
  -1   3   6 5104.18 1495.00   3
  -1  -3   6 3604.33 1034.59   7
   1   3  -6 3340.27 1090.15   5
   1  -3   6 3403.21 1150.04   1
  -1   3  -6 2415.31 1252.63   4
  -1  -3  -6 3352.83 1154.37   3
  -1   3   6 2928.86 1201.47   7
  -1  -3   6 2591.85 956.373   1
  -1  -3  -6 2334.31 1039.72   4
   1  -3  -6 4544.32 1381.70   2
   1  -3   7 5383.61 1307.72   1
   1   3  -7 6583.32 1496.72   5
  -1  -3  -7 6633.14 1694.21   3
   1  -3  -7 6526.47 1521.94   2
  -1  -3  -7 5321.97 1590.60   4
  -1   3   7 5735.43 1524.00   3
  -1   3  -7 4534.04 1044.92   5
  -1  -3   7 4327.06 1031.38   1
  -1   3  -7 4555.15 1610.07   4
   1   3   7 7195.84 1308.21   5
   1   3  -7 4723.13 1385.79   6
  -1  -3   7 6395.82 1316.94   7
  -1  -3   8 6015.84 1482.48   7
  -1   3  -8 4621.82 1894.13   4
  -1   3   8 9419.49 2066.13   3
  -1  -3   8 6333.92 1430.10   1
   1   3  -8 7557.10 1819.04   5
  -1  -3  -8 7760.03 2026.36   4
   1  -3  -8 8772.87 1836.84   2
  -1  -3  -8 6988.27 1190.73   2
  -1  -3  -8 8550.30 1916.08   3
   1  -3   8 5275.64 1301.86   5
   1   3  -8 7652.74 2136.14   6
  -1   3  -8 7925.70 1507.72   5
   1   3   8 12016.8 1656.37   5
  -1  -3  -9 15950.7 1491.05   2
   1   3  -9 21707.4 3436.66   6
  -1  -3   9 18055.4 2584.40   7
  -1   3   9 27718.3 3541.89   3
  -1   3  -9 20988.2 2971.66   6
   1   3  -9 20274.1 2879.77   5
  -1  -3   9 19829.3 2411.73   1
  -1   3  -9 17919.8 3463.93   4
  -1  -3  -9 18640.1 3293.94   4
  -1   3   9 18287.9 2519.13   2
  -1   3  -9 19260.3 2365.16   5
   1  -3   9 16542.3 2084.03   5
   1   3   9 25195.3 2441.44   5
  -1  -3  10 7625.78 1623.19   1
  -1   3 -10 7010.09 1541.01   5
  -1   3 -10 3330.37 1379.87   6
  -1   3 -10 6426.24 2206.08   4
  -1  -3 -10 5096.32 1891.68   4
  -1   3  10 9327.64 2092.07   3
   1   3  10 14169.2 1878.34   5
   1  -3  10 3977.77 1179.77   5
  -1   3  10 9129.22 1866.18   2
  -1  -3  10 4663.08 1522.39   7
   1   3 -10 6611.71 2125.84   6
   1   3 -10 9092.89 2097.04   5
  -1  -3  11 1387.18 660.999   7
   1   3 -11 2495.49 1669.00   6
  -1  -3  11 2271.80 921.231   1
  -1   3 -11 1893.74 1171.05   6
  -1  -3 -11 1469.76 1167.28   4
  -1   3 -11 2175.09 796.087   5
  -1   3  11 2926.10 1140.20   2
  -1   3  11 3178.10 1223.14   3
  -1  -3 -12 6436.86 2274.68   4
  -1   3 -12 5194.11 1881.36   6
  -1  -3  12 7209.09 1766.92   1
  -1   3  12 11444.0 2472.67   3
   1   3 -12 9413.52 2581.32   6
  -1   3 -12 5278.24 1345.42   5
  -1  -3  12 4756.44 1767.10   7
  -1  -3  13 2165.30 1201.28   7
  -1  -3  13 1973.46 1046.68   1
  -1  -3 -13 3536.28 1763.18   4
  -1   3 -13 1703.35 1158.97   6
   1   3 -13 4533.79 1790.21   6
  -1   3  13 6773.44 2030.83   3
  -1  -3  14 5044.79 1595.39   1
  -1   3 -14 3374.09 1537.35   6
  -1  -3  14 3767.51 1573.63   7
   1   3 -14 3667.81 1763.74   6
  -1   3  14 7469.19 2233.07   3
  -1  -3  15 297.943 567.587   1
  -1   3 -15 1207.64 880.394   6
  -1  -3  15 753.872 594.169   7
  -1   3  16 6196.82 2088.89   3
  -1  -3  16 4639.26 1717.65   1
  -1  -3  16 3066.22 1367.78   2
  -1  -3  16 4565.04 2014.23   7
  -1  -3  17 7153.58 1925.22   1
  -1  -3  17 5892.77 2200.48   7
  -1  -3  17 5552.00 1646.02   2
  -1   3  17 9635.28 2619.34   3
  -1   3  18 4354.43 1870.55   3
  -1  -3  18 2135.33 1470.62   7
  -1  -3  18 3312.70 1515.22   1
  -1   3  18 3428.23 2102.40   7
  -1   3  19-332.600 1078.23   7
  -1  -3  19 947.143 1070.58   7
  -1  -3  20 2419.69 1610.01   7
  -1   3  20 861.933 947.200   7
  -1   3  21 1641.53 1522.04   7
  -1  -3  21 352.655 890.047   7
  -1  -3  22 1502.75 1680.32   7
  -1   3  22 1845.02 1524.07   7
  -1  -3  23 1216.88 1199.16   7
   1  -5   0 107.334 442.647   1
  -1  -5   0 132.881 289.349   1
   1   5   0 91.0911 284.694   5
   1  -5   1 1128.10 830.597   1
  -1   5   1 34.6981 678.087   3
  -1  -5  -1 1191.94 818.760   1
   1   5   1-384.696 621.587   5
  -1  -5   1 566.605 454.861   1
  -1   5  -1 345.499 316.514   5
   1  -5  -1-49.3579 269.493   1
   1   5  -1 296.852 492.989   5
  -1   5   2-144.431 766.241   3
   1  -5   2-255.215 147.031   7
   1   5  -2 41.7712 349.057   5
  -1  -5   2 249.229 627.033   1
  -1   5  -2 253.344 358.934   5
   1   5   2 93.5824 342.437   5
   1  -5  -2-129.134 385.225   1
   1  -5   2 174.839 344.593   1
   1   5  -2-9.81972 105.766   7
  -1   5   2 647.625 554.457   7
  -1  -5  -2 373.987 544.301   1
   1  -5   3 1439.86 1081.99   1
  -1   5  -3 2771.82 1303.75   5
   1  -5  -3 2741.71 1215.43   1
  -1   5   3 1241.36 401.146   4
  -1   5   3 3501.04 1665.08   3
  -1   5   3 3044.03 1102.53   7
   1   5   3 5085.28 1498.30   5
  -1  -5   3 3518.65 1359.83   1
   1   5  -3 3065.90 1267.33   5
   1  -5   4 1273.30 938.249   1
  -1   5   4 1368.65 1199.83   3
   1   5   4 2830.28 1110.57   5
   1  -5  -4 1870.71 1158.42   1
   1   5  -4 1731.32 976.373   5
  -1   5   4 2154.25 1158.47   7
  -1   5  -4 1775.74 992.623   5
  -1   5   4 540.646 485.264   4
  -1  -5   4 341.513 650.031   1
  -1  -5   5 5230.32 1535.07   1
  -1   5   5 4865.06 1137.39   4
   1   5   5 6042.65 1586.36   5
  -1   5   5 4169.86 1581.11   3
   1  -5  -5 6128.55 1789.93   1
  -1   5  -5 4325.31 1411.02   5
   1   5  -5 4972.92 1440.20   5
  -1  -5  -5 3537.75 1030.68   4
   1  -5   5 4217.23 1294.92   1
  -1   5   5 5934.38 1551.45   7
  -1   5   6 554.105 442.944   7
  -1  -5  -6 635.804 546.688   4
   1   5  -6 60.7330 343.518   5
  -1   5   6 582.220 585.688   4
   1   5   6 987.542 589.732   5
  -1   5  -6-172.376 376.505   5
  -1  -5   6 363.667 553.185   1
  -1   5   6 982.439 934.374   3
   1  -5   6 386.932 364.862   1
  -1   5   7 34104.0 4802.45   3
  -1   5   7 30736.8 4003.33   7
  -1   5   7 28250.4 3480.45   4
  -1  -5   7 23608.1 2093.56   7
  -1  -5  -7 27093.3 3357.35   4
  -1   5  -7 27586.0 3627.41   5
   1   5   7 33131.0 3651.68   5
  -1  -5   7 27741.0 3528.39   1
   1  -5   7 27951.4 3599.32   1
   1   5  -7 27811.1 3781.71   5
  -1   5   8 1691.30 937.072   3
  -1  -5  -8 481.818 506.459   4
  -1   5   8 1540.66 985.049   7
   1   5   8 3183.60 1131.58   5
  -1  -5   8 1517.62 945.746   1
  -1  -5   8 593.354 417.970   7
   1   5  -8 1473.40 1049.62   5
  -1   5  -8 2649.22 1183.94   5
   1  -5   8 1419.07 971.348   1
   1   5   9 7917.97 1747.08   5
  -1  -5  -9 2007.80 984.535   4
  -1   5   9 4926.21 1904.39   3
  -1  -5   9 1792.56 1025.71   1
  -1   5   9 4452.39 1693.24   7
  -1   5  -9 2520.03 1175.49   5
   1  -5   9 2979.77 1430.12   1
  -1  -5  -9 4289.69 1419.16   2
   1   5  -9 3778.03 1526.71   5
  -1  -5   9 2648.34 921.361   7
  -1   5 -10 3106.93 1334.51   5
  -1  -5  10 2298.55 1158.64   1
  -1  -5 -10 2526.99 1297.52   4
  -1  -5  10 1889.04 879.522   7
   1   5 -10 3581.39 1621.55   5
  -1  -5 -10 3878.86 1340.16   2
   1   5 -10 3857.64 1931.70   6
  -1   5  10 4348.82 1768.12   3
   1   5  10 6318.36 1586.89   5
   1  -5  10 2304.76 1248.83   1
  -1  -5  11 7777.84 1819.17   7
   1  -5  11 10438.9 2544.95   1
  -1  -5  11 9479.11 2154.30   1
   1   5 -11 10023.2 2945.87   6
  -1   5  11 13872.8 3315.44   3
  -1  -5 -11 9242.06 2459.85   4
   1   5  11 17071.8 2711.24   5
  -1   5 -11 8660.25 2102.89   5
   1   5 -11 11152.7 2646.76   5
   1   5 -12 1489.27 984.479   5
  -1   5 -12 620.679 814.852   6
  -1   5 -12 1580.71 1030.47   5
  -1  -5  12 320.560 192.077   7
   1   5  12 3604.34 1243.58   5
  -1   5  12 2727.95 1582.22   3
   1   5 -12 1786.51 1347.89   6
   1  -5  12 940.710 785.088   1
  -1  -5  12 1656.77 1098.90   1
  -1   5  13 4305.90 1895.95   3
  -1  -5  13 1925.85 1037.00   7
  -1   5 -13 1987.64 1418.27   6
   1   5 -13 981.734 1325.05   6
  -1  -5  13 1333.66 1036.88   1
   1   5 -13 492.877 661.162   5
  -1   5 -13 1729.64 1117.46   5
   1  -5  13 1861.18 1261.43   1
  -1  -5  14 2695.03 1318.98   1
  -1  -5  14 2802.96 1219.29   7
  -1   5  14 2431.52 1584.81   3
   1  -5  14 2465.25 1477.88   1
   1   5 -14 1976.59 1710.91   6
  -1   5 -14 1878.82 1484.95   6
   1   5 -14 4336.79 1858.59   5
  -1   5 -14 874.469 769.265   5
   1   5  14 5545.75 1624.54   5
  -1   5 -15 6490.25 2541.07   6
  -1  -5  15 4959.61 1771.78   7
  -1   5  15 15008.2 3682.76   3
   1  -5  15 9080.86 2584.80   1
  -1  -5  15 9109.94 2294.67   1
   1   5 -15 8697.36 2992.66   6
  -1   5 -15 7035.31 1964.57   5
  -1   5  15 10270.9 3065.40   7
  -1   5  16 1972.35 1695.51   7
  -1  -5  16 1057.86 1233.69   1
   1   5 -16 3121.17 2037.43   6
  -1  -5  16 633.851 575.801   7
   1  -5  16 2490.64 1389.35   1
  -1   5  16 4293.55 1863.42   3
  -1   5 -16 881.316 1013.79   6
  -1   5  17 4568.28 2149.85   7
  -1  -5  17 2378.89 1252.64   7
   1   5 -17 565.946 948.231   6
   1  -5  17 3653.83 1678.49   1
  -1   5 -17 1742.42 1619.90   6
  -1  -5  17 903.961 1009.22   1
  -1   5  17 3441.93 1803.70   3
  -1   5  18 1462.94 866.337   7
  -1   5  18 2871.78 1519.69   3
   1  -5  18 1415.71 1455.22   1
  -1   5 -18-1706.51 1305.89   6
  -1  -5  18 1681.30 1055.31   7
   1   5 -18 1899.65 1460.70   6
  -1   5 -19 7771.08 2772.49   6
  -1  -5  19 5677.10 2205.33   7
  -1   5  19 5199.65 2071.59   7
   1  -5  19 4465.51 1969.07   1
   1  -5  20 1589.10 1532.75   1
  -1   5  20 421.322 623.396   7
   1  -5  21 1479.39 1213.20   1
  -1   5  21 2199.46 1251.11   7
   1   7   0 672.086 631.329   5
  -1   7   0 681.685 770.808   5
  -1  -7   0-172.180 628.751   1
   1  -7   0 851.296 937.550   1
  -1  -7  -1 2395.63 1182.96   1
  -1   7  -1 2522.18 1274.70   5
  -1   7   1 2870.42 1279.62   5
   1   7   1 3795.39 1619.69   5
   1  -7   1 2099.85 1157.67   1
   1  -7  -1 4034.90 1570.64   1
  -1  -7   1 2935.34 1439.51   1
   1   7  -1 2360.31 1199.59   5
  -1  -7  -2-6.06526 701.612   1
  -1   7  -2 120.456 495.109   5
   1  -7   2-473.362 707.442   1
   1   7   2 298.571 368.114   5
   1  -7  -2-220.655 372.525   1
  -1   7   2-106.714 355.219   5
  -1  -7   2-111.288 568.999   1
   1   7  -2-469.955 544.419   5
  -1   7  -3 863.445 615.444   5
   1  -7   3 836.640 704.209   1
  -1   7   3 1908.68 908.671   5
  -1  -7  -3 1641.68 1077.45   1
  -1  -7   3 1966.93 1220.40   1
   1  -7  -3 992.484 679.217   1
   1   7  -3 1306.29 906.404   5
  -1   7   3 1048.58 628.906   7
   1   7   3 2396.05 1186.55   5
   1  -7   4 1179.88 1112.00   1
   1   7  -4-1302.17 902.863   5
  -1  -7   4 19.2347 490.912   1
  -1   7  -4-312.384 803.702   5
   1   7   4-131.983 587.207   5
   1  -7  -4-152.609 712.356   1
  -1   7   4 333.095 617.056   7
  -1  -7  -4-290.359 312.557   4
   1  -7  -5 6729.34 2189.43   1
  -1  -7   5 5886.88 2100.26   1
  -1   7  -5 4461.96 1828.12   5
  -1  -7  -5 3274.53 868.477   4
  -1   7   5 6563.13 1753.62   7
   1  -7   5 5010.94 1893.28   1
   1   7   5 9138.84 2461.65   5
   1   7  -5 3623.77 1593.31   5
  -1  -7   6 582.460 426.537   1
  -1   7  -6 368.035 297.675   5
   1  -7   6 393.139 445.990   1
  -1   7   6-77.4774 401.501   7
   1   7   6 568.386 593.607   5
   1  -7  -6 676.923 867.260   1
   1   7  -6 614.614 688.782   5
  -1  -7  -6-157.351 290.162   4
   1   7  -7 392.903 1047.83   5
  -1   7   7 1589.11 1859.77   3
   1   7   7 1294.33 899.493   5
  -1  -7  -7 1054.02 625.237   4
  -1  -7   7 716.162 974.140   1
  -1   7   7 835.575 938.898   7
   1  -7   7 200.506 832.463   1
  -1   7  -7 1632.55 1259.70   5
   1   7  -8 348.667 865.369   5
  -1   7   8-780.751 863.092   3
  -1   7   8-424.001 441.039   7
  -1   7  -8-440.138 791.245   5
   1   7   8-703.940 1009.51   5
   1  -7   8 88.1019 273.812   1
  -1  -7   8 33.6666 76.7899   1
  -1  -7   9 11597.4 2788.62   1
   1  -7   9 13005.9 2961.90   1
  -1   7  -9 10921.7 3051.80   5
  -1   7   9 15427.5 3265.70   7
  -1   7   9 14690.8 3852.80   3
   1   7   9 19659.0 3456.07   5
   1   7  -9 11587.8 3022.46   5
   1  -7  10-468.833 738.323   1
  -1   7 -10 1511.40 1075.45   5
  -1   7  10 844.858 1023.62   7
  -1  -7  10 39.4505 542.988   1
   1   7  10-89.3717 777.696   5
   1   7 -10 444.209 716.921   5
  -1   7  10-490.942 1003.43   3
  -1   7  11 3412.74 1655.36   7
  -1   7  11 3131.26 1918.64   3
   1   7  11 3670.51 1426.09   5
  -1  -7  11 1405.21 1295.56   1
  -1   7 -11 2467.97 1341.40   5
   1  -7  11 1540.04 1130.81   1
   1   7 -11 567.533 614.125   5
   1   7 -12 249.413 999.113   6
  -1   7 -12 656.331 897.534   5
  -1   7  12 684.653 1264.40   3
   1  -7  12 655.455 416.692   1
  -1   7  12 599.898 368.610   7
   1   7  12-505.063 1008.07   5
   1   7 -12 1671.27 1439.88   5
   1   7 -13 17062.1 4406.93   6
   1  -7  13 9585.64 2843.12   1
  -1   7 -13 7713.27 2858.89   6
   1   7 -13 12978.5 3542.08   5
  -1  -7  13 7742.54 2347.64   1
  -1   7 -13 9352.06 2745.03   5
  -1   7  13 14970.1 3922.35   3
  -1   7  13 14616.7 3640.18   7
   1   7  13 19670.6 3670.24   5
  -1   7 -14-1118.92 943.406   5
  -1   7  14 357.945 362.915   7
   1   7 -14-281.467 213.727   6
  -1  -7  14-798.897 718.269   1
   1   7  14 645.290 898.611   5
  -1   7  14 2635.42 1876.64   3
   1   7 -14-1532.84 1349.19   5
  -1   7 -14 1559.57 1133.34   6
   1  -7  14 279.366 267.468   1
  -1   7  15 5031.54 2290.20   7
   1  -7  15 4739.15 1838.99   1
  -1   7 -15 2613.35 1445.40   5
   1   7 -15 3802.66 2004.50   5
  -1  -7  15 1866.93 1317.62   1
  -1   7  15 5543.22 2486.17   3
   1   7 -15-375.505 1413.72   6
  -1   7 -15 2665.34 1262.81   6
   1   7 -16-512.054 805.555   6
  -1   7 -16-268.748 688.246   6
   1   7 -16 1196.35 774.750   5
  -1   7  16 1058.10 1133.56   3
  -1  -7  16-156.853 329.841   1
  -1   7  16-780.644 903.468   7
   1  -7  16 128.019 344.845   1
  -1   7  17 11456.2 4040.08   3
   1  -7  17 5822.73 2411.04   1
   1   7 -17 3858.62 2439.47   6
  -1   7 -17 4872.41 2411.08   6
  -1   7  17 8070.14 3013.11   7
  -1   7  18-1141.51 1145.71   7
   1  -7  18-83.8480 263.276   1
  -1   7 -18-1202.75 1225.79   6
   1   7 -18 556.198 882.294   6
  -1   7  19-314.753 510.045   7
   1   7 -19 4561.52 2640.98   6
  -1   7 -19-1232.12 1276.85   6
   1  -7  19 3545.87 1758.24   1
  -1   7 -20 794.971 1054.19   6
   1  -7  20-214.221 443.998   1
   1   7 -20-882.073 1173.14   6
  -1   7 -21 6367.79 3071.43   6
   1  -7  21 2927.71 1873.46   1
  -1   9   0 66.2517 147.542   5
   1   9   0 192.892 565.376   5
   1  -9   0-338.008 155.895   1
  -1  -9   0-148.247 292.141   1
  -1   9  -1-694.337 1244.09   5
  -1  -9  -1-761.227 445.992   1
  -1   9   1 600.407 629.419   5
   1  -9  -1-117.231 509.794   1
   1   9  -1-904.231 837.424   5
   1  -9   1-809.330 798.388   1
   1   9   1 1564.88 1342.99   5
  -1  -9   1-345.682 361.238   1
   1   9   2 658.727 735.808   5
  -1   9   2-63.7184 751.554   5
  -1   9  -2-554.955 807.085   5
   1   9  -2 760.684 430.294   5
  -1  -9   2-463.527 489.925   1
   1  -9  -2 247.035 345.924   1
  -1  -9  -2-602.262 681.996   1
   1  -9   2-786.341 782.707   1
  -1   9   3 3216.64 1671.60   5
   1   9   3 3875.52 1689.91   5
  -1   9  -3 795.885 1006.78   5
   1  -9   3 3367.31 1579.80   1
   1  -9  -3 4508.91 2005.66   1
  -1  -9   3 2223.70 1097.48   1
  -1  -9  -3 1788.09 1126.27   1
   1   9  -3 4774.57 2121.03   5
  -1  -9   4 175.370 413.197   1
  -1   9   4 95.0762 886.666   5
  -1   9   4 282.381 192.988   7
   1  -9   4-1032.29 891.693   1
  -1   9  -4 192.917 571.062   5
   1   9   4 520.917 340.005   5
   1  -9  -4-104.391 556.565   1
   1   9  -4-921.517 512.501   5
   1  -9  -5-315.141 576.147   1
   1  -9   5-317.856 1189.59   1
  -1   9  -5 2385.59 1645.94   5
  -1   9   5 914.240 1053.00   5
  -1  -9   5 1795.59 1283.94   1
   1   9   5 160.222 176.198   5
   1   9  -5 95.6288 374.947   5
  -1   9   5 412.452 285.568   7
   1  -9   6 220.935 309.825   1
   1   9   6-150.953 352.963   5
  -1   9   6 634.022 838.695   5
  -1   9  -6-710.169 566.420   5
   1  -9  -6-207.002 574.330   1
  -1   9   6-736.701 506.540   7
  -1  -9   6 568.638 594.066   1
   1   9  -6-259.113 892.027   5
  -1   9   7 6347.15 1955.25   7
   1   9   7 7646.52 2456.25   5
  -1   9   7 4103.97 1851.93   5
   1   9  -7 4299.37 2035.05   5
  -1  -9   7 3948.89 2055.27   1
   1  -9   7 6250.19 2318.85   1
  -1   9  -7 4966.33 2232.47   5
  -1  -9   8-507.070 632.931   1
  -1   9   8 1241.94 769.196   7
   1   9   8 569.103 793.045   5
  -1   9  -8 925.483 1045.41   5
  -1   9   8 418.117 1022.53   5
   1  -9   8-39.2161 406.864   1
   1   9  -8-1571.33 1229.69   5
   1   9  -9 61.3911 157.591   5
  -1   9  -9 814.297 1553.54   5
   1  -9   9 825.441 362.962   1
  -1   9   9 1021.03 931.222   5
  -1   9   9 517.834 345.591   7
  -1  -9   9 188.444 722.627   1
   1   9   9 262.229 781.046   5
   1   9  10 869.497 783.192   5
  -1   9  10 383.846 577.164   5
   1   9 -10 384.405 488.980   5
   1  -9  10-80.3847 317.954   1
  -1  -9  10 600.052 478.569   1
  -1   9  10 332.119 587.052   7
  -1   9 -11 5140.02 2527.86   5
   1  -9  11 7230.35 2430.55   1
   1   9  11 10936.6 3110.78   5
  -1  -9  11 9500.40 2903.01   1
   1   9 -11 5617.73 2511.64   5
  -1   9  11 6309.44 2289.53   7
  -1   9  11 12381.2 3526.50   5
  -1   9  12-447.910 823.123   5
   1   9 -12-1754.16 1841.02   5
  -1   9  12 1492.22 1240.60   7
  -1  -9  12-821.611 898.535   1
   1  -9  12-1195.59 983.914   1
  -1   9 -12-553.894 800.412   5
   1   9  12-669.270 935.820   5
   1   9  13 7542.42 2497.63   5
   1   9 -13 1270.04 1129.27   5
  -1   9 -13 688.809 1128.35   5
  -1  -9  13 2575.54 1456.32   1
  -1   9  13 3763.69 1951.14   7
   1   9 -13 2745.71 2589.68   6
   1  -9  13 828.438 913.960   1
  -1   9  13 3908.07 1637.98   5
  -1   9  14-875.739 898.561   7
  -1   9 -14 975.332 78.1200   6
  -1   9 -14 1095.29 1726.99   5
   1   9 -14-504.431 472.721   5
   1  -9  14 453.070 335.891   1
  -1  -9  14 787.362 475.545   1
  -1   9  14 770.910 687.736   5
   1   9 -14 236.733 592.525   6
  -1   9  15 7355.87 2709.07   5
  -1   9  15 7633.56 2824.15   7
   1  -9  15 4159.95 2118.83   1
   1   9 -15 4158.04 2244.43   5
  -1   9 -15 4180.84 2474.83   6
   1   9 -15 4045.04 2496.40   6
  -1  -9  15 4964.18 2133.00   1
  -1   9 -16 598.774 928.700   6
   1   9 -16-1070.03 1316.79   5
  -1   9  16 864.184 1209.33   7
   1  -9  16 1428.74 942.105   1
   1   9 -16-2454.99 1987.06   6
  -1   9  17 2761.24 1767.57   7
   1  -9  17 2283.70 1461.70   1
   1   9 -17 4963.38 2884.22   6
  -1   9 -17 3964.47 2443.58   6
  -1   9  18 620.111 432.597   7
   1  -9  18-213.772 456.296   1
   1  11   0-1698.91 956.721   5
  -1 -11   0-407.449 1229.82   1
  -1  11   0-1279.57 1515.73   5
   1 -11   0-306.973 1122.07   1
  -1 -11  -1-43.0983 844.123   1
   1  11  -1 1457.44 1264.41   5
   1  11   1-460.961 928.837   5
  -1  11   1-794.480 1017.66   5
  -1 -11   1 613.887 1000.68   1
   1 -11  -1 807.318 259.748   1
   1 -11   1 46.7159 868.916   1
  -1  11  -1-74.7002 414.717   5
   1  11  -2-668.078 331.318   5
   1  11   2 757.352 907.347   5
  -1  11  -2 1407.84 1237.28   5
  -1  11   2 403.758 595.711   5
  -1 -11   2-138.181 829.713   1
   1 -11  -2-2139.74 1478.29   1
   1 -11   2-382.011 518.429   1
  -1 -11  -2-500.604 689.521   1
  -1  11  -3 552.334 1401.11   5
  -1  11   3-876.825 1433.92   5
   1 -11  -3-868.358 662.886   1
  -1 -11   3 1454.86 1215.91   1
   1 -11   3-394.811 561.012   1
   1  11  -3 794.793 752.556   5
   1  11   3 807.794 936.979   5
   1  11   4 552.788 776.231   5
   1 -11  -4 398.060 547.986   1
  -1 -11   4 431.420 1434.86   1
  -1  11   4 671.314 1121.40   5
   1  11  -4 2369.75 1798.80   5
  -1  11  -4 1249.89 1106.46   5
   1 -11   4 284.366 484.789   1
  -1  11   5 1215.44 1170.12   5
   1 -11  -5 3436.85 1769.88   1
  -1 -11   5 3403.77 2097.90   1
   1  11  -5 5394.53 2525.94   5
  -1  11  -5 2991.76 1931.42   5
   1  11   5 4554.23 2388.06   5
   1 -11   5 4428.33 2241.13   1
   1  11  -6 600.793 795.686   5
  -1  11  -6 636.822 1132.67   5
  -1  11   6 1504.99 1545.26   5
  -1 -11   6 513.273 958.929   1
   1  11   6-511.192 450.943   5
   1 -11   6-474.319 964.272   1
   1 -11   7-607.488 769.316   1
  -1  11  -7 1502.58 1606.08   5
   1  11   7-1626.76 1350.98   5
  -1  11   7 1135.69 155.111   5
  -1 -11   7 806.718 470.592   1
   1  11  -7-433.160 845.363   5
  -1  11   8-1339.69 1471.12   5
  -1  11  -8 1222.29 1192.18   5
   1  11   8-102.555 1220.74   5
  -1 -11   8 1261.26 1099.72   1
   1 -11   8 1005.73 991.335   1
   1  11  -8-865.775 1186.90   5
   1 -11   9 2397.52 1495.86   1
   1  11  -9 1995.50 2151.56   5
   1  11   9 5748.18 2596.67   5
  -1 -11   9 5474.03 2335.45   1
  -1  11   9 2968.45 1718.38   5
  -1  11  -9 2533.26 1749.46   5
   1 -11  10-408.812 878.264   1
  -1  11 -10 1999.60 1686.61   5
   1  11  10-1612.06 1387.35   5
  -1  11  10-1578.21 1346.66   5
  -1 -11  10 1498.94 1221.92   1
   1  11 -10 821.621 1101.21   5
   1  11 -11 2411.44 1609.12   5
   1 -11  11 1090.46 1074.50   1
  -1 -11  11 1214.04 1481.54   1
   1  11  11 3155.36 1965.47   5
  -1  11 -11 5335.40 2890.54   5
  -1  11  11 1177.30 1020.05   5
   1  11 -12-3975.72 2461.43   5
  -1  11 -12 110.445 670.447   5
  -1  11  12 1559.58 1357.32   5
   1 -11  12 2269.10 1515.06   1
  -1 -11  12-843.947 1013.73   1
   1  11  12-1601.80 1418.38   5
   1 -11  13 3299.46 1843.25   1
  -1  11 -13 2507.78 2172.11   5
  -1 -11  13 4643.83 2419.92   1
  -1  11  13 6742.03 3053.08   5
   1  11 -13 3401.64 2325.32   5
   1 -11  14-1048.20 1043.35   1
  -1  11  14-879.277 1044.73   5
  -1 -11  14 1262.60 1143.66   1
   1  11 -14 947.874 1247.87   5
   1  11 -15-1661.44 1683.13   5
   1 -13   0 1389.60 1484.31   1
   1  13   0 966.441 1733.17   5
  -1  13   0 2187.59 1169.46   5
  -1 -13   0 1475.38 1303.90   1
   1  13  -1-609.268 1823.83   5
   1  13   1 1702.88 1540.36   5
  -1  13  -1-2166.49 1762.21   5
  -1  13   1 2060.63 1696.76   5
  -1 -13   1 332.404 288.285   1
   1 -13  -1-201.331 493.735   1
   1 -13   1 542.554 395.535   1
   1  13  -2 784.785 1056.24   5
   1  13   2 1288.80 1739.47   5
  -1 -13   2 1564.63 1149.79   1
  -1  13   2 1607.72 1494.48   5
   1 -13  -2 1775.83 1460.61   1
   1 -13   2 154.816 278.142   1
  -1  13  -2 1175.44 1391.99   5
  -1  13   3 3173.95 2185.36   5
   1  13   3 598.062 1078.28   5
   1  13  -3 3805.13 2347.60   5
  -1  13  -3 1040.36 1247.90   5
   1 -13  -3 1335.00 1196.54   1
  -1 -13   3 845.700 1065.47   1
   1 -13   3 2274.21 2018.73   1
  -1  13   4-330.665 1537.37   5
  -1  13  -4 468.636 847.246   5
  -1 -13   4-1589.09 1376.94   1
   1  13   4 1904.38 1637.91   5
  -1 -13   5 84.2199 318.693   1
   1  13   5 122.926 418.047   5
  -1 -13   6-517.543 808.470   1
   1  13   6-1330.94 1384.21   5
  -1 -13   7 1781.78 1324.26   1
   1  13   7 3616.88 2208.81   5
  -2   0   0 992628. 10780.3   6
  -2   0   0 979789. 14469.6   2
   2   0   0 999999. 14434.9   2
  -2   0  -1 468.564 394.570   2
  -2   0   1-85.6219 69.9117   2
   2   0  -1 256.890 249.880   2
   2   0   1 71.4555 42.9807   2
  -2   0   1 65.8474 220.324   6
  -2   0  -1 23.6373 63.0631   6
  -2   0  -2 314023. 7992.56   2
  -2   0   2 313301. 8047.15   6
  -2   0   2 308600. 8484.73   2
   2   0   2 329900. 7791.16   2
   2   0  -2 312919. 8499.88   2
   2   0  -2 327451. 9062.26   7
  -2   0  -3 11.7246 92.6023   2
   2   0   3 9.53659 121.935   2
  -2   0   3-70.9026 128.532   2
  -2   0   3 268.937 234.787   6
   2   0  -3-4.70653 158.339   2
   2   0   4 365357. 7628.79   2
  -2   0   4 352065. 9492.27   2
   2   0  -4 357388. 9577.43   2
  -2   0   4 359187. 10096.3   7
  -2   0  -4 362436. 8570.70   2
  -2   0   4 356913. 10313.3   6
  -2   0  -5 96.4235 105.448   5
  -2   0  -5-4.28073 97.2392   2
  -2   0   5-103.888 104.533   7
   2   0   5 234.182 262.410   2
  -2   0   5-335.076 294.036   2
   2   0   6 302657. 6382.23   2
  -2   0   6 306574. 9381.06   2
  -2   0   6 320513. 10900.4   7
  -2   0   7-172.286 260.981   2
  -2   0   7 170.259 495.516   7
   2   0   7 29.4795 128.378   2
  -2   0   8 244672. 10215.3   7
   2   0   8 234320. 5017.76   2
  -2   0   9-74.7287 293.612   7
  -2   0  -9-241.146 281.882   4
   2   0   9-58.9248 121.582   2
  -2   0   9 376.737 392.143   2
  -2   0  10 132716. 8011.58   7
  -2   0 -10 149577. 10545.6   4
  -2   0  10 148762. 7181.07   2
  -2   0 -11-598.190 723.245   4
  -2   0  11-182.631 567.708   7
  -2   0  11-369.497 361.300   2
  -2   0  12 173789. 9903.12   7
  -2   0 -12 200204. 13476.5   4
  -2   0  12 201077. 8817.40   2
  -2   0  13 160.875 206.628   2
  -2   0  13-182.495 586.277   7
  -2   0  14 51853.4 4735.64   2
  -2   0 -14 50431.3 7354.02   4
  -2   0  14 45596.3 5483.82   7
  -2   0  15-79.6507 648.711   7
  -2   0 -15-137.216 452.453   4
  -2   0  15-438.930 542.998   2
  -2   0  16 57328.0 6562.93   7
  -2   0 -16 66495.3 9067.45   4
  -2   0  16 70893.2 5880.41   2
  -2   0 -17-160.280 1978.91   4
  -2   0  17 602.797 789.251   7
  -2   0  17 206.692 367.194   2
  -2   0  18 31570.2 5174.07   7
  -2   0  18 41372.1 5162.78   3
  -2   0  19-792.612 1009.61   7
  -2   0  19 11.0531 85.7168   3
  -2   0  20 26418.7 4970.73   7
  -2   0  21 227.112 875.175   7
  -2   0  22 5081.82 2237.95   7
   2  -2   0 419334. 11833.8   2
   2  -2   0 418455. 9381.20   1
  -2   2   0 419000. 12120.6   2
   2   2   0 424944. 10182.9   5
  -2   2   0 422768. 10820.9   3
  -2  -2   0 395125. 9704.56   5
  -2  -2  -1 12434.7 1679.47   5
   2  -2   1 7698.78 1402.28   1
  -2   2   1 7809.33 1279.92   1
   2   2   1 11078.8 1578.27   5
   2  -2  -1 9506.95 1506.30   7
  -2   2   1 9414.48 1906.60   2
  -2   2  -1 10317.4 1683.01   3
  -2   2   1 11157.6 1835.33   3
  -2  -2   1 10119.1 1645.43   5
  -2   2  -1 9445.46 1919.61   2
   2  -2  -1 7734.83 1337.61   1
   2  -2  -1 9099.19 1794.82   2
   2   2  -1 10369.3 1716.66   5
   2   2  -1 8059.43 1391.48   1
   2  -2   1 9183.17 1814.73   2
   2   2  -2 499776. 11254.7   1
   2  -2  -2 485564. 9970.73   1
  -2   2  -2 540294. 11770.6   3
  -2   2   2 498501. 9862.73   1
   2   2   2 527872. 10366.5   5
   2  -2  -2 531358. 11690.9   7
  -2   2   2 510202. 12354.9   3
   2  -2   2 517558. 10847.2   3
   2   2  -2 509334. 11180.7   6
   2  -2   2 506621. 13072.5   2
  -2   2   2 496740. 13242.9   2
  -2  -2  -2 525743. 10351.0   5
   2   2  -2 512761. 12120.3   5
   2   2  -3 3623.57 948.728   1
   2   2  -3 6628.31 1470.94   5
   2  -2  -3 3557.07 918.979   1
  -2  -2  -3 6376.64 1122.45   5
   2  -2   3 4295.74 1237.44   2
  -2   2   3 5837.86 1490.16   2
   2   2  -3 5701.07 1283.26   6
  -2   2   3 4764.84 1018.77   1
  -2   2   3 5923.45 1306.84   7
  -2   2  -3 8733.29 1497.34   3
  -2  -2   3 2869.56 745.758   1
   2   2  -3 4997.90 1268.01   7
  -2   2   3 7204.97 1583.39   3
   2  -2   3 5020.46 1090.15   3
   2   2   3 7470.59 1209.82   5
  -2   2   4 206519. 6524.94   1
   2   2  -4 195524. 5583.54   1
   2   2   4 220105. 6090.78   5
  -2   2  -4 227614. 7642.76   3
  -2   2   4 224821. 8764.58   7
   2  -2   4 209551. 6484.35   3
  -2   2   4 213119. 8381.60   3
   2   2  -4 209975. 7927.50   7
   2  -2  -4 210580. 7294.15   1
   2   2  -4 207929. 8163.31   6
  -2  -2   4 194931. 5690.14   1
   2  -2   4 210524. 8623.26   2
   2   2  -4 215507. 8452.15   5
  -2  -2  -4 209519. 6116.59   5
  -2   2   4 210288. 8524.84   2
   2   2   5 3439.82 750.350   5
  -2   2   5 2547.83 1073.12   3
  -2  -2  -5 1914.76 540.688   2
   2  -2  -5 1377.16 565.033   1
  -2   2   5 3199.45 1197.98   2
  -2  -2   5 1607.28 805.662   7
   2   2  -5 1746.65 492.390   1
   2  -2   5 1293.64 493.179   3
  -2  -2   5 1165.96 480.965   1
  -2   2   5 2784.18 1090.94   7
  -2   2   5 1972.83 644.893   1
  -2  -2  -5 2981.80 699.964   5
   2  -2   5 1542.49 822.442   2
   2   2  -5 2537.59 1045.55   6
  -2   2  -6 318567. 8002.33   5
  -2  -2   6 296948. 6949.67   1
  -2  -2  -6 310495. 6317.76   2
  -2  -2   6 318382. 9987.33   7
   2  -2   6 314437. 7292.65   3
  -2   2   6 320543. 11539.4   7
  -2   2   6 324780. 11004.0   3
   2   2  -6 310184. 11183.1   6
   2   2   6 327687. 6857.99   5
   2  -2   6 301255. 10563.5   2
  -2   2   6 300433. 8609.79   1
  -2   2   6 307620. 10496.2   2
   2  -2   7 2269.63 962.271   2
  -2   2  -7 2025.44 631.948   5
  -2  -2   7 2941.27 1136.92   7
  -2   2   7 3754.97 1407.34   2
  -2  -2   7 2205.70 700.576   1
  -2   2   7 3225.67 994.380   1
  -2   2   7 2844.91 1359.60   7
  -2  -2  -7 2393.83 535.122   2
   2   2   7 5867.97 892.383   5
   2  -2   7 2140.45 651.436   3
  -2   2   7 4405.73 1424.12   3
  -2  -2  -7 3620.75 1063.55   3
   2   2  -7 2040.63 1066.81   6
  -2   2   8 189911. 7231.44   1
  -2   2   8 201030. 8744.68   2
  -2  -2   8 201910. 6026.73   1
  -2   2   8 194552. 9626.73   7
  -2   2  -8 202373. 11286.8   4
   2   2   8 201899. 4896.24   5
  -2  -2  -8 188922. 7237.35   3
   2  -2   8 176146. 4887.42   3
  -2   2   8 212575. 9451.05   3
  -2  -2   8 202304. 8789.81   7
   2   2  -8 209534. 10130.3   6
   2  -2   8 192643. 8661.10   2
  -2   2  -8 199761. 7258.89   6
  -2   2  -8 198457. 5680.79   5
  -2  -2   9 844.103 400.125   1
  -2  -2   9 807.929 345.299   7
  -2   2  -9 1540.45 509.273   5
  -2   2  -9 1182.71 644.087   6
  -2   2  -9 1181.55 982.561   4
  -2   2   9 2198.48 1067.75   2
   2   2   9 2025.91 468.552   5
  -2   2   9 1843.16 993.247   7
  -2  -2  -9 1482.94 1165.39   4
   2  -2   9 334.744 239.624   3
  -2   2   9 914.896 564.980   1
   2   2  -9 1453.29 936.711   6
  -2  -2  -9 1231.73 455.300   3
  -2  -2   9 705.954 675.682   2
  -2   2   9 1481.80 878.596   3
   2  -2   9 535.501 615.043   2
  -2   2  10 204070. 10481.3   7
  -2  -2  10 210747. 6541.19   1
  -2   2  10 228630. 9689.59   2
  -2   2 -10 229149. 13261.3   4
  -2  -2 -10 201776. 12174.5   4
  -2   2  10 169880. 7013.58   1
  -2  -2 -10 184345. 6084.52   3
  -2   2  10 232088. 10445.2   3
  -2  -2  10 206124. 9541.45   7
  -2   2 -10 176291. 4874.88   5
   2   2 -10 220849. 11292.0   6
  -2   2 -10 209725. 8395.02   6
  -2  -2  10 212022. 8893.34   2
   2   2  10 186258. 4029.92   5
   2  -2  10 195043. 8951.10   2
  -2   2  11 110.880 662.263   7
  -2  -2  11 437.250 461.178   1
  -2   2  11 149.921 246.193   2
  -2   2 -11 981.958 111.703   4
  -2  -2 -11 351.290 305.492   4
  -2  -2  11 482.152 731.163   7
  -2  -2  11 429.270 547.830   2
  -2   2 -11 275.558 437.468   6
  -2   2  11 1097.36 918.401   3
  -2   2 -11 31.3730 132.626   5
   2  -2  11 213.014 296.218   2
  -2   2  12 86809.9 6152.16   2
  -2   2 -12 95947.0 9495.74   4
  -2  -2  12 87073.1 5961.65   2
  -2   2 -12 91309.9 6204.48   6
  -2  -2  12 89679.0 4666.77   1
  -2   2  12 78078.1 7046.91   7
  -2  -2 -12 81367.5 8337.17   4
  -2   2  12 91786.8 6966.53   3
  -2  -2  12 84101.5 6579.47   7
   2  -2  12 80214.3 5887.15   2
  -2  -2  13 32.4793 327.931   1
  -2   2  13 914.687 884.371   7
  -2   2  13 1885.11 1044.47   2
  -2   2 -13 54.0096 573.265   4
  -2  -2 -13-46.5100 385.891   4
  -2  -2  13-364.409 588.507   7
  -2   2  13 519.477 553.641   3
  -2  -2  13 894.430 757.604   2
  -2  -2  14 95780.3 6536.36   2
  -2  -2  14 99677.8 7697.65   7
  -2   2  14 96507.0 8415.43   7
  -2  -2  14 95142.9 5260.30   1
  -2   2 -14 100607. 10505.6   4
  -2  -2 -14 92153.3 9722.36   4
  -2   2  14 100879. 7660.21   3
  -2   2  14 98071.8 6745.02   2
  -2  -2  15-250.689 741.063   7
  -2   2  15-57.9515 385.880   7
  -2   2 -15-268.575 558.638   4
  -2  -2 -15 671.400 824.772   4
  -2  -2  15 209.139 415.808   1
  -2  -2  15-212.135 311.453   2
  -2   2  15 345.829 847.748   3
  -2   2  15 21.6492 350.655   2
  -2  -2 -16 38362.0 6721.50   4
  -2  -2  16 32980.1 4753.37   7
  -2  -2  16 41560.5 4515.95   2
  -2   2 -16 35344.9 6770.19   4
  -2   2  16 40825.1 5103.76   3
  -2   2  16 31567.2 5098.04   7
  -2   2  16 38485.3 4357.18   2
  -2  -2  17 276.575 875.717   7
  -2  -2 -17 1041.53 1128.81   4
  -2  -2  17 103.436 590.653   2
  -2   2  17 757.598 1034.30   7
  -2   2  17 36.9913 155.576   3
  -2  -2  18 56492.3 6622.75   7
  -2   2  18 60844.2 6585.39   3
  -2   2  18 46282.6 6636.03   7
  -2   2  19-982.305 836.666   3
  -2  -2  19 220.559 976.703   7
  -2   2  19 370.975 1114.67   7
  -2  -2  20 15873.7 3748.49   7
  -2   2  20 13299.0 3728.48   7
  -2   2  21-138.069 514.898   7
  -2  -2  21-495.613 1042.04   7
  -2   2  22 12149.9 3556.58   7
  -2  -2  22 13902.4 3591.76   7
  -2  -2  23-3076.10 1740.28   7
   2  -4   0 269369. 7817.26   7
  -2   4   0 266551. 11650.4   3
   2  -4   0 263587. 9789.96   1
   2   4   0 266359. 9857.05   5
   2  -4   1 10097.1 2227.88   1
  -2   4  -1 17842.8 3238.80   3
  -2   4   1 16272.7 3139.15   3
   2  -4  -1 9035.02 1730.08   7
   2   4   1 22243.8 2925.63   5
  -2  -4   1 6178.79 1706.06   1
   2  -4  -1 10685.0 2244.51   1
   2   4  -1 23885.4 3177.56   5
   2  -4  -2 216093. 9173.36   1
   2  -4   2 226550. 9098.23   1
  -2   4  -2 217003. 10568.1   3
  -2   4   2 219301. 10535.3   3
   2   4   2 227939. 8941.53   5
  -2  -4   2 209382. 8715.57   1
   2   4  -2 214951. 9201.06   5
   2  -4  -3 12188.3 2377.09   1
   2   4  -3 25350.0 3381.98   5
   2  -4   3 13880.0 2436.69   1
  -2   4  -3 17233.5 3232.50   3
  -2  -4   3 6774.87 1925.07   1
  -2   4   3 19157.0 3407.29   3
  -2   4   3 17685.6 2639.97   7
   2   4  -3 9541.27 1953.57   7
   2   4   3 27513.4 3111.09   5
   2  -4  -4 349208. 12377.9   1
  -2   4   4 338174. 13102.4   3
   2   4  -4 356736. 10328.8   7
  -2   4   4 360382. 12114.3   7
   2   4   4 362779. 11079.9   5
   2  -4   4 353077. 11832.5   1
   2   4  -4 350579. 12268.4   5
  -2  -4   4 335539. 11031.8   1
  -2   4   5 12134.3 2439.17   7
  -2   4   5 11391.7 2594.74   3
   2  -4   5 8709.35 2183.74   1
  -2   4  -5 8199.32 2063.90   5
   2   4  -5 5039.52 1637.56   7
  -2   4  -5 7785.49 1942.82   4
   2  -4  -5 4297.50 1606.03   1
  -2  -4   5 5919.89 1684.57   1
   2   4  -5 12639.4 2499.75   5
   2   4   5 15926.8 2372.02   5
  -2   4  -6 130987. 7419.02   5
   2  -4   6 136143. 7444.49   1
  -2   4  -6 129771. 8126.67   4
  -2   4   6 124313. 8158.76   3
   2   4  -6 136039. 8088.67   5
  -2   4   6 146420. 8465.13   7
   2   4   6 140034. 6757.23   5
  -2  -4   6 126763. 6662.87   1
   2  -4  -6 133113. 8027.66   1
   2   4  -7 6122.87 1877.91   5
   2   4   7 9479.29 1749.68   5
   2   4  -7 4449.32 1688.51   6
  -2   4  -7 3762.62 1317.46   5
  -2   4   7 5209.21 1721.84   7
  -2   4   7 5921.00 1923.69   3
  -2   4  -7 2991.92 1319.61   4
   2  -4   7 2962.97 1380.79   1
  -2  -4   7 3370.33 1250.47   1
  -2  -4   8 204429. 8412.94   1
   2  -4   8 218984. 9818.10   1
  -2   4   8 207213. 10655.8   7
  -2   4  -8 198488. 11363.4   4
  -2   4   8 200873. 10633.1   3
   2   4  -8 221075. 11622.7   6
  -2  -4   8 199268. 7892.29   7
   2   4   8 215018. 8140.27   5
   2   4  -8 206307. 10594.7   5
  -2   4  -8 199546. 8971.52   5
   2   4   9 8175.25 1620.62   5
  -2  -4   9 1612.83 1033.76   1
  -2   4  -9 1305.21 1001.98   4
   2  -4   9 4014.22 1687.08   1
  -2  -4  -9 2604.62 1315.73   4
  -2   4   9 7140.66 2140.44   3
  -2   4   9 4082.38 1567.50   7
   2  -4   9 2518.44 953.006   3
  -2   4  -9 4194.00 1439.88   5
  -2   4   9 3526.65 1567.14   2
   2   4  -9 4124.95 1902.41   6
   2   4  -9 6377.53 1945.85   5
  -2  -4   9 4009.59 1269.71   7
  -2  -4  10 113873. 6376.07   1
  -2   4  10 112322. 8332.16   7
   2  -4  10 124094. 7865.31   1
  -2   4 -10 112426. 9459.98   4
  -2  -4 -10 106081. 8373.45   4
  -2   4 -10 105991. 6303.08   5
  -2  -4  10 115144. 6762.58   7
   2   4 -10 121523. 9205.55   6
   2  -4  10 82368.4 5329.05   3
  -2   4  10 109528. 8099.95   3
   2   4 -10 116947. 8377.42   5
  -2   4  10 100395. 7209.42   2
   2   4  10 113420. 5771.45   5
   2   4  11 4312.20 1106.40   5
  -2  -4 -11 1578.06 442.593   2
  -2  -4 -11 1385.76 1065.73   4
  -2   4 -11 2444.83 1269.56   6
   2   4 -11 2487.64 1722.99   6
  -2  -4  11 1953.41 944.931   7
  -2   4 -11 1233.73 660.903   4
   2  -4  11 4127.60 1699.82   1
  -2   4 -11 1348.38 820.635   5
  -2  -4  11 1896.92 1049.79   1
   2  -4  11 423.584 370.519   3
  -2  -4 -11 1331.35 334.924   2
  -2   4  11 3479.89 1627.72   7
  -2   4  11 4096.35 1568.48   3
  -2   4  11 2731.42 1270.16   2
  -2   4  12 101971. 8593.26   7
  -2  -4  12 110660. 6474.47   1
  -2   4 -12 111516. 10337.4   4
  -2  -4 -12 111036. 9403.28   4
  -2   4 -12 99732.6 5953.86   5
  -2   4  12 104977. 8228.26   3
  -2  -4  12 109802. 7205.62   7
   2   4 -12 114424. 9587.87   6
  -2   4 -12 106314. 7744.86   6
   2   4  12 103756. 5352.66   5
  -2   4 -13 396.342 553.443   5
  -2   4 -13 257.115 591.340   6
  -2   4 -13 955.926 843.426   4
  -2  -4 -13 845.370 680.960   4
  -2   4  13 1826.96 985.482   3
   2   4  13 1499.34 625.185   5
   2   4 -13 2201.97 1417.96   6
  -2  -4  13 1115.69 1019.05   7
  -2   4  13 1980.27 1478.45   7
  -2  -4  13 2391.12 1114.12   1
  -2  -4 -14 46940.7 6676.71   4
  -2  -4  14 48773.5 5192.74   7
  -2   4  14 46742.2 5721.26   3
  -2   4 -14 55516.6 5985.49   6
   2   4 -14 60318.6 7312.44   6
  -2   4  14 48343.7 6350.94   7
  -2  -4  14 56377.8 4860.79   1
  -2  -4 -15 1243.85 1269.86   4
  -2   4  15 2410.41 1681.45   7
  -2   4 -15 886.501 1039.19   6
  -2  -4  15-372.470 576.837   7
   2   4 -15 18.5737 417.535   6
  -2   4  15 2202.03 1240.84   3
  -2  -4  15 551.953 581.372   1
   2   4 -16 75614.5 8847.38   6
  -2  -4  16 65618.1 6290.26   2
  -2   4  16 62830.0 7746.68   7
  -2  -4 -16 67166.7 8573.64   4
  -2   4  16 65511.6 7076.15   3
  -2  -4  16 65679.0 6534.92   7
  -2   4 -16 77541.5 7614.59   6
  -2   4 -17 793.797 788.831   6
  -2  -4  17 22.3046 116.618   2
  -2  -4  17 121.562 709.228   7
  -2   4  17 1044.57 893.477   3
  -2   4  17-203.344 1204.10   7
  -2   4  18 16981.5 3747.47   3
  -2  -4  18 14235.7 3275.62   7
  -2   4  18 18195.0 4233.83   7
  -2  -4  18 18252.9 3398.68   2
   2  -4  19-542.463 769.492   1
  -2   4  19-740.627 1339.65   7
  -2  -4  19 1543.46 1260.03   7
  -2   4  19 908.792 983.714   3
  -2   4  20 26672.1 5520.29   7
  -2  -4  20 29395.4 5010.20   7
   2  -4  20 40657.0 6238.52   1
  -2  -4  21 1231.99 1036.90   7
  -2   4  21-826.390 978.452   7
   2  -4  21-22.9153 638.470   1
   2  -4  22 14555.6 4025.62   1
  -2  -4  22 9308.93 3018.15   7
   2  -4  23 63.4233 262.904   1
   2  -6   0 101788. 7450.87   1
  -2  -6   0 94384.8 7136.08   1
  -2   6   0 85557.6 8120.91   3
   2  -6   0 89596.4 4729.55   7
   2   6   0 94303.3 7185.05   5
   2  -6  -1 6198.83 2338.15   1
   2  -6   1 1046.50 896.372   7
  -2  -6   1 5858.50 2313.22   1
   2  -6   1 7915.81 2479.99   1
  -2   6   1 12453.3 3622.42   3
   2   6   1 26930.9 3994.74   5
   2   6  -1 25303.3 3896.66   5
   2  -6  -2 220250. 11271.9   1
   2  -6   2 220728. 10800.8   1
  -2   6  -2 182935. 7020.84   4
  -2   6   2 193283. 12182.1   3
   2  -6   2 184587. 5881.46   7
  -2  -6   2 212274. 10798.5   1
   2   6  -2 214723. 10990.9   5
   2   6   2 216578. 10827.1   5
   2  -6   3 12581.6 3005.30   1
  -2   6  -3 7997.70 1823.20   4
  -2   6   3 17984.3 4121.61   3
  -2   6  -3 19056.6 3684.20   5
   2  -6  -3 10011.9 2838.97   1
   2   6  -3 6536.54 1564.23   7
   2   6   3 30893.1 4280.27   5
  -2  -6   3 7574.27 2441.65   1
   2   6  -3 25117.8 4053.37   5
   2  -6  -4 145947. 9467.96   1
  -2   6  -4 130034. 8777.83   5
   2  -6   4 125324. 8277.21   1
   2   6  -4 130171. 6098.34   7
  -2   6   4 138076. 7883.49   7
  -2   6  -4 127296. 7079.30   4
  -2   6   4 128271. 9962.71   3
   2   6  -4 130547. 8723.39   5
   2   6   4 135313. 8478.24   5
  -2  -6   4 143096. 8840.20   1
  -2   6  -5 10804.1 2830.20   5
  -2   6   5 11545.9 3403.30   3
  -2   6  -5 4526.65 1613.98   4
  -2  -6   5 4315.75 1937.58   1
   2  -6  -5 5478.32 2244.33   1
  -2   6   5 12277.6 2882.44   7
   2  -6   5 8630.99 2576.18   1
   2   6  -5 16353.1 3230.37   5
   2   6   5 19965.2 3341.89   5
  -2   6  -6 150629. 9811.98   5
  -2  -6   6 160979. 9340.81   1
   2  -6   6 151878. 9239.27   1
  -2   6   6 162665. 8038.32   4
  -2   6  -6 159287. 9189.19   4
  -2   6   6 151505. 10845.5   3
  -2   6   6 167007. 9574.24   7
   2   6   6 159566. 9111.19   5
   2  -6  -6 169596. 10554.4   1
   2   6  -6 153004. 9663.67   5
   2  -6   7 6491.82 2228.99   1
   2   6   7 13151.2 2618.10   5
  -2   6  -7 6267.92 2300.12   5
   2  -6  -7 3684.72 1694.34   1
  -2   6   7 9194.99 2469.86   7
  -2   6   7 8975.79 2892.25   3
  -2   6  -7 4755.23 1859.08   4
   2   6  -7 8172.00 2501.06   5
  -2  -6   7 2101.73 1372.94   1
  -2  -6   8 83569.2 6684.23   1
   2  -6   8 95500.3 7483.03   1
  -2   6  -8 87626.6 7646.28   4
  -2  -6  -8 85370.2 6636.47   4
  -2   6   8 85305.4 8336.54   3
  -2   6   8 85125.1 7218.67   7
   2   6   8 83820.0 6464.51   5
   2   6  -8 85959.3 7594.68   5
  -2   6  -8 88362.4 7725.94   5
   2   6  -9 7991.88 2615.26   5
   2   6   9 9637.82 2232.05   5
  -2   6  -9 3732.47 1979.35   5
  -2   6  -9 4177.50 1897.01   4
  -2  -6  -9 4942.23 1764.91   4
  -2  -6   9 2142.91 1342.89   1
   2  -6   9 3384.75 1953.06   1
  -2   6   9 6894.93 2630.69   3
  -2   6   9 6990.38 2354.15   7
   2   6  -9 8726.99 2974.15   6
   2  -6  10 107989. 8150.72   1
  -2  -6 -10 96511.5 7789.28   4
  -2   6  10 104280. 9427.44   3
   2   6 -10 113618. 10094.4   6
   2   6 -10 101016. 8672.47   5
  -2  -6  10 94922.0 7110.73   1
  -2   6  10 99264.6 8203.26   7
  -2   6 -10 99898.2 8160.14   5
   2   6  10 92868.3 6761.97   5
  -2   6 -11 1715.78 1262.30   5
   2  -6  11 2802.80 1693.47   1
   2   6  11 5384.94 1636.16   5
  -2  -6 -11 1881.49 1177.73   4
   2   6 -11 2555.09 1709.47   5
   2   6 -11 2822.59 1956.26   6
  -2   6  11 3788.64 2052.38   3
  -2   6  11 3908.07 1586.67   7
  -2  -6  11 1662.22 999.280   1
   2  -6  12 51563.6 5848.00   1
  -2  -6 -12 46859.7 5913.21   4
  -2  -6  12 45642.6 4994.88   1
  -2   6  12 43048.0 6249.67   3
  -2  -6  12 41827.2 3906.43   7
   2   6 -12 46884.5 6753.18   6
  -2   6  12 42218.3 5765.96   7
   2   6 -12 41425.1 5838.63   5
  -2   6 -12 45223.3 5356.93   5
   2   6  12 38023.3 4228.22   5
   2  -6  13 2568.30 1657.01   1
   2   6 -13 1070.12 1104.69   5
  -2   6 -13 1216.50 861.861   5
  -2  -6  13 618.171 832.600   1
  -2  -6 -13 1889.61 1224.15   4
  -2  -6  13 1456.89 710.298   7
  -2   6  13 1421.48 575.307   7
  -2   6  13 4972.78 2285.60   3
   2   6 -13 779.215 470.797   6
  -2   6 -13 2318.16 1513.44   6
  -2  -6 -14 73857.5 8043.35   4
  -2  -6  14 68348.6 5606.42   7
   2  -6  14 86110.7 7988.42   1
   2   6 -14 75999.3 9166.48   6
  -2   6  14 68911.2 8163.90   3
  -2   6  14 75931.8 8343.76   7
  -2  -6  14 78187.4 6715.30   1
  -2   6 -14 72778.7 8020.75   6
   2  -6  15 362.167 521.519   1
  -2  -6 -15 1499.69 1357.42   4
  -2   6  15-314.361 333.820   3
  -2   6  15 582.574 770.654   7
   2   6 -15-166.072 809.573   6
  -2   6 -15 595.140 1140.41   6
   2  -6  16 37628.2 5508.27   1
  -2   6  16 26428.3 5149.70   7
  -2   6 -16 25449.3 4981.38   6
  -2   6  16 26669.7 5162.91   3
   2   6 -16 21619.7 5224.69   6
   2  -6  17 1352.72 1340.39   1
  -2   6  17 1235.33 1119.73   3
  -2   6  17 841.590 1043.43   7
   2   6 -17-541.606 457.058   6
  -2   6 -17 430.452 654.667   6
   2  -6  18 38523.0 5922.97   1
  -2   6  18 29355.4 5773.74   7
  -2   6  18 28037.4 5422.73   3
  -2   6 -18 24943.7 5156.30   6
   2   6 -18 30471.2 6594.48   6
   2  -6  19-200.708 575.521   1
  -2   6 -19-44.7105 223.813   6
   2   6 -19 3083.36 3437.76   6
  -2   6  19 921.228 996.385   3
  -2   6  19 1825.05 1491.78   7
  -2   6  20 7345.35 2835.15   7
   2  -6  20 15282.3 3982.69   1
   2  -6  21 1130.43 1096.67   1
  -2   8   0 120259. 9388.43   5
   2  -8   0 125402. 9656.65   1
  -2  -8   0 122630. 9327.14   1
   2   8   0 122194. 9717.73   5
   2   8   1 16744.0 3979.71   5
  -2   8  -1 18073.2 3985.39   5
  -2   8   1 10754.4 3139.16   5
  -2  -8   1 5751.15 2422.07   1
   2  -8  -1 7282.29 2929.39   1
   2  -8   1 5518.04 2409.39   1
   2   8  -1 20415.5 4201.37   5
  -2   8  -2 57632.0 6708.81   5
   2  -8  -2 70827.6 7367.45   1
   2  -8   2 66223.1 6918.84   1
   2   8  -2 60508.6 6836.73   5
  -2  -8   2 72706.3 7223.98   1
   2   8   2 59515.0 6777.84   5
   2   8  -3 15664.7 3819.54   5
   2   8   3 16030.0 3839.21   5
   2  -8   3 5697.15 2491.18   1
  -2  -8   3 3706.26 2132.43   1
  -2   8  -3 6272.72 2789.94   5
   2  -8  -3 5347.51 2748.82   1
  -2   8  -4 113972. 9815.97   5
   2  -8   4 118818. 9201.11   1
  -2   8   4 99006.6 10370.0   3
   2   8  -4 115858. 9614.65   5
  -2  -8   4 133122. 9906.38   1
   2  -8  -4 130605. 10222.2   1
   2   8   4 115671. 9250.42   5
   2   8  -5 16145.6 3907.83   5
  -2   8   5 10059.2 2608.57   7
  -2   8  -5 6522.56 2887.15   5
   2   8   5 15952.6 3704.34   5
   2  -8   5 6951.23 2822.70   1
   2  -8  -5 6134.76 2536.87   1
  -2   8   5 6313.35 3146.82   3
  -2  -8   5 3193.59 1989.32   1
  -2  -8   6 100498. 8571.48   1
  -2   8  -6 74234.9 8266.53   5
   2  -8   6 83520.2 7781.12   1
  -2  -8  -6 69390.0 5063.31   4
  -2   8   6 72589.2 8901.18   3
  -2   8   6 76782.5 6821.96   7
   2  -8  -6 89024.7 8581.04   1
   2   8  -6 75298.5 7917.78   5
   2   8   6 81205.0 7671.37   5
   2   8  -7 6916.67 2720.37   5
   2   8   7 8273.38 2738.03   5
  -2   8  -7 2401.77 2134.27   5
  -2   8   7 6728.93 2322.25   7
   2  -8  -7 3199.35 1679.77   1
  -2  -8   7 869.220 1197.27   1
  -2  -8  -7 2848.27 1246.77   4
  -2   8   7 5196.30 2859.95   3
   2  -8   7 4479.21 2308.37   1
  -2  -8   8 75099.1 7389.70   1
   2  -8   8 72588.8 7338.07   1
  -2  -8  -8 67055.1 5575.03   4
  -2   8   8 61683.3 8283.46   3
  -2   8   8 67994.1 6795.51   7
   2   8  -8 61223.1 7331.55   5
   2   8   8 67056.7 6939.00   5
  -2   8  -8 71266.7 8350.26   5
  -2   8   9 4307.04 1767.45   7
  -2   8  -9 1463.48 1522.11   5
   2   8   9 6501.23 2155.74   5
   2   8  -9 3464.00 2094.14   5
   2  -8   9 2714.24 1528.49   1
  -2   8   9 1733.42 1677.98   3
  -2  -8   9 1607.80 1377.49   1
   2  -8  10 39554.8 5541.20   1
  -2   8 -10 32502.3 5757.74   5
  -2   8  10 25537.2 4323.83   7
   2   8  10 34896.3 5012.12   5
  -2   8  10 29650.8 5793.82   3
  -2  -8  10 41257.5 5456.81   1
   2   8 -10 33042.8 5544.82   5
   2   8  11 5314.99 2122.37   5
  -2   8 -11 904.896 1006.90   5
   2   8 -11 4084.22 2406.36   6
   2   8 -11 3734.92 2183.78   5
  -2   8  11 3828.84 2543.18   3
  -2   8  11 2010.37 1301.97   7
  -2  -8  11 1132.49 1180.86   1
   2  -8  11 1309.41 1589.09   1
   2  -8  12 70384.4 7548.63   1
   2   8 -12 83123.3 10240.0   6
  -2   8  12 51764.4 7894.84   3
  -2   8  12 63058.5 7189.20   7
  -2  -8  12 65580.2 6952.75   1
   2   8 -12 59196.3 7838.82   5
  -2   8 -12 64155.0 8049.03   5
   2   8  12 63636.7 6678.24   5
   2   8 -13 902.895 1319.80   5
  -2   8 -13-372.172 561.195   5
  -2  -8  13 1136.53 883.928   1
   2  -8  13 17.5904 410.450   1
  -2   8  13 1811.48 1749.31   3
  -2   8  13 2277.55 1441.83   7
   2   8 -13-316.994 1172.16   6
   2   8 -14 27767.6 5605.75   5
   2  -8  14 33688.2 5393.88   1
  -2   8  14 20199.2 4974.52   3
  -2   8  14 26466.6 5014.76   7
   2   8 -14 30041.2 6454.31   6
  -2   8 -14 31926.0 6100.30   6
   2  -8  15 984.810 925.468   1
   2   8 -15-582.349 821.794   5
   2   8 -15 821.182 853.426   6
  -2   8  15-940.055 1074.87   3
  -2   8  15 124.482 944.992   7
  -2   8 -15-296.125 589.029   6
   2  -8  16 34012.8 5728.21   1
   2   8 -16 30270.0 6150.25   5
  -2   8  16 21724.8 5260.77   3
  -2   8  16 30394.4 5574.47   7
  -2   8 -16 31263.1 6214.99   6
   2   8 -16 33193.8 7141.93   6
   2  -8  17 504.296 692.425   1
   2   8 -17 2086.82 1810.48   6
  -2   8 -17 2734.68 1875.96   6
  -2   8  17 132.690 416.634   3
  -2   8  17-147.380 929.794   7
   2  -8  18 12636.6 3496.24   1
  -2   8  18 10239.4 3644.68   3
  -2   8  18 9888.92 3229.15   7
  -2   8 -18 11212.9 4092.80   6
   2  -8  19-418.845 817.658   1
  -2  10   0 41055.9 6505.18   5
   2 -10   0 46572.2 6678.20   1
  -2 -10   0 45499.5 6322.85   1
   2  10   0 35874.8 6011.65   5
   2 -10   1 3838.54 2449.53   1
   2  10  -1 6130.28 2841.64   5
   2  10   1 5847.47 2992.22   5
  -2  10  -1 8231.23 3295.01   5
  -2  10   1 6309.40 3022.81   5
  -2 -10   1 1404.59 1600.57   1
   2 -10  -1 1588.27 1764.41   1
  -2  10  -2 52581.7 7394.32   5
  -2  10   2 54027.9 7260.56   5
  -2 -10   2 71391.9 8041.11   1
   2 -10   2 74008.2 8313.21   1
   2  10  -2 59947.0 7952.39   5
   2  10   2 57973.4 7581.00   5
   2 -10  -2 73321.7 8427.17   1
   2 -10   3 3370.95 2160.77   1
   2  10  -3 8568.53 3380.35   5
   2  10   3 6413.53 2960.38   5
  -2  10  -3 7819.46 3222.41   5
  -2  10   3 5655.16 2595.26   5
   2 -10  -3 2145.08 1685.28   1
  -2 -10   3 3498.11 1939.63   1
  -2  10   4 38954.3 6144.57   5
   2 -10   4 41607.0 6183.23   1
  -2  10  -4 32759.0 6033.76   5
  -2 -10   4 43606.3 6394.78   1
   2 -10  -4 39360.0 6265.31   1
   2  10  -4 42828.8 6757.96   5
   2  10   4 37957.5 6179.10   5
   2  10  -5 6619.87 2928.89   5
   2 -10   5 3553.33 2260.13   1
   2  10   5 7739.64 3072.09   5
  -2  10  -5 6893.01 3437.12   5
  -2  10   5 6351.67 2900.75   5
   2 -10  -5 1342.31 1421.80   1
  -2 -10   5 246.828 1355.47   1
  -2  10   6 61152.4 7732.32   5
   2 -10   6 70519.0 8179.58   1
   2 -10  -6 70288.1 8374.78   1
   2  10  -6 55662.3 7998.04   5
  -2 -10   6 72163.9 8186.94   1
   2  10   6 59417.5 7612.18   5
  -2  10  -6 59051.3 8514.94   5
   2  10   7 4811.13 2306.46   5
  -2  10  -7 3717.14 2055.62   5
   2 -10  -7 1283.78 1700.13   1
   2 -10   7 2479.02 2131.10   1
  -2  10   7 4493.92 2253.01   5
   2  10  -7 4084.14 2206.92   5
  -2 -10   7 21.1089 1045.84   1
  -2  10   8 31976.2 5563.44   5
   2 -10   8 33013.2 5573.67   1
   2  10   8 26797.0 5081.19   5
  -2  10  -8 28945.4 6200.38   5
   2  10  -8 26108.5 5573.19   5
  -2 -10   8 35710.9 5810.44   1
   2  10  -9 1609.88 1511.03   5
  -2  10  -9 442.049 768.469   5
  -2  10   9 2889.13 2104.50   5
   2 -10   9 1038.70 964.572   1
  -2 -10   9 1142.75 1297.03   1
   2  10   9 3476.43 1731.54   5
  -2 -10  10 38967.9 6008.24   1
  -2  10  10 35573.4 5854.02   5
   2  10 -10 26766.0 5778.38   5
  -2  10 -10 31102.1 6652.89   5
   2 -10  10 39733.9 6180.06   1
   2  10  10 30524.6 5559.44   5
   2  10 -11 952.781 1079.40   5
  -2  10 -11 1032.51 1201.67   5
   2  10  11 3532.39 1713.59   5
  -2 -10  11 1167.39 1157.23   1
  -2  10  11 2550.89 1827.45   5
   2 -10  11 1363.01 1393.28   1
   2  10 -12 18682.4 5079.11   5
  -2  10 -12 21410.2 5504.66   5
  -2  10  12 27718.9 5265.24   5
   2 -10  12 23108.9 4730.86   1
  -2 -10  12 23346.4 4576.70   1
   2  10 -12 24338.1 6382.37   6
   2  10 -13 1182.73 1662.71   6
   2  10 -13 2334.70 1775.95   5
  -2  10 -13-466.623 781.487   5
  -2  10  13 3608.22 1892.56   5
   2 -10  13 132.773 1557.91   1
   2  10 -14 26363.2 6183.86   5
  -2  10  14 28549.9 5400.87   5
   2 -10  14 28503.0 5462.25   1
   2  10 -14 30929.8 7332.81   6
   2  10 -15 172.702 509.866   5
  -2  10  15 1219.78 1384.96   5
  -2  10 -15 1352.19 1282.24   6
   2 -10  15 3025.33 1774.54   1
   2  10 -16 5181.42 2943.67   5
  -2  10  16 8752.63 2917.64   5
  -2  10 -16 5615.86 2969.47   6
   2  12   0 35773.6 6842.30   5
  -2  12   0 24104.6 5678.50   5
   2 -12   0 39179.9 6813.57   1
   2  12  -1 6577.57 3114.42   5
   2  12   1 7520.73 3069.65   5
  -2  12  -1 593.226 1263.17   5
  -2  12   1 4134.09 2764.62   5
   2 -12  -1 1426.95 1763.91   1
   2 -12   1 1254.05 1655.49   1
   2  12  -2 15517.1 4597.01   5
   2 -12   2 26148.2 5483.45   1
   2  12   2 21246.1 5219.60   5
  -2  12  -2 23605.2 5564.75   5
  -2  12   2 19243.4 5050.33   5
  -2 -12   2 25717.6 5372.15   1
   2 -12  -2 33627.0 6423.59   1
   2  12   3 2450.41 1762.41   5
  -2  12  -3 3842.70 2689.68   5
  -2  12   3 2304.39 2281.94   5
  -2 -12   3 1730.41 1345.60   1
   2 -12  -3-5.84467 1389.65   1
   2  12  -3 3382.66 2801.07   5
   2 -12   3 1338.05 1520.08   1
   2 -12   4 44226.6 7161.88   1
   2  12  -4 25042.1 5918.64   5
   2  12   4 32666.1 6407.60   5
  -2  12  -4 33445.7 6937.31   5
  -2  12   4 32499.2 6401.68   5
   2 -12  -4 30979.6 6144.49   1
  -2 -12   4 43155.2 6859.48   1
   2 -12   5 2272.84 1812.33   1
   2  12  -5 1142.14 1257.65   5
   2  12   5 5616.75 3129.41   5
  -2  12  -5 3515.52 2257.07   5
  -2  12   5 1506.75 1835.57   5
   2 -12  -5 2479.61 2197.43   1
  -2 -12   5 948.006 1436.29   1
   2  12  -6 21059.3 5510.84   5
   2  12   6 16861.1 4579.21   5
  -2  12  -6 13080.1 4178.82   5
  -2  12   6 13774.1 4026.58   5
   2 -12  -6 20146.5 4819.23   1
  -2 -12   6 22551.8 5036.27   1
   2 -12   6 21161.2 4863.98   1
   2 -12   7 1986.41 1498.35   1
   2  12  -7 161.801 1013.73   5
   2  12   7 3750.14 2577.95   5
  -2  12  -7 3953.64 2323.12   5
  -2  12   7 2294.15 1994.10   5
  -2 -12   7 640.570 1437.75   1
   2 -12   8 29256.0 5827.23   1
   2  12  -8 18119.9 5236.31   5
   2  12   8 22093.3 5321.53   5
  -2  12  -8 20795.8 6001.69   5
  -2  12   8 20983.0 5085.92   5
  -2 -12   8 26721.2 5670.15   1
   2  12   9 4066.71 2206.78   5
  -2  12  -9 3894.07 2580.04   5
  -2  12   9 2416.21 2155.09   5
  -2  12 -10 11312.4 4464.07   5
   2  12  10 15846.6 4550.83   5
  -2 -12  10 18735.3 4586.77   1
  -2  12 -11 303.721 744.831   5
  -2 -12  11 496.096 921.241   1
  -2  12 -12 16033.0 5487.45   5
  -3   1   0-177.037 410.859   2
  -3  -1   0-71.5638 235.317   2
  -3   1  -1 49447.0 4319.70   2
  -3   1   1 50194.2 4388.37   2
  -3  -1  -1 50298.9 3927.06   2
  -3  -1   1 49759.9 4025.81   2
  -3  -1  -2 1777.34 735.334   5
  -3   1  -2 1452.77 967.983   2
  -3   1   2 900.498 671.166   2
   3  -1  -2 1075.30 434.440   1
  -3  -1  -2 1537.09 716.423   2
  -3  -1   2 1056.16 508.689   6
  -3  -1   2 648.726 479.278   2
   3   1   3 7280.93 1359.28   2
   3  -1  -3 7115.55 1034.28   1
  -3   1  -3 6450.39 1613.77   2
  -3   1   3 7081.46 1666.69   2
  -3  -1  -3 6554.57 1333.35   2
  -3  -1   3 6858.32 1611.60   2
  -3  -1  -3 7445.14 1270.26   5
   3   1  -4 1844.43 473.080   1
   3  -1  -4 1807.72 551.719   1
  -3   1  -4 2699.10 1059.08   2
  -3   1  -4 2709.11 797.180   3
  -3   1   4 1901.51 911.065   2
  -3  -1  -4 2508.02 773.061   5
  -3  -1  -4 2833.58 955.328   2
  -3  -1   4 1048.53 829.434   2
  -3  -1  -5 1693.26 501.255   5
  -3  -1  -5 1613.94 712.523   2
  -3   1   5 1592.84 797.938   2
   3  -1  -5 1206.85 360.106   1
  -3   1  -5 974.326 454.961   3
  -3  -1   5 1701.69 830.658   2
  -3   1  -5 1511.03 829.856   2
  -3   1   6 5919.14 1734.07   7
  -3  -1  -6 4761.38 1198.31   2
   3  -1   6 3306.51 1033.59   2
  -3   1   6 6156.23 1724.93   2
  -3   1  -6 7442.50 1222.21   3
  -3  -1   6 5037.67 1548.61   2
  -3  -1  -6 6073.77 1000.25   5
  -3   1   7 11671.7 2282.81   2
  -3  -1   7 12371.0 2245.73   2
  -3   1   7 12572.0 2612.62   7
  -3  -1   7 12602.3 2351.59   7
   3  -1   7 8817.62 1538.38   2
  -3   1  -7 9959.92 1293.50   3
  -3   1  -7 8258.13 1047.26   6
  -3  -1  -7 11656.6 1219.51   5
  -3  -1  -7 11383.2 1762.97   2
  -3  -1  -8 6232.51 786.448   5
  -3  -1  -8 6896.59 1448.43   2
  -3   1   8 4444.83 625.563   1
  -3  -1   8 9420.93 2264.06   7
   3  -1   8 4343.03 1128.43   2
  -3   1   8 8385.39 2123.34   2
  -3  -1  -8 4934.16 1001.06   3
  -3  -1   8 5773.34 1687.66   2
  -3   1   8 9057.18 2355.56   7
  -3  -1   9 5907.83 1699.58   7
  -3   1   9 3924.05 643.886   1
  -3   1   9 3501.25 1414.77   7
   3  -1   9 3896.91 942.041   2
  -3   1   9 5684.53 1602.98   2
  -3  -1   9 4602.89 1361.63   2
   3  -1  10 4331.38 1119.44   2
  -3   1  10 10178.4 2348.88   2
  -3  -1  10 7907.92 1995.16   2
  -3   1  10 7543.44 2229.73   7
  -3  -1  10 8841.50 2414.89   7
  -3   1  10 5021.31 887.200   1
   3  -1  11 4665.93 998.217   2
  -3  -1  11 3769.39 561.678   1
  -3   1  11 6045.26 1737.51   2
  -3   1 -11 9100.59 3016.40   4
  -3  -1 -11 7927.64 2692.34   4
  -3   1  11 5954.95 1838.98   7
  -3  -1  11 6169.61 1641.90   2
  -3  -1  11 4997.58 1671.85   7
  -3   1  11 3199.23 753.949   1
  -3   1 -12 6741.95 3070.44   4
  -3  -1  12 5222.40 839.994   1
  -3   1  12 10062.4 2433.08   2
  -3  -1 -12 3568.04 2318.40   4
  -3  -1  12 8862.62 2514.20   7
  -3  -1  12 5395.79 1736.37   2
  -3   1  12 9076.49 2441.26   7
  -3   1  13 4874.42 1689.67   2
  -3   1 -13 5155.09 2156.08   4
  -3  -1 -13 4818.89 2324.76   4
  -3  -1  13 6171.35 1776.36   2
  -3   1  13 4711.31 1796.63   7
  -3  -1  13 3088.76 1283.26   7
  -3   1  14 5205.59 1948.82   7
  -3   1  14 4514.09 1924.74   2
  -3   1 -14 2553.77 1863.26   4
  -3  -1 -14 2133.03 2050.48   4
  -3  -1  14 3602.82 1564.68   2
  -3  -1  14 5185.46 1893.51   7
  -3  -1  15 5998.55 2081.54   7
  -3   1  15 5540.22 1752.07   2
  -3   1  15 4624.43 1822.09   7
  -3   1 -15 7880.06 3094.08   4
  -3  -1 -15 5561.66 2515.61   4
  -3  -1  15 5764.36 1888.48   2
  -3  -1  16 2765.26 1349.81   7
  -3   1  16 5235.26 1806.65   2
  -3   1 -16 3208.20 2932.96   4
  -3  -1 -16 3404.20 2389.94   4
  -3  -1  16 4116.50 1742.89   2
  -3   1  16 5696.57 2273.91   7
  -3   1  16 5339.02 2268.50   3
  -3   1  17 269.145 658.968   2
  -3   1  17 1344.68 1089.24   3
  -3   1 -17-1047.86 808.462   4
  -3  -1 -17-1106.44 2050.82   4
  -3  -1  17 1426.96 853.974   2
  -3  -1  17 1228.13 1034.66   7
  -3   1  17 539.131 740.059   7
  -3   1 -18-33.6933 1324.48   4
  -3  -1 -18 2284.32 1916.95   4
  -3  -1  18 1958.41 1400.21   2
  -3   1  18 2317.32 1826.52   7
  -3  -1  18 3025.08 1702.66   7
  -3   1  18 3179.36 2033.91   3
  -3   1 -19-1431.55 1612.50   4
  -3  -1 -19-964.339 1904.61   4
  -3   1  19 2727.24 1589.57   3
  -3   1  19 584.971 675.523   7
  -3  -1  19 1339.86 1172.34   7
  -3  -1 -20-284.826 724.305   4
  -3  -1  20 1767.81 1398.21   7
  -3   1  20 170.884 629.273   7
  -3   1  20-49.0341 873.018   3
  -3   1  21 1225.04 638.041   7
  -3  -1  21-733.733 1095.60   7
  -3  -1  22 198.658 442.891   7
   3   3   0 201.654 173.733   5
  -3   3   0 88.1071 231.706   2
   3  -3   0-183.265 410.073   1
  -3   3   0-162.489 326.891   3
   3   3  -1 3559.62 1247.86   5
   3   3   1 4183.31 1227.41   5
   3  -3  -1 4261.67 1200.09   1
  -3   3   1 3611.95 1476.39   2
  -3   3  -1 5191.80 1797.20   2
   3   3  -1 3461.96 1094.36   1
   3  -3   1 5048.56 1317.34   1
  -3   3   1 3932.24 1331.87   3
  -3   3  -1 4909.15 1396.93   3
   3   3  -2 2383.77 1084.64   5
   3   3   2 2019.63 810.270   5
  -3   3   2 297.824 534.278   2
   3   3  -2 1086.26 696.206   6
   3   3  -2 189.169 392.727   1
   3  -3  -2 521.971 612.650   1
   3  -3   2 1085.20 734.710   1
  -3   3  -2 699.278 699.516   3
  -3   3   2 1155.74 861.175   3
   3   3  -3 12573.8 2369.53   5
   3   3  -3 14915.3 2467.34   1
  -3   3   3 13071.7 2641.35   2
   3  -3   3 14424.7 2289.54   1
  -3   3  -3 15474.6 2577.32   3
  -3   3   3 14562.2 2645.82   3
   3   3  -3 14286.8 2309.45   6
   3  -3  -3 13052.9 2071.37   1
   3   3   3 13202.3 2032.21   5
   3   3  -4 1001.03 764.974   6
   3  -3  -4 875.666 731.438   1
   3   3  -4 1724.05 826.043   5
  -3   3   4 1878.99 1035.95   2
   3   3  -4 765.322 506.515   1
  -3   3   4 1203.40 743.174   1
   3  -3   4 2448.49 1204.90   1
  -3  -3  -4 1912.60 789.204   2
  -3   3  -4 1513.54 815.525   3
   3   3   4 3151.84 1018.84   5
  -3   3   4 1953.34 1073.82   3
   3  -3  -5 21871.5 2877.64   1
  -3  -3  -5 25570.3 2625.02   2
   3   3  -5 20597.4 2417.97   1
  -3   3   5 25214.3 2734.33   1
  -3   3  -5 27704.6 3494.58   3
  -3   3   5 22825.5 3394.30   3
   3   3  -5 23308.8 3307.44   6
   3   3   5 24818.2 2696.72   5
  -3   3   5 23923.1 3670.38   2
   3   3   6 3799.91 1098.51   5
  -3   3   6 2210.75 1215.02   2
  -3   3   6 4132.42 1515.94   7
  -3   3   6 1792.25 827.529   1
   3  -3  -6 2105.98 969.561   1
  -3   3  -6 2571.33 1038.02   3
   3   3  -6 1539.34 690.710   1
  -3   3   6 3583.10 1429.52   3
  -3  -3  -6 2756.20 883.374   2
  -3  -3  -6 2740.49 946.592   5
   3   3  -6 3412.34 1386.32   6
   3   3   7 6204.06 1287.87   5
  -3   3   7 7365.87 1943.90   3
  -3   3   7 4720.41 1656.68   2
  -3  -3  -7 4193.32 1016.45   5
  -3  -3   7 5356.91 1021.56   1
  -3  -3  -7 4495.82 1036.26   2
   3   3  -7 5256.56 1677.51   6
  -3   3   7 5714.67 1728.64   7
  -3   3   7 5184.20 1213.84   1
   3   3   8 9424.97 1559.41   5
  -3   3   8 5452.03 1962.93   2
  -3   3  -8 4126.34 1273.98   5
  -3   3   8 8615.97 2329.08   3
   3   3  -8 5783.18 1986.52   6
  -3  -3   8 1322.09 617.355   1
  -3  -3  -8 4046.92 1346.44   3
  -3  -3  -8 5772.01 1178.56   2
  -3   3   8 3578.43 1154.54   1
  -3   3   8 5904.96 1972.01   7
  -3  -3   8 5636.83 1769.11   2
  -3   3  -9 15219.7 2235.89   5
   3   3   9 18145.5 2058.86   5
  -3  -3   9 16784.8 2957.20   2
  -3   3   9 15683.2 2225.25   1
  -3   3   9 16431.3 3218.01   3
  -3   3  -9 17191.1 3863.11   4
   3   3  -9 16372.7 3251.59   6
  -3   3   9 16723.0 3273.83   7
  -3  -3  -9 10315.1 2165.68   3
  -3  -3  -9 13422.7 1649.88   2
  -3  -3   9 11614.7 1573.88   1
  -3   3   9 16103.3 3106.95   2
  -3  -3  10 2908.07 822.219   1
   3   3  10 6809.80 1185.07   5
  -3  -3  10 5282.98 1773.92   7
  -3   3 -10 5051.10 1208.77   5
  -3   3  10 5574.55 2013.16   2
  -3  -3 -10 3178.12 700.224   2
  -3   3 -10 3406.57 1836.55   4
  -3   3  10 6764.01 2193.04   3
  -3  -3 -10 4699.63 1471.30   3
  -3   3  10 5582.83 2033.92   7
   3   3 -10 5903.93 2180.58   6
  -3  -3  10 4583.96 1777.33   2
  -3   3 -10 2366.72 1059.06   6
  -3   3 -11 1010.17 429.895   5
  -3   3  11 1759.24 982.413   2
   3   3  11 1512.13 507.776   5
  -3  -3  11 1151.05 1096.15   7
  -3   3 -11 2183.05 1575.41   4
   3   3 -11 1275.61 958.982   6
  -3   3  11 2563.67 1169.02   7
  -3  -3  11 1597.61 1039.38   2
  -3   3 -11 915.027 428.362   6
  -3   3  11 2023.50 1304.24   3
  -3  -3  11 1268.68 505.420   1
  -3  -3  12 1865.23 787.305   1
  -3   3 -12 2668.18 747.810   5
  -3   3  12 4700.99 1891.30   2
   3   3 -12 6468.33 2541.07   6
  -3   3  12 7194.75 2462.52   3
  -3   3 -12 3741.11 1960.51   4
  -3  -3 -12 4392.57 2218.75   4
  -3  -3  12 5285.22 1853.20   7
  -3   3  12 4643.46 2032.50   7
  -3  -3  12 3659.55 1628.41   2
  -3   3 -12 2238.39 1045.94   6
  -3   3  13 4893.93 1793.36   2
  -3   3 -13 3545.26 2426.91   4
  -3  -3 -13 1657.05 1314.97   4
  -3  -3  13 1773.09 1193.00   2
  -3   3  13 4507.28 1832.53   7
  -3   3 -13 3298.98 1316.90   6
  -3  -3  13 5312.52 1791.53   7
  -3   3  13 5852.19 2172.91   3
  -3   3 -14 2924.88 1336.17   6
  -3   3  14 4567.76 2011.69   2
  -3  -3  14 3421.46 1566.57   7
  -3   3 -14 1853.41 1599.08   4
  -3  -3 -14 2853.84 2025.76   4
  -3   3  14 6614.81 2179.74   7
  -3  -3  14 3349.34 1494.92   2
  -3   3  14 5287.22 2187.05   3
  -3   3  15 2591.22 1385.64   2
  -3  -3  15 1231.15 1150.63   7
  -3   3 -15 1184.00 1129.45   4
  -3  -3 -15 2056.65 1517.39   4
  -3   3  15 3555.52 1358.29   7
  -3  -3  15 1329.78 894.540   2
  -3   3  15 1756.48 1077.29   3
  -3   3  16 2783.74 1560.25   2
  -3   3 -16 961.694 2155.00   4
  -3  -3 -16 1892.87 1747.06   4
  -3  -3  16 1644.16 1242.47   7
  -3   3  16 4389.57 2282.20   7
  -3  -3  16 1652.87 1187.02   2
  -3   3  16 2817.90 1748.39   3
  -3   3 -17 8004.11 3864.97   4
  -3  -3 -17 9152.80 3591.44   4
  -3   3  17 8696.65 2911.23   7
  -3  -3  17 6750.44 2224.14   2
  -3   3  17 8135.11 2729.12   3
  -3  -3  17 9715.60 2589.02   7
  -3   3 -18-335.358 1913.80   4
  -3  -3 -18 3555.08 2276.85   4
  -3  -3  18 2974.42 1381.69   7
  -3  -3  18 1266.41 931.333   2
  -3   3  18 3453.87 1849.93   7
  -3   3  18 1533.13 1345.31   3
  -3  -3 -19-757.477 1354.28   4
  -3   3  19 606.872 738.613   3
  -3   3  19-305.506 553.830   7
  -3  -3  19 310.897 540.050   7
  -3   3  20 1616.51 1589.01   7
  -3  -3  20 153.710 718.003   7
  -3   3  20 162.973 390.036   3
  -3   3  21 2848.16 1956.89   7
  -3  -3  21 1439.33 1192.92   7
  -3  -3  22 1556.78 1221.15   7
   3   5   0 145.635 503.068   5
   3  -5   0-2.37872 375.039   1
  -3   5   0 222.940 643.714   3
   3   5  -1 11608.7 2510.96   5
   3   5   1 12638.7 2418.93   5
   3  -5  -1 11811.0 2408.81   1
  -3   5  -1 8852.26 2441.49   3
  -3   5   1 10333.7 2644.49   3
   3  -5   1 10596.2 2313.41   1
   3   5  -2 1046.89 787.695   5
   3  -5   2 409.739 623.458   1
   3  -5  -2 302.320 438.810   1
   3   5   2 1199.98 730.583   5
  -3   5  -2-303.700 611.066   3
  -3   5   2 1180.24 784.380   3
   3  -5  -3 4451.82 1672.80   1
   3   5  -3 4711.21 1637.18   5
   3   5   3 6738.24 1825.03   5
   3  -5   3 4263.68 1526.86   1
  -3   5  -3 4128.65 1807.64   3
  -3   5   3 5963.09 2021.90   3
   3   5  -4 888.858 735.283   5
   3   5   4 1173.42 635.191   5
  -3   5   4 33.0395 252.056   3
  -3   5  -4-93.4551 254.650   3
   3  -5   4-209.497 230.439   1
  -3  -5   4 377.884 500.432   1
   3  -5  -4 1070.53 899.568   1
   3   5  -5 2373.35 1173.96   5
   3   5   5 1643.76 712.618   5
  -3  -5   5 1197.21 601.669   1
   3  -5  -5 3082.15 1097.37   1
  -3   5   5 3371.97 1380.52   3
   3  -5   5 2749.33 1309.84   1
   3  -5   6 100.234 446.665   1
   3   5  -6-164.794 193.235   5
   3   5   6 1469.71 739.952   5
  -3   5   6 727.410 636.128   7
  -3   5  -6-294.428 363.280   5
  -3  -5   6-178.355 286.677   1
   3  -5  -6 933.979 896.883   1
   3   5  -6 1502.19 1196.44   6
  -3   5   6 177.975 445.967   3
  -3   5  -7 23494.7 3803.42   5
  -3   5   7 26603.9 4176.67   7
   3  -5   7 21933.5 3717.68   1
  -3   5  -7 19887.2 3632.89   4
  -3   5   7 20920.3 3899.13   3
   3   5  -7 22610.1 3979.05   6
   3  -5  -7 21288.0 3635.63   1
   3   5  -7 21903.6 3961.68   5
  -3  -5   7 16876.3 2659.55   1
   3   5   7 30447.1 3654.65   5
   3   5  -8 1689.35 1027.61   5
  -3   5   8 2564.55 1434.83   3
   3   5   8 2112.91 1013.30   5
  -3   5  -8 1098.54 770.119   5
  -3   5  -8 1808.43 965.434   4
  -3  -5   8 1076.18 639.152   1
   3  -5   8 159.669 741.601   1
  -3   5   8 1244.33 1156.88   7
   3   5  -8 1665.84 1324.60   6
   3   5  -9 1807.31 1318.34   5
   3   5   9 3590.87 1251.69   5
  -3   5  -9 2549.83 1154.58   5
  -3   5   9 2041.79 1300.01   7
  -3   5  -9 1871.05 1135.71   4
  -3  -5   9 2007.25 917.444   1
  -3   5   9 3128.77 1488.51   3
   3   5  -9 1823.21 1661.95   6
   3  -5   9 804.668 1081.40   1
  -3   5 -10 1640.74 1321.86   5
   3  -5  10 1821.45 1316.80   1
   3   5  10 4721.49 1420.84   5
  -3  -5 -10 1738.04 745.162   2
  -3   5 -10 948.139 528.096   4
  -3   5  10 3059.05 1568.73   3
  -3  -5  10 1658.47 894.636   1
  -3   5  10 4216.04 1909.67   7
   3   5 -10 2456.77 1653.33   6
   3   5 -10 940.566 1300.91   5
   3   5  11 12978.0 2281.04   5
  -3   5 -11 5482.54 1733.96   5
  -3   5  11 9607.83 2786.92   3
  -3   5 -11 6886.53 2548.50   4
  -3  -5 -11 6325.30 2360.57   4
   3  -5  11 6583.65 2444.78   1
  -3   5  11 9011.57 2529.82   7
  -3  -5  11 3298.07 1244.93   1
   3   5 -11 7176.37 2696.16   6
  -3   5 -12 2259.07 1160.79   5
  -3   5 -12 1295.50 1242.80   4
  -3  -5 -12 1930.37 1538.29   4
  -3   5  12 2448.67 1415.35   3
  -3  -5  12 2074.66 1026.14   1
  -3   5  12 1682.63 1055.11   7
   3  -5  12 64.8549 566.100   1
   3   5 -12 1068.60 1491.90   6
  -3   5 -12 2077.98 1177.39   6
   3  -5  13 1225.51 1042.06   1
   3   5 -13 1615.17 1727.75   6
  -3   5 -13 875.419 1026.08   4
  -3  -5 -13 2042.91 1439.88   4
  -3   5  13 2489.10 1433.38   3
  -3   5  13 3043.26 1747.82   7
  -3   5 -13 866.539 535.810   6
   3  -5  14 2487.99 1539.10   1
  -3  -5  14 1263.08 991.430   7
  -3   5 -14 682.683 1181.10   4
  -3  -5 -14 2748.95 1595.26   4
   3   5 -14 4153.98 2192.40   6
  -3   5  14 3102.88 1704.51   7
  -3   5  14 3778.58 1790.30   3
  -3   5 -14 1602.82 1232.11   6
   3  -5  15 17763.8 3864.54   1
  -3   5 -15 9924.94 3792.25   4
  -3  -5 -15 10373.0 3529.04   4
  -3   5  15 15093.8 3773.59   3
  -3   5  15 13947.6 3517.45   7
  -3  -5  15 10285.6 2491.13   7
   3   5 -15 12675.7 3804.46   6
  -3   5 -15 12213.4 2946.09   6
  -3  -5  15 9733.66 2878.02   2
   3   5 -16 1122.30 1461.08   6
   3  -5  16 2394.33 1307.40   1
  -3   5 -16 1224.86 1721.89   4
  -3  -5 -16 1690.06 1478.95   4
  -3   5  16 2361.38 1683.34   7
  -3   5  16 3007.48 1647.96   3
  -3  -5  16 1441.02 1057.78   7
  -3   5 -16 808.325 784.799   6
  -3  -5  16 924.912 669.966   2
   3  -5  17-1.51136 2460.04   1
  -3  -5 -17-2315.97 1710.90   4
  -3  -5  17 849.454 937.466   7
  -3   5  17 541.138 986.766   7
  -3   5  17 1686.00 1264.60   3
  -3  -5  17 634.068 700.318   2
  -3  -5  18-196.163 806.417   2
  -3  -5 -18-769.284 1555.03   4
  -3   5  18 1829.64 1528.79   7
  -3  -5  18 1689.59 1436.75   7
  -3   5  18 312.194 306.290   3
   3  -5  18 608.301 874.118   1
  -3  -5  19 4969.50 2131.19   2
  -3  -5 -19 4687.59 2462.51   4
  -3   5  19 6984.28 2654.66   3
  -3   5  19 6897.28 2552.45   7
   3  -5  19 4961.32 2317.53   1
  -3   5  20 2107.87 1888.81   3
   3  -5  20-388.382 652.608   1
  -3   5  20 2423.28 1691.72   7
   3   7   0 126.628 493.835   5
   3  -7   0-434.105 795.529   1
  -3   7   0 1462.61 1066.78   3
   3   7  -1 10750.3 2710.41   5
   3   7   1 13188.2 3066.98   5
   3  -7  -1 9623.08 2587.86   1
   3  -7   1 9453.77 2531.78   1
  -3   7  -1 5019.38 2343.03   3
  -3   7   1 4654.92 1986.87   3
   3  -7  -2-267.289 592.245   1
   3   7  -2-526.444 791.827   5
   3   7   2 402.600 159.917   5
   3  -7   2 363.929 696.478   1
  -3   7   2 975.254 943.163   3
   3   7  -3 1604.98 1029.21   5
   3   7   3 2052.19 1203.72   5
  -3   7  -3 1468.29 761.096   4
  -3   7   3 2348.29 1384.96   3
   3  -7   3 3340.19 1325.42   1
   3  -7  -3 2664.47 1488.75   1
  -3  -7   3 1362.01 926.397   1
   3   7  -4 299.244 460.216   5
   3   7   4-355.467 599.476   5
  -3   7  -4 191.165 258.835   5
  -3  -7   4-5.63156 389.943   1
  -3   7  -4-132.803 390.373   4
  -3   7   4-357.888 1000.83   3
   3  -7   4-380.574 336.515   1
   3  -7  -4 56.5730 236.148   1
   3   7  -5 3692.03 2007.83   5
   3   7   5 6425.75 2202.12   5
  -3   7  -5 2594.61 1560.21   5
  -3  -7   5 2550.04 1342.66   1
  -3   7  -5 3736.76 1575.36   4
   3  -7  -5 4301.82 1933.01   1
  -3   7   5 4278.78 2262.13   3
   3  -7   5 1698.83 1363.93   1
   3  -7   6-187.723 1040.57   1
   3   7   6 589.540 803.703   5
   3   7  -6 948.253 626.867   5
  -3   7  -6-260.743 316.503   5
  -3   7  -6 1159.25 829.000   4
  -3  -7   6-191.227 192.332   1
   3  -7  -6 415.766 872.362   1
  -3   7   6 987.261 923.718   3
   3   7  -7 1349.81 1318.76   5
   3  -7   7 811.226 1144.66   1
   3   7   7 2599.48 1308.36   5
  -3   7   7 1582.98 963.548   7
  -3   7  -7 1174.95 1195.69   5
  -3   7  -7 286.574 435.845   4
   3  -7  -7 565.408 659.513   1
  -3  -7   7-262.195 477.344   1
  -3   7   7 359.670 878.872   3
   3   7  -8 587.033 760.798   5
   3   7   8-795.138 688.555   5
   3  -7   8-181.930 356.072   1
  -3   7  -8-1539.59 1439.05   5
  -3   7  -8 291.889 463.022   4
  -3   7   8 1030.81 934.460   7
  -3  -7   8 1538.12 928.321   1
  -3   7   8-552.585 948.556   3
   3   7  -8 781.012 716.811   6
   3  -7  -8-359.852 622.417   1
   3   7  -9 10861.5 3341.18   5
   3   7   9 13127.2 2830.76   5
  -3   7   9 15269.4 3440.13   7
  -3   7  -9 10459.5 3273.40   5
  -3   7  -9 7128.21 2419.90   4
   3  -7   9 9581.16 2809.07   1
  -3  -7   9 9104.20 2279.33   1
  -3   7   9 11598.4 3342.30   3
   3   7  -9 8242.98 2992.90   6
   3   7  10 297.845 808.947   5
  -3   7 -10-77.1906 262.510   5
  -3   7 -10 462.669 1023.70   4
   3   7 -10-593.494 771.633   5
  -3  -7 -10-185.597 363.249   4
   3  -7  10 477.301 778.866   1
  -3   7  10 23.7373 919.281   7
  -3  -7  10 169.362 293.704   1
  -3   7  10-398.669 624.614   3
   3   7 -10-69.5464 263.168   6
   3   7 -11 3222.36 1393.50   5
   3   7  11 2142.19 1197.62   5
  -3   7 -11 370.113 558.090   5
  -3   7 -11 704.775 620.394   4
  -3  -7 -11 1529.18 1328.81   4
   3  -7  11 2558.24 1456.54   1
  -3  -7  11 1983.92 1112.41   1
  -3   7  11 1105.38 971.254   3
  -3   7  11 1653.10 1023.48   7
   3   7 -11 2220.38 1351.71   6
   3   7 -12-103.084 297.587   5
  -3   7 -12 1064.75 1320.40   5
  -3   7 -12 1105.75 1072.72   4
  -3  -7 -12 651.868 737.383   4
   3  -7  12-141.821 652.064   1
  -3   7  12 252.297 811.715   3
  -3   7  12-679.245 757.158   7
   3   7 -12 3121.35 1773.92   6
  -3  -7 -13 16077.1 3931.84   4
  -3   7  13 13482.3 3793.64   3
   3  -7  13 11163.7 3190.56   1
  -3   7  13 15623.8 3982.63   7
   3   7 -13 13003.9 4138.72   6
   3   7 -13 12341.4 3547.15   5
  -3   7 -14-940.940 943.614   6
  -3  -7 -14 645.113 839.937   4
  -3   7  14 394.006 432.563   3
   3  -7  14-577.459 615.699   1
  -3   7  14 16.9395 857.025   7
  -3  -7 -15 1921.12 1409.65   4
   3  -7  15 1442.96 1516.47   1
  -3   7  15 3464.09 2351.76   3
  -3   7  15 1931.99 1758.36   7
   3   7 -15 2904.66 1927.60   6
  -3   7 -15 1242.18 905.798   6
  -3  -7 -16-603.533 813.523   4
  -3   7  16 1119.52 1220.56   3
  -3   7  16 1554.23 1035.05   7
   3  -7  16 537.467 920.909   1
  -3   7 -16-1317.61 1161.38   6
   3   7 -16 1835.05 1283.37   6
  -3  -7 -17 4871.01 2400.57   4
  -3   7  17 7779.67 2942.36   3
  -3   7  17 9726.27 3136.53   7
   3  -7  17 7251.91 2949.88   1
   3   7 -17 4040.59 3547.05   6
   3  -7  18 477.050 713.297   1
  -3   7  18 646.662 849.729   7
   3   7 -18-513.903 829.385   6
  -3  -7  18 19.8931 140.830   2
  -3   7  19 2742.81 1845.78   3
  -3  -7  19 47.1914 222.722   2
   3  -9   0-296.126 330.419   1
   3   9   0-140.488 982.704   5
  -3   9   0-954.168 1282.77   5
   3   9  -1 2181.02 1072.23   5
   3   9   1 668.126 545.879   5
  -3   9  -1 1221.97 1119.85   5
   3  -9   1 1517.22 902.800   1
   3  -9  -1 2031.70 1516.72   1
   3   9  -2-830.974 1303.25   5
   3   9   2 1366.76 1043.94   5
   3  -9   2-126.423 587.055   1
  -3   9  -2 756.596 1427.73   5
   3  -9  -2 160.609 946.801   1
   3   9  -3 3471.82 1780.62   5
   3   9   3 3249.33 1654.20   5
   3  -9   3 6886.15 2407.31   1
  -3   9  -3 4652.73 2068.94   5
   3  -9  -3 3220.72 1720.28   1
   3   9   4 328.712 791.175   5
  -3   9  -4 346.555 492.133   5
  -3  -9   4-147.849 598.224   1
   3  -9   4 135.300 981.313   1
   3   9  -4-1045.19 1019.31   5
  -3   9   4-758.003 958.649   3
   3  -9  -4 96.0399 907.739   1
   3   9  -5-997.795 1421.42   5
   3   9   5-4.26634 364.108   5
  -3   9  -5 5.05118 883.665   5
  -3  -9   5-1492.74 1050.22   1
   3  -9   5-473.948 495.939   1
   3  -9  -5-12.6750 972.139   1
  -3   9   5 431.162 171.963   3
   3   9  -6 74.8723 679.097   5
   3   9   6 1026.77 1177.81   5
  -3   9  -6-759.035 683.517   5
  -3  -9   6 182.979 713.945   1
   3  -9  -6-1597.08 1233.61   1
   3  -9   6 43.8825 669.551   1
  -3   9   6-2120.05 1605.24   3
   3   9  -7 4507.01 1881.86   5
   3   9   7 2848.13 1756.82   5
  -3   9  -7 3329.51 2307.39   5
   3  -9  -7 3197.62 1816.65   1
  -3  -9   7 2747.56 1475.30   1
   3  -9   7 3005.39 1751.09   1
  -3   9   7 2684.65 1717.95   3
   3   9  -8-423.748 792.011   5
   3   9   8 1421.28 1081.22   5
  -3   9  -8-1012.43 1419.13   5
  -3  -9   8 648.461 691.415   1
  -3   9   8 782.912 996.523   3
   3  -9   8-86.8702 766.813   1
   3  -9  -8-372.276 593.025   1
   3   9  -9 884.639 1039.49   5
   3   9   9 1525.50 1183.07   5
  -3   9   9-567.016 732.039   7
   3  -9   9-225.917 449.376   1
  -3  -9   9 385.243 534.006   1
  -3   9   9 510.338 938.407   3
   3   9 -10 113.284 760.716   5
   3   9  10 233.164 652.038   5
  -3   9 -10 497.354 788.950   5
  -3  -9  10-479.851 594.355   1
  -3   9  10-1255.44 1257.95   3
  -3   9  10-88.2935 315.567   7
   3  -9  10-1062.14 983.099   1
   3   9 -11 5719.51 2960.61   6
   3   9 -11 5097.81 2434.97   5
  -3   9 -11 5531.76 2640.74   5
  -3   9  11 7037.25 3174.11   3
  -3   9  11 11665.4 3249.06   7
   3  -9  11 8999.19 3002.19   1
   3   9 -12-90.9444 992.473   5
  -3   9  12 138.621 424.934   3
   3  -9  12 1594.12 1351.65   1
  -3   9  12 1351.47 1216.82   7
   3   9 -12-502.618 842.585   6
   3   9 -13-1059.26 1158.24   5
  -3   9  13 3649.80 1849.51   7
  -3   9  13 767.534 944.607   3
   3   9 -13 158.772 1345.34   6
   3  -9  13 2115.03 1635.72   1
   3   9 -14 537.924 432.518   5
  -3   9  14 977.768 835.975   3
  -3   9  14 1444.93 1649.42   7
   3   9 -14 2083.59 1808.81   6
   3  -9  14 144.282 842.886   1
   3  -9  15 6163.86 2715.22   1
   3   9 -15 2043.23 1641.93   5
  -3   9  15 6023.86 2881.67   3
  -3   9  15 8179.58 2820.65   7
   3   9 -15 6080.11 3483.01   6
  -3   9 -15 7224.82 2861.26   6
  -3   9  16 119.269 409.567   3
  -3   9  16 831.780 1341.95   7
  -3   9  17 1377.96 1243.07   7
   3  11   0-1079.30 1140.07   5
  -3  11   0 149.512 697.728   5
   3 -11   0-79.7795 506.982   1
   3  11  -1 693.846 1085.72   5
   3  11   1 1223.64 951.217   5
  -3  11  -1 1343.34 1252.32   5
  -3  11   1 2147.52 1577.85   5
   3 -11   1 989.167 1466.77   1
   3 -11  -1 2215.48 1455.81   1
   3  11  -2-110.405 1392.22   5
   3  11   2-667.863 1471.34   5
   3 -11  -2 1896.72 1460.00   1
  -3  11  -2-2258.55 1747.55   5
  -3  11   2-77.6866 542.633   5
   3 -11   2 814.734 934.632   1
   3 -11   3 570.430 681.457   1
   3  11  -3 1480.26 196.910   5
   3  11   3-870.702 997.745   5
  -3  11  -3-259.797 1191.39   5
  -3  11   3 450.406 697.189   5
   3 -11  -3-2130.10 1553.98   1
   3 -11   4-140.770 1309.49   1
   3  11  -4 633.975 630.523   5
   3  11   4 1136.59 1292.46   5
  -3  11  -4 674.115 1008.90   5
  -3  11   4-589.242 948.738   5
   3 -11  -4 364.676 727.671   1
  -3 -11   5 1983.21 1349.94   1
   3  11  -5 3062.89 1885.25   5
   3 -11   5 2327.14 1581.61   1
   3  11   5 5438.71 2542.76   5
  -3  11  -5 3951.66 2333.96   5
  -3  11   5 2139.43 1712.52   5
   3 -11  -5 1889.07 1398.04   1
   3  11  -6 1245.84 1415.82   5
   3  11   6 1243.71 1248.66   5
   3 -11   6-1142.92 1222.42   1
  -3  11  -6-948.472 1407.98   5
  -3  11   6-772.279 853.062   5
  -3 -11   6-379.286 609.243   1
   3 -11  -6 823.044 965.528   1
   3  11  -7-4.44217 1005.83   5
   3  11   7 1439.14 1275.16   5
  -3  11  -7 2342.75 1657.23   5
   3 -11   7 1166.95 989.583   1
  -3  11   7 391.033 520.149   5
   3 -11  -7 348.291 1017.54   1
  -3 -11   7 112.416 600.711   1
   3  11   8 1564.97 1196.77   5
  -3  11  -8-912.253 1169.39   5
   3 -11   8 533.355 761.533   1
  -3  11   8-582.963 786.986   5
  -3 -11   8-2339.49 1461.99   1
   3  11  -8 537.520 802.620   5
   3  11   9 4578.10 2218.52   5
  -3  11  -9 2689.16 2475.84   5
  -3  11   9 3385.50 1858.91   5
   3 -11   9 2423.85 1836.21   1
  -3 -11   9 1278.13 1080.20   1
   3  11  -9 1618.49 1272.24   5
   3  11 -10 1508.51 1471.54   5
  -3  11 -10-2012.50 1803.34   5
  -3  11  10 895.037 655.860   5
   3 -11  10-1500.17 1293.45   1
   3  11 -10-568.300 734.162   6
   3  11 -11-363.495 457.827   5
  -3  11  11 852.746 994.246   5
  -4   0   0 403682. 13456.0   2
  -4   0   0 369038. 8961.35   6
  -4   0   1-77.4072 196.178   2
  -4   0   1-14.0433 164.579   6
  -4   0  -1 46.4252 103.052   6
  -4   0  -2 169256. 8633.27   2
  -4   0   2 158591. 8616.38   2
  -4   0  -2 151904. 4373.45   6
  -4   0  -3 281.741 310.975   2
  -4   0   3 169.510 301.545   2
  -4   0  -4 236649. 10185.9   2
  -4   0   4 237130. 10762.7   2
   4   0  -4 217948. 5129.98   1
  -4   0  -5 445.998 583.530   2
  -4   0   5-259.848 261.048   2
  -4   0  -5 387.688 480.750   5
  -4   0   6 128006. 8126.27   2
  -4   0  -6 113933. 5186.03   5
  -4   0  -6 134132. 7857.27   2
  -4   0  -7-67.7754 142.853   5
  -4   0  -7-162.899 248.356   2
  -4   0   7 452.085 503.862   2
  -4   0   8 205883. 10603.1   2
  -4   0  -8 178579. 5587.81   3
  -4   0  -8 189270. 5508.98   5
  -4   0  -8 217917. 10402.7   2
  -4   0  -9-277.776 182.804   5
  -4   0   9 455.918 253.907   2
  -4   0  10 68566.4 6282.47   2
  -4   0  10 63854.7 6461.71   7
  -4   0  11 36.0754 992.293   7
  -4   0  11-303.242 510.704   2
  -4   0  12 133192. 9089.99   2
  -4   0  12 125757. 9400.55   7
  -4   0  13 178.938 383.302   2
  -4   0 -13-449.644 441.140   4
  -4   0  13 322.295 809.357   7
  -4   0  14 35675.1 4849.28   2
  -4   0 -14 38306.9 7754.79   4
  -4   0  14 31103.4 4858.40   7
  -4   0 -15-637.586 1786.95   4
  -4   0  15-166.825 638.642   2
  -4   0  15-127.777 335.127   7
  -4   0  16 40504.3 5341.99   2
  -4   0 -16 49607.9 9328.39   4
  -4   0  16 37421.0 5565.35   7
  -4   0  17 1191.50 1039.97   7
  -4   0  17 488.322 103.970   2
  -4   0  18 25203.1 4461.72   2
  -4   0  18 19989.1 4269.32   7
  -4   0 -19-1748.31 2458.68   4
  -4   0  19 236.675 488.233   7
  -4   0 -20 32800.5 8915.42   4
  -4   0  20 19527.0 4375.20   7
  -4   0  20 33034.6 5749.27   3
  -4   0  21 302.155 555.395   7
  -4   0  21-1332.68 1197.38   3
  -4  -2   0 224537. 9841.28   2
   4  -2   0 225067. 8258.72   1
  -4   2   0 227781. 9752.16   3
   4   2   0 224503. 7821.16   6
  -4   2   0 224441. 11316.7   2
  -4   2   1 5885.88 1685.21   3
  -4   2  -1 4236.85 1652.92   2
  -4   2   1 4875.94 1831.67   2
   4  -2  -1 3268.20 1128.32   1
  -4  -2  -1 4054.56 1476.92   2
  -4  -2   1 3492.30 1431.68   2
   4   2  -1 4298.12 1217.75   6
   4   2   1 4959.30 1050.65   6
  -4   2  -1 4970.98 1508.28   3
  -4   2   2 264978. 12135.0   2
  -4  -2  -2 282143. 10773.1   2
  -4  -2   2 282889. 11355.8   2
   4  -2  -2 277486. 8947.19   1
  -4   2  -2 287898. 10705.3   3
   4   2   2 282609. 7284.71   6
   4   2  -2 271927. 9915.77   6
  -4   2  -2 299258. 13195.4   2
  -4   2  -3 3095.84 1376.89   2
  -4   2   3 2671.88 1470.04   2
   4   2  -3 1973.17 849.089   1
   4   2  -3 3116.39 1175.26   6
  -4  -2  -3 1997.81 956.686   2
  -4  -2   3 1546.63 997.158   2
  -4   2  -3 2931.14 1065.49   3
   4   2   3 2218.40 568.198   6
   4  -2  -3 1966.85 808.223   1
   4   2  -4 112876. 5770.92   1
  -4   2   4 108653. 7863.26   2
  -4  -2  -4 108799. 6475.17   2
  -4  -2   4 99800.1 6951.19   2
   4  -2  -4 104705. 5344.67   1
  -4   2  -4 112229. 6583.70   3
   4   2  -4 103540. 6858.19   6
  -4   2  -4 117166. 8452.09   2
   4  -2  -5 868.407 529.890   1
  -4   2  -5 1367.74 1015.97   2
   4   2  -5 614.357 401.038   1
  -4   2   5 780.969 916.218   2
  -4  -2  -5 1023.01 763.181   2
  -4  -2   5 1123.43 806.627   2
  -4   2  -5 1522.82 741.720   3
  -4   2   6 228426. 11674.9   2
  -4  -2  -6 235677. 9446.67   2
  -4  -2   6 244395. 11288.8   2
  -4   2  -6 251883. 9566.96   3
   4  -2  -6 239264. 8257.72   1
  -4  -2  -7 374.792 429.983   5
  -4   2   7 1060.35 765.639   2
  -4  -2  -7 436.439 485.380   2
  -4   2  -7 1825.31 894.670   3
  -4  -2   7 268.596 423.819   2
  -4   2   8 84521.7 7175.01   2
  -4  -2  -8 87093.5 5666.78   2
  -4  -2   8 89877.7 7025.99   2
  -4   2  -8 85353.5 5425.72   3
  -4   2  -8 73490.5 3492.88   6
  -4  -2  -8 84912.4 4470.75   5
  -4  -2  -9 493.526 341.841   5
  -4  -2  -9 653.690 616.146   2
  -4   2   9 652.471 705.065   7
  -4   2   9 182.828 311.370   2
  -4  -2   9 1108.90 916.636   2
  -4   2  -9 396.792 216.600   6
  -4   2 -10 148478. 5941.83   5
  -4   2  10 166194. 10362.5   2
  -4  -2  10 163347. 9836.02   2
  -4   2  10 156760. 10593.8   7
  -4  -2 -10 152099. 7199.97   2
  -4   2  11 673.998 746.554   2
  -4   2  11-126.594 751.017   7
  -4  -2  11-103.478 136.715   2
  -4   2  11 1065.39 1060.36   3
  -4   2  12 56295.5 6252.06   2
  -4  -2  12 51356.7 5686.67   2
  -4   2 -12 54555.3 8724.98   4
  -4   2  12 52225.5 6282.16   3
  -4   2  12 48412.2 5979.64   7
  -4  -2  12 50080.6 5654.63   7
  -4   2  13 189.877 321.229   2
  -4  -2  13 668.779 845.168   7
  -4   2 -13 1307.20 1694.37   4
  -4  -2 -13 1442.87 1470.28   4
  -4   2  13-354.990 320.697   7
  -4  -2  13-25.4147 197.775   2
  -4   2  13 641.705 1087.57   3
  -4   2  14 60178.4 6715.43   2
  -4  -2  14 63772.7 6544.21   2
  -4  -2  14 54776.5 6336.50   7
  -4   2 -14 63945.5 10120.3   4
  -4  -2 -14 63624.2 9837.03   4
  -4   2  14 60749.1 7188.12   3
  -4   2  14 49855.3 6302.37   7
  -4   2  15 202.107 308.993   2
  -4  -2 -15 792.778 800.817   4
  -4  -2  15 15.7640 371.500   2
  -4   2  15 66.6388 693.340   7
  -4  -2  15 1014.69 698.956   7
  -4   2  15 200.264 416.561   3
  -4   2  16 28073.4 4765.07   2
  -4  -2  16 29447.5 4626.59   2
  -4   2 -16 26874.7 6946.32   4
  -4  -2 -16 24974.7 6579.14   4
  -4   2  16 29868.0 5207.52   3
  -4  -2  16 27607.5 4642.55   7
  -4   2  16 21685.3 4301.19   7
  -4   2  17-1470.84 1094.04   2
  -4   2 -17-26.0276 855.610   4
  -4  -2 -17 776.597 1547.13   4
  -4  -2  17 262.422 273.974   2
  -4   2  17 116.139 508.583   7
  -4  -2  17-814.355 352.253   7
  -4   2  17-405.767 1133.81   3
  -4  -2  18 42285.4 5775.21   2
  -4   2 -18 49430.3 10045.0   4
  -4  -2 -18 43393.2 9155.45   4
  -4   2  18 41192.9 6476.79   3
  -4   2  18 29387.8 5327.04   7
  -4  -2  18 27299.4 4860.78   7
  -4   2 -19 2069.45 1969.54   4
  -4  -2 -19 1572.29 1778.56   4
  -4   2  19-520.389 617.143   7
  -4  -2  19-1159.60 1026.15   7
  -4   2  19-294.138 863.867   3
  -4   2 -20 8778.79 4103.73   4
  -4  -2 -20 10404.5 4583.47   4
  -4   2  20 4612.41 2110.38   7
  -4  -2  20 8074.33 2685.83   7
  -4   2  20 13140.4 3877.40   3
  -4   2  21-957.970 1055.92   3
  -4  -2  21 1504.37 1492.62   7
  -4  -4   0 159656. 8667.43   2
   4  -4   0 160848. 8597.40   1
  -4   4   0 156418. 9643.22   3
   4   4   0 153983. 8873.68   5
  -4   4   0 157737. 10850.9   2
   4   4  -1 12100.7 2751.67   5
  -4   4   1 6314.49 2388.23   2
   4  -4   1 5548.83 1903.71   1
  -4   4  -1 10740.5 2691.92   3
  -4   4   1 7705.12 2377.75   3
   4   4  -1 11619.9 2378.23   6
  -4  -4  -1 6984.56 1997.33   2
  -4  -4   1 7188.13 2161.55   2
   4  -4  -1 7079.08 2154.91   1
   4   4   1 15052.5 2866.19   5
  -4  -4  -2 139397. 7861.94   2
  -4  -4   2 136641. 8272.73   2
   4  -4  -2 136262. 7925.12   1
   4  -4   2 136821. 7996.20   1
  -4   4  -2 132857. 8929.60   3
  -4   4   2 139195. 9257.00   3
   4   4  -2 126497. 7546.35   6
   4   4  -2 127891. 8474.84   5
   4   4   2 138800. 8170.52   5
  -4   4   2 123549. 9589.98   2
  -4   4   3 10319.8 2980.18   2
   4  -4   3 9435.83 2387.84   1
   4  -4  -3 9172.79 2239.73   1
   4   4  -3 14253.1 2741.49   6
  -4   4  -3 10864.6 2678.02   3
  -4   4   3 12361.9 2993.08   3
  -4  -4  -3 10292.8 2235.71   2
  -4  -4   3 10087.8 2494.47   2
   4   4  -3 14631.0 3093.14   5
   4   4   3 16416.5 2877.95   5
   4  -4  -4 227643. 10418.1   1
  -4  -4  -4 230039. 9885.02   2
  -4  -4   4 229768. 11118.9   2
   4  -4   4 238150. 10738.5   1
  -4   4  -4 237451. 12111.7   3
  -4   4   4 231735. 12273.1   3
   4   4  -4 224117. 10906.0   6
   4   4   4 229796. 10207.0   5
  -4   4   4 214882. 12517.3   2
   4   4   5 9455.54 2036.43   5
  -4   4   5 5389.41 2242.91   2
   4   4  -5 4727.68 1819.30   6
  -4   4  -5 5458.58 1965.86   3
   4  -4   5 2774.43 1562.79   1
  -4  -4  -5 4229.87 1399.54   2
  -4   4   5 8374.43 2491.55   3
   4  -4  -5 5923.73 1804.24   1
  -4  -4   5 3925.15 1741.34   2
  -4  -4  -6 65017.8 5126.00   2
  -4  -4   6 66626.9 6155.62   2
   4   4  -6 55713.2 4689.07   1
   4  -4   6 72311.7 6143.38   1
  -4   4  -6 62114.0 6276.92   3
  -4   4   6 63403.4 6697.75   3
   4   4  -6 66096.3 6403.81   6
   4   4   6 64711.3 5336.63   5
  -4   4   6 60821.5 6762.63   2
   4  -4  -6 60623.3 5645.14   1
   4   4   7 5734.28 1652.64   5
   4  -4   7 5137.26 1867.20   1
  -4   4   7 4426.22 1909.92   2
   4  -4  -7 1717.27 1059.30   1
  -4   4  -7 4386.65 1769.46   3
  -4  -4  -7 2499.58 1047.96   2
  -4   4   7 3758.01 1812.14   3
   4   4  -7 5845.81 2116.19   6
  -4  -4   7 3810.36 1699.83   2
  -4  -4  -8 161868. 7912.45   2
  -4  -4   8 163812. 10028.0   2
   4  -4   8 183776. 10231.3   1
  -4   4   8 163509. 11092.8   3
   4   4  -8 160470. 10789.0   6
   4   4   8 181825. 8852.35   5
  -4   4   8 161015. 11119.9   2
  -4   4   9 4031.33 1739.68   2
  -4   4  -9 1724.08 1230.79   5
  -4  -4  -9 2373.05 979.543   2
  -4   4   9 3920.80 1993.44   7
  -4   4   9 5029.91 2078.26   3
   4   4  -9 3994.33 1884.70   6
  -4  -4   9 4397.54 1843.19   2
   4   4   9 4860.33 1537.40   5
  -4   4 -10 48439.8 5027.60   5
  -4  -4 -10 54072.3 4349.72   2
   4   4 -10 61941.0 7172.10   6
  -4  -4  10 56388.6 6077.38   2
  -4   4 -10 58089.7 8065.49   4
  -4   4  10 55430.5 6741.17   3
  -4   4  10 52522.6 6425.43   7
  -4   4  10 56167.7 6652.04   2
  -4   4  11 976.915 988.786   2
  -4   4 -11 242.946 1046.07   4
  -4   4  11 1800.51 1424.58   7
   4   4 -11 1967.30 1495.59   6
  -4   4  11 2837.55 1767.64   3
  -4   4 -11 200.300 291.991   6
  -4  -4  11 591.132 714.416   2
  -4  -4  12 73152.5 7101.76   2
  -4   4 -12 80094.2 10228.0   4
  -4   4  12 83444.1 8623.62   3
  -4   4  12 70080.0 7674.03   7
  -4   4 -12 73708.5 5808.01   6
   4   4 -12 85050.2 9050.15   6
  -4   4  12 80009.4 8246.17   2
  -4   4  13 754.675 904.399   2
  -4  -4  13 165.154 338.691   2
  -4   4 -13 2130.80 1767.26   4
  -4  -4 -13 24.2671 429.488   4
  -4   4  13-551.391 845.971   7
  -4   4  13 1795.92 1202.99   3
  -4  -4  14 36810.6 5249.61   2
  -4  -4 -14 45708.1 7837.72   4
  -4   4 -14 33046.7 7138.92   4
  -4   4  14 37105.4 5952.16   3
  -4   4  14 31044.7 5274.09   7
  -4   4  14 42308.1 6182.81   2
  -4   4  15 1576.39 1163.49   2
  -4  -4 -15 1164.87 1735.47   4
  -4  -4  15-654.630 397.768   2
  -4   4  15 48.7153 663.972   3
  -4  -4  16 43988.7 5948.77   2
  -4  -4 -16 53438.9 9002.27   4
  -4   4 -16 48819.6 9485.70   4
  -4   4  16 48931.0 7075.68   3
  -4   4  16 39653.4 6079.23   7
  -4   4  16 44195.6 6440.74   2
  -4   4 -17-701.351 1695.58   4
  -4  -4 -17 141.880 477.931   4
  -4  -4  17-85.0992 265.041   2
  -4   4  17 496.431 1073.15   7
  -4   4  17-228.005 490.407   3
  -4   4 -18 10147.8 4432.41   4
  -4  -4 -18 13581.4 4797.61   4
  -4  -4  18 11163.3 3134.70   2
  -4   4  18 6479.12 2426.64   7
  -4  -4  18 12086.2 3011.01   7
  -4   4  18 8985.97 3249.16   3
  -4  -4  19 1389.97 1464.11   7
  -4   4 -19 3237.36 2628.92   4
  -4  -4 -19 3691.84 3081.72   4
  -4  -4  19 967.083 928.802   2
  -4   4  19 12.8874 541.790   7
  -4   4  19-2441.71 1663.31   3
  -4  -4 -20 18961.6 5843.63   4
  -4  -4  20 26248.1 4894.56   7
  -4   4  20 18834.1 4798.20   3
  -4   4  21 1392.74 1296.50   3
  -4  -4  21-758.845 852.968   7
   4  -6   0 69789.1 6697.86   1
  -4   6   0 64390.2 7447.15   3
   4   6   0 66557.1 6635.78   5
   4  -6   1 8236.30 2562.98   1
   4   6  -1 16855.4 3627.80   5
   4  -6  -1 6805.70 2612.10   1
  -4   6  -1 8017.09 2925.47   3
  -4   6   1 5803.01 2644.97   3
   4   6   1 20335.8 3904.77   5
   4  -6  -2 139076. 9573.92   1
   4  -6   2 130702. 9076.76   1
  -4   6  -2 121950. 10345.1   3
  -4   6   2 131292. 10547.9   3
   4   6  -2 123338. 9257.51   5
   4   6   2 132920. 9175.60   5
   4   6  -3 13249.2 3442.93   5
   4  -6   3 7360.46 2740.92   1
   4   6   3 13633.9 3154.41   5
   4  -6  -3 6444.06 2332.64   1
  -4   6  -3 6014.48 2743.83   3
  -4   6   3 11485.4 3374.67   3
   4  -6  -4 81712.4 7424.38   1
   4  -6   4 76064.2 7072.37   1
  -4   6  -4 67855.5 7877.13   3
  -4   6   4 71750.2 7784.95   3
   4   6  -4 68048.1 7088.97   5
   4   6   4 76998.1 6859.49   5
   4   6  -5 10779.4 3020.67   5
   4   6   5 11946.9 2931.77   5
   4  -6   5 5696.32 2268.57   1
  -4   6  -5 7761.62 3122.25   3
  -4   6   5 8521.44 3109.61   3
   4  -6  -5 5539.23 2251.28   1
   4   6  -5 11173.1 2975.91   6
   4  -6   6 129760. 9292.72   1
  -4   6   6 125922. 10518.1   3
   4   6  -6 124845. 9742.93   6
   4   6  -6 112371. 9454.61   5
   4   6   6 127715. 8705.30   5
   4  -6  -6 131359. 9804.32   1
   4   6  -7 2850.81 2169.96   5
   4   6   7 7771.94 2256.22   5
  -4   6  -7 6760.12 2486.68   5
   4  -6  -7 1252.88 1210.40   1
   4   6  -7 7640.27 2604.00   6
  -4   6   7 7642.51 2854.53   3
   4  -6   7 4044.48 2141.54   1
  -4   6  -8 39839.1 5674.41   5
  -4  -6  -8 47884.9 4931.65   2
   4  -6   8 45343.9 5704.37   1
  -4   6  -8 39653.9 6017.27   4
  -4   6   8 40965.5 6131.03   3
   4   6  -8 51468.4 6636.68   6
   4  -6  -8 46860.4 5823.78   1
   4   6  -8 45350.9 6228.00   5
   4   6   8 51097.3 5467.33   5
   4  -6   9 3030.73 1914.39   1
   4   6   9 6220.83 2066.27   5
  -4   6  -9 2126.23 1689.52   5
  -4   6  -9 2928.97 1583.12   4
  -4   6   9 4043.52 2015.36   3
  -4  -6  -9 2736.21 1276.39   2
   4   6  -9 4725.24 2186.85   6
   4   6  -9 5624.61 2407.67   5
  -4   6 -10 73066.9 7742.08   5
   4  -6  10 90599.5 8451.99   1
  -4   6 -10 71520.3 8805.97   4
  -4   6  10 78815.2 8735.82   3
  -4   6  10 83029.6 8414.64   7
   4   6 -10 85214.1 9146.42   6
   4   6  10 88886.0 7255.10   5
   4  -6  11 1627.69 1531.66   1
  -4   6 -11 3091.57 1703.99   4
  -4   6  11 6712.00 2816.00   3
  -4   6  11 3040.34 1872.68   7
   4   6 -11 4334.66 2247.61   6
   4  -6  12 29967.5 5059.62   1
  -4  -6 -12 31933.8 5951.86   4
  -4   6 -12 24844.2 5607.59   4
  -4   6  12 26220.7 5149.49   3
  -4   6  12 30308.5 5298.03   7
   4   6 -12 22476.2 5017.05   6
  -4   6 -13 3477.20 2447.15   4
  -4  -6 -13-393.866 664.952   4
   4  -6  13 1775.30 1292.16   1
  -4   6  13 1604.19 1194.10   3
  -4   6  13 1149.73 1040.71   7
   4   6 -13-261.115 744.468   6
  -4  -6  13 129.787 638.967   2
  -4  -6  14 48120.8 6377.34   2
   4  -6  14 54971.9 7193.57   1
  -4   6 -14 47441.4 8256.86   4
  -4  -6 -14 53767.3 8191.53   4
  -4   6  14 55408.6 7782.41   3
  -4   6  14 39143.9 6212.39   7
   4   6 -14 51894.6 8006.64   6
  -4   6 -15 1441.36 1483.13   4
  -4  -6 -15 1505.14 1493.41   4
   4  -6  15 1399.61 1571.84   1
  -4   6  15 2690.46 2073.51   3
  -4   6  15 1213.26 1182.22   7
   4   6 -15 2391.93 2448.26   6
  -4  -6  15 1531.81 1126.49   2
   4  -6  16 31990.8 5811.02   1
  -4   6 -16 24723.7 6379.19   4
  -4  -6 -16 27884.9 6151.29   4
  -4   6  16 19693.6 4967.97   3
  -4   6  16 18940.3 4510.72   7
   4   6 -16 24032.4 5749.42   6
  -4  -6  16 21936.7 4463.66   2
  -4   6 -17-1727.67 1741.33   4
  -4  -6 -17 1589.76 1524.50   4
  -4   6  17 1403.09 1292.24   3
   4  -6  17 1649.95 1338.38   1
  -4   6  17-403.216 925.148   7
  -4  -6  17 891.818 916.860   2
  -4  -6 -18 21204.0 5807.15   4
   4  -6  18 33129.9 6296.12   1
  -4   6  18 21139.7 5182.33   3
  -4   6  18 15898.1 4224.31   7
  -4  -6  18 21578.6 4631.10   2
  -4  -6 -19-678.032 1049.53   4
  -4  -6  19-201.297 458.344   2
   4  -8   0 80755.2 8275.88   1
  -4   8   0 61007.5 8414.78   3
   4   8   0 72460.9 8127.16   5
   4   8  -1 11364.7 3609.26   5
   4   8   1 10350.4 3313.19   5
   4  -8  -1 2270.55 2108.63   1
   4  -8   1 3306.45 2401.68   1
  -4   8  -1 6041.74 3160.48   3
  -4   8   1 842.023 2126.66   3
   4  -8  -2 48835.7 6498.44   1
   4  -8   2 46699.4 6197.77   1
  -4   8  -2 29128.6 5964.19   3
  -4   8   2 34267.3 6297.96   3
   4   8  -2 41211.5 6167.64   5
   4   8   2 43534.7 6158.85   5
   4   8  -3 10526.9 3640.19   5
   4   8   3 14061.4 3802.31   5
   4  -8   3 4736.29 2574.69   1
  -4   8   3 5448.20 3127.05   3
   4  -8  -3 5226.05 2582.80   1
   4  -8  -4 98632.1 9399.64   1
  -4   8  -4 84746.4 8732.86   5
   4  -8   4 97618.9 9002.01   1
  -4   8   4 78594.1 9500.66   3
   4   8  -4 86386.9 9085.64   5
   4   8   4 86147.5 8498.76   5
   4   8  -5 5653.64 2672.22   5
   4   8   5 10322.2 3245.78   5
  -4   8  -5 8092.11 2985.41   5
  -4   8   5 4397.95 2878.75   3
   4  -8  -5 3303.42 1859.03   1
   4  -8   5 4501.75 2472.05   1
  -4   8  -6 38310.9 6101.48   5
   4  -8   6 50453.9 6552.01   1
  -4   8   6 33781.5 6245.28   3
   4   8  -6 35512.6 5816.92   5
   4   8   6 46458.1 6116.02   5
   4  -8  -6 45608.3 6476.21   1
   4   8  -7 6624.91 2780.76   5
   4   8   7 7799.27 2647.29   5
  -4   8  -7 239.573 1325.51   5
   4  -8  -7 583.477 971.121   1
  -4   8   7 3626.93 2219.45   3
   4   8  -7 7356.45 2915.61   6
   4  -8   7 2680.75 1905.53   1
  -4   8  -8 59870.2 8007.84   5
   4  -8   8 66338.1 7703.31   1
  -4   8  -8 52338.6 6637.18   4
  -4   8   8 53588.0 7940.51   3
   4   8  -8 51016.5 7313.79   6
   4  -8  -8 58295.7 7254.91   1
   4   8  -8 48026.9 7120.33   5
   4   8   8 61357.3 6887.59   5
   4   8  -9 3748.13 2036.21   5
   4   8   9 4277.67 1899.47   5
   4  -8   9 632.014 1297.62   1
  -4   8  -9 1492.15 1588.74   5
  -4   8  -9 3071.80 1672.38   4
  -4   8   9 4058.70 2437.66   3
   4   8  -9 3991.13 2074.51   6
   4   8 -10 15442.8 4135.86   5
   4  -8  10 23197.4 4670.85   1
  -4   8 -10 14352.0 3944.06   5
  -4   8 -10 19347.7 4323.79   4
  -4   8  10 16769.8 4606.28   3
   4   8 -10 16011.9 4283.84   6
   4   8 -11 758.001 1339.39   5
   4  -8  11 738.924 1268.32   1
  -4   8 -11-22.9499 472.274   4
  -4   8  11 1755.21 1658.65   3
   4   8 -11 3457.76 2351.44   6
   4  -8  12 44359.8 6694.14   1
  -4   8 -12 44290.7 7122.72   4
  -4   8  12 48649.5 7902.69   3
  -4   8  12 43629.8 6527.60   7
   4   8 -12 48586.6 8024.08   6
   4   8 -12 41006.0 7033.08   5
  -4   8 -13 1677.18 1439.85   4
   4  -8  13 431.175 1186.77   1
  -4   8  13 5149.52 2772.45   3
  -4   8  13 2024.69 1380.96   7
   4   8 -13 242.028 1232.90   6
   4  -8  14 21988.7 4849.74   1
  -4   8  14 17659.8 4809.92   3
  -4   8  14 16760.2 4141.82   7
   4   8 -14 22412.2 5755.78   6
   4  -8  15-1063.62 1074.76   1
  -4   8  15 479.556 802.052   3
  -4   8  15 36.1272 198.108   7
   4   8 -15 1682.09 1604.47   6
  -4   8  16 16499.7 4705.39   3
  -4   8  16 19570.0 4725.57   7
  -4  -8  16 22282.9 4890.73   2
  -4  10   0 36600.2 6279.28   5
   4 -10   0 34731.5 6093.67   1
   4  10   0 29229.5 5923.73   5
   4 -10   1 1455.91 1285.50   1
   4  10  -1 6351.80 3335.51   5
   4  10   1 6702.67 3237.74   5
  -4  10  -1 3312.92 2268.78   5
   4 -10  -1 5441.94 2776.26   1
  -4  10  -2 41391.1 6687.22   5
   4 -10  -2 57177.0 7872.64   1
   4 -10   2 47682.3 7062.05   1
   4  10  -2 41998.2 7270.29   5
   4  10   2 44931.0 7121.26   5
   4  10  -3 3992.03 2916.26   5
   4  10   3 6910.86 3123.33   5
   4 -10   3 2479.79 2154.29   1
  -4  10  -3 4752.87 2553.21   5
  -4  10   3 1811.65 2471.46   3
   4 -10  -3-350.548 1134.96   1
   4  10  -4 20130.9 5026.74   5
   4  10   4 20251.1 4825.63   5
   4 -10   4 25571.1 5252.64   1
  -4  10  -4 20745.0 4948.89   5
  -4  10   4 18904.3 5339.30   3
   4 -10  -4 33035.6 6140.42   1
   4  10  -5 4715.17 2400.69   5
   4  10   5 9940.10 3394.37   5
  -4  10  -5 1836.18 1882.10   5
   4 -10   5 1336.13 1265.98   1
   4 -10  -5 1806.62 1417.44   1
  -4  10   5 3860.53 2894.50   3
  -4  10  -6 45192.1 7596.55   5
   4 -10   6 56231.9 7685.88   1
  -4  10   6 37325.5 7583.66   3
   4  10  -6 48017.4 7768.61   5
   4 -10  -6 59072.9 8132.46   1
   4  10   6 48669.7 7134.53   5
   4  10  -7 5086.04 2953.07   5
   4  10   7 4774.99 2359.78   5
  -4  10  -7 2901.85 2556.46   5
   4 -10  -7 1736.68 1371.00   1
   4 -10   7 834.957 1430.37   1
  -4  10   7 1268.57 1353.88   3
   4  10  -8 9945.24 3676.65   5
   4  10   8 16574.5 4180.80   5
  -4  10  -8 11741.4 3799.84   5
   4 -10  -8 14985.9 4000.98   1
   4 -10   8 14334.4 3927.72   1
  -4  10   8 13353.0 4378.85   3
   4  10  -8 15416.8 4466.67   6
   4  10  -9 745.568 1432.73   5
  -4  10  -9 2216.13 1766.98   5
   4 -10   9 195.709 560.434   1
  -4  10   9 196.534 538.859   3
   4  10  -9 2044.65 2047.04   6
   4  10 -10 20544.9 5408.63   5
  -4  10 -10 23848.5 5892.47   5
  -4  10  10 24405.2 6250.33   3
   4 -10  10 31221.8 5902.86   1
   4  10 -10 26596.8 6231.04   6
   4  10 -11 1732.76 2032.48   5
  -4  10  11 1593.58 1549.63   3
   4 -10  11 1448.77 1698.30   1
   4  10 -11-125.400 434.908   6
   4  12   0 17703.2 4983.23   5
  -4  12   0 14610.3 4429.47   5
   4 -12   0 27502.5 6126.16   1
   4  12  -1 5017.44 3099.05   5
   4  12   1 2191.72 2175.24   5
  -4  12  -1 3671.03 2978.49   5
   4 -12  -1 2426.12 1770.71   1
   4 -12   1 1465.26 1693.39   1
   4  12   2 15342.9 4690.22   5
  -4  12  -2 11118.3 3870.57   5
   4 -12  -2 17740.1 4815.97   1
   4 -12   2 21245.7 5270.54   1
  -4  12  -3 2102.96 1731.61   5
   4 -12  -3 619.627 502.602   1
   4  12   4 28656.0 6281.23   5
  -4  12  -4 23231.8 5871.17   5
   4 -12  -4 27416.1 6068.72   1
   4  12   5 5056.96 2896.84   5
  -4  12  -5 5967.91 3652.14   5
   4 -12  -5 1030.28 1159.28   1
   4  12   6 7444.52 3266.80   5
  -4  12  -6 9819.03 3584.63   5
   4 -12  -6 11051.9 3654.08   1
  -4  12  -7 200.111 979.153   5
   4 -12  -7 834.361 1026.93   1
  -4  12  -8 26496.6 6567.44   5
  -5   1   0-160.664 239.291   2
  -5  -1   0 14.5606 399.849   2
  -5   1  -1 9703.54 2467.27   2
  -5   1   1 7728.75 2208.44   2
  -5  -1  -1 7739.80 2092.37   2
  -5  -1   1 9057.33 2322.42   2
  -5   1  -1 6242.06 1202.28   6
  -5   1  -2 502.508 308.468   6
  -5   1  -2 1726.24 1247.41   2
  -5   1   2-84.8073 154.621   2
  -5  -1  -2 704.642 923.192   2
   5  -1  -2 289.098 374.629   1
  -5  -1   2-121.528 339.812   2
  -5   1  -3 3275.30 1471.56   2
  -5   1   3 2172.01 1107.10   2
  -5  -1  -3 1347.39 839.540   2
  -5  -1   3 3548.37 1489.17   2
  -5   1  -3 1324.73 454.217   6
   5  -1  -3 2698.83 822.613   1
  -5   1  -4 160.701 459.774   2
  -5   1   4 1083.91 917.305   2
  -5  -1  -4 180.384 676.800   2
  -5  -1   4 137.569 699.664   2
  -5   1  -4 201.239 162.583   6
   5  -1  -4 869.268 376.157   1
  -5   1  -5-287.868 174.730   2
   5  -1  -5-50.9433 80.3656   1
  -5  -1  -5 455.339 584.429   2
  -5   1   5-216.273 631.707   2
  -5  -1   5 337.660 863.018   2
   5   1  -5 54.6299 185.671   1
   5   1  -5 27.2412 133.951   1
  -5   1  -5 129.365 196.160   3
  -5   1  -6 1950.74 1374.67   2
  -5  -1  -6 1366.20 1000.83   2
  -5   1   6 1750.28 1274.92   2
   5  -1  -6 543.983 351.023   1
  -5  -1   6 1593.97 1189.02   2
  -5   1  -6 2572.17 1101.99   3
  -5   1  -7-63.8968 529.438   2
  -5  -1  -7-283.566 647.049   2
  -5   1   7 220.827 227.022   2
  -5  -1   7-202.408 400.084   2
  -5   1  -7 555.955 529.539   3
  -5  -1  -8 1772.84 1211.41   2
  -5   1   8 3540.46 1625.59   2
  -5  -1   8 2181.62 1338.44   2
  -5   1  -8 2525.25 1037.62   3
  -5   1  -8 3481.79 1796.72   2
  -5  -1  -9 995.283 751.100   2
  -5   1   9 371.733 401.132   2
  -5  -1   9-53.3913 424.346   2
  -5  -1 -10 2877.25 1460.83   2
  -5   1  10 3031.25 1555.90   2
  -5  -1  10 2709.64 1373.39   2
  -5   1  11 904.588 853.278   2
  -5  -1  11 1602.60 1320.01   2
  -5   1  12 2182.68 1415.65   2
  -5  -1  12 3049.30 1866.00   2
  -5   1  13 1903.70 1170.54   2
  -5  -1  13 1313.19 865.057   2
  -5   1  14 2305.44 1640.85   2
  -5   1 -14 3077.93 2054.91   4
  -5  -1  14 1400.56 1111.39   2
  -5   1  15 1478.62 882.235   2
  -5   1 -15-542.610 1020.58   4
  -5  -1 -15 3169.39 2081.91   4
  -5  -1  15 1608.05 1281.27   2
  -5   1  15 1676.61 1243.35   7
  -5   1  16 2166.01 1362.90   2
  -5   1 -16-863.286 1742.46   4
  -5  -1 -16-2981.59 2426.54   4
  -5  -1  16 888.674 855.466   2
  -5   1  16 2108.68 1487.48   7
  -5   1  17 612.841 739.530   2
  -5   1 -17 3368.09 2757.85   4
  -5  -1 -17 3535.10 2749.74   4
  -5  -1  17-1117.47 977.481   2
  -5   1  17-367.200 519.622   7
  -5   1  17-472.633 1201.03   3
  -5   1  18 1937.50 1544.50   2
  -5   1  18 1267.94 1176.94   3
  -5   1 -18-162.230 1185.22   4
  -5  -1 -18 2132.71 2216.09   4
  -5  -1  18 1977.10 1495.02   2
  -5   1  18 1105.94 751.580   7
  -5  -1  18 3466.15 1798.26   7
  -5   1 -19-2554.57 2583.52   4
  -5  -1 -19-3640.28 2997.47   4
  -5  -1  19 2050.15 1381.21   2
  -5   1  19-110.071 690.451   7
  -5  -1  19 1827.44 1205.94   7
  -5   1  19 1212.82 1296.35   3
  -5   1  20 704.210 507.054   3
  -5   1  21-1972.55 1590.52   3
  -5   3   0 202.772 128.642   2
  -5  -3   0 321.847 493.301   2
   5   3   0-417.471 349.955   6
  -5   3   0 683.746 769.626   3
   5  -3   0 215.499 380.676   1
  -5   3  -1 496.578 453.106   2
  -5   3   1 498.108 604.751   2
   5  -3  -1-62.4798 308.846   1
   5  -3   1 937.915 633.005   1
  -5  -3  -1 222.785 298.406   2
  -5  -3   1 218.967 382.621   2
   5   3   1-179.046 356.131   6
   5   3  -1 393.492 230.625   6
  -5   3  -1 1161.93 890.383   3
  -5   3   1 372.390 674.683   3
   5  -3  -2 838.215 438.891   1
  -5   3  -2 752.713 1068.72   2
  -5   3   2 304.341 673.485   2
   5  -3   2 1065.86 639.619   1
  -5  -3  -2 534.746 521.533   2
  -5  -3   2 844.540 1047.11   2
   5   3   2 315.581 165.439   6
   5   3  -2 1245.50 736.482   6
  -5   3  -2 447.215 727.368   3
  -5   3   2 880.844 886.701   3
  -5   3  -3 5154.26 1996.72   2
  -5   3   3 4014.42 1603.13   2
   5  -3   3 4244.61 1462.31   1
  -5  -3  -3 4689.02 1552.02   2
  -5  -3   3 5593.02 1963.53   2
   5  -3  -3 4219.92 1285.42   1
   5   3   3 4167.66 897.829   6
   5   3  -3 5442.89 1604.29   6
  -5   3  -3 2633.30 1063.03   3
  -5   3   3 5649.47 1890.33   3
  -5   3   4 853.558 871.380   2
   5  -3  -4 1182.32 702.082   1
  -5  -3  -4 564.574 548.366   2
  -5  -3   4 628.200 841.487   2
  -5   3  -4 758.268 990.172   3
   5   3  -4 1069.42 801.497   6
  -5   3   4 1016.76 795.347   3
  -5   3  -4 759.462 834.145   2
   5  -3  -5 5013.23 1364.78   1
  -5   3   5 5234.03 1949.08   2
  -5  -3  -5 4687.72 1553.22   2
  -5  -3   5 7029.78 2181.25   2
  -5   3  -5 7052.88 2060.63   3
  -5   3   5 6380.14 2095.87   3
  -5   3   6 1694.87 1236.22   2
  -5  -3  -6 564.815 635.900   2
  -5   3  -6 1119.22 781.972   3
  -5  -3   6 659.062 501.146   2
   5  -3  -6 154.726 392.187   1
  -5   3   6-76.1586 633.398   3
  -5   3   7 641.432 780.905   2
   5  -3  -7 495.915 427.970   1
  -5  -3  -7-47.0644 453.979   2
  -5   3  -7 2239.33 1117.95   3
  -5  -3   7 357.252 726.845   2
  -5   3   7 169.664 505.971   3
  -5   3   8 427.047 717.318   2
  -5  -3  -8 1623.27 984.292   2
  -5   3  -8 2843.77 1399.06   3
  -5  -3   8 1101.35 1046.42   2
  -5   3   8 3579.98 1893.68   3
  -5   3   9 2189.64 1415.06   2
  -5  -3  -9 1117.07 878.583   2
  -5  -3   9 2253.23 1313.75   2
  -5   3   9 4312.88 2024.21   3
  -5   3  10 3536.47 2061.27   2
  -5  -3  10 1562.56 1188.97   2
  -5   3  10 2484.19 1630.94   3
  -5   3  11 636.592 729.476   2
  -5  -3  11 859.920 714.446   2
  -5   3  11 724.348 995.565   3
  -5   3  12 2407.29 1675.50   2
  -5  -3  12 1805.43 1038.82   2
  -5   3  12 1184.81 1292.65   3
  -5   3  13 1519.39 1383.91   2
  -5   3 -13 2995.58 2211.96   4
  -5  -3  13 1536.24 1157.69   2
  -5   3  13 4464.85 2134.04   3
  -5   3  14 616.178 963.487   2
  -5   3 -14 651.358 1074.50   4
  -5  -3  14 282.052 796.001   2
  -5   3  14 2904.02 2073.29   7
  -5   3  14 1291.82 1389.06   3
  -5   3  15-1401.37 1153.92   2
  -5  -3 -15-439.510 1570.01   4
  -5  -3  15 358.291 550.236   2
  -5   3  15 1159.96 1030.50   7
  -5   3  15 411.131 664.758   3
  -5   3  16 815.524 662.766   2
  -5   3 -16 263.589 1757.56   4
  -5  -3 -16 2363.45 2361.79   4
  -5  -3  16 195.693 413.039   2
  -5   3  16 1604.14 1180.99   7
  -5   3  16 1919.18 1757.82   3
  -5   3  17 4917.81 2318.22   2
  -5   3 -17 6381.57 3792.30   4
  -5  -3 -17 3139.43 2709.08   4
  -5  -3  17 2844.07 1604.33   2
  -5   3  17 2312.53 1339.98   7
  -5   3  17 5755.37 2777.17   3
  -5   3 -18 3386.94 2241.98   4
  -5  -3 -18-543.915 1067.95   4
  -5  -3  18 1596.29 1226.93   2
  -5   3  18 1873.67 1400.78   7
  -5   3  18 429.237 592.347   3
  -5  -3 -19-710.811 1261.30   4
  -5  -3  19-1050.25 1018.88   2
  -5   3  19-865.171 1058.21   3
  -5   3  20 391.602 813.956   3
  -5   5   0 523.453 746.617   3
  -5  -5   0 299.082 614.756   2
   5   5   0 406.732 495.866   6
   5  -5   0-237.200 368.633   1
   5   5   0-502.648 509.146   5
   5  -5   1 3069.33 1257.45   1
  -5   5  -1 1813.76 1392.15   3
   5  -5  -1 2006.72 730.849   1
  -5   5   1 2738.16 1667.84   3
  -5  -5  -1 3716.31 1582.98   2
  -5  -5   1 3096.93 1389.83   2
   5   5  -1 757.333 605.055   6
   5   5   1 2037.26 1098.88   6
   5   5   1 1204.81 649.526   5
   5  -5   2-210.792 402.642   1
   5  -5  -2 536.580 555.566   1
  -5   5  -2-1.27502 703.354   3
  -5   5   2 977.624 1020.47   3
  -5  -5  -2-957.076 752.441   2
  -5  -5   2-5.34931 324.531   2
   5   5  -2 389.342 411.731   6
   5   5   2-1479.00 965.576   5
  -5   5   2-567.229 715.476   2
   5  -5  -3 1359.12 982.957   1
   5  -5   3 1686.92 980.085   1
  -5   5  -3 2112.46 1399.64   3
  -5   5   3 1926.06 1112.27   3
  -5  -5  -3 2409.11 1240.21   2
  -5  -5   3 1728.95 1068.71   2
   5   5  -3 1880.59 1144.62   6
   5   5   3 2074.73 1003.93   5
  -5   5   3 1496.62 1265.50   2
   5  -5  -4 672.705 612.366   1
  -5   5   4-351.354 754.256   2
  -5   5  -4 1091.51 189.418   3
  -5  -5  -4 1139.93 814.840   2
  -5   5   4 28.2630 744.631   3
  -5  -5   4 659.677 465.212   2
   5   5  -4 449.387 700.938   6
   5  -5   4-51.5867 317.206   1
   5   5   4-360.568 989.496   5
   5  -5   5 201.194 299.502   1
  -5   5   5 1105.58 619.573   2
  -5   5  -5 2513.43 1293.18   3
  -5  -5  -5 355.572 512.060   2
  -5   5   5 213.232 332.697   3
  -5  -5   5-168.896 372.060   2
   5   5  -5 615.221 822.168   6
   5  -5  -5 748.198 867.373   1
   5   5   5-913.700 1147.30   5
  -5   5   6 201.005 517.308   2
   5  -5   6 114.497 659.264   1
  -5   5  -6 547.260 550.598   3
  -5  -5  -6-177.931 428.469   2
   5  -5  -6-35.6372 480.956   1
  -5   5   6 287.131 496.667   3
  -5  -5   6 341.430 433.180   2
   5   5  -6-113.980 368.299   6
   5   5   6-634.359 1035.49   5
  -5   5   7 5167.31 2274.81   2
  -5   5  -7 4774.84 2366.07   3
   5  -5  -7 3580.51 1426.08   1
  -5  -5  -7 2630.66 1321.41   2
   5  -5   7 3984.61 1697.46   1
  -5   5   7 4869.18 2299.30   3
  -5  -5   7 4727.41 1885.84   2
   5   5  -7 6235.55 2394.32   6
   5  -5   8 1041.75 1120.27   1
  -5   5   8 571.310 981.066   2
   5  -5  -8 1123.87 811.305   1
  -5  -5  -8 345.127 444.844   2
  -5   5   8 83.8249 829.883   3
  -5  -5   8 357.276 664.156   2
   5   5  -8-805.027 1427.39   6
  -5   5   9 923.860 1190.80   2
  -5   5  -9-1011.05 1443.83   5
   5  -5   9-28.5343 515.836   1
  -5  -5   9 871.211 1005.40   2
  -5   5   9 1837.47 1506.90   3
   5   5  -9 774.005 801.032   6
  -5   5  10 707.345 836.526   2
   5  -5  10-108.040 654.591   1
  -5  -5  10 1112.02 957.865   2
   5   5 -10 1118.72 759.427   6
   5  -5  11 1812.81 1539.82   1
  -5   5  11 2726.34 1922.09   2
  -5   5 -11 1333.57 1339.60   4
  -5  -5  11 1686.43 1380.37   2
  -5   5  11 4151.19 2343.90   3
   5   5 -11 1029.81 878.654   6
  -5   5  12 2723.19 1904.83   2
   5  -5  12 1690.22 1410.66   1
  -5   5 -12-21.8231 1026.51   4
  -5  -5  12 693.683 1151.56   2
   5   5 -12 1832.38 1554.55   6
  -5   5  12 1383.50 1104.66   3
  -5   5  13 1282.74 1590.05   2
  -5   5 -13 1542.19 1078.11   4
   5  -5  13 2056.83 1588.73   1
  -5  -5  13 2816.56 1895.62   2
  -5   5  14 666.922 1390.06   2
  -5   5 -14-676.315 1611.88   4
  -5  -5 -14 583.826 606.241   4
   5  -5  14-220.916 656.718   1
  -5  -5  14-166.413 477.878   2
  -5   5  14-983.490 649.322   3
   5  -5  15 7149.69 2698.89   1
  -5   5  15 5096.77 2644.88   2
  -5   5 -15 5557.99 3608.34   4
  -5  -5 -15 5864.35 3205.20   4
  -5  -5  15 3020.55 1396.48   2
  -5   5  15 5156.45 2233.22   7
  -5   5  15 9007.10 3519.66   3
  -5   5 -16 4753.87 3070.07   4
  -5  -5 -16-1058.72 1585.26   4
  -5  -5  16 474.045 474.556   2
  -5   5  16 2511.69 1628.85   7
  -5   5  16 3373.12 2078.43   3
  -5   5  16 642.223 846.702   2
   5  -5  16 1765.19 1669.40   1
  -5   5 -17 2048.44 2739.83   4
  -5  -5 -17 610.562 1043.23   4
   5  -5  17 2728.84 1852.51   1
  -5  -5  17 864.302 884.065   2
  -5   5  17 1832.99 1383.07   7
  -5   5  17-2230.06 1698.28   3
  -5   5 -18-1052.60 1534.45   4
  -5  -5 -18 5732.30 2940.91   4
  -5   5  18 3803.97 2260.54   3
  -5  -5  19-379.614 647.052   2
   5   7   0-523.322 1203.95   5
   5  -7   0-1.25613 792.585   1
  -5   7   0 809.378 762.236   3
   5   7  -1 1861.25 206.924   5
   5   7   1 1230.75 843.758   5
   5  -7  -1 3164.63 1701.88   1
   5  -7   1 1961.08 783.568   1
  -5   7  -1 2730.27 1849.13   3
  -5   7   1 29.6225 352.379   3
   5   7  -2-1533.95 1288.33   5
   5   7   2-968.618 1361.08   5
   5  -7  -2-548.082 458.268   1
  -5   7  -2 842.069 965.368   3
  -5   7   2-457.949 693.823   3
   5  -7   2 1330.41 1237.62   1
   5   7  -2-35.9924 552.844   6
   5   7  -3-358.759 572.580   5
   5  -7  -3 964.524 672.544   1
   5   7   3-423.579 1429.07   5
  -5   7  -3-854.788 962.836   3
  -5   7   3 962.051 890.403   3
   5  -7   3-539.407 127.731   1
   5   7  -3 1121.43 721.109   6
   5   7  -4-583.272 718.314   5
   5   7   4-955.631 1483.20   5
  -5   7  -4-122.707 89.8267   3
  -5   7   4 235.509 500.801   3
  -5  -7  -4 1119.49 900.733   2
   5   7  -4 193.424 938.735   6
   5  -7  -4 878.370 662.668   1
   5  -7   4-143.354 613.487   1
   5   7  -5 365.483 441.959   5
   5   7   5-101.874 501.341   5
   5  -7   5 1222.55 968.909   1
  -5   7  -5 3367.56 1947.07   3
  -5   7   5-493.252 577.990   3
   5  -7  -5 996.544 972.624   1
  -5  -7  -5 1067.48 876.029   2
   5   7  -5 1362.37 892.724   6
   5   7   6 130.346 666.692   5
   5  -7   6 95.7307 709.140   1
   5  -7  -6-721.912 967.822   1
  -5   7   6 21.6043 152.944   3
  -5  -7  -6 405.511 540.115   2
   5   7  -6-554.330 723.469   6
   5   7  -6 766.569 399.706   5
   5   7   7-563.537 665.682   5
  -5   7  -7 738.543 516.871   5
   5  -7   7 1396.94 879.128   1
   5  -7  -7 1738.74 1249.23   1
  -5   7   7 2945.96 2074.75   3
  -5  -7  -7 345.166 808.520   2
   5   7  -7 1290.05 1085.76   6
   5   7  -7 3058.08 2060.86   5
   5   7   8 179.361 377.173   5
  -5   7  -8 473.559 765.394   5
   5  -7  -8-1182.54 968.826   1
  -5   7  -8-1418.22 1200.01   4
   5  -7   8 211.222 666.927   1
  -5   7   8-9.25805 442.582   3
   5   7  -8-392.249 821.820   6
  -5   7  -9 3356.17 2097.29   5
  -5   7  -9 778.211 1447.51   4
   5  -7   9 2273.14 1647.36   1
  -5   7   9 4987.45 2775.35   3
   5   7  -9 3285.24 2056.95   6
  -5  -7   9 1442.78 1414.18   2
   5  -7  10-312.073 327.991   1
  -5   7  10 991.124 1081.60   3
   5   7 -10 1104.98 1095.37   6
  -5  -7  10 51.1806 198.796   2
  -5   7 -11 1542.23 1408.53   4
  -5   7  11 2256.26 1657.04   3
   5  -7  11 1039.09 1390.16   1
   5   7 -11 1232.95 1658.93   6
  -5  -7  11 303.404 527.445   2
   5  -7  12-375.594 372.438   1
   5   7 -12-92.3104 1172.25   6
  -5  -7  12-928.954 933.939   2
  -5   7 -13 3938.60 2694.08   4
  -5  -7 -13 5449.92 2638.94   4
  -5   7  13 6781.95 2962.88   3
  -5  -7  13 4416.98 2109.80   2
   5   7 -13 6570.84 3051.89   6
   5  -7  13 5174.04 2251.38   1
  -5   7 -14-929.132 1219.69   4
  -5  -7 -14 1177.82 1266.67   4
  -5   7  14 1044.95 1249.00   3
  -5  -7  14-758.849 866.738   2
   5   7 -14-1305.73 1819.14   6
   5  -7  14-640.173 829.734   1
  -5   7 -15-413.126 838.473   4
  -5  -7 -15 2101.35 1941.17   4
  -5   7  15 2856.42 2155.88   3
   5   7 -15 2491.19 1950.73   6
  -5  -7  15-1276.45 1145.32   2
   5  -7  15 692.881 1255.22   1
  -5   7 -16 2144.29 1969.34   4
  -5  -7 -16-927.976 1197.75   4
  -5  -7  16 1663.15 1501.24   2
  -5   7 -17 1352.26 1612.40   4
  -5  -7 -17 2240.20 1918.51   4
   5  -9   0-319.122 985.352   1
  -5   9   0 413.790 752.189   3
   5  -9  -1-281.187 867.704   1
   5   9  -1-281.645 144.646   5
   5   9   1-395.854 1295.39   5
   5  -9   1-115.985 325.766   1
  -5   9  -1 1604.48 1667.02   3
  -5   9   1-1105.46 1228.46   3
   5   9   2 411.023 705.560   5
   5  -9   2-194.608 110.644   1
  -5   9   2 256.568 1120.29   3
   5  -9  -2 179.198 422.868   1
   5   9  -3 1934.23 1826.10   5
   5   9   3 841.623 1050.61   5
   5  -9   3 1830.04 1237.78   1
  -5   9   3 871.481 1236.80   3
   5  -9  -3 2120.32 1745.99   1
   5   9  -4-859.847 1008.70   5
   5   9   4-691.796 868.383   5
  -5   9  -4 1088.37 325.938   5
   5  -9   4-899.011 1297.60   1
  -5   9   4-8.97725 943.713   3
   5  -9  -4 991.575 755.543   1
   5   9  -4 515.433 767.623   6
   5   9  -5-2775.15 1824.11   5
   5   9   5-3397.35 1846.89   5
  -5   9  -5-1985.97 1994.02   5
   5  -9   5-528.641 680.706   1
  -5   9   5 156.595 1134.97   3
   5  -9  -5-1374.10 1192.89   1
   5   9  -5-34.1972 761.730   6
   5   9  -6 115.233 886.868   5
  -5   9  -6-158.996 778.851   5
   5  -9  -6 5.19347 73.5326   1
  -5   9   6-1053.62 1198.24   3
   5  -9   6 782.851 883.671   1
   5   9  -6-257.352 524.115   6
   5   9  -7-2861.74 1881.70   5
   5   9   7 1420.19 1176.06   5
  -5   9  -7 1299.35 1226.47   5
   5  -9  -7 317.831 568.461   1
  -5   9   7 692.456 658.778   3
   5  -9   7 1.67552 1051.61   1
   5   9  -7 2180.02 2082.40   6
   5   9  -8-1250.64 1256.30   5
  -5   9  -8 816.253 1041.92   5
  -5   9   8 2392.65 1697.92   3
   5  -9   8 481.620 473.852   1
   5   9  -8-1086.71 733.461   6
  -5   9   9 1495.58 1456.63   3
   5  -9   9 1369.36 1297.31   1
   5   9  -9 333.274 642.136   6
   5   9  -9-768.160 995.618   5
  -5   9  10 1478.14 1532.93   3
   5   9 -10-75.7068 205.445   6
   5  -9  10 1177.42 1486.46   1
   5  -9  11 4727.65 2292.34   1
  -5   9  11 6880.61 3570.83   3
   5   9 -11 1959.96 1580.52   6
   5   9 -12-1384.22 1414.41   6
   5  11   0-3911.21 2340.13   5
  -5  11   0-1933.35 1534.24   5
   5 -11   0 593.274 845.653   1
   5 -11   1 3229.05 1867.36   1
   5  11  -1-769.043 717.788   5
   5  11   1 2751.30 1925.02   5
  -5  11  -1 88.2253 737.780   5
  -5  11   1 919.772 792.588   5
   5 -11  -1 2177.83 1628.17   1
   5 -11   2-448.230 559.161   1
   5  11  -2-1652.17 1549.20   5
   5  11   2-3849.19 2269.50   5
  -5  11  -2 2171.99 1627.43   5
   5 -11  -2 638.764 886.842   1
   5  11  -3-3008.45 2102.79   5
   5  11   3-3257.93 2064.97   5
   5 -11   3-1072.50 1133.93   1
  -5  11  -3-1750.09 1508.00   5
   5 -11  -3 538.206 820.128   1
   5  11   4-1365.62 1482.80   5
   5 -11   4 1040.40 1119.95   1
  -5  11  -4-703.727 655.362   5
   5 -11  -4-2064.94 1608.62   1
   5  11   5 1382.61 1314.84   5
  -5  11  -5-2050.28 1683.50   5
   5 -11  -5 2147.98 1642.92   1
   5  11  -5 2089.55 1687.11   6
   5  11   6-256.246 559.827   5
  -5  11  -6-1880.85 1640.02   5
   5 -11  -6 2106.22 1611.77   1
   5  11  -6-685.519 968.989   6
  -5  11  -7-480.835 857.178   5
   5 -11  -7-667.219 893.983   1
   5  11  -7-552.600 588.088   6
  -5  11  -8-604.915 961.587   5
  -6   0   0 167019. 11067.8   2
  -6   0  -1 396.666 168.313   2
  -6   0   1-18.9897 324.110   2
  -6   0  -2 69924.0 7129.83   2
  -6   0   2 65284.7 6997.99   2
  -6   0  -3-858.636 1006.40   2
  -6   0   3-147.633 303.668   2
  -6   0  -4 87984.7 8017.34   2
  -6   0   4 93905.6 8535.71   2
   6   0  -4 92786.3 4623.65   1
  -6   0  -5 420.199 414.288   2
  -6   0   5-48.3217 527.380   2
  -6   0   6 51696.5 6410.89   2
  -6   0  -6 55256.8 6511.30   2
  -6   0  -7-409.018 210.272   2
  -6   0   7-216.004 212.955   2
  -6   0   8 102622. 9198.40   2
  -6   0  -8 104228. 9293.50   2
  -6   0  -9 300.928 496.420   2
  -6   0   9-111.673 243.138   2
  -6   0  10 30088.1 5035.62   2
  -6   0 -10 29748.9 5070.69   2
  -6   0  11-1045.59 909.875   2
  -6   0  12 50318.6 6749.39   2
  -6   0  13-108.766 828.393   2
  -6   0  14 12895.6 3582.45   2
  -6   0  15 530.227 708.320   2
  -6   0 -15-916.728 1721.07   4
  -6   0  16 24312.4 4931.15   2
  -6   0 -16 23611.8 7061.18   4
  -6   0  17-801.100 897.639   2
  -6   0 -17 1830.08 2079.03   4
  -6   0  18 13942.3 3905.19   2
  -6  -2   0 75881.4 7355.51   2
   6  -2   0 75492.3 5645.01   1
  -6   2   0 81729.7 7104.62   3
  -6   2   0 75464.6 7976.18   2
   6  -2  -1 977.862 663.228   1
  -6   2  -1 1298.49 1263.71   2
  -6   2   1 1544.41 1255.64   2
  -6  -2  -1 1531.00 1275.22   2
  -6  -2   1 63.2493 986.701   2
   6  -2   1 2162.53 1115.85   1
  -6   2  -1 1542.50 1234.15   3
  -6   2   1 1815.90 1205.60   3
  -6   2   2 109902. 9476.68   2
  -6  -2  -2 121217. 9154.75   2
  -6  -2   2 119509. 9352.21   2
   6  -2  -2 126332. 7096.83   1
  -6   2  -2 116273. 8295.50   3
  -6   2   2 129434. 9270.61   3
  -6   2  -2 116492. 9887.03   2
   6  -2  -3 325.481 328.576   1
  -6   2  -3 404.921 766.481   2
  -6  -2  -3 709.352 959.101   2
  -6  -2   3 156.119 822.513   2
  -6   2  -3-716.826 267.457   3
  -6   2   4 49690.3 6438.06   2
  -6  -2  -4 47340.7 5693.83   2
  -6  -2   4 54264.4 6390.15   2
   6  -2  -4 50846.3 4311.76   1
  -6   2  -4 54490.5 5602.18   3
  -6   2  -4 53603.5 6998.23   2
  -6   2  -5 1386.64 1184.14   2
  -6   2   5 225.324 427.595   2
  -6  -2  -5 1047.80 914.325   2
  -6  -2   5 822.101 830.040   2
  -6   2  -5 922.951 906.036   3
  -6   2   6 111968. 9792.50   2
  -6  -2  -6 100819. 8374.97   2
  -6  -2   6 105789. 9155.73   2
  -6   2  -6 115018. 8043.21   3
  -6   2  -6 108357. 10069.6   2
  -6   2   7 1012.20 1021.51   2
  -6  -2  -7-4.54947 189.174   2
  -6  -2   7 1138.82 1347.57   2
  -6   2  -7 91.1889 131.545   3
  -6   2  -7-162.964 209.918   2
  -6  -2  -8 33344.2 4846.80   2
  -6   2   8 33990.8 5421.70   2
  -6  -2   8 34617.0 5350.50   2
  -6  -2  -9-249.005 1025.69   2
  -6   2   9 44.7081 945.716   2
  -6  -2   9-124.287 661.907   2
  -6   2  10 70064.5 8015.41   2
  -6  -2  10 82832.6 8503.36   2
  -6   2  10 76394.4 8208.99   3
  -6   2  11 2033.69 1388.01   2
  -6  -2  11 920.135 1106.11   2
  -6   2  11 228.771 382.830   3
  -6   2  12 27459.3 5144.28   2
  -6  -2  12 26989.0 4921.16   2
  -6   2  12 30755.4 5435.88   3
  -6   2  13-516.656 693.125   2
  -6  -2  13-147.324 368.740   2
  -6   2  14 35121.9 5937.94   2
  -6  -2  14 34822.2 5842.42   2
  -6   2 -14 29242.9 7854.65   4
  -6   2  14 33014.7 5955.98   3
  -6   2  15-2217.83 1499.28   2
  -6   2 -15 2562.99 2176.45   4
  -6  -2  15 664.256 803.522   2
  -6   2  15-120.460 589.897   3
  -6   2  16 9281.40 3004.94   2
  -6   2 -16 13340.5 5526.67   4
  -6  -2 -16 15581.7 5566.13   4
  -6  -2  16 11578.6 3323.47   2
  -6   2  16 13878.1 3970.25   3
  -6   2  17-2769.75 1734.81   2
  -6   2 -17-405.886 829.098   4
  -6  -2 -17-83.7092 428.047   4
  -6  -2  17 1207.76 1323.34   2
  -6   2  17 2690.53 1798.45   3
  -6   2  18 16876.5 4363.70   2
  -6  -2  18 18196.6 4490.26   2
  -6   2  18 24175.8 5549.59   3
  -6  -2  19 569.055 791.329   2
  -6  -4   0 88910.5 8082.86   2
   6  -4   0 86945.1 7046.87   1
  -6   4   0 89006.3 8381.23   3
   6   4   0 80837.8 6140.73   6
  -6   4   0 80268.3 9011.05   2
   6  -4  -1 1979.07 1461.14   1
  -6   4  -1 3777.54 2093.93   2
  -6   4   1 3045.97 1965.79   2
   6  -4   1 1940.01 1240.29   1
  -6  -4  -1 2562.99 1569.26   2
  -6  -4   1 1021.91 1138.45   2
   6   4   1 5483.66 1609.90   6
   6   4  -1 4228.93 1611.04   6
  -6   4  -1 2992.10 1598.08   3
  -6   4   1 2689.94 1608.14   3
  -6  -4  -2 56773.9 6442.41   2
  -6  -4   2 54691.1 6385.01   2
   6  -4  -2 59592.6 5761.77   1
   6  -4   2 64945.8 6144.77   1
  -6   4  -2 54404.3 6484.13   3
  -6   4   2 66861.1 7379.95   3
   6   4  -2 56080.4 5535.04   6
  -6   4  -2 60431.3 7889.54   2
  -6   4   2 53695.3 7387.41   2
   6  -4   3 4293.67 1879.28   1
  -6   4   3 4379.71 2329.86   2
   6  -4  -3 2615.67 1378.30   1
  -6  -4  -3 3686.48 1865.98   2
  -6  -4   3 3446.25 1946.50   2
  -6   4  -3 4863.41 2211.04   3
  -6   4   3 4852.35 2027.80   3
  -6  -4  -4 100981. 8464.89   2
  -6  -4   4 91966.5 8540.06   2
   6  -4  -4 94706.1 7156.19   1
   6  -4   4 100313. 7927.01   1
  -6   4  -4 89228.3 8275.52   3
  -6   4   4 93838.3 9028.83   3
  -6   4   4 85186.7 9394.73   2
  -6   4   5 1849.93 1907.03   2
   6  -4   5 2353.56 1347.88   1
  -6  -4  -5 340.839 485.807   2
  -6  -4   5 1351.75 1032.90   2
  -6   4  -5 2439.38 1355.05   3
  -6   4   5 2018.77 1509.14   3
  -6  -4  -6 29648.0 4606.94   2
  -6  -4   6 29345.4 4874.00   2
   6  -4   6 31220.4 4599.05   1
  -6   4  -6 28766.7 4705.06   3
  -6   4   6 30688.0 5208.85   3
  -6   4   6 27857.6 5297.24   2
  -6   4   7 1153.10 879.841   2
  -6  -4  -7 1989.96 1288.92   2
  -6  -4   7 2143.09 1401.56   2
  -6   4   7 1382.03 1303.43   3
   6  -4   7 2354.18 1420.94   1
  -6  -4  -8 90696.6 8080.11   2
  -6  -4   8 85336.1 8611.81   2
   6  -4   8 96165.2 8417.12   1
  -6   4   8 96425.9 9766.72   3
  -6   4   8 80901.5 9351.52   2
  -6   4   9 2847.05 1702.41   2
   6  -4   9 3107.80 1640.42   1
  -6  -4   9 1341.03 1274.36   2
  -6   4   9-558.214 451.480   3
  -6  -4  10 29154.9 5158.01   2
  -6   4  10 23697.3 5043.17   2
  -6   4  10 29644.8 5503.78   3
  -6   4  11 901.841 1276.59   2
  -6  -4  11-718.164 605.634   2
  -6   4  11 378.950 848.264   3
  -6  -4  12 35694.8 5857.15   2
  -6   4  12 40703.5 6729.51   3
  -6   4  12 35595.5 6390.79   2
  -6   4  13 300.618 581.012   2
  -6   4 -13-1347.24 1752.76   4
  -6  -4  13 2458.19 1551.87   2
  -6   4  13 1239.20 1160.49   3
  -6   4  14 17540.8 4524.84   2
  -6   4 -14 17373.0 5797.78   4
  -6  -4  14 17690.0 4141.17   2
  -6   4  14 26514.7 5640.18   3
  -6   4  15 2044.19 1539.50   2
  -6   4 -15 205.777 656.983   4
  -6  -4 -15 910.962 1965.91   4
  -6  -4  15-17.1158 450.120   2
  -6   4  15 513.154 1667.29   3
  -6   4  16 26014.4 5696.41   2
  -6   4 -16 21169.1 7156.81   4
  -6  -4 -16 26570.9 7201.65   4
  -6  -4  16 24771.4 5193.00   2
  -6   4  16 29831.8 6350.58   3
  -6   4  17-920.948 1711.62   2
  -6  -4  17-122.336 366.520   2
  -6  -6   0 36040.0 5436.10   2
   6  -6   0 31231.1 4740.31   1
  -6   6   0 26243.8 5061.26   3
   6   6   0 22142.8 3597.43   6
   6  -6  -1 1667.11 1320.21   1
  -6   6  -1 4865.51 2485.71   3
  -6   6   1 4549.11 2539.65   3
  -6  -6  -1 5215.85 2336.07   2
  -6  -6   1 2767.73 2066.20   2
   6  -6   1 1326.62 1594.77   1
   6   6  -1 5424.53 2083.69   6
  -6  -6  -2 70922.3 7570.84   2
  -6  -6   2 76512.6 8058.23   2
   6  -6  -2 63679.8 6924.54   1
   6  -6   2 64868.7 6923.02   1
  -6   6  -2 63056.7 8077.34   3
  -6   6   2 61341.6 7943.17   3
   6   6  -2 54725.9 6031.41   6
   6  -6   3 3802.36 2148.64   1
   6  -6  -3 2603.52 1868.77   1
  -6   6  -3 6607.24 2633.11   3
  -6  -6  -3 5190.73 2205.63   2
  -6   6   3 6455.84 2899.70   3
  -6  -6   3 3996.67 2323.42   2
   6   6  -3 5158.03 2054.19   6
   6  -6  -4 35346.0 5160.55   1
  -6  -6  -4 44740.4 6013.91   2
  -6  -6   4 36619.1 5680.18   2
   6  -6   4 40950.5 5554.49   1
  -6   6  -4 41181.1 6496.12   3
  -6   6   4 42135.7 6654.30   3
   6   6  -4 36121.9 5190.57   6
   6  -6   5 2620.71 1910.05   1
  -6   6  -5 2261.57 1729.90   3
  -6  -6  -5 3805.86 1851.49   2
  -6   6   5 4257.10 2337.02   3
  -6  -6   5 3073.24 1833.64   2
   6   6  -5 4836.65 2274.79   6
   6  -6  -5 4656.81 2059.48   1
  -6  -6  -6 65570.3 7308.59   2
  -6  -6   6 60378.7 7505.60   2
   6  -6   6 70453.3 7542.12   1
  -6   6  -6 51984.3 7426.29   3
  -6   6   6 56823.8 7884.04   3
   6   6  -6 60384.9 7231.21   6
  -6  -6  -7 1485.78 1275.13   2
  -6   6   7 2647.60 2155.48   3
  -6  -6   7 2625.46 1817.59   2
   6  -6   7 149.747 1309.91   1
   6   6  -7 2394.41 1760.78   6
  -6  -6   8 17812.1 4185.53   2
  -6   6   8 20759.9 4875.00   3
   6   6  -8 14111.7 3684.40   6
   6  -6   8 16539.0 3901.92   1
  -6   6   8 18159.6 4726.40   2
   6  -6   9 2530.89 1566.46   1
  -6  -6   9 867.505 1147.44   2
  -6   6   9 2006.23 1864.27   3
   6   6  -9 1115.63 1512.94   6
  -6   6   9 600.093 655.592   2
  -6  -6  10 40014.3 6295.81   2
   6  -6  10 48451.9 6825.52   1
  -6   6  10 38625.1 6858.77   3
   6   6 -10 44824.2 7086.26   6
  -6   6  10 38413.0 7001.05   2
   6  -6  11 546.967 973.262   1
  -6   6 -11 2885.49 2159.61   4
  -6  -6  11 1175.12 1090.00   2
  -6   6  11 617.382 1633.73   3
   6   6 -11 2796.64 2005.85   6
  -6   6  11 323.290 632.740   2
   6  -6  12 20507.3 4647.11   1
  -6   6 -12 13568.0 4603.04   4
  -6  -6  12 14872.0 3852.04   2
  -6   6  12 16434.7 4544.18   3
  -6   6  12 20946.0 5165.70   2
  -6   6 -13 1423.28 1571.99   4
   6  -6  13 1241.36 1298.79   1
  -6  -6  13 604.805 1127.63   2
  -6   6  13-2222.11 1723.25   3
   6  -6  14 36838.5 6475.98   1
  -6   6 -14 33010.7 7780.96   4
  -6  -6  14 28880.5 5660.06   2
  -6   6  14 31669.2 6817.02   3
  -6   6 -15 1763.56 1882.16   4
  -6  -6 -15 5869.13 3133.39   4
  -6   6 -16 10251.5 4702.57   4
  -6  -6 -16 12424.8 4961.46   4
   6  -8   0 48899.4 6749.20   1
  -6  -8   0 52584.5 7235.46   2
  -6   8   0 34346.5 6645.85   3
   6   8   0 40965.0 6686.43   5
   6   8   1 6413.21 2921.06   5
   6  -8  -1 3665.59 2309.60   1
   6  -8   1 1794.59 1525.92   1
  -6   8  -1 3645.70 2178.68   3
  -6   8   1 6699.98 2928.46   3
  -6  -8  -1 2924.09 1960.78   2
  -6  -8   1 5026.26 2530.47   2
   6   8  -1 7625.39 2722.75   6
   6   8  -1 8140.68 2976.36   5
   6   8   2 18612.2 4492.69   5
   6  -8  -2 19321.1 4290.86   1
   6  -8   2 14742.0 3715.64   1
  -6   8  -2 18102.8 4986.58   3
  -6   8   2 14816.5 4303.65   3
  -6  -8  -2 26838.2 5104.62   2
  -6  -8   2 28698.0 5404.39   2
   6   8  -2 17043.3 3766.82   6
   6   8  -2 16316.8 4314.62   5
   6   8   3 8487.76 3239.09   5
  -6   8  -3 3277.23 2089.81   3
   6  -8   3 1727.97 1890.73   1
  -6   8   3 5353.41 2634.13   3
  -6  -8  -3 3067.14 1960.14   2
  -6  -8   3 2066.59 1516.37   2
   6   8  -3 2220.58 1372.64   6
   6   8  -3 8071.73 3418.28   5
   6  -8  -3 4207.75 2296.81   1
   6  -8  -4 53629.3 7278.46   1
  -6  -8  -4 48073.4 6780.35   2
  -6  -8   4 47413.1 7230.36   2
   6  -8   4 38511.8 6083.27   1
  -6   8  -4 40311.1 7361.37   3
  -6   8   4 32014.2 6499.84   3
   6   8  -4 39302.5 6080.25   6
   6   8   4 39823.7 6469.81   5
   6   8   5 5962.06 2566.04   5
  -6   8   5 2590.11 2370.28   3
  -6  -8  -5 3582.32 1854.12   2
   6  -8   5 1742.45 1654.57   1
  -6  -8   5 1768.11 1720.24   2
   6   8  -5 3490.34 2000.84   6
  -6   8   6 23055.3 5600.68   3
  -6  -8  -6 27506.1 5181.28   2
  -6  -8   6 27470.3 5514.47   2
   6   8  -6 12052.3 3553.20   6
   6  -8   6 25534.7 5080.10   1
   6   8   6 21094.8 4724.86   5
   6  -8   7 1367.15 995.853   1
  -6   8  -7 2638.38 1660.13   5
  -6   8   7 5991.95 3088.70   3
  -6  -8   7 837.518 1171.08   2
   6   8  -7 2733.69 1835.56   6
  -6  -8   8 37771.6 6557.84   2
   6  -8   8 33135.9 5957.84   1
  -6   8   8 34744.3 6946.41   3
   6   8  -8 27815.7 5647.48   6
   6  -8   9 2543.05 1808.26   1
  -6   8   9 1299.19 1404.40   3
  -6  -8   9 349.568 882.999   2
   6   8  -9 3046.15 1700.00   6
   6  -8  10 8231.64 2921.87   1
  -6   8  10 8944.21 3695.97   3
  -6  -8  10 12448.7 3727.47   2
   6   8 -10 5830.90 2732.89   6
   6   8 -11 1127.11 1219.18   6
   6   8 -12 20976.2 5437.97   6
   6  10   0 12549.7 4208.64   5
   6 -10   0 16562.0 4607.66   1
  -6  10   0 9574.51 3964.33   3
   6  10  -1 4423.98 3050.39   5
   6  10   1 5920.68 2813.11   5
   6 -10   1 3795.95 2078.96   1
  -6  10   1 2408.86 1984.62   3
  -6 -10  -1 3121.44 2156.04   2
   6 -10  -1 3587.12 2132.61   1
   6  10  -2 23700.4 5814.39   5
   6  10   2 20520.1 5223.75   5
   6 -10   2 23601.6 5127.68   1
  -6  10   2 19812.6 5828.01   3
   6 -10  -2 30098.0 5889.57   1
  -6 -10  -2 27700.4 5627.81   2
   6  10  -3 4960.49 2673.76   5
   6  10   3 3353.54 2456.62   5
   6 -10   3-1052.72 1088.04   1
  -6  10  -3 3597.35 2090.42   5
  -6  10   3 3985.68 2549.33   3
   6 -10  -3 1092.81 1130.47   1
  -6 -10  -3 332.025 608.593   2
   6  10  -3 6033.68 2703.28   6
   6  10   4 6871.78 3089.01   5
  -6  10  -4 13596.8 4072.51   5
   6 -10   4 13499.9 3937.58   1
  -6  10   4 10285.4 4030.09   3
   6 -10  -4 10945.5 3464.71   1
  -6 -10  -4 16577.5 4233.83   2
   6  10  -4 9420.95 3330.54   6
   6  10   5 4481.36 2784.65   5
  -6  10  -5 5239.04 2668.16   5
   6 -10   5 1213.52 1175.44   1
   6  10  -5 4694.91 2392.44   6
  -6  10  -6 23617.3 5534.32   5
   6  10  -6 21984.7 5283.17   6
   6  10  -7 4943.61 2610.36   6
   6  10  -8 4372.57 2447.20   6
  -7   1   0-272.692 324.802   2
  -7  -1   0 810.960 835.938   2
  -7   1  -1 3866.97 1994.77   2
  -7   1   1 3798.21 2167.55   2
  -7  -1  -1 2621.39 1496.62   2
  -7  -1   1 3496.98 1534.67   2
   7  -1  -1 4301.11 1256.40   1
  -7   1  -2-521.406 1035.12   2
  -7   1   2 544.070 310.087   2
  -7  -1  -2 185.191 270.767   2
  -7  -1   2-402.461 534.749   2
  -7   1  -3 1701.45 1212.73   2
  -7   1   3 1343.76 1058.80   2
  -7  -1  -3 2626.92 1458.02   2
  -7  -1   3 1553.32 1090.40   2
  -7   1  -3 897.204 751.156   3
  -7   1  -4 1498.80 1237.67   2
  -7   1   4 305.560 565.153   2
  -7  -1  -4-1058.70 951.212   2
  -7  -1   4 133.562 869.345   2
  -7   1  -4 1044.17 820.241   3
  -7   1  -5 275.002 504.926   2
  -7  -1  -5 1590.50 1195.26   2
  -7   1   5-269.787 889.717   2
  -7  -1   5 906.076 949.545   2
  -7   1  -5-236.883 228.628   3
  -7   1  -6 582.344 1024.15   2
  -7  -1  -6 901.678 886.623   2
  -7   1   6 78.1555 683.119   2
  -7  -1   6 735.402 878.172   2
  -7   1  -7-20.7576 146.950   2
  -7  -1  -7-222.641 654.760   2
  -7   1   7-4.86634 79.5598   2
  -7  -1   7 646.628 660.532   2
  -7   1  -8 1398.80 1427.79   2
  -7  -1  -8 2047.36 1389.86   2
  -7   1   8 1606.55 1549.82   2
  -7  -1   8 836.377 886.095   2
  -7   1   9 1572.82 1189.65   2
  -7  -1   9 213.507 1002.47   2
  -7   1  10 802.659 868.630   2
  -7  -1  10 630.455 1129.86   2
  -7   1  11 1136.08 671.516   2
  -7  -1  11 1417.36 1332.70   2
  -7   1  12 1527.88 1271.78   2
  -7  -1  12 1459.69 1238.06   2
  -7   1  13-112.771 1013.45   2
  -7  -1  13 946.884 1044.69   2
  -7   1  14 1012.08 740.167   2
  -7  -1  14-172.015 435.096   2
  -7   1  15 866.706 641.048   2
  -7  -1  15 698.789 654.297   2
  -7   1  15 1075.66 255.271   3
  -7   1  16-1765.54 1424.37   2
  -7  -1  16-1919.89 1488.88   2
  -7   3   0-123.216 358.608   2
  -7  -3   0 243.947 348.371   2
   7  -3   0-1063.18 760.622   1
  -7   3   0-473.936 615.132   3
   7  -3   1 872.656 725.344   1
  -7   3  -1-77.4583 1037.02   2
  -7   3   1-111.578 339.396   2
   7  -3  -1 139.392 588.941   1
  -7  -3  -1 601.345 718.729   2
  -7  -3   1-337.068 399.943   2
  -7   3  -1 1785.85 1362.44   3
  -7   3   1 1041.65 797.237   3
  -7   3  -2 641.399 1287.73   2
  -7   3   2-1899.43 1401.92   2
  -7  -3  -2 644.934 743.925   2
  -7  -3   2-25.0695 418.632   2
   7  -3   2 655.394 805.017   1
  -7   3  -2 737.692 597.309   3
  -7   3   2-613.451 337.130   3
  -7   3  -3 2131.14 1327.77   2
  -7   3   3 1866.28 1742.57   2
   7  -3   3 2210.75 1125.04   1
  -7  -3  -3 2814.71 1562.50   2
  -7  -3   3 3131.80 1894.06   2
  -7   3  -3 3463.41 1483.80   3
  -7   3   3 3262.50 1721.52   3
  -7   3  -4 1320.83 860.786   2
  -7   3   4 1144.82 902.634   2
   7  -3   4 214.301 553.669   1
  -7  -3  -4-320.646 523.064   2
  -7  -3   4 629.290 754.823   2
  -7   3  -4 201.783 448.851   3
  -7   3   4 475.829 646.286   3
  -7   3   5 6458.30 2605.87   2
  -7  -3  -5 3518.59 1737.96   2
  -7  -3   5 4094.24 1971.80   2
  -7   3  -5 4700.04 1888.77   3
   7  -3   5 4563.72 1750.36   1
  -7   3   5 4199.04 1858.57   3
  -7   3  -5 2604.95 1738.25   2
  -7   3   6 174.534 200.758   2
  -7  -3  -6 405.657 337.058   2
  -7  -3   6 966.662 642.695   2
  -7   3   6-533.714 552.454   3
  -7   3   7-157.451 1052.03   2
  -7  -3  -7-393.966 587.976   2
  -7  -3   7 1.60779 822.348   2
  -7   3   7-339.099 905.444   3
  -7   3   8-687.525 861.533   2
  -7  -3   8-60.8526 245.336   2
  -7   3   8 856.281 1461.93   3
  -7   3   9 2154.79 1521.33   2
  -7  -3   9 660.977 1235.99   2
  -7   3   9 2636.89 1588.71   3
  -7   3  10 1346.91 1277.03   2
  -7  -3  10 1199.90 1426.51   2
  -7   3  10 864.739 1154.08   3
  -7   3  11 218.579 497.694   2
  -7  -3  11 1764.84 1524.13   2
  -7   3  11-663.680 1305.15   3
  -7   3  12 186.055 463.275   2
  -7  -3  12-2157.48 1537.63   2
  -7   3  12 1799.37 1710.62   3
  -7   3  13 1440.48 1432.35   2
  -7  -3  13 744.165 912.477   2
  -7   3  13 2333.01 1659.23   3
  -7   3  14 448.637 738.416   2
  -7  -3  14 389.655 198.732   2
  -7   3  14 2049.71 1591.95   3
  -7   3  15-1100.55 1169.04   2
  -7  -3  15 1008.81 1265.14   2
  -7   3  16-551.490 837.144   2
  -7  -5   0-1016.29 1083.65   2
  -7   5   0 1384.33 1748.42   3
   7  -5   0 46.2790 179.447   1
   7  -5   1-5.83032 553.020   1
  -7  -5  -1-71.5630 1361.24   2
  -7  -5   1 985.282 980.445   2
   7  -5  -1 1622.08 1077.59   1
  -7   5  -1 3541.56 1855.06   3
  -7   5   1 319.429 2686.85   3
  -7   5   1 1565.19 1376.13   2
  -7   5   2-226.746 523.099   2
   7  -5   2-398.430 619.137   1
  -7  -5  -2-314.351 574.170   2
  -7  -5   2-812.087 1077.07   2
  -7   5  -2 50.3193 857.462   3
  -7   5   2-245.329 496.219   3
  -7   5   3 1746.38 1646.07   2
   7  -5   3 1493.18 1065.69   1
  -7  -5  -3 1982.74 1274.47   2
  -7  -5   3-402.097 618.724   2
  -7   5  -3 953.913 1244.59   3
  -7   5   3 1347.90 1172.35   3
  -7   5   4 1442.34 1317.24   2
  -7  -5  -4-336.218 554.635   2
  -7  -5   4-37.1383 358.578   2
  -7   5  -4 931.777 959.629   3
   7  -5   4 132.479 343.518   1
  -7   5   4 1978.57 1479.32   3
  -7   5   5 376.029 677.982   2
  -7  -5  -5 295.171 522.404   2
  -7  -5   5 18.1444 134.162   2
  -7   5   5 49.6392 839.661   3
   7  -5   5 1633.24 1273.16   1
   7  -5   6 1917.38 1424.10   1
  -7   5   6-41.0515 225.111   2
  -7  -5  -6-546.384 399.693   2
  -7  -5   6-1379.27 1182.65   2
  -7   5   6 415.415 1185.54   3
  -7   5   7 4272.03 2243.28   2
   7  -5   7 3852.09 1866.63   1
  -7  -5   7 2342.32 1473.32   2
  -7   5   7 3848.42 2005.83   3
  -7   5   8-971.335 1103.47   2
   7  -5   8-7.18574 649.866   1
  -7  -5   8 109.172 542.787   2
  -7   5   8 699.736 901.909   3
  -7   5   9 1370.91 1171.66   2
  -7  -5   9-312.758 386.801   2
   7  -5   9 1317.84 1355.06   1
  -7   5   9-783.798 756.124   3
   7  -5  10-335.550 418.055   1
  -7   5  10 1878.96 1561.31   2
  -7  -5  10-88.8930 987.733   2
  -7   5  10-280.110 997.483   3
  -7   5  11 3719.79 2211.82   2
   7  -5  11 1251.31 1116.06   1
  -7  -5  11 2471.30 1745.28   2
  -7   5  11 5643.12 2687.80   3
  -7   5  12 1041.94 1181.14   2
   7  -5  12-80.4160 191.727   1
  -7  -5  12-217.461 501.678   2
  -7   5  12-303.818 634.245   3
  -7   5  13 2164.63 1726.84   2
  -7   5 -13 5494.44 3283.48   4
  -7   5  14 3269.33 2142.78   2
  -7   5 -14-244.471 716.575   4
   7  -7   0 558.877 989.763   1
  -7   7   0 838.084 1030.22   3
  -7  -7   0 261.653 525.673   2
   7  -7  -1 3198.48 1670.78   1
   7  -7   1 2492.10 1443.70   1
  -7   7  -1 3009.14 1942.64   3
  -7   7   1 241.141 1056.36   3
  -7  -7  -1 1121.86 1098.34   2
  -7  -7   1 2089.19 1354.39   2
  -7   7  -2 2587.13 1800.28   3
  -7  -7  -2-2186.04 1515.09   2
  -7   7   2 1857.55 1805.27   3
  -7  -7   2-1801.39 1394.19   2
   7  -7   2 265.005 810.060   1
  -7   7  -3 914.970 1070.92   3
  -7  -7  -3 1183.22 1117.67   2
  -7   7   3 1177.02 1221.94   3
  -7  -7   3 1454.41 1312.51   2
   7  -7   3 1699.40 1231.62   1
  -7   7  -4-2048.39 1619.60   3
  -7  -7  -4-319.962 583.233   2
  -7   7   4 1398.81 1329.24   3
  -7  -7   4 1145.57 1338.83   2
   7  -7   4-423.834 620.049   1
   7  -7   5 481.657 1099.21   1
  -7  -7  -5 1126.74 1097.39   2
  -7   7   5 2449.79 1734.44   3
  -7  -7   5 1606.28 1164.06   2
   7  -7   6-219.130 450.857   1
  -7  -7   6-411.745 530.013   2
   7  -7   7-764.057 362.301   1
  -7   7   7 758.410 1005.71   3
  -7  -7   7 485.203 946.462   2
   7   7  -7-1389.68 1205.65   6
   7  -7   8 444.580 665.987   1
  -7  -7   8 1047.71 900.693   2
  -7   7   8 252.925 588.725   3
   7   7  -8 1358.37 1227.06   6
   7  -7   9 2460.40 1633.78   1
   7   7  -9 4044.27 2180.43   6
   7  -9   0 1288.32 1186.54   1
  -7  -9   0 46.9842 240.254   2
   7  -9   1-380.574 973.882   1
  -7   9  -1-1000.44 1253.64   3
  -7   9   1-524.300 904.664   3
  -7  -9  -1 1431.23 1323.78   2
  -7  -9   1 1104.88 1173.64   2
   7  -9   2 962.596 1121.73   1
  -7   9  -2-1175.71 1365.26   3
  -7   9   2-2948.99 2139.11   3
  -7  -9  -2 1243.50 1230.68   2
  -7  -9   2 333.323 650.309   2
   7  -9   3 434.384 684.777   1
  -7   9  -3 1471.47 1534.52   3
  -7   9   3-961.266 1227.19   3
  -7  -9  -3 2868.80 1877.59   2
   7  -9   4 465.877 712.668   1
   7  -9   5 793.665 622.275   1
   7   9  -8-8.79087 107.792   6
  -8   0   0 55617.7 7850.66   2
  -8   0  -1 1611.90 1508.35   2
  -8   0   1 1103.78 1060.64   2
  -8   0  -2 20285.0 4759.04   2
  -8   0   2 21634.0 4850.91   2
  -8   0  -3-44.4042 234.567   2
  -8   0   3 318.021 660.241   2
  -8   0  -4 26286.0 5420.93   2
  -8   0   4 29475.6 5775.32   2
  -8   0  -5-1256.11 1182.16   2
  -8   0   5-220.692 496.130   2
  -8   0  -6 19923.0 4881.91   2
  -8   0   6 19198.6 4723.54   2
  -8   0  -7 2246.69 1610.64   2
  -8   0   7 130.417 460.835   2
  -8   0   8 21741.3 5142.40   2
  -8   0   9 293.243 591.125   2
  -8   0  10 14891.2 4326.42   2
  -8   0  11-106.178 664.308   2
  -8   0  12 18277.2 4822.37   2
  -8   2   0 24816.7 5432.52   2
  -8  -2   0 23536.7 5059.07   2
  -8   2   0 30384.3 5173.70   3
  -8   2  -1 1436.09 1427.30   2
  -8   2   1 664.068 878.044   2
  -8  -2  -1 297.374 364.731   2
  -8  -2   1-505.707 779.206   2
  -8   2  -1 1238.79 1136.81   3
  -8   2   1-71.0746 556.660   3
  -8  -2  -2 39341.5 6472.67   2
  -8  -2   2 41603.0 6733.78   2
  -8   2  -2 41405.6 5995.81   3
  -8   2   2 46939.8 6610.24   3
  -8   2  -2 42263.8 7178.34   2
  -8   2   2 41186.6 7060.92   2
  -8   2  -3-606.690 984.117   2
  -8   2   3-173.877 604.891   2
  -8  -2  -3-72.5891 562.292   2
  -8  -2   3 2546.86 1660.18   2
   8  -2   3 615.173 904.787   1
  -8   2  -3 659.234 739.449   3
  -8   2   3 1214.58 1264.06   3
  -8   2  -4 15144.1 4387.19   2
  -8   2   4 15720.1 4342.75   2
  -8  -2  -4 17591.5 4348.19   2
   8  -2   4 21125.9 3927.34   1
  -8  -2   4 18676.9 4571.31   2
  -8   2   4 19322.4 4329.08   3
  -8   2  -5 335.682 648.781   2
  -8   2   5 138.538 403.202   2
  -8  -2  -5 1941.39 1772.81   2
  -8  -2   5-925.862 1010.38   2
  -8   2   5 778.188 1227.90   3
  -8   2  -6 26268.1 5971.95   2
  -8   2   6 24157.5 5393.28   2
  -8  -2  -6 26415.5 5450.04   2
  -8  -2   6 27012.5 5566.16   2
  -8   2   6 34238.4 5974.69   3
  -8   2   7 2298.97 1991.85   2
  -8  -2   7-852.259 776.839   2
  -8   2   7 1591.81 1284.91   3
  -8   2  -7-183.872 491.994   2
  -8   2   8 19730.0 4897.72   2
  -8  -2   8 15705.2 4180.86   2
  -8   2   8 18768.5 4404.84   3
  -8   2   9-892.545 1166.12   2
  -8  -2   9-530.381 791.569   2
  -8   2   9 580.647 797.260   3
  -8   2  10 20901.4 5087.24   2
  -8  -2  10 25487.8 5612.82   2
  -8   2  10 24397.0 5317.22   3
  -8   2  11-887.215 1308.22   2
  -8  -2  11 18.4854 892.552   2
  -8   2  11 2174.56 1553.72   3
  -8   4   0 25491.9 5906.65   2
  -8  -4   0 30490.1 5815.48   2
  -8   4   0 26734.7 5310.96   3
  -8   4  -1 1169.08 1235.87   2
  -8   4   1 526.276 420.001   2
  -8  -4  -1 172.160 1300.91   2
  -8  -4   1 1127.08 1272.05   2
  -8   4  -1 2317.33 1527.57   3
  -8   4   1 1026.57 1032.08   3
  -8   4   2 21069.8 5362.88   2
  -8  -4  -2 20737.5 4820.79   2
  -8  -4   2 21846.6 4980.97   2
   8  -4   2 22690.6 4149.03   1
  -8   4  -2 18306.6 4204.07   3
  -8   4   2 24065.0 5090.83   3
  -8   4  -2 16164.9 4626.40   2
  -8   4   3 386.158 711.806   2
  -8  -4  -3 437.891 981.220   2
  -8  -4   3 575.601 1198.70   2
  -8   4  -3 2214.98 1479.47   3
   8  -4   3 306.393 793.044   1
  -8   4   3 1096.52 1452.44   3
  -8  -4   4 36227.5 6446.03   2
  -8   4   4 30988.7 6523.36   2
   8  -4   4 36515.9 5477.88   1
  -8  -4  -4 33907.2 6047.63   2
  -8   4   4 37903.5 6495.23   3
  -8   4   5 1266.00 1033.22   2
   8  -4   5-202.273 228.867   1
  -8  -4  -5 2054.94 1507.17   2
  -8  -4   5 931.479 1421.07   2
  -8   4   5-330.722 613.094   3
  -8   4   6 11175.7 3845.22   2
  -8  -4   6 13531.3 3955.39   2
   8  -4   6 17789.0 3975.43   1
  -8   4   6 14544.5 4118.05   3
  -8   4   7 508.778 1262.94   2
  -8  -4   7 460.214 1465.20   2
  -8   4   7 1440.49 1312.87   3
   8  -4   7 325.881 512.190   1
  -8   4   8 26145.3 6082.01   2
   8  -4   8 25614.9 4976.95   1
  -8  -4   8 25022.0 5539.74   2
  -8   4   8 26078.9 5738.13   3
  -8   4   9 880.519 1094.83   2
  -8  -4   9-934.206 1075.22   2
   8  -4   9 1282.31 1503.49   1
  -8   4   9 904.744 1487.56   3
   8  -4  10 13414.1 3794.88   1
  -8  -6   0 10677.4 3440.85   2
  -8   6   0 10962.5 3610.05   3
  -8  -6  -1 5139.30 2705.34   2
  -8  -6   1 2788.10 2153.39   2
  -8   6  -1 1701.44 1112.50   3
  -8   6   1 2019.89 1394.45   3
  -8  -6  -2 26484.3 5592.43   2
  -8  -6   2 29089.3 5974.46   2
  -8   6  -2 23333.5 5442.49   3
  -8   6   2 28237.2 5959.83   3
   8  -6   3 655.462 882.997   1
  -8  -6  -3 1786.01 1456.74   2
  -8  -6   3 9.96494 1535.49   2
   8  -6   4 13576.8 3642.37   1
  -8  -6  -4 17876.1 4658.66   2
  -8  -6   4 17834.2 4672.56   2
  -8   6   4 17454.2 4818.16   3
   8  -6   5 1227.31 1298.27   1
  -8  -6   5 987.982 1417.20   2
  -8   6   5 3851.19 2229.80   3
   8  -6   6 23866.2 4865.33   1
  -8   6   6 17442.5 4886.20   3
   8  -6   7 963.055 983.209   1
   8  -6   8 11506.7 3624.72   1
  -8   8   0 19099.7 5423.56   3
  -8   8  -1-518.242 889.816   3
  -8  -8  -1 832.254 1227.20   2
  -8   8   1 3114.28 2177.65   3
  -8  -8  -2 5210.55 2660.37   2
   8  -8   3 4163.07 2116.86   1
  -8  -8  -3-1370.21 1368.40   2
   8  -8   4 13072.9 3789.84   1
  -9   1   0 1350.71 1215.56   2
  -9  -1   0-1593.72 1414.92   2
  -9   1   0 589.634 983.871   3
  -9   1  -1-1154.44 1241.52   2
  -9   1   1 970.163 1126.58   2
  -9  -1  -1-341.055 653.109   2
  -9  -1   1-532.065 1242.89   2
  -9   1  -1 2549.10 1684.10   3
  -9   1   1 1339.44 1378.91   3
  -9   1  -2 287.190 999.276   2
  -9   1   2 1456.73 1330.06   2
  -9  -1  -2-206.836 509.791   2
  -9  -1   2 1063.76 1250.50   2
  -9   1   2 1513.43 1562.28   3
  -9   1  -3-1713.52 1526.29   2
  -9   1   3 137.088 959.321   2
  -9  -1  -3 1218.34 1247.09   2
  -9  -1   3 241.573 103.934   2
  -9   1   3-751.453 893.902   3
  -9   1  -4 807.888 1059.01   2
  -9  -1  -4 762.388 948.936   2
  -9   1   4 1237.56 1145.82   2
  -9  -1   4 2377.77 1746.24   2
  -9   1   4 435.592 689.536   3
  -9   1  -5 1985.32 1680.87   2
  -9  -1  -5 211.625 526.942   2
  -9   1   5 2065.31 1667.12   2
  -9  -1   5 723.911 974.314   2
  -9   1   5-461.243 449.207   3
  -9   1  -6 783.777 1071.14   2
  -9   1   6 1563.53 1339.00   3
  -9   3   0 1128.60 1443.31   2
  -9  -3   0-1839.74 1527.85   2
  -9   3   0 1861.45 1439.96   3
  -9   3  -1-1196.81 1323.20   2
  -9   3   1 2408.13 1866.58   2
  -9  -3  -1 551.135 497.486   2
  -9  -3   1 304.244 1243.49   2
  -9   3  -1-346.842 615.457   3
  -9   3   1-85.1208 1222.92   3
  -9   3  -2-1967.78 1709.35   2
  -9   3   2-1061.31 1235.19   2
  -9  -3  -2 446.085 754.903   2
  -9  -3   2-782.564 997.705   2
  -9   3   2-1353.32 1247.29   3
  -9   3  -3 603.688 951.672   2
  -9  -3  -3 1171.11 1223.50   2
  -9  -3   3-494.224 792.317   2
  -9   3   3-1326.29 1249.12   3
  -9  -3  -4 808.072 1023.33   2
  -9   3   4-335.369 632.648   3
  -9   3  -4-773.561 1082.70   2
  -9   3   5 703.132 576.894   3
   9  -3   7 977.026 722.024   1
   9  -3   8-732.879 861.729   1
  -9  -5   0-398.399 440.053   2
  -9   5   0-1806.99 1501.52   3
  -9  -5  -1 1682.29 1506.44   2
  -9   5   1-1632.19 1439.68   3
  -9  -5  -2 593.968 896.487   2
  -9   5   2 87.8216 336.350   3
  -9  -5  -3 4135.84 2380.06   2
   0   0   0    0.00    0.00   0
TITL ja1374 in Cmce
REM Cmce (#64 in standard setting)
CELL 0.71073   7.110687  10.171515  17.657248  90.0000  90.0000  90.0000
ZERR    6.00   0.000972   0.001312   0.002142   0.0000   0.0000   0.0000
LATT  7
SYMM -x,-y+1/2, z+1/2
SYMM -x, y+1/2,-z+1/2
SYMM  x,-y,-z
SFAC C H N O
UNIT 66.00 60.00 6.00 6.00
TREF
HKLF 4
END
;
_shelx_hkl_checksum              140
loop_
_space_group_symop_operation_xyz
'x, y, z'
'-x, -y+1/2, z+1/2'
'-x, y+1/2, -z+1/2'
'x, -y, -z'
'x+1/2, y+1/2, z'
'-x+1/2, -y+1, z+1/2'
'-x+1/2, y+1, -z+1/2'
'x+1/2, -y+1/2, -z'
'-x, -y, -z'
'x, y-1/2, -z-1/2'
'x, -y-1/2, z-1/2'
'-x, y, z'
'-x+1/2, -y+1/2, -z'
'x+1/2, y, -z-1/2'
'x+1/2, -y, z-1/2'
'-x+1/2, y+1/2, z'
loop_
_atom_site_label
_atom_site_type_symbol
_atom_site_fract_x
_atom_site_fract_y
_atom_site_fract_z
_atom_site_U_iso_or_equiv
_atom_site_adp_type
_atom_site_occupancy
_atom_site_site_symmetry_order
_atom_site_calc_flag
_atom_site_refinement_flags_posn
_atom_site_refinement_flags_adp
_atom_site_refinement_flags_occupancy
Au Au 0.5000 0.24491(9) 0.74779(5) 0.0320(3) Uani 1 2 d S T P
Fe Fe 0.5000 0.5000 0.5000 0.0228(7) Uani 1 4 d DS T P
N1 N 0.7878(13) 0.5000 0.5000 0.036(4) Uani 1 2 d DS T P
N2 N 0.5000 0.3592(16) 0.5825(10) 0.027(4) Uani 1 2 d S T P
N3 N 0.5000 0.362(2) 0.4134(11) 0.035(4) Uani 1 2 d S T P
C1 C 0.900(2) 0.4923(16) 0.5641(7) 0.033(3) Uani 1 1 d . . .
C2 C 0.5000 0.311(3) 0.654(3) 0.085(15) Uani 1 2 d S T P
C3 C 0.5000 0.1812(19) 0.8580(10) 0.024(4) Uani 1 2 d S T P
F F 0.837(4) 0.498(4) 0.6303(14) 0.027(6) Uani 0.25 1 d . . P
loop_
_atom_site_aniso_label
_atom_site_aniso_U_11
_atom_site_aniso_U_22
_atom_site_aniso_U_33
_atom_site_aniso_U_23
_atom_site_aniso_U_13
_atom_site_aniso_U_12
Au 0.0315(4) 0.0297(4) 0.0348(4) 0.0128(3) 0.000 0.000
Fe 0.0234(17) 0.0272(18) 0.0177(17) -0.0008(14) 0.000 0.000
N1 0.055(11) 0.030(8) 0.022(8) -0.004(6) 0.000 0.000
N2 0.038(11) 0.017(8) 0.027(9) 0.007(6) 0.000 0.000
N3 0.024(10) 0.046(11) 0.035(10) 0.021(8) 0.000 0.000
C1 0.044(8) 0.027(6) 0.028(7) 0.002(5) -0.004(6) -0.007(7)
C2 0.009(10) 0.024(12) 0.22(5) -0.04(2) 0.000 0.000
C3 0.044(13) 0.017(8) 0.010(8) 0.009(6) 0.000 0.000
F 0.023(14) 0.045(17) 0.012(13) 0.000(12) 0.012(11) 0.001(17)
loop_
_atom_type_symbol
_atom_type_description
_atom_type_scat_dispersion_real
_atom_type_scat_dispersion_imag
_atom_type_scat_source
C C 0.0030 0.0020 'International Tables Vol C Tables 4.2.6.8 and 6.1.1.4'
H H 0.0000 0.0000 'International Tables Vol C Tables 4.2.6.8 and 6.1.1.4'
N N 0.0060 0.0030 'International Tables Vol C Tables 4.2.6.8 and 6.1.1.4'
F F 0.0170 0.0100 'International Tables Vol C Tables 4.2.6.8 and 6.1.1.4'
Fe Fe 0.3460 0.8440 'International Tables Vol C Tables 4.2.6.8 and 6.1.1.4'
Au Au -2.0130 8.8020 'International Tables Vol C Tables 4.2.6.8 and 6.1.1.4'
loop_
_geom_angle_atom_site_label_1
_geom_angle_atom_site_label_2
_geom_angle_atom_site_label_3
_geom_angle
_geom_angle_site_symmetry_1
_geom_angle_site_symmetry_3
C2 Au C3 176.1(11) . .
N1 Fe N1 180.0 . 9_666
N2 Fe N1 90.000(3) 9_666 9_666
N2 Fe N1 90.000(4) . 9_666
N2 Fe N1 90.000(4) 9_666 .
N2 Fe N1 90.000(3) . .
N3 Fe N1 90.000(4) 9_666 .
N3 Fe N1 90.000(3) . .
N3 Fe N1 90.000(4) 9_666 9_666
N3 Fe N1 90.000(4) . 9_666
N2 Fe N2 180.0(7) 9_666 .
N2 Fe N3 93.0(6) 9_666 9_666
N2 Fe N3 87.0(6) . 9_666
N2 Fe N3 87.0(6) 9_666 .
N2 Fe N3 93.0(6) . .
N3 Fe N3 180.0 9_666 .
C1 N1 C1 109.6(14) 4_566 .
C1 N1 Fe 125.2(7) 4_566 .
C1 N1 Fe 125.2(7) . .
C2 N2 Fe 156.4(16) . .
C3 N3 Fe 161.9(18) 2_654 .
F C1 N1 123.4(17) . .
F C1 C1 111.1(14) . 12_755
N1 C1 C1 125.2(7) . 12_755
N2 C2 Au 179(2) . .
N3 C3 Au 174.1(19) 2_655 .
loop_
_geom_bond_atom_site_label_1
_geom_bond_atom_site_label_2
_geom_bond_distance
_geom_bond_site_symmetry_2
Au C2 1.78(5) .
Au C3 2.052(16) .
Fe N1 2.046(9) .
Fe N1 2.046(9) 9_666
Fe N2 2.043(16) 9_666
Fe N2 2.043(16) .
Fe N3 2.07(2) 9_666
Fe N3 2.07(2) .
N1 C1 1.389(14) 4_566
N1 C1 1.389(14) .
N2 C2 1.36(5) .
N3 C3 1.07(3) 2_654
C1 F 1.25(3) .
C1 C1 1.42(3) 12_755
C3 N3 1.07(3) 2_655
