#------------------------------------------------------------------------------
#$Date: 2019-11-24 06:43:57 +0200 (Sun, 24 Nov 2019) $
#$Revision: 236997 $
#$URL: file:///home/coder/svn-repositories/cod/cif/4/34/99/4349979.cif $
#------------------------------------------------------------------------------
#
# This file is available in the Crystallography Open Database (COD),
# http://www.crystallography.net/
#
# All data on this site have been placed in the public domain by the
# contributors.
#
data_4349979
loop_
_publ_author_name
'Ji, Xiao-Qin'
'Ma, Fang'
'Xiong, Jin'
'Yang, Jing'
'Sun, Hao-Ling'
'Zhang, Yi-Quan'
'Gao, Song'
_publ_section_title
;
 A rare chloride-bridged dysprosium chain with slow magnetic relaxation: a
 thermally activated mechanism via a second-excited state promoted by
 magnetic interactions
;
_journal_issue                   3
_journal_name_full               'Inorganic Chemistry Frontiers'
_journal_page_first              786
_journal_paper_doi               10.1039/C8QI01331D
_journal_volume                  6
_journal_year                    2019
_chemical_formula_moiety         'C13 H12 Br Cl Dy N4 O4'
_chemical_formula_sum            'C13 H12 Br Cl Dy N4 O4'
_chemical_formula_weight         566.13
_space_group_crystal_system      triclinic
_space_group_IT_number           2
_space_group_name_Hall           '-P 1'
_space_group_name_H-M_alt        'P -1'
_atom_sites_solution_hydrogens   geom
_atom_sites_solution_primary     iterative
_atom_sites_solution_secondary   difmap
_audit_creation_date             2018-09-25
_audit_creation_method
;
Olex2 1.2
(compiled 2018.05.29 svn.r3508 for OlexSys, GUI svn.r5506)
;
_audit_update_record
;
2018-09-25 deposited with the CCDC.
2019-01-29 downloaded from the CCDC.
;
_cell_angle_alpha                99.133(6)
_cell_angle_beta                 92.117(6)
_cell_angle_gamma                104.301(7)
_cell_formula_units_Z            2
_cell_length_a                   6.9739(6)
_cell_length_b                   9.0675(7)
_cell_length_c                   13.0622(9)
_cell_measurement_reflns_used    1394
_cell_measurement_temperature    100.01(10)
_cell_measurement_theta_max      24.8440
_cell_measurement_theta_min      3.5180
_cell_volume                     787.75(11)
_computing_cell_refinement       'CrysAlisPro 1.171.39.32a (Rigaku OD, 2017)'
_computing_data_collection       'CrysAlisPro 1.171.39.32a (Rigaku OD, 2017)'
_computing_data_reduction        'CrysAlisPro 1.171.39.32a (Rigaku OD, 2017)'
_computing_molecular_graphics    'Olex2 (Dolomanov et al., 2009)'
_computing_publication_material  'Olex2 (Dolomanov et al., 2009)'
_computing_structure_refinement  'XL (Sheldrick, 2008)'
_computing_structure_solution    'olex2.solve (Bourhis et al., 2015)'
_diffrn_ambient_temperature      100.01(10)
_diffrn_detector_area_resol_mean 5.3127
_diffrn_detector_type            AtlasS2
_diffrn_measured_fraction_theta_full 0.998
_diffrn_measured_fraction_theta_max 0.953
_diffrn_measurement_details
;
List of Runs (angles in degrees, time in seconds):

  # Type    Start    End  Width  t~exp~   \w     \q     \k     \f   Frames
#--------------------------------------------------------------------------
  1  \w    -18.00  94.00   1.00    1.50    --   23.13  57.00   0.00  112
  2  \w     99.00 125.00   1.00    1.50    --   23.13 178.00   0.00   26
  3  \w    -14.00 107.00   1.00    1.50    --   23.13  57.00 120.00  121
  4  \w    -13.00 103.00   1.00    1.50    --   23.13  77.00-150.00  116
;
_diffrn_measurement_device       'four-circle diffractometer'
_diffrn_measurement_device_type  'SuperNova, Dual, Cu at home/near, AtlasS2'
_diffrn_measurement_method       '\w scans'
_diffrn_radiation_monochromator  graphite
_diffrn_radiation_type           MoK\a
_diffrn_radiation_wavelength     0.71073
_diffrn_reflns_av_R_equivalents  0.0575
_diffrn_reflns_av_unetI/netI     0.1211
_diffrn_reflns_limit_h_max       8
_diffrn_reflns_limit_h_min       -9
_diffrn_reflns_limit_k_max       11
_diffrn_reflns_limit_k_min       -10
_diffrn_reflns_limit_l_max       16
_diffrn_reflns_limit_l_min       -16
_diffrn_reflns_number            5233
_diffrn_reflns_theta_full        26.00
_diffrn_reflns_theta_max         27.48
_diffrn_reflns_theta_min         3.30
_diffrn_source                   'fine-focus sealed tube'
_exptl_absorpt_coefficient_mu    7.475
_exptl_absorpt_correction_T_max  1.00000
_exptl_absorpt_correction_T_min  0.89858
_exptl_absorpt_correction_type   multi-scan
_exptl_absorpt_process_details
;
CrysAlisPro 1.171.39.32a (Rigaku Oxford Diffraction, 2017)
Empirical absorption correction using spherical harmonics,
 implemented in SCALE3 ABSPACK scaling algorithm.
;
_exptl_crystal_colour            'clear light yellow'
_exptl_crystal_density_diffrn    2.387
_exptl_crystal_density_method    'not measured'
_exptl_crystal_description       plate
_exptl_crystal_F_000             536
_exptl_crystal_size_max          0.18
_exptl_crystal_size_mid          0.06
_exptl_crystal_size_min          0.05
_refine_diff_density_max         2.226
_refine_diff_density_min         -1.753
_refine_diff_density_rms         0.313
_refine_ls_extinction_method     none
_refine_ls_goodness_of_fit_ref   0.971
_refine_ls_hydrogen_treatment    mixed
_refine_ls_matrix_type           full
_refine_ls_number_parameters     221
_refine_ls_number_reflns         3429
_refine_ls_number_restraints     72
_refine_ls_restrained_S_all      0.961
_refine_ls_R_factor_all          0.0745
_refine_ls_R_factor_gt           0.0527
_refine_ls_shift/su_max          0.000
_refine_ls_shift/su_mean         0.000
_refine_ls_structure_factor_coef Fsqd
_refine_ls_weighting_details
'calc w=1/[\s^2^(Fo^2^)+(0.0134P)^2^+0.0000P] where P=(Fo^2^+2Fc^2^)/3'
_refine_ls_weighting_scheme      calc
_refine_ls_wR_factor_gt          0.0887
_refine_ls_wR_factor_ref         0.0978
_reflns_number_gt                2654
_reflns_number_total             3429
_reflns_threshold_expression     >2sigma(I)
_iucr_refine_instructions_details
;
TITL 20161116l_a.res in P-1
REM Old TITL 20161116l in P1 #1
REM SHELXT solution in P-1
REM R1 0.088, Rweak 0.010, Alpha 0.033, Orientation as input
REM Formula found by SHELXT: C14 N5 O2 Cl Br Dy
CELL 0.71073 6.9739 9.0675 13.0622 99.133 92.117 104.301
ZERR 2 0.0006 0.0007 0.0009 0.006 0.006 0.007
LATT 1
SFAC C H Br Cl Dy N O
UNIT 26 24 2 2 2 8 8
ISOR 0.001 0.002 C4 C6 C9
ISOR 0.001 0.002 N1 N4
ISOR 0.001 0.002 O4
ISOR 0.001 0.002 N2 N3
ISOR 0.001 0.002 C8 C2 C5
ISOR 0.001 0.002 C12
 
L.S. 4
PLAN  5
TEMP -173.14(10)
BOND $H
LIST 6
MORE -1
CONF
fmap 2
acta 52
SHEL 999 0.77
REM <olex2.extras>
REM <HklSrc "%.\\20161116l.hkl">
REM </olex2.extras>
 
WGHT    0.013400
FVAR       0.49644
DY1   5    0.252014    0.074724    0.591649    11.00000    0.00777    0.00579 =
         0.00858    0.00043   -0.00206    0.00108
BR1   3    0.797067    0.842176    0.968541    11.00000    0.02043    0.00990 =
         0.01412   -0.00476   -0.00232   -0.00342
CL1   4    0.522159    0.144829    0.441260    11.00000    0.02266    0.01256 =
         0.01950    0.00852    0.01108    0.01081
O1    7    0.449888    0.202609    0.724681    11.00000    0.01762    0.00567 =
         0.01496   -0.00230   -0.00492    0.00336
O2    7    0.035782    0.125147    0.466942    11.00000    0.01076    0.01016 =
         0.01686    0.00452   -0.00364    0.00339
O3    7   -0.096714    0.546112    0.184766    11.00000    0.01284    0.00760 =
         0.01998    0.00621    0.00084    0.00211
N3    6   -0.150629    0.138929    0.294233    11.00000    0.00665    0.00713 =
         0.00684    0.00139    0.00072    0.00141
N1    6    0.297849    0.350525    0.579598    11.00000    0.00871    0.00905 =
         0.00823    0.00152    0.00028    0.00196
N2    6    0.201738    0.383332    0.490557    11.00000    0.00845    0.00827 =
         0.00857    0.00187    0.00030    0.00251
AFIX  43
H2    2    0.227279    0.474587    0.471483    11.00000   -1.20000
AFIX   0
C8    1    0.073711    0.263397    0.441900    11.00000    0.00603    0.00640 =
         0.00619    0.00106    0.00076    0.00155
N4    6   -0.107273    0.417911    0.218615    11.00000    0.00965    0.00986 =
         0.01002    0.00131    0.00090    0.00335
C13   1   -0.131014    0.083357    0.755898    11.00000    0.01769    0.02546 =
         0.02055    0.01115    0.00931    0.01349
AFIX 137
H13A  2   -0.178923   -0.024389    0.720952    11.00000   -1.50000
H13B  2   -0.241346    0.132690    0.758771    11.00000   -1.50000
H13C  2   -0.076696    0.086571    0.826727    11.00000   -1.50000
AFIX   0
C4    1    0.694672    0.639987    0.888921    11.00000    0.00806    0.00799 =
         0.00835    0.00052    0.00124    0.00213
C9    1   -0.034329    0.275364    0.343766    11.00000    0.00716    0.00774 =
         0.00770    0.00077    0.00085    0.00229
C12   1   -0.240028    0.147725    0.203421    11.00000    0.00907    0.00960 =
         0.00944    0.00134    0.00072    0.00223
AFIX  43
H12   2   -0.323173    0.055178    0.164369    11.00000   -1.20000
AFIX   0
C7    1    0.417807    0.474597    0.633935    11.00000    0.00633    0.00263 =
         0.01281    0.00018    0.00001    0.00059
AFIX  43
H7    2    0.436516    0.568642    0.607720    11.00000   -1.20000
AFIX   0
C3    1    0.701640    0.513478    0.933678    11.00000    0.00815    0.01524 =
         0.01016   -0.00199   -0.00110    0.00385
AFIX  43
H3    2    0.760349    0.525947    1.002335    11.00000   -1.20000
AFIX   0
C1    1    0.527177    0.344413    0.775405    11.00000    0.00777    0.01187 =
         0.01596   -0.00163   -0.00022    0.00664
C2    1    0.620194    0.366523    0.875519    11.00000    0.01278    0.01250 =
         0.01327    0.00231    0.00048    0.00353
AFIX  43
H2A   2    0.628127    0.278586    0.904823    11.00000   -1.20000
AFIX   0
C11   1   -0.219556    0.281982    0.162786    11.00000    0.01367    0.01876 =
         0.00697    0.00402    0.00015    0.00644
C6    1    0.523293    0.476913    0.731311    11.00000    0.00675    0.00698 =
         0.00627    0.00093    0.00060    0.00201
C10   1   -0.013325    0.413002    0.311105    11.00000    0.01181    0.00716 =
         0.00995   -0.00094   -0.00068   -0.00122
AFIX  43
H10   2    0.066182    0.505216    0.352327    11.00000   -1.20000
AFIX   0
C5    1    0.609856    0.624366    0.790263    11.00000    0.01361    0.01343 =
         0.01404    0.00189    0.00100    0.00359
AFIX  43
H5    2    0.609374    0.713947    0.761243    11.00000   -1.20000
AFIX   0
O4    7    0.018976    0.163027    0.699962    11.00000    0.01671    0.01499 =
         0.01638    0.00295    0.00205    0.00409
AFIX  43
H4    2    0.029077    0.270580    0.706510    11.00000   -1.20000
AFIX   0
H11   2   -0.263974    0.298694    0.098610    11.00000   -1.50000
HKLF 4
 
REM  20161116l_a.res in P-1
REM R1 =  0.0527 for   2654 Fo > 4sig(Fo)  and  0.0745 for all   3429 data
REM    221 parameters refined using     72 restraints
 
END  
     
WGHT      0.0134      0.0000 
REM Highest difference peak  2.226,  deepest hole -1.753,  1-sigma level  0.313
Q1    1   0.2881  0.0585  0.5273  11.00000  0.05    2.23
Q2    1   0.7855  0.8394  1.0384  11.00000  0.05    1.61
Q3    1   0.2159  0.0856  0.6584  11.00000  0.05    1.48
Q4    1   0.2269 -0.0721  0.5193  11.00000  0.05    1.33
Q5    1   0.2268  0.1565  0.5840  11.00000  0.05    1.31

  REM The information below was added by Olex2.
  REM
  REM R1 = 0.0527 for 2654 Fo > 4sig(Fo) and 0.0745 for all 5321 data
  REM n/a parameters refined using n/a restraints
  REM Highest difference peak 2.23, deepest hole -1.75
  REM Mean Shift 0, Max Shift 0.000.

  REM +++ Tabular Listing of Refinement Information +++
  REM R1_all = 0.0745
  REM R1_gt = 0.0527
  REM wR_ref = 0.0978
  REM GOOF = 0.971
  REM Shift_max = 0.000
  REM Shift_mean = 0
  REM Reflections_all = 5321
  REM Reflections_gt = 2654
  REM Parameters = n/a
  REM Hole = -1.75
  REM Peak = 2.23
  REM Flack = n/a

  
;
_cod_data_source_file            c8qi01331d2.cif
_cod_data_source_block           20161116l
_cod_database_code               4349979
_olex2_refinement_description
;
1. Fixed Uiso
 At 1.2 times of:
  All C(H) groups, H4 of O4, All N(H) groups
 At 1.5 times of:
  All C(H,H,H) groups, H11 of O4
2. Uiso/Uaniso restraints and constraints
Uanis(C4) \\sim Ueq, Uanis(C6) \\sim Ueq, Uanis(C9) \\sim Ueq: with sigma of
0.001 and sigma for terminal atoms of 0.002
Uanis(N1) \\sim Ueq, Uanis(N4) \\sim Ueq: with sigma of 0.001 and sigma for
terminal atoms of 0.002
Uanis(O4) \\sim Ueq: with sigma of 0.001 and sigma for terminal atoms of 0.002
Uanis(N2) \\sim Ueq, Uanis(N3) \\sim Ueq: with sigma of 0.001 and sigma for
terminal atoms of 0.002
Uanis(C8) \\sim Ueq, Uanis(C2) \\sim Ueq, Uanis(C5) \\sim Ueq: with sigma of
0.001 and sigma for terminal atoms of 0.002
Uanis(C12) \\sim Ueq: with sigma of 0.001 and sigma for terminal atoms of 0.002
3.a Aromatic/amide H refined with riding coordinates:
 N2(H2), C12(H12), C7(H7), C3(H3), C2(H2A), C10(H10), C5(H5), O4(H4)
3.b Idealised Me refined as rotating group:
 C13(H13A,H13B,H13C)
;
_olex2_submission_special_instructions 'No special instructions were received'
_oxdiff_exptl_absorpt_empirical_details
;
Empirical correction (ABSPACK) includes:
- Absorption correction using spherical harmonics
- Frame scaling
;
loop_
_space_group_symop_id
_space_group_symop_operation_xyz
1 'x, y, z'
2 '-x, -y, -z'
loop_
_atom_site_label
_atom_site_type_symbol
_atom_site_fract_x
_atom_site_fract_y
_atom_site_fract_z
_atom_site_U_iso_or_equiv
_atom_site_adp_type
_atom_site_occupancy
_atom_site_calc_flag
_atom_site_refinement_flags_posn
_atom_site_refinement_flags_adp
Dy1 Dy 0.25201(6) 0.07472(5) 0.59165(3) 0.00766(12) Uani 1 d . .
Br1 Br 0.79707(13) 0.84218(10) 0.96854(7) 0.0170(2) Uani 1 d . .
Cl1 Cl 0.5222(3) 0.1448(2) 0.44126(17) 0.0162(5) Uani 1 d . .
O1 O 0.4499(8) 0.2026(6) 0.7247(4) 0.0133(14) Uani 1 d . .
O2 O 0.0358(8) 0.1251(6) 0.4669(4) 0.0123(14) Uani 1 d . .
O3 O -0.0967(8) 0.5461(6) 0.1848(5) 0.0131(14) Uani 1 d . .
N3 N -0.1506(9) 0.1389(8) 0.2942(5) 0.0069(15) Uani 1 d . U
N1 N 0.2978(10) 0.3505(8) 0.5796(5) 0.0087(16) Uani 1 d . U
N2 N 0.2017(9) 0.3833(8) 0.4906(5) 0.0083(15) Uani 1 d . U
H2 H 0.2273 0.4746 0.4715 0.010 Uiso 1 calc R .
C8 C 0.0737(11) 0.2634(9) 0.4419(6) 0.0062(17) Uani 1 d . U
N4 N -0.1073(10) 0.4179(8) 0.2186(5) 0.0097(16) Uani 1 d . U
C13 C -0.1310(13) 0.0834(11) 0.7559(7) 0.019(2) Uani 1 d . .
H13A H -0.1789 -0.0244 0.7210 0.028 Uiso 1 calc GR .
H13B H -0.2413 0.1327 0.7588 0.028 Uiso 1 calc GR .
H13C H -0.0767 0.0866 0.8267 0.028 Uiso 1 calc GR .
C4 C 0.6947(12) 0.6400(10) 0.8889(6) 0.0082(18) Uani 1 d . U
C9 C -0.0343(12) 0.2754(9) 0.3438(6) 0.0075(18) Uani 1 d . U
C12 C -0.2400(12) 0.1477(10) 0.2034(6) 0.0094(19) Uani 1 d . U
H12 H -0.3232 0.0552 0.1644 0.011 Uiso 1 calc R .
C7 C 0.4178(11) 0.4746(9) 0.6339(6) 0.0075(18) Uani 1 d . .
H7 H 0.4365 0.5686 0.6077 0.009 Uiso 1 calc R .
C3 C 0.7016(12) 0.5135(10) 0.9337(7) 0.012(2) Uani 1 d . .
H3 H 0.7603 0.5259 1.0023 0.014 Uiso 1 calc R .
C1 C 0.5272(12) 0.3444(10) 0.7754(7) 0.0116(19) Uani 1 d . .
C2 C 0.6202(12) 0.3665(10) 0.8755(7) 0.013(2) Uani 1 d . U
H2A H 0.6281 0.2786 0.9048 0.015 Uiso 1 calc R .
C11 C -0.2196(13) 0.2820(11) 0.1628(7) 0.013(2) Uani 1 d . .
C6 C 0.5233(11) 0.4769(9) 0.7313(6) 0.0066(18) Uani 1 d . U
C10 C -0.0133(12) 0.4130(10) 0.3111(7) 0.0106(19) Uani 1 d . .
H10 H 0.0662 0.5052 0.3523 0.013 Uiso 1 calc R .
C5 C 0.6099(12) 0.6244(10) 0.7903(7) 0.014(2) Uani 1 d . U
H5 H 0.6094 0.7139 0.7612 0.016 Uiso 1 calc R .
O4 O 0.0190(8) 0.1630(7) 0.7000(4) 0.0160(14) Uani 1 d . U
H4 H 0.0291 0.2706 0.7065 0.019 Uiso 1 calc R .
H11 H -0.264(12) 0.299(10) 0.099(7) 0.024 Uiso 1 d R .
loop_
_atom_site_aniso_label
_atom_site_aniso_U_11
_atom_site_aniso_U_22
_atom_site_aniso_U_33
_atom_site_aniso_U_23
_atom_site_aniso_U_13
_atom_site_aniso_U_12
Dy1 0.0078(2) 0.0058(2) 0.0086(2) 0.00043(16) -0.00206(16) 0.00108(16)
Br1 0.0204(5) 0.0099(5) 0.0141(5) -0.0048(4) -0.0023(4) -0.0034(4)
Cl1 0.0227(12) 0.0126(12) 0.0195(13) 0.0085(10) 0.0111(10) 0.0108(10)
O1 0.018(3) 0.006(3) 0.015(3) -0.002(3) -0.005(3) 0.003(3)
O2 0.011(3) 0.010(3) 0.017(3) 0.005(3) -0.004(3) 0.003(3)
O3 0.013(3) 0.008(3) 0.020(4) 0.006(3) 0.001(3) 0.002(3)
N3 0.0066(17) 0.0071(17) 0.0068(17) 0.0014(10) 0.0007(10) 0.0014(10)
N1 0.0087(17) 0.0090(18) 0.0082(18) 0.0015(10) 0.0003(10) 0.0020(10)
N2 0.0084(17) 0.0083(18) 0.0086(18) 0.0019(10) 0.0003(10) 0.0025(10)
C8 0.0060(19) 0.0064(19) 0.0062(19) 0.0011(10) 0.0008(10) 0.0016(10)
N4 0.0096(18) 0.0099(18) 0.0100(18) 0.0013(10) 0.0009(10) 0.0034(10)
C13 0.018(5) 0.025(6) 0.021(5) 0.011(5) 0.009(4) 0.013(4)
C4 0.008(2) 0.008(2) 0.008(2) 0.0005(10) 0.0012(10) 0.0021(11)
C9 0.007(2) 0.008(2) 0.008(2) 0.0008(10) 0.0009(10) 0.0023(11)
C12 0.009(2) 0.010(2) 0.009(2) 0.0013(10) 0.0007(10) 0.0022(11)
C7 0.006(4) 0.003(4) 0.013(5) 0.000(4) 0.000(4) 0.001(3)
C3 0.008(4) 0.015(5) 0.010(5) -0.002(4) -0.001(4) 0.004(4)
C1 0.008(4) 0.012(5) 0.016(5) -0.002(4) 0.000(4) 0.007(4)
C2 0.013(2) 0.013(2) 0.013(2) 0.0023(10) 0.0005(10) 0.0035(11)
C11 0.014(5) 0.019(5) 0.007(5) 0.004(4) 0.000(4) 0.006(4)
C6 0.0067(19) 0.007(2) 0.006(2) 0.0009(10) 0.0006(10) 0.0020(10)
C10 0.012(4) 0.007(4) 0.010(5) -0.001(4) -0.001(4) -0.001(4)
C5 0.014(2) 0.013(2) 0.014(2) 0.0019(10) 0.0010(10) 0.0036(11)
O4 0.0167(16) 0.0150(17) 0.0164(17) 0.0029(10) 0.0020(10) 0.0041(10)
loop_
_atom_type_symbol
_atom_type_description
_atom_type_scat_dispersion_real
_atom_type_scat_dispersion_imag
_atom_type_scat_source
C C 0.0033 0.0016 'International Tables Vol C Tables 4.2.6.8 and 6.1.1.4'
H H 0.0000 0.0000 'International Tables Vol C Tables 4.2.6.8 and 6.1.1.4'
Br Br -0.2901 2.4595 'International Tables Vol C Tables 4.2.6.8 and 6.1.1.4'
Cl Cl 0.1484 0.1585 'International Tables Vol C Tables 4.2.6.8 and 6.1.1.4'
Dy Dy -0.1892 4.4098 'International Tables Vol C Tables 4.2.6.8 and 6.1.1.4'
N N 0.0061 0.0033 'International Tables Vol C Tables 4.2.6.8 and 6.1.1.4'
O O 0.0106 0.0060 'International Tables Vol C Tables 4.2.6.8 and 6.1.1.4'
loop_
_geom_angle_atom_site_label_1
_geom_angle_atom_site_label_2
_geom_angle_atom_site_label_3
_geom_angle
_geom_angle_site_symmetry_1
_geom_angle_site_symmetry_3
Cl1 Dy1 Dy1 109.60(5) 2_656 2_556
Cl1 Dy1 Dy1 99.59(5) . 2_556
Cl1 Dy1 Cl1 69.37(7) . 2_656
O1 Dy1 Dy1 157.38(15) . 2_556
O1 Dy1 Cl1 96.32(16) . .
O1 Dy1 Cl1 90.99(16) . 2_656
O1 Dy1 O2 137.6(2) . .
O1 Dy1 O2 145.7(2) . 2_556
O1 Dy1 N3 85.3(2) . 2_556
O1 Dy1 N1 74.2(2) . .
O1 Dy1 O4 80.1(2) . .
O2 Dy1 Dy1 32.02(14) 2_556 2_556
O2 Dy1 Dy1 32.08(14) . 2_556
O2 Dy1 Cl1 115.53(15) 2_556 .
O2 Dy1 Cl1 81.43(15) . .
O2 Dy1 Cl1 126.19(14) . 2_656
O2 Dy1 Cl1 88.78(14) 2_556 2_656
O2 Dy1 O2 64.1(2) . 2_556
O2 Dy1 N3 62.9(2) 2_556 2_556
O2 Dy1 N3 124.3(2) . 2_556
O2 Dy1 N1 64.7(2) . .
O2 Dy1 N1 125.9(2) 2_556 .
O2 Dy1 O4 79.0(2) . .
O2 Dy1 O4 80.20(19) 2_556 .
N3 Dy1 Dy1 93.65(14) 2_556 2_556
N3 Dy1 Cl1 68.04(15) 2_556 2_656
N3 Dy1 Cl1 137.40(15) 2_556 .
N1 Dy1 Dy1 95.43(15) . 2_556
N1 Dy1 Cl1 136.84(16) . 2_656
N1 Dy1 Cl1 72.26(16) . .
N1 Dy1 N3 146.6(2) . 2_556
O4 Dy1 Dy1 77.68(14) . 2_556
O4 Dy1 Cl1 145.71(15) . .
O4 Dy1 Cl1 144.19(16) . 2_656
O4 Dy1 N3 76.7(2) . 2_556
O4 Dy1 N1 74.0(2) . .
Dy1 Cl1 Dy1 110.63(7) . 2_656
C1 O1 Dy1 142.1(6) . .
Dy1 O2 Dy1 115.9(2) . 2_556
C8 O2 Dy1 125.0(5) . 2_556
C8 O2 Dy1 118.9(5) . .
C9 N3 Dy1 115.7(5) . 2_556
C12 N3 Dy1 127.8(5) . 2_556
C12 N3 C9 113.6(7) . .
N2 N1 Dy1 116.6(4) . .
C7 N1 Dy1 130.7(6) . .
C7 N1 N2 112.0(7) . .
N1 N2 H2 124.2 . .
C8 N2 N1 111.6(7) . .
C8 N2 H2 124.2 . .
O2 C8 C9 115.6(7) . .
N2 C8 O2 125.6(8) . .
N2 C8 C9 118.7(8) . .
O3 N4 C11 120.0(7) . .
O3 N4 C10 122.3(7) . .
C11 N4 C10 117.7(8) . .
H13A C13 H13B 109.5 . .
H13A C13 H13C 109.5 . .
H13B C13 H13C 109.5 . .
O4 C13 H13A 109.5 . .
O4 C13 H13B 109.5 . .
O4 C13 H13C 109.5 . .
C3 C4 Br1 119.1(6) . .
C5 C4 Br1 119.2(7) . .
C5 C4 C3 121.7(8) . .
N3 C9 C8 113.4(7) . .
N3 C9 C10 125.2(8) . .
C10 C9 C8 121.4(7) . .
N3 C12 H12 117.7 . .
N3 C12 C11 124.6(8) . .
C11 C12 H12 117.7 . .
N1 C7 H7 118.1 . .
N1 C7 C6 123.7(8) . .
C6 C7 H7 118.1 . .
C4 C3 H3 120.9 . .
C4 C3 C2 118.3(8) . .
C2 C3 H3 120.9 . .
O1 C1 C2 119.5(8) . .
O1 C1 C6 122.3(8) . .
C2 C1 C6 118.2(8) . .
C3 C2 C1 122.2(9) . .
C3 C2 H2A 118.9 . .
C1 C2 H2A 118.9 . .
N4 C11 C12 119.3(8) . .
N4 C11 H11 109(6) . .
C12 C11 H11 131(6) . .
C1 C6 C7 124.9(7) . .
C5 C6 C7 115.8(8) . .
C5 C6 C1 118.9(8) . .
N4 C10 H10 120.2 . .
C9 C10 N4 119.5(7) . .
C9 C10 H10 120.2 . .
C4 C5 C6 120.7(8) . .
C4 C5 H5 119.6 . .
C6 C5 H5 119.6 . .
Dy1 O4 H4 114.3 . .
C13 O4 Dy1 131.4(5) . .
C13 O4 H4 114.3 . .
loop_
_geom_bond_atom_site_label_1
_geom_bond_atom_site_label_2
_geom_bond_distance
_geom_bond_site_symmetry_2
Dy1 Dy1 3.9899(9) 2_556
Dy1 Cl1 2.809(2) .
Dy1 Cl1 2.821(2) 2_656
Dy1 O1 2.159(5) .
Dy1 O2 2.352(6) .
Dy1 O2 2.355(5) 2_556
Dy1 N3 2.606(7) 2_556
Dy1 N1 2.473(7) .
Dy1 O4 2.395(6) .
Br1 C4 1.909(8) .
Cl1 Dy1 2.821(2) 2_656
O1 C1 1.320(9) .
O2 Dy1 2.355(5) 2_556
O2 C8 1.312(10) .
O3 N4 1.294(9) .
N3 Dy1 2.606(7) 2_556
N3 C9 1.348(9) .
N3 C12 1.342(10) .
N1 N2 1.429(9) .
N1 C7 1.307(9) .
N2 H2 0.8800 .
N2 C8 1.282(9) .
C8 C9 1.495(11) .
N4 C11 1.364(10) .
N4 C10 1.365(10) .
C13 H13A 0.9800 .
C13 H13B 0.9800 .
C13 H13C 0.9800 .
C13 O4 1.414(10) .
C4 C3 1.378(12) .
C4 C5 1.369(11) .
C9 C10 1.358(12) .
C12 H12 0.9500 .
C12 C11 1.382(12) .
C7 H7 0.9500 .
C7 C6 1.440(11) .
C3 H3 0.9500 .
C3 C2 1.396(11) .
C1 C2 1.400(11) .
C1 C6 1.418(12) .
C2 H2A 0.9500 .
C11 H11 0.93(9) .
C6 C5 1.409(11) .
C10 H10 0.9500 .
C5 H5 0.9500 .
O4 H4 0.9500 .
loop_
_geom_torsion_atom_site_label_1
_geom_torsion_atom_site_label_2
_geom_torsion_atom_site_label_3
_geom_torsion_atom_site_label_4
_geom_torsion
_geom_torsion_site_symmetry_1
_geom_torsion_site_symmetry_4
Dy1 Dy1 Cl1 Dy1 -107.46(7) 2_556 2_656
Dy1 Dy1 O1 C1 -57.2(11) 2_556 .
Dy1 Dy1 O2 C8 174.4(7) 2_556 .
Dy1 Dy1 N1 N2 -23.1(5) 2_556 .
Dy1 Dy1 N1 C7 167.4(7) 2_556 .
Dy1 Dy1 O4 C13 75.8(7) 2_556 .
Dy1 O1 C1 C2 165.6(6) . .
Dy1 O1 C1 C6 -15.7(14) . .
Dy1 O2 C8 N2 162.3(6) 2_556 .
Dy1 O2 C8 N2 -11.6(11) . .
Dy1 O2 C8 C9 -22.1(10) 2_556 .
Dy1 O2 C8 C9 164.0(5) . .
Dy1 N3 C9 C8 20.8(8) 2_556 .
Dy1 N3 C9 C10 -158.9(7) 2_556 .
Dy1 N3 C12 C11 159.2(6) 2_556 .
Dy1 N1 N2 C8 13.3(8) . .
Dy1 N1 C7 C6 -14.6(11) . .
Br1 C4 C3 C2 177.9(6) . .
Br1 C4 C5 C6 -176.6(6) . .
Cl1 Dy1 Cl1 Dy1 0.0 2_656 2_656
Cl1 Dy1 O1 C1 146.7(9) 2_656 .
Cl1 Dy1 O1 C1 77.3(9) . .
Cl1 Dy1 O2 Dy1 67.4(3) 2_656 2_556
Cl1 Dy1 O2 Dy1 123.9(2) . 2_556
Cl1 Dy1 O2 C8 -118.2(5) 2_656 .
Cl1 Dy1 O2 C8 -61.7(6) . .
Cl1 Dy1 N1 N2 75.2(5) . .
Cl1 Dy1 N1 N2 103.3(5) 2_656 .
Cl1 Dy1 N1 C7 -94.3(7) . .
Cl1 Dy1 N1 C7 -66.2(8) 2_656 .
Cl1 Dy1 O4 C13 164.7(6) . .
Cl1 Dy1 O4 C13 -30.7(8) 2_656 .
O1 Dy1 Cl1 Dy1 88.68(17) . 2_656
O1 Dy1 O2 Dy1 -146.1(3) . 2_556
O1 Dy1 O2 C8 28.3(7) . .
O1 Dy1 N1 N2 177.4(5) . .
O1 Dy1 N1 C7 7.9(7) . .
O1 Dy1 O4 C13 -108.5(7) . .
O1 C1 C2 C3 -178.9(7) . .
O1 C1 C6 C7 7.5(13) . .
O1 C1 C6 C5 -179.7(7) . .
O2 Dy1 Cl1 Dy1 -78.17(17) 2_556 2_656
O2 Dy1 Cl1 Dy1 -134.01(15) . 2_656
O2 Dy1 O1 C1 -124.0(8) 2_556 .
O2 Dy1 O1 C1 -6.9(10) . .
O2 Dy1 O2 Dy1 0.0 2_556 2_556
O2 Dy1 O2 C8 174.4(7) 2_556 .
O2 Dy1 N1 N2 -13.5(4) . .
O2 Dy1 N1 N2 -33.9(6) 2_556 .
O2 Dy1 N1 C7 156.7(6) 2_556 .
O2 Dy1 N1 C7 177.0(8) . .
O2 Dy1 O4 C13 108.5(7) . .
O2 Dy1 O4 C13 43.2(7) 2_556 .
O2 C8 C9 N3 -2.0(10) . .
O2 C8 C9 C10 177.7(8) . .
O3 N4 C11 C12 -175.6(8) . .
O3 N4 C10 C9 178.2(8) . .
N3 Dy1 Cl1 Dy1 -1.3(2) 2_556 2_656
N3 Dy1 O1 C1 -145.5(9) 2_556 .
N3 Dy1 O2 Dy1 -19.1(4) 2_556 2_556
N3 Dy1 O2 C8 155.3(5) 2_556 .
N3 Dy1 N1 N2 -128.2(5) 2_556 .
N3 Dy1 N1 C7 62.3(8) 2_556 .
N3 Dy1 O4 C13 -21.1(7) 2_556 .
N3 C9 C10 N4 -3.4(13) . .
N3 C12 C11 N4 -2.4(13) . .
N1 Dy1 Cl1 Dy1 159.87(18) . 2_656
N1 Dy1 O1 C1 7.8(9) . .
N1 Dy1 O2 Dy1 -161.7(3) . 2_556
N1 Dy1 O2 C8 12.7(5) . .
N1 Dy1 O4 C13 175.2(7) . .
N1 N2 C8 O2 -1.7(11) . .
N1 N2 C8 C9 -177.2(6) . .
N1 C7 C6 C1 6.7(13) . .
N1 C7 C6 C5 -166.3(8) . .
N2 N1 C7 C6 175.6(7) . .
N2 C8 C9 N3 174.0(7) . .
N2 C8 C9 C10 -6.3(12) . .
C8 C9 C10 N4 177.0(7) . .
C4 C3 C2 C1 -2.0(12) . .
C9 N3 C12 C11 -0.6(12) . .
C12 N3 C9 C8 -176.8(7) . .
C12 N3 C9 C10 3.5(12) . .
C7 N1 N2 C8 -175.3(7) . .
C7 C6 C5 C4 172.8(7) . .
C3 C4 C5 C6 1.0(13) . .
C1 C6 C5 C4 -0.7(12) . .
C2 C1 C6 C7 -173.8(7) . .
C2 C1 C6 C5 -1.0(12) . .
C11 N4 C10 C9 0.1(12) . .
C6 C1 C2 C3 2.3(12) . .
C10 N4 C11 C12 2.6(12) . .
C5 C4 C3 C2 0.3(12) . .
O4 Dy1 Cl1 Dy1 170.4(2) . 2_656
O4 Dy1 O1 C1 -68.2(9) . .
O4 Dy1 O2 Dy1 -84.4(3) . 2_556
O4 Dy1 O2 C8 90.0(6) . .
O4 Dy1 N1 N2 -98.7(5) . .
O4 Dy1 N1 C7 91.9(7) . .
loop_
_refln_index_h
_refln_index_k
_refln_index_l
_refln_F_squared_meas
_refln_F_squared_sigma
-9 0 1 91.39 114.66
-9 0 2 313.66 128.24
-9 0 3 802.49 172.78
-9 1 -1 209.57 104.93
-9 1 0 12.67 82.93
-9 1 1 340.61 121.81
-9 1 2 141.72 100.16
-9 1 3 462.38 132.44
-9 2 1 476.12 135.34
-9 2 2 115.58 80.28
-9 2 3 253.31 99.85
-9 3 0 74.33 84.17
-9 3 1 449.78 124.46
-9 3 2 161.01 90.61
-9 3 3 -70.86 69.27
-9 4 -1 539.63 137.33
-9 4 0 840.25 162.31
-9 4 1 175.56 88.83
-9 4 2 235.82 103.88
-9 5 -2 619.62 154.31
-9 5 -1 373.82 122.41
-9 5 0 1069.72 186.18
-9 6 -2 556.18 150.27
-8 -3 4 941.6 179.55
-8 -3 5 -31.65 73.58
-8 -2 0 401.31 119.56
-8 -2 1 193.91 93.47
-8 -2 2 648.82 143.75
-8 -2 3 143.54 71.5
-8 -2 3 146.53 87.05
-8 -2 4 119.47 85.22
-8 -2 4 230.75 104.65
-8 -2 5 186.39 87.68
-8 -2 5 50.87 71.12
-8 -2 6 486.26 129.13
-8 -2 6 633.27 144.89
-8 -2 7 574.33 146.56
-8 -1 -3 525.65 136.86
-8 -1 -2 8.89 65.47
-8 -1 -1 237.82 101.76
-8 -1 0 490.32 116.97
-8 -1 1 502.68 125.61
-8 -1 2 110.62 65.71
-8 -1 2 152.7 72.68
-8 -1 3 66.61 67.02
-8 -1 3 -23.79 39.81
-8 -1 4 351.53 110.56
-8 -1 4 96.38 82.29
-8 -1 5 70.5 74.29
-8 -1 5 92.88 87.36
-8 -1 6 821.26 152.62
-8 -1 6 882.5 170.7
-8 -1 7 223.02 98.42
-8 0 -3 -5.02 56.53
-8 0 -2 61.16 69.81
-8 0 -1 340.21 103.77
-8 0 0 474.22 114.63
-8 0 1 825.71 141.53
-8 0 1 855.5 141.87
-8 0 2 -26.66 40.69
-8 0 2 5.45 44.52
-8 0 3 10.4 46.28
-8 0 3 73.13 58.45
-8 0 4 930.59 147.99
-8 0 4 907.1 154
-8 0 5 485.86 110.7
-8 0 5 499.29 129.04
-8 0 6 707.6 148.13
-8 0 7 139.89 80.7
-8 1 -2 445.46 103.54
-8 1 -1 1443.86 186.85
-8 1 0 580.78 114.52
-8 1 0 482.08 107.66
-8 1 1 832.95 131.23
-8 1 1 983.54 148.17
-8 1 2 48.53 49.46
-8 1 2 -43.73 45.71
-8 1 3 11.91 42.68
-8 1 3 37.03 42.4
-8 1 4 997.92 162.12
-8 1 5 617.75 134.41
-8 1 6 918.68 169.27
-8 1 7 105 75.89
-8 2 -1 1451.25 180.43
-8 2 -1 1264.89 163.9
-8 2 0 327.15 85.4
-8 2 0 248.54 79.26
-8 2 1 84.28 51.48
-8 2 1 126.37 62.66
-8 2 2 28.28 42.22
-8 2 3 229.06 81.06
-8 2 4 682.41 132.48
-8 2 5 548.3 130.16
-8 2 6 1.07 65.63
-8 2 7 24.02 50.1
-8 3 -2 727.82 126.02
-8 3 -1 191.27 75.93
-8 3 0 227.9 79.88
-8 3 1 137.6 60.9
-8 3 2 129.62 66.5
-8 3 3 943.11 152.93
-8 3 4 -21.7 62.75
-8 3 5 127.87 77.37
-8 3 6 68.09 61.58
-8 4 -3 360.6 96.7
-8 4 -2 1040.62 151.86
-8 4 -1 3.18 38.22
-8 4 0 -5.66 38.24
-8 4 1 821.05 139.08
-8 4 2 71.68 67.75
-8 4 3 484.22 117.3
-8 4 4 -11.05 58.04
-8 4 5 0.72 54.49
-8 4 6 354.12 108.62
-8 5 -4 1122.9 162.06
-8 5 -3 7.8 52.62
-8 5 -2 541.31 116.11
-8 5 -1 228.18 77.35
-8 5 0 318.37 96.64
-8 5 1 1324.39 183.13
-8 5 2 923.45 160.43
-8 5 3 299.69 103.03
-8 5 4 268.69 102.5
-8 5 5 50.41 48.65
-8 6 -4 562.8 119.55
-8 6 -3 574.17 126.72
-8 6 -2 22.49 43.85
-8 6 -1 174.01 81.4
-8 6 0 1062.46 173.36
-8 6 1 553.1 132.27
-8 6 2 784.97 153.4
-8 6 3 143.91 72.64
-8 7 -5 1014.69 183.34
-8 7 -4 352.92 119.64
-8 7 -3 -0.36 63.49
-8 7 -2 212.84 100.37
-8 7 -1 31.37 60.12
-8 7 0 529.51 129.29
-8 7 1 148.26 81.64
-7 -4 0 1053.48 178.56
-7 -4 1 270.78 98.58
-7 -4 2 712.35 148.78
-7 -4 3 14.47 57.08
-7 -4 4 21.25 52.43
-7 -4 5 751.57 155.25
-7 -4 6 533.51 132.24
-7 -3 -3 139.58 90.95
-7 -3 -2 549.55 134.59
-7 -3 -1 285.08 96.72
-7 -3 0 1132.92 180.81
-7 -3 1 280.09 95.05
-7 -3 2 274.65 90.6
-7 -3 2 122.16 61.97
-7 -3 3 139.37 70.76
-7 -3 3 101.02 72.99
-7 -3 4 461.17 119.39
-7 -3 5 970.17 158.98
-7 -3 6 1593.34 204.39
-7 -3 7 352.22 105.33
-7 -3 8 32.76 56.56
-7 -3 9 363.55 112.49
-7 -2 -5 613.13 143.08
-7 -2 -4 35.77 53.19
-7 -2 -3 59.33 57.58
-7 -2 -2 1473.72 197.77
-7 -2 -1 1055.93 162.74
-7 -2 0 609.83 124.58
-7 -2 1 280.11 79.86
-7 -2 1 154.75 63.32
-7 -2 2 29.09 42.48
-7 -2 2 156.01 68.06
-7 -2 3 119.36 61.59
-7 -2 3 92.98 55.75
-7 -2 4 1494.09 186.89
-7 -2 4 1532.5 187.99
-7 -2 5 367.5 91.85
-7 -2 5 494.47 115.08
-7 -2 6 1039.24 160.72
-7 -2 6 833.58 150.85
-7 -2 7 -57.64 48.07
-7 -2 8 13.78 56.56
-7 -2 9 472.43 125.98
-7 -2 10 160.31 91.98
-7 -1 -4 -3.74 48.98
-7 -1 -3 681.97 133.05
-7 -1 -2 164.51 67.43
-7 -1 -1 798.96 134.72
-7 -1 0 58.08 39.78
-7 -1 0 63.11 39.38
-7 -1 1 466.39 95.93
-7 -1 1 435.64 99.81
-7 -1 2 828.29 133.03
-7 -1 2 623.12 113.74
-7 -1 3 259.03 79.44
-7 -1 3 217.98 70.34
-7 -1 4 684.39 118.12
-7 -1 4 780.36 131.97
-7 -1 5 143.87 67.57
-7 -1 5 8.09 33.88
-7 -1 6 216.86 72.13
-7 -1 6 33.4 56.78
-7 -1 7 294.58 93.19
-7 -1 7 247.56 73.57
-7 -1 8 278.84 84.49
-7 -1 8 89.06 68.99
-7 -1 9 806.28 162.86
-7 -1 9 757.83 136.18
-7 0 -4 210.68 77.08
-7 0 -3 711.55 128.32
-7 0 -2 7.77 34.6
-7 0 -1 790.88 130.07
-7 0 -1 767.22 112.6
-7 0 0 95.15 44.97
-7 0 0 46.99 41.78
-7 0 1 -4.2 29.89
-7 0 1 74.25 33.45
-7 0 2 945.32 135.62
-7 0 2 1195.98 151.9
-7 0 3 1017.57 145.04
-7 0 3 1273.07 154.34
-7 0 4 1040.35 151.95
-7 0 4 1130.57 143.89
-7 0 5 -37.05 41.24
-7 0 5 4.2 37.94
-7 0 6 68.35 47.51
-7 0 6 178.37 65.44
-7 0 7 245.97 83.66
-7 0 7 345.34 89.92
-7 0 8 710.56 145.09
-7 0 9 375.48 115.93
-7 0 10 273.57 104.25
-7 1 -3 1782.71 197.11
-7 1 -2 262 78.2
-7 1 -2 110.95 48.9
-7 1 -1 -11.2 36.93
-7 1 -1 -24.35 40.15
-7 1 0 188.77 59.18
-7 1 0 202.76 65.27
-7 1 1 842.76 122.42
-7 1 1 690.29 112.19
-7 1 2 1159.59 143.77
-7 1 2 1474.7 168.56
-7 1 3 1040.61 149.33
-7 1 3 1150.77 139.79
-7 1 4 20.02 31.81
-7 1 4 1.39 34.36
-7 1 5 -21.22 36.21
-7 1 5 65.55 55.41
-7 1 6 643.33 126.77
-7 1 7 123 64.68
-7 1 8 1451.31 202
-7 1 9 204.77 91.22
-7 1 10 394.68 114.9
-7 2 -3 316.64 73.12
-7 2 -2 137.53 56.3
-7 2 -1 40.71 33.31
-7 2 -1 67.8 43.91
-7 2 0 150.95 55.09
-7 2 0 103.88 48.89
-7 2 1 2748.32 218.56
-7 2 1 2834.19 234.76
-7 2 2 560.9 106.48
-7 2 2 659.08 103.94
-7 2 3 829.74 131.6
-7 2 3 891.33 118.68
-7 2 4 105.46 58.67
-7 2 5 -0.88 38.9
-7 2 6 879.74 147.7
-7 2 7 743.71 139.23
-7 2 8 530.06 122.28
-7 2 9 -17.11 80.72
-7 2 10 13.4 55.11
-7 3 -4 1355.04 152.27
-7 3 -3 80.6 45.1
-7 3 -2 159.14 54.91
-7 3 -1 1322.85 154.3
-7 3 0 523.42 99.63
-7 3 0 389.89 78.11
-7 3 1 1059.1 127.62
-7 3 1 1272.06 157.23
-7 3 2 195.32 70.54
-7 3 3 53.57 46.83
-7 3 4 243.63 78.76
-7 3 5 234.32 79.19
-7 3 6 454.3 106.58
-7 3 7 656.46 129.76
-7 3 8 60.99 71.06
-7 3 9 90.2 76.85
-7 4 -5 305.46 79.47
-7 4 -4 671.1 111.55
-7 4 -3 -63.65 46.33
-7 4 -2 9.02 33.84
-7 4 -1 654.97 112.93
-7 4 0 708.26 117.92
-7 4 1 486.48 101.39
-7 4 2 -6.91 37.31
-7 4 3 243.51 75.66
-7 4 4 167.06 71.51
-7 4 5 846.46 145.59
-7 4 6 131.07 63.37
-7 4 7 272.19 97.78
-7 4 8 -19.9 63.58
-7 4 9 34.57 60.35
-7 5 -5 19.08 45.68
-7 5 -4 -63.24 45.29
-7 5 -3 349.8 90.89
-7 5 -2 909.99 137.43
-7 5 -1 429.94 97.5
-7 5 0 887.99 137.54
-7 5 1 32.31 54.69
-7 5 2 39.77 41.39
-7 5 3 980.92 151.31
-7 5 4 761.37 137.16
-7 5 5 915.66 153.97
-7 5 6 -13.57 63.34
-7 5 7 79.82 65.57
-7 5 8 669.89 147.58
-7 6 -6 287.18 86.28
-7 6 -5 235.05 85.36
-7 6 -4 1030.9 154.73
-7 6 -3 496.91 106.6
-7 6 -2 1502.14 185.23
-7 6 -1 173.02 69.54
-7 6 0 117.14 57.36
-7 6 1 158.7 63.67
-7 6 2 217.25 79.09
-7 6 3 1283.22 177.4
-7 6 4 500.48 117.8
-7 6 5 512.13 129.03
-7 6 6 32.4 48.92
-7 6 7 177.32 91.65
-7 7 -7 663.25 133.94
-7 7 -6 74.07 59.3
-7 7 -5 23.94 43.87
-7 7 -4 938.59 151.6
-7 7 -3 966.58 153.67
-7 7 -2 1406.71 188.09
-7 7 -1 90.21 55.99
-7 7 0 187.54 76.01
-7 7 1 286.47 97.72
-7 7 2 442.14 115.54
-7 7 3 357.05 109.84
-7 7 4 296.27 104.6
-7 7 5 242.38 91.48
-7 7 6 71.09 76.01
-7 8 -8 388.21 123.94
-7 8 -7 721.83 153.21
-7 8 -6 10.35 65.84
-7 8 -5 279.08 103.3
-7 8 -4 816.71 156.81
-7 8 -3 480.43 122.78
-7 8 -2 671.83 140.04
-7 8 -1 149.72 85.24
-7 8 0 49.3 69
-7 8 1 30.52 56.1
-7 8 2 736.27 149.45
-7 8 3 144.92 81.27
-7 9 -5 502.49 134.78
-7 9 -4 353.06 115.63
-7 9 -3 374.73 119.44
-7 9 -2 117.59 81
-6 -6 1 273.21 97.38
-6 -6 2 186.98 78.89
-6 -6 3 181.85 88.02
-6 -5 -4 51.35 61.4
-6 -5 -3 85.01 75.47
-6 -5 -2 702.78 149.25
-6 -5 -1 851.21 157.13
-6 -5 0 1501.61 202.9
-6 -5 1 -24.88 61.1
-6 -5 2 12.63 52.44
-6 -5 3 643.53 129.17
-6 -5 4 198.14 87.21
-6 -5 5 517.28 126.59
-6 -5 6 76.18 73.5
-6 -5 7 -22.23 46.99
-6 -5 8 183.29 92.76
-6 -4 -6 21.68 46.85
-6 -4 -5 233.34 96.15
-6 -4 -4 438.53 121.91
-6 -4 -3 23.4 52.4
-6 -4 -2 1341.27 184.87
-6 -4 -1 5.56 31.94
-6 -4 0 164.51 67.84
-6 -4 1 66.64 51.75
-6 -4 2 198.62 70.06
-6 -4 3 339.61 87.47
-6 -4 4 624 125.16
-6 -4 5 80.82 60.12
-6 -4 6 42.11 47.46
-6 -4 7 1007.95 156.58
-6 -4 8 278.63 93.36
-6 -4 9 1361.69 191.56
-6 -4 10 244.69 93.68
-6 -3 -6 26.34 51.33
-6 -3 -5 -2.44 47.92
-6 -3 -4 416.65 104.46
-6 -3 -3 802.54 141.12
-6 -3 -2 739.59 133.49
-6 -3 -1 83.92 52.73
-6 -3 0 248.54 79.73
-6 -3 1 364.72 92.42
-6 -3 2 1507.43 181.11
-6 -3 3 618.79 117.73
-6 -3 4 1328.08 169.64
-6 -3 5 65.79 46.18
-6 -3 6 -53.8 42.82
-6 -3 7 1411.56 175.09
-6 -3 8 588.8 120.72
-6 -3 9 1279.26 174.06
-6 -3 10 132.09 76.56
-6 -3 11 -40.29 69.98
-6 -3 12 425.91 128.81
-6 -2 -5 698.4 134.58
-6 -2 -4 1679.51 199.1
-6 -2 -3 1157.35 160.99
-6 -2 -2 -40.83 43.91
-6 -2 -1 65.55 41.37
-6 -2 0 1626.74 156.13
-6 -2 0 1521.85 175.42
-6 -2 1 341.04 83.91
-6 -2 1 404.53 81.73
-6 -2 2 2485.1 222.14
-6 -2 3 214.36 69.86
-6 -2 4 208.75 67.33
-6 -2 5 317.57 79.44
-6 -2 6 204.32 67.09
-6 -2 7 1380.08 167.67
-6 -2 8 599.04 112.78
-6 -2 9 280.31 87.35
-6 -2 10 17.99 44.79
-6 -2 11 102.17 60.82
-6 -2 12 181.32 93.35
-6 -2 13 727.27 170.07
-6 -1 -5 2065.99 219.17
-6 -1 -4 4.55 33.7
-6 -1 -3 1255.75 161.84
-6 -1 -2 40.75 43.37
-6 -1 -1 26.18 31.77
-6 -1 -1 37.04 30.41
-6 -1 0 1320.61 154.33
-6 -1 0 1439.54 143.91
-6 -1 1 826.62 114.91
-6 -1 1 924.44 128.55
-6 -1 2 1513.79 163.23
-6 -1 2 1658.23 166.65
-6 -1 3 407.58 85.2
-6 -1 3 279.13 71.78
-6 -1 4 49.8 43.26
-6 -1 4 17.91 26.9
-6 -1 5 199.71 58.22
-6 -1 5 252.59 75.46
-6 -1 6 636.08 104.72
-6 -1 7 230.63 68.16
-6 -1 8 749.96 119.51
-6 -1 9 85.28 50.13
-6 -1 10 129.69 56.04
-6 -1 11 929.1 142.62
-6 -1 12 46.45 76.83
-6 0 -4 938.47 138.67
-6 0 -3 173.35 64.7
-6 0 -2 104.25 50.47
-6 0 -2 25.46 23.15
-6 0 -1 507.02 81.48
-6 0 -1 476.65 92.18
-6 0 0 846.28 108.66
-6 0 0 934.94 124.41
-6 0 1 933.79 122.94
-6 0 1 1111.95 129.08
-6 0 2 212.38 62.21
-6 0 2 191.99 57.8
-6 0 3 298.7 69.46
-6 0 3 428.16 87.55
-6 0 4 522.44 100.64
-6 0 4 541.75 91.51
-6 0 5 280.74 77.07
-6 0 5 325.77 73.09
-6 0 6 1100.16 154.45
-6 0 6 1294.33 142.7
-6 0 7 6.42 42.35
-6 0 7 6.22 26.84
-6 0 8 170.87 69.98
-6 0 8 112.79 43.9
-6 0 9 318.7 78.13
-6 0 9 383.64 99.82
-6 0 10 126.18 79.83
-6 0 11 1024.16 178.86
-6 0 12 140.58 90.82
-6 1 -3 154.46 55.74
-6 1 -3 181 48.76
-6 1 -2 133.47 51.48
-6 1 -2 153.87 48.94
-6 1 -1 1344.81 147.14
-6 1 -1 1384.87 137.39
-6 1 0 94.21 38.25
-6 1 0 164.15 52.16
-6 1 1 697.49 100.51
-6 1 1 556.78 92.34
-6 1 2 295.47 72.09
-6 1 2 195.5 56.27
-6 1 3 124.54 44.98
-6 1 3 80.43 46.52
-6 1 4 2603.84 192
-6 1 4 2416.8 215.73
-6 1 5 203.34 66.93
-6 1 5 113.26 42.47
-6 1 6 1138.56 124.47
-6 1 6 751.25 128.25
-6 1 7 5.14 36.13
-6 1 7 26.26 37.61
-6 1 8 90.21 59.6
-6 1 9 824.26 145.86
-6 1 10 981.19 164.1
-6 1 11 726.37 154.57
-6 1 12 357.66 116.56
-6 2 -4 20.9 30.65
-6 2 -3 1679.75 148.85
-6 2 -2 400.76 76.42
-6 2 -2 354.44 70.32
-6 2 -1 1935.35 169.72
-6 2 -1 2011.67 173.12
-6 2 0 2.13 26.63
-6 2 0 51.63 33
-6 2 1 104.93 39.51
-6 2 1 83.5 44.48
-6 2 2 1236.62 124.97
-6 2 2 1185.86 139.66
-6 2 3 662.47 108.44
-6 2 3 1000.41 108.97
-6 2 4 1178.85 147.85
-6 2 4 1414.92 129.84
-6 2 5 2581.79 179.33
-6 2 5 2313.99 215.06
-6 2 6 118.08 59.46
-6 2 7 246.6 75.3
-6 2 8 1318.83 171.65
-6 2 9 387.65 101.56
-6 2 10 1498.29 199.39
-6 2 11 229.9 95.15
-6 2 12 86.55 81.72
-6 3 -5 306.06 65.99
-6 3 -4 106.53 42.1
-6 3 -3 1617.77 152.8
-6 3 -2 1817.21 163.62
-6 3 -1 870.77 113.65
-6 3 0 7.34 21.7
-6 3 0 1.65 21.16
-6 3 1 429.83 72.13
-6 3 1 443.67 84.86
-6 3 2 529.23 76.59
-6 3 2 423.46 85.7
-6 3 3 2711.25 226.11
-6 3 4 997.15 136.9
-6 3 5 604.74 111.33
-6 3 6 -1.08 38.42
-6 3 7 117.26 53.52
-6 3 8 648.83 121.71
-6 3 9 273.54 87.06
-6 3 10 441.7 116.52
-6 3 11 -50.2 70.49
-6 3 12 36.25 68.43
-6 4 -6 10.55 33.88
-6 4 -5 417.28 80.72
-6 4 -4 1141.13 133.56
-6 4 -3 1080.35 130.81
-6 4 -2 2054.05 183.91
-6 4 -1 224.17 63.2
-6 4 0 231.26 63.48
-6 4 1 699.05 109.58
-6 4 2 233.66 69.1
-6 4 3 1968.93 193.61
-6 4 4 122.38 53.34
-6 4 5 103.09 51.66
-6 4 6 338.61 88.68
-6 4 7 72.91 58
-6 4 8 405.92 102.05
-6 4 9 46.53 49.6
-6 4 10 48.13 62.48
-6 4 11 -35.17 63.2
-6 4 12 480.47 130.82
-6 5 -7 89.55 43.58
-6 5 -6 251.18 67.12
-6 5 -5 78.97 43.32
-6 5 -4 2705.42 222.74
-6 5 -3 367.42 81.96
-6 5 -2 685.97 111.1
-6 5 -1 354.35 82.19
-6 5 0 -3.84 29.86
-6 5 1 855.09 128
-6 5 2 509.62 99.71
-6 5 3 532.21 103.88
-6 5 4 -5.73 31.45
-6 5 5 474.8 105.22
-6 5 6 877.28 140.15
-6 5 7 974.56 155.34
-6 5 8 108 62.87
-6 5 9 280.21 99.73
-6 5 10 248.13 98.04
-6 5 11 219.85 103.04
-6 6 -8 8.94 43.78
-6 6 -7 60.06 51.42
-6 6 -6 824.85 127.55
-6 6 -5 864.92 130.68
-6 6 -4 1057.86 145.3
-6 6 -3 15.72 34.09
-6 6 -2 -18.66 35.28
-6 6 -1 655.9 116.58
-6 6 0 884.67 132.95
-6 6 1 810.66 128.06
-6 6 2 188.41 65.74
-6 6 3 21.81 41.22
-6 6 4 37.64 50.67
-6 6 5 1078.74 157.87
-6 6 6 412.18 102.49
-6 6 7 1151.14 171.96
-6 6 8 74.56 77.83
-6 6 9 -29.13 70.19
-6 6 10 352.01 120.72
-6 7 -8 101.17 69.18
-6 7 -7 654.33 127.88
-6 7 -6 691.89 124.35
-6 7 -5 218.4 75.2
-6 7 -4 605.05 116.63
-6 7 -3 152.02 63.65
-6 7 -2 412.47 100.66
-6 7 -1 577.67 115.85
-6 7 0 1463.23 182.88
-6 7 1 297.28 87.4
-6 7 2 347.09 91.06
-6 7 3 839.49 142.7
-6 7 4 175.32 72.29
-6 7 5 1664.94 207.05
-6 7 6 499.97 121.36
-6 7 7 891.11 157.09
-6 7 8 2.51 69.95
-6 7 9 -0.74 70.69
-6 8 -9 -3.12 62.11
-6 8 -8 92.04 62.11
-6 8 -7 1148.36 175.69
-6 8 -6 782.61 139.25
-6 8 -5 702.11 133.91
-6 8 -4 7.78 33.87
-6 8 -3 74.96 50.07
-6 8 -2 1769.92 209.88
-6 8 -1 721.39 134.01
-6 8 0 1736.05 207.35
-6 8 1 83.36 61.43
-6 8 2 197.57 81.77
-6 8 3 377.96 105.95
-6 8 4 577.89 133.06
-6 8 5 573.22 136.87
-6 8 6 293.22 106.59
-6 8 7 11.29 59.05
-6 9 -9 592.08 142.71
-6 9 -8 585.91 141.76
-6 9 -7 1065.66 184.36
-6 9 -6 316 112.95
-6 9 -5 460.29 124.09
-6 9 -4 168.41 81.02
-6 9 -3 184.72 89.14
-6 9 -2 1183.41 182.6
-6 9 -1 1146.2 183.08
-6 9 0 248.73 98.19
-6 9 1 -81.82 84.75
-6 9 2 212.82 96.39
-6 9 3 254.6 104.18
-6 9 4 192.24 99.2
-5 -7 -3 434.17 120.85
-5 -7 -2 496.05 123.59
-5 -7 -1 180.01 83.15
-5 -7 0 245.63 89.15
-5 -7 1 448.64 120.7
-5 -7 2 163.79 79.71
-5 -7 3 1549.8 210.85
-5 -7 4 46.01 60.59
-5 -7 5 427.52 118.08
-5 -7 6 204.56 84.44
-5 -6 -6 61.09 73.25
-5 -6 -5 137.1 84.58
-5 -6 -4 1439.81 204.19
-5 -6 -3 139.25 71.96
-5 -6 -2 1402.84 193.56
-5 -6 -1 24.44 44.57
-5 -6 0 11.17 44
-5 -6 1 1171.01 170.78
-5 -6 2 740.15 134.3
-5 -6 3 1355.47 184.83
-5 -6 4 2.92 35.11
-5 -6 5 78.36 54.73
-5 -6 6 471.48 114.74
-5 -6 7 773.5 145.98
-5 -6 8 564.13 125.7
-5 -6 9 534.87 131.36
-5 -5 -6 997.85 170.54
-5 -5 -5 267.31 91.3
-5 -5 -4 2045.79 228.73
-5 -5 -3 119.96 53.32
-5 -5 -2 333.46 93.52
-5 -5 -1 111.28 63.75
-5 -5 0 239.3 75.52
-5 -5 1 1070.91 152.12
-5 -5 2 851.91 138.84
-5 -5 3 766.28 128.77
-5 -5 4 66.95 46.11
-5 -5 5 1345.79 173.2
-5 -5 6 363.15 92.16
-5 -5 7 1242.65 170.7
-5 -5 8 106.99 66.25
-5 -5 9 565.29 127.62
-5 -5 10 125.47 79.21
-5 -5 11 -13.91 54.21
-5 -4 -6 921.41 153.67
-5 -4 -5 1145.38 165.12
-5 -4 -4 1031.49 156.05
-5 -4 -3 454 102.28
-5 -4 -2 69.91 45.37
-5 -4 -1 77.47 45.47
-5 -4 0 1584.31 182.09
-5 -4 1 362.46 86.24
-5 -4 2 1592.62 178.99
-5 -4 3 -34.52 35.82
-5 -4 4 176.81 64.11
-5 -4 5 919.53 135.66
-5 -4 6 306.68 82.52
-5 -4 7 1102.03 152.88
-5 -4 8 6.6 37.94
-5 -4 9 3.02 41.58
-5 -4 10 230.47 81.75
-5 -4 11 296.02 103.64
-5 -4 12 391.59 117.69
-5 -3 -6 333.78 92.1
-5 -3 -5 1756.49 199.06
-5 -3 -4 340.46 87.23
-5 -3 -3 287.04 78.76
-5 -3 -2 569.5 105.7
-5 -3 -1 83.89 47.56
-5 -3 0 2303.88 208.91
-5 -3 1 247.44 70.21
-5 -3 2 786.84 116.94
-5 -3 3 820.11 121.74
-5 -3 4 174.31 60.85
-5 -3 5 929.08 130.36
-5 -3 6 577.56 103.32
-5 -3 7 107.92 53.87
-5 -3 8 52.19 35.95
-5 -3 9 251.89 79.51
-5 -3 10 422.24 95.26
-5 -3 11 1469.86 185.61
-5 -3 12 24.54 61.31
-5 -3 13 52.81 71.14
-5 -3 14 228.05 109.12
-5 -2 -5 510.71 104.98
-5 -2 -4 507.12 99.28
-5 -2 -3 -8.73 29.18
-5 -2 -2 1679.89 173.03
-5 -2 -2 1660.17 130.95
-5 -2 -1 412.04 68.25
-5 -2 -1 424.71 87.06
-5 -2 0 2109.55 187.77
-5 -2 1 34.04 32.38
-5 -2 2 569.19 95.07
-5 -2 3 870.26 115.84
-5 -2 4 1364.59 148.4
-5 -2 5 731.01 107.66
-5 -2 6 687.38 105.83
-5 -2 7 16.61 33.38
-5 -2 8 13.58 31.97
-5 -2 9 2817.49 239.86
-5 -2 10 542.73 106.63
-5 -2 11 1407.36 173.3
-5 -2 12 31.27 42.65
-5 -2 13 -68.85 57.98
-5 -2 14 337.97 122.28
-5 -1 -5 19.56 37.86
-5 -1 -4 456.39 91.21
-5 -1 -3 771.28 81.08
-5 -1 -3 866.09 121.34
-5 -1 -2 1885.07 137.93
-5 -1 -2 1704.31 166.78
-5 -1 -1 2059.03 181.15
-5 -1 -1 2223.18 159.82
-5 -1 0 91.61 38.43
-5 -1 0 128.05 46.8
-5 -1 1 262.58 64.23
-5 -1 1 232.24 56.13
-5 -1 2 1039.35 120.22
-5 -1 3 796.33 104.42
-5 -1 4 2558.67 194.84
-5 -1 5 161.77 49.86
-5 -1 6 786.34 105.89
-5 -1 7 404.93 79
-5 -1 8 308.53 74.03
-5 -1 9 2224.26 197.38
-5 -1 10 519.84 97.31
-5 -1 11 497.76 100.14
-5 -1 12 19.31 36.09
-5 -1 13 25.24 53.72
-5 0 -4 350.78 53.55
-5 0 -4 283.17 71.12
-5 0 -3 3407.02 240.59
-5 0 -3 3394.22 188.52
-5 0 -2 600.01 94.03
-5 0 -2 578.69 74.44
-5 0 -1 2309.67 160.48
-5 0 -1 1928.57 167.61
-5 0 0 74.7 37.21
-5 0 0 91.87 35.09
-5 0 1 165.02 46.56
-5 0 1 208.76 50.89
-5 0 2 2570.5 186.73
-5 0 2 2648.24 194.45
-5 0 3 387.55 69.69
-5 0 3 404.06 77.21
-5 0 4 2028.79 180.13
-5 0 4 1815.79 152.12
-5 0 5 112.89 39.87
-5 0 5 72.54 40.11
-5 0 6 242.71 56.26
-5 0 6 169.35 59.63
-5 0 7 419.61 76.27
-5 0 8 704.92 100.42
-5 0 9 374.76 75.45
-5 0 10 299.26 88.34
-5 0 10 232.18 65.29
-5 0 11 46.16 45.91
-5 0 11 18.51 36.98
-5 0 12 38.69 58.95
-5 0 13 536 134.12
-5 0 14 114.59 74.38
-5 1 -5 1513.17 114.59
-5 1 -4 385.09 58.26
-5 1 -3 2333 187.96
-5 1 -3 2160.53 150.73
-5 1 -2 280.37 54.41
-5 1 -2 341.41 67.06
-5 1 -1 865.98 104.84
-5 1 -1 1016.23 105.21
-5 1 0 978.18 108
-5 1 0 899.26 102.6
-5 1 1 650.92 85.24
-5 1 1 463.74 77.27
-5 1 2 1475.71 128.07
-5 1 2 1471.26 142.15
-5 1 3 415.47 67.01
-5 1 3 434.63 78.33
-5 1 4 558.05 78.02
-5 1 4 511.19 88.05
-5 1 5 58.43 29.49
-5 1 5 96.03 34.95
-5 1 6 1957.38 150.81
-5 1 6 1760.36 176.83
-5 1 7 572.25 103.67
-5 1 7 633.14 85.38
-5 1 8 1561.47 178.48
-5 1 8 1747 149.35
-5 1 9 -1.94 32.21
-5 1 9 21.06 34.11
-5 1 10 22.33 36.29
-5 1 11 280.67 87.68
-5 1 12 219.76 83.8
-5 1 13 1346.5 200.6
-5 1 14 175.16 99.69
-5 2 -6 21.33 20.71
-5 2 -5 1192.2 108.68
-5 2 -4 618.32 78.34
-5 2 -3 2189.22 157.01
-5 2 -2 8.84 20.16
-5 2 -2 -21.77 22.92
-5 2 -1 1235.65 120.01
-5 2 -1 1095.68 113.67
-5 2 0 640.89 88.25
-5 2 0 502.33 73.57
-5 2 1 2071.92 167.17
-5 2 1 1824.03 139.32
-5 2 2 154.65 41.3
-5 2 2 183.39 51.44
-5 2 3 868.82 89.14
-5 2 3 578.97 91.87
-5 2 4 192.32 56.04
-5 2 4 295.34 52.33
-5 2 5 -32.84 32.42
-5 2 5 18.86 22.37
-5 2 6 2907.49 230.07
-5 2 6 2992.74 178.15
-5 2 7 913.78 130.45
-5 2 8 426.12 94.31
-5 2 9 44.46 37.1
-5 2 10 -62.77 48.49
-5 2 11 1447.41 185.69
-5 2 12 655.42 131.09
-5 2 13 437.52 119.32
-5 2 14 -0.36 85.7
-5 3 -7 358.65 66.28
-5 3 -6 1163.14 116.11
-5 3 -5 988.21 108.48
-5 3 -4 1289.07 125.19
-5 3 -3 7.64 23.55
-5 3 -2 -7 20.23
-5 3 -1 1814.69 154.78
-5 3 0 978.97 114.06
-5 3 0 936.83 95.5
-5 3 1 2908.06 169.74
-5 3 1 2614.13 197.01
-5 3 2 74.38 27.71
-5 3 2 78.49 38.65
-5 3 3 478.24 59.86
-5 3 3 401.88 77.89
-5 3 4 1251.85 96.7
-5 3 4 1018.46 128.2
-5 3 5 476 89.43
-5 3 6 1248.7 149.73
-5 3 7 159.78 60.92
-5 3 8 227.72 71.5
-5 3 9 90.15 55.04
-5 3 10 387.75 98.31
-5 3 11 634.46 124.61
-5 3 12 1037.2 164.33
-5 3 13 230.14 100.88
-5 3 14 182.4 108.98
-5 4 -8 528.1 89.69
-5 4 -7 508.69 83.24
-5 4 -6 2903 205.47
-5 4 -5 918.41 110.04
-5 4 -4 1328.79 134.92
-5 4 -3 570.81 87.13
-5 4 -2 104.86 39.29
-5 4 -1 2721.68 202.35
-5 4 0 546.45 88.12
-5 4 1 1849.27 168.54
-5 4 2 177.35 56.66
-5 4 3 84.43 42.13
-5 4 4 1746 173.18
-5 4 5 2105.41 195.12
-5 4 6 1193.85 146.35
-5 4 7 551.46 106.18
-5 4 8 241.44 77.34
-5 4 9 26.25 42.61
-5 4 10 1003.19 150.53
-5 4 11 146.84 68.1
-5 4 12 973.64 160.95
-5 4 13 -4.07 80.26
-5 5 -8 981.81 126.64
-5 5 -7 588.91 96.81
-5 5 -6 4593.9 285.57
-5 5 -5 270.19 67.42
-5 5 -4 37.86 37.22
-5 5 -3 1183.68 136.68
-5 5 -2 1324.77 144.85
-5 5 -1 1208.84 137.88
-5 5 0 1253.98 142.49
-5 5 1 261.32 65.14
-5 5 2 25.92 25.88
-5 5 3 1000.86 133.66
-5 5 4 437.83 89.48
-5 5 5 1842.28 189
-5 5 6 11.27 31.52
-5 5 7 34.2 37.03
-5 5 8 120.92 59.33
-5 5 9 46.44 43.02
-5 5 10 961.77 149.11
-5 5 11 233.99 87.19
-5 5 12 44.65 86.76
-5 6 -9 91.16 53.48
-5 6 -8 1228.87 152.72
-5 6 -7 1031.86 136.47
-5 6 -6 621.47 105.79
-5 6 -5 394.49 83.06
-5 6 -4 244.58 66.95
-5 6 -3 181.73 60.07
-5 6 -2 991.8 132.82
-5 6 -1 241.74 66.77
-5 6 0 600.46 102.72
-5 6 1 509.48 97.93
-5 6 2 180.11 60.24
-5 6 3 1247 155.37
-5 6 4 131.79 54.71
-5 6 5 469.88 100.26
-5 6 6 149.67 60.7
-5 6 7 106.4 58.34
-5 6 8 1054.97 155.44
-5 6 9 457.96 104.42
-5 6 10 59.12 48.18
-5 6 10 294.37 87.87
-5 6 11 37.52 82.39
-5 7 -10 6.86 50.96
-5 7 -9 454.86 102.16
-5 7 -8 732.54 126.72
-5 7 -7 989.39 144.67
-5 7 -6 115.7 60.19
-5 7 -5 49.14 37.97
-5 7 -4 554.42 105.45
-5 7 -3 35.8 39.59
-5 7 -2 1453.86 172.7
-5 7 -1 81.82 46.36
-5 7 0 31.49 36.87
-5 7 1 1200.68 160.72
-5 7 2 823.5 132.25
-5 7 3 1679.94 189.79
-5 7 4 176.63 66.25
-5 7 5 47.59 44.27
-5 7 6 230.01 78.01
-5 7 7 804.65 140.57
-5 7 8 576.34 125.88
-5 7 9 1058.95 171.27
-5 7 10 41.79 74.35
-5 7 10 -12.88 76.2
-5 8 -11 257.75 104.46
-5 8 -10 96.28 60
-5 8 -9 1761.29 212.99
-5 8 -8 59.15 58.59
-5 8 -7 186.79 73.59
-5 8 -6 893.2 143.79
-5 8 -5 738.24 131.49
-5 8 -4 2341.26 233.81
-5 8 -3 404.06 97.46
-5 8 -2 796.93 133.02
-5 8 -1 38.84 49.24
-5 8 0 333.44 86.64
-5 8 1 1617.4 194.28
-5 8 2 2286.81 232.15
-5 8 3 47.47 46.45
-5 8 4 301.3 90.97
-5 8 5 16.79 45.99
-5 8 6 -1.32 58.44
-5 8 7 1416.87 195.87
-5 8 8 472.42 128.78
-5 8 9 701.79 139.35
-5 8 9 409.73 124.84
-5 9 -11 1041.64 191.57
-5 9 -10 460.39 133.2
-5 9 -9 702.35 149.22
-5 9 -8 -24.39 58.16
-5 9 -7 55.14 50.54
-5 9 -6 844.31 153.91
-5 9 -5 1117.04 170.79
-5 9 -4 662.73 133
-5 9 -3 952.1 157.18
-5 9 -2 88.16 62.36
-5 9 -1 16.84 37.19
-5 9 0 1843.81 219.78
-5 9 1 546.5 124.35
-5 9 2 778.1 146.83
-5 9 3 218.66 94.53
-5 9 4 6 66.42
-5 9 5 769.99 150.42
-5 9 6 346.39 119.74
-5 9 7 516.39 139.31
-5 9 8 -12.89 97.02
-5 10 -7 444.14 125.8
-5 10 -6 414.27 121.89
-5 10 -5 1227.94 198.29
-5 10 -4 485.65 128.42
-5 10 -3 518.78 128.92
-5 10 -2 137.55 82.11
-5 10 -1 166.5 88.8
-5 10 0 881.21 168.26
-5 10 1 173.41 99.66
-5 10 2 141.47 85.67
-5 10 3 55.27 89.01
-5 10 4 -21.67 75.46
-4 -9 0 447.33 128.36
-4 -9 1 663.25 147.9
-4 -9 2 462.8 130.24
-4 -8 -5 339.54 124.82
-4 -8 -4 1165.88 189.44
-4 -8 -3 452.6 132.35
-4 -8 -2 370.57 110.8
-4 -8 -1 348.48 102.84
-4 -8 0 86.75 73.31
-4 -8 1 1733.03 214.14
-4 -8 2 130.25 69.7
-4 -8 3 613.41 131.77
-4 -8 4 -19.33 59.44
-4 -8 5 -24.78 60.11
-4 -8 6 537.34 127.98
-4 -8 7 419.23 110.57
-4 -7 -6 1282.96 194.15
-4 -7 -5 240.3 90.38
-4 -7 -4 1851.83 220.82
-4 -7 -3 5.57 39.63
-4 -7 -2 192.21 78.87
-4 -7 -1 1245.75 171.47
-4 -7 0 163.57 63.64
-4 -7 1 1297.62 171.49
-4 -7 2 94.68 48.3
-4 -7 3 122 56.24
-4 -7 4 30.25 45.83
-4 -7 5 316.45 87.19
-4 -7 6 818.68 143.1
-4 -7 7 197.61 81.94
-4 -7 8 42.93 49.42
-4 -7 9 43.98 69.53
-4 -6 -6 1730.78 211.25
-4 -6 -5 64.63 48.49
-4 -6 -4 607.34 121.45
-4 -6 -3 72.65 56.67
-4 -6 -2 253.5 77.44
-4 -6 -1 891.78 137.84
-4 -6 0 175.01 67.49
-4 -6 1 221.6 75.61
-4 -6 2 111.7 57.54
-4 -6 3 949.34 140.11
-4 -6 4 1737.3 190.73
-4 -6 5 1386.8 172.25
-4 -6 6 13.16 40.02
-4 -6 7 544.55 112.39
-4 -6 8 560.06 119.94
-4 -6 9 151.56 71.85
-4 -6 10 1384.9 194.53
-4 -6 11 669.17 141.29
-4 -5 -6 774.11 135.81
-4 -5 -5 113.9 63.49
-4 -5 -4 74.8 45.43
-4 -5 -3 911.38 138.29
-4 -5 -2 1428.2 169.85
-4 -5 -1 170.22 60.09
-4 -5 0 1041.03 138.38
-4 -5 1 69.04 40.01
-4 -5 2 24.64 33.02
-4 -5 3 1930.62 190.96
-4 -5 4 707.9 114.14
-4 -5 5 2752.53 233.4
-4 -5 6 65.15 44.39
-4 -5 7 35.52 41.51
-4 -5 8 407.53 94.72
-4 -5 9 610.97 118.06
-4 -5 10 961.94 151.03
-4 -5 11 501.24 115.11
-4 -5 12 32.91 60.86
-4 -5 13 -30.48 71.82
-4 -4 -6 49.39 48.78
-4 -4 -5 393.46 90.33
-4 -4 -4 1377.98 163.41
-4 -4 -3 515.3 97.95
-4 -4 -2 3660.91 263.9
-4 -4 -1 470.06 91.62
-4 -4 0 1297.76 148.09
-4 -4 1 178.29 57.35
-4 -4 2 91.62 41.6
-4 -4 3 2529.8 208.68
-4 -4 4 805.31 116.68
-4 -4 5 756.42 113.25
-4 -4 6 21.86 25.81
-4 -4 7 153.84 57.72
-4 -4 8 323.92 81.46
-4 -4 9 1182.45 156.67
-4 -4 10 173.68 69.55
-4 -4 11 149.98 64.59
-4 -4 12 188.65 79.67
-4 -4 13 34.17 65.32
-4 -4 14 933.9 163.45
-4 -3 -6 9.01 30.03
-4 -3 -5 -39.96 36.11
-4 -3 -4 2517.63 213.84
-4 -3 -3 577.97 99.54
-4 -3 -2 2244.81 191.77
-4 -3 -1 366.89 76.05
-4 -3 0 121.49 45.72
-4 -3 1 762.83 105.63
-4 -3 2 2206.89 183.82
-4 -3 3 912.4 114.42
-4 -3 4 901.53 116.04
-4 -3 5 3.96 22.89
-4 -3 6 -19.32 27.5
-4 -3 7 1014.16 130.15
-4 -3 8 126.3 50.8
-4 -3 9 1073.69 140.58
-4 -3 10 -11.56 29.5
-4 -3 11 29.02 39.52
-4 -3 12 1131.24 159.66
-4 -3 13 109.74 61.92
-4 -3 14 777.28 150.04
-4 -3 15 565.37 143.77
-4 -2 -5 216.97 61.54
-4 -2 -4 1057.04 128.92
-4 -2 -3 1512.74 152.54
-4 -2 -3 1649.76 106.14
-4 -2 -2 71.73 37.28
-4 -2 -1 425.23 76.42
-4 -2 0 428.77 75.34
-4 -2 1 153.01 45.11
-4 -2 2 3105.4 210.11
-4 -2 3 13.63 21.66
-4 -2 4 87.05 35.79
-4 -2 5 1393.47 137.24
-4 -2 6 61.69 29.83
-4 -2 7 2496.64 196.43
-4 -2 8 848 114.82
-4 -2 9 629.96 101.63
-4 -2 10 206.84 61.81
-4 -2 11 634.46 112.21
-4 -2 12 810.08 128.49
-4 -2 13 1095.54 159.48
-4 -2 14 150.19 77.07
-4 -2 15 47.05 81.48
-4 -1 -5 2484.18 204.18
-4 -1 -4 37.19 32.99
-4 -1 -4 76.79 19.91
-4 -1 -3 1428.22 96.59
-4 -1 -3 1309.73 135.31
-4 -1 -2 183.7 36.73
-4 -1 -2 156.76 45.51
-4 -1 -1 50.86 31.78
-4 -1 -1 27.06 16.38
-4 -1 0 2782.89 187.99
-4 -1 1 256.89 53.62
-4 -1 2 2142.86 160.36
-4 -1 3 13.11 16.05
-4 -1 4 196.05 48.74
-4 -1 5 2242.38 167.69
-4 -1 6 1238.56 125.06
-4 -1 7 1323.51 132.38
-4 -1 8 623.56 91.7
-4 -1 9 -13.38 31.43
-4 -1 10 140.6 50.93
-4 -1 11 1740.4 175.65
-4 -1 12 498.24 101.88
-4 -1 13 1089.44 150.7
-4 -1 14 17.6 42.7
-4 0 -5 2469.57 122.65
-4 0 -4 109.66 25.74
-4 0 -4 109.87 42.49
-4 0 -3 343.12 66.36
-4 0 -3 295.93 43.75
-4 0 -2 1504.37 135.05
-4 0 -2 1457.81 106.64
-4 0 -1 1471.53 128.33
-4 0 -1 1357.19 108.02
-4 0 0 4567.15 229.35
-4 0 0 4462.34 236.77
-4 0 1 2291.56 158.25
-4 0 1 2259.72 155.6
-4 0 2 793.54 92.36
-4 0 2 720.67 83.53
-4 0 3 177.79 41.58
-4 0 4 1008.64 99.27
-4 0 5 1019.82 102.04
-4 0 6 3470.96 207.57
-4 0 7 453.03 71.48
-4 0 8 740.38 95.29
-4 0 9 509.75 82.97
-4 0 10 -5.62 26.34
-4 0 11 1894.44 175.29
-4 0 12 223.91 69.76
-4 0 13 848.32 146.87
-4 0 14 -115.24 68.99
-4 0 15 46.04 87.37
-4 1 -6 1150.01 85.68
-4 1 -5 2008.42 121.26
-4 1 -4 184.1 38.23
-4 1 -3 209.3 51.94
-4 1 -3 161.26 34.71
-4 1 -2 1803.57 125.24
-4 1 -2 1929.05 146.38
-4 1 -1 4249.74 227.95
-4 1 -1 4615.95 222.51
-4 1 0 2279.05 152.49
-4 1 0 2275.61 149.7
-4 1 1 1663.79 131.16
-4 1 1 1542.5 117.96
-4 1 2 191.23 40.02
-4 1 2 149.63 42.63
-4 1 3 810.5 81.1
-4 1 3 869.76 99.24
-4 1 4 4235.48 251.68
-4 1 4 4494.45 216.34
-4 1 5 1602.31 149.46
-4 1 5 1639.67 120.76
-4 1 6 2415.17 156.47
-4 1 6 2293.08 187.97
-4 1 7 41.4 39.15
-4 1 7 3.79 21.72
-4 1 8 128.43 40.43
-4 1 8 143.03 52.72
-4 1 9 891.51 128.55
-4 1 9 933.17 104.92
-4 1 10 609.32 88.58
-4 1 10 597.79 108.75
-4 1 11 347.73 87.19
-4 1 12 0.85 41.65
-4 1 13 -23.84 44.88
-4 1 14 172.27 68.52
-4 1 15 738.79 155.37
-4 2 -7 1351.49 107.34
-4 2 -6 1746.71 122.27
-4 2 -5 287.62 49.59
-4 2 -4 596.78 71.53
-4 2 -3 2594.68 158.33
-4 2 -2 1287.32 109.22
-4 2 -1 4528.86 224.88
-4 2 -1 4386.04 228.05
-4 2 0 3.69 12.32
-4 2 0 60.63 27.26
-4 2 1 1621.11 112.82
-4 2 1 1686.31 136.19
-4 2 2 731.48 91
-4 2 2 939.71 79.89
-4 2 3 822.33 98.96
-4 2 3 791.67 73.17
-4 2 4 321.32 46.19
-4 2 4 388.59 70.3
-4 2 5 43.94 19.92
-4 2 5 56.21 25.05
-4 2 6 230.09 41.96
-4 2 6 246.44 58.98
-4 2 7 125.21 36.29
-4 2 7 104.65 43.53
-4 2 8 882.97 88.72
-4 2 8 784.38 115.49
-4 2 8 955.61 93.65
-4 2 9 1029.64 137.37
-4 2 10 783.57 123.34
-4 2 11 -0.26 37.08
-4 2 12 -4.99 42.1
-4 2 13 1081.95 159.07
-4 2 14 224.43 86.06
-4 3 -8 2912.93 183.94
-4 3 -7 453.4 68.02
-4 3 -6 1777.57 137.54
-4 3 -5 91.17 33.89
-4 3 -4 -1.81 16.02
-4 3 -3 1719.09 135.03
-4 3 -2 68.26 28.42
-4 3 -1 1046.5 105.64
-4 3 0 30.31 24.26
-4 3 1 -7.43 20.52
-4 3 1 34.97 19.69
-4 3 2 968.9 73.29
-4 3 2 961.39 107.23
-4 3 3 1545.64 91.2
-4 3 3 1420.34 135.6
-4 3 4 962.64 112.35
-4 3 4 931.8 68.17
-4 3 5 147.7 48.59
-4 3 5 141.12 26.99
-4 3 6 371.52 74.69
-4 3 7 389.66 79.3
-4 3 8 2682.51 217.49
-4 3 9 673.74 89.54
-4 3 9 665.08 110.34
-4 3 10 1181.99 150.21
-4 3 10 1337.1 131.45
-4 3 11 18.17 33.26
-4 3 12 -80.12 51.16
-4 3 13 1195.81 166.76
-4 4 -9 417.86 74.43
-4 4 -8 1384.7 135.31
-4 4 -7 36.77 27.9
-4 4 -6 402.79 70.19
-4 4 -5 1055.86 112.11
-4 4 -4 1538.12 136.13
-4 4 -3 2123.35 162.94
-4 4 -2 626.35 86.63
-4 4 -1 -3.6 19.41
-4 4 0 41.98 27.58
-4 4 1 2517.36 185.06
-4 4 2 1893.76 160.33
-4 4 3 3852.57 242.65
-4 4 4 185.28 55.01
-4 4 5 267.35 63.99
-4 4 6 1673.2 163.14
-4 4 7 179.57 51.01
-4 4 8 2874.08 230.49
-4 4 9 652.32 98.28
-4 4 9 478.17 93.91
-4 4 10 436.42 84.31
-4 4 10 276.74 75.1
-4 4 11 35.06 36.85
-4 4 12 466.13 102.43
-4 5 -10 1420.43 157.17
-4 5 -9 287.9 67.17
-4 5 -8 534.03 89.9
-4 5 -7 159.99 51.32
-4 5 -6 794.02 107.18
-4 5 -5 1279.95 135.02
-4 5 -4 3539.83 232.5
-4 5 -3 501.5 82.04
-4 5 -2 1037.11 119.73
-4 5 -1 1084.23 123.68
-4 5 0 612.07 91.62
-4 5 1 2928.86 212.28
-4 5 2 584.91 92.43
-4 5 3 2076.04 179.64
-4 5 4 19.72 32.81
-4 5 5 22.65 32.22
-4 5 6 1163.54 141.55
-4 5 7 918.68 129.77
-4 5 8 615.5 108
-4 5 9 295.53 76.49
-4 5 9 384.31 83.58
-4 5 10 31.69 43.08
-4 5 10 1.35 46.39
-4 5 11 134.99 59
-4 5 11 66.54 63.74
-4 6 -11 899.79 137.92
-4 6 -10 726.25 122.06
-4 6 -9 1809.31 185.04
-4 6 -8 61.39 37.8
-4 6 -7 130.72 48
-4 6 -6 803.4 116.46
-4 6 -5 338.82 73.8
-4 6 -4 3172.92 233.24
-4 6 -3 77.79 43.75
-4 6 -2 77.47 38.92
-4 6 -1 800.33 112.87
-4 6 0 669.84 103.6
-4 6 1 3062.96 229.67
-4 6 2 616.57 101.23
-4 6 3 334.36 76.72
-4 6 4 3.62 28.62
-4 6 5 384.06 88.41
-4 6 6 517.51 97.71
-4 6 7 711.54 116.26
-4 6 8 42.05 40.77
-4 6 9 45.56 44.91
-4 6 9 2.44 33.32
-4 6 10 744.97 123.16
-4 6 10 643.64 122.16
-4 6 11 68.27 57.72
-4 6 12 971.25 161.66
-4 7 -11 1796.39 205.83
-4 7 -10 373.33 93.18
-4 7 -9 896.72 139.32
-4 7 -8 155.53 60.81
-4 7 -7 144.63 62.91
-4 7 -6 3827.48 282.62
-4 7 -5 1158.25 149.2
-4 7 -4 1154.19 145.21
-4 7 -3 62.28 40.87
-4 7 -2 53.98 37.86
-4 7 -1 754.06 117.73
-4 7 0 978.35 134.23
-4 7 1 300.04 76.24
-4 7 2 661.9 111.4
-4 7 3 310.55 78.71
-4 7 4 88.9 50.81
-4 7 5 1100.23 149.72
-4 7 6 95.77 58.74
-4 7 7 570.98 112.56
-4 7 8 153.83 66.83
-4 7 9 102.67 59.65
-4 7 9 65.61 60.02
-4 7 10 852.67 149.72
-4 7 11 339.33 112.14
-4 8 -12 478.26 120.04
-4 8 -11 1266.24 185.18
-4 8 -10 169.52 79.04
-4 8 -9 -49.5 48.71
-4 8 -8 331.35 95.01
-4 8 -7 474.47 108.34
-4 8 -6 839.12 139.78
-4 8 -5 382.72 94.23
-4 8 -4 9.58 32.88
-4 8 -3 22.82 38.62
-4 8 -2 1354.53 169.68
-4 8 -1 228.81 76.14
-4 8 0 1472.91 176.13
-4 8 1 10.3 40.6
-4 8 2 54.92 49.01
-4 8 3 1269.75 168.08
-4 8 4 600.47 118.24
-4 8 5 1009.32 150.35
-4 8 6 98.31 59.04
-4 8 7 64.85 50.65
-4 8 8 395.72 103.48
-4 8 9 454.53 121.16
-4 9 -12 456.41 136.72
-4 9 -11 9.05 69.43
-4 9 -10 88.65 81.78
-4 9 -9 251.79 94.72
-4 9 -8 339.12 99.34
-4 9 -7 802.19 146.09
-4 9 -6 13.46 39.1
-4 9 -5 296.81 90.45
-4 9 -4 715.51 131.24
-4 9 -3 563.95 116.41
-4 9 -2 1537.32 192.62
-4 9 -1 339 97.51
-4 9 0 284.55 88.35
-4 9 1 154.2 62.44
-4 9 2 202.55 76.14
-4 9 3 1900.86 219
-4 9 4 1924.44 218.17
-4 9 5 387.99 99.53
-4 9 6 -80.1 60.52
-4 9 7 256.83 93.77
-4 10 -9 1685.55 234.18
-4 10 -8 651.08 149.6
-4 10 -7 1083.56 186
-4 10 -6 14.56 55.82
-4 10 -5 16.97 66.2
-4 10 -4 901.98 166.51
-4 10 -3 1267.49 195.18
-4 10 -2 1527.9 210.08
-4 10 -1 139.47 80
-4 10 0 13.64 57.88
-4 10 1 26.6 49.31
-4 10 2 1144.14 185.11
-4 10 3 459.7 125.63
-4 10 4 554.32 144.03
-4 10 5 140.44 86.34
-4 10 6 173.83 114.35
-4 11 -3 1446.2 221.03
-4 11 -2 283.37 105.86
-4 11 -1 488.02 132.99
-4 11 0 -13.47 81.18
-4 11 1 151.06 95.93
-4 11 2 1093.35 194.17
-3 -10 1 348.18 123.33
-3 -10 2 38.56 70.62
-3 -10 3 12.03 64.13
-3 -10 4 541.59 130.93
-3 -9 -2 14.48 59.82
-3 -9 -1 1951.7 223.4
-3 -9 0 261.02 88.27
-3 -9 1 332.76 97.32
-3 -9 2 676.81 135.06
-3 -9 3 59.88 62.78
-3 -9 4 1968.81 228.02
-3 -9 5 399.64 109.08
-3 -9 6 854.27 153.14
-3 -9 7 -92.16 65.93
-3 -8 -5 83.42 67.74
-3 -8 -4 99.24 52.98
-3 -8 -3 1280.67 172.81
-3 -8 -2 400.61 105.97
-3 -8 -1 1848.22 203.7
-3 -8 0 90.24 60.06
-3 -8 1 73.38 50.77
-3 -8 2 322.92 86.99
-3 -8 3 643.99 119.51
-3 -8 4 497.08 106.26
-3 -8 5 1016.33 154.54
-3 -8 6 42.92 41.03
-3 -8 7 -17.59 45.51
-3 -8 8 859.2 155.31
-3 -8 9 340.41 109.92
-3 -8 10 863 163.86
-3 -7 -6 599.81 118.37
-3 -7 -5 95.38 58.79
-3 -7 -4 100.91 57.29
-3 -7 -3 1537.9 181.04
-3 -7 -2 1421.86 171.03
-3 -7 -1 573.67 107.85
-3 -7 0 291.66 80.89
-3 -7 1 447.51 96.03
-3 -7 2 540.27 102.84
-3 -7 3 1543.3 175.89
-3 -7 4 615.24 112.31
-3 -7 5 882.95 136.62
-3 -7 6 148.31 62.78
-3 -7 7 -50.66 44.78
-3 -7 8 1144.94 165.61
-3 -7 9 287.15 88.31
-3 -7 10 1078.41 171.76
-3 -7 11 -23.43 66.75
-3 -6 -6 17.89 45.53
-3 -6 -5 264.27 81.39
-3 -6 -4 1730.85 183.91
-3 -6 -3 410.07 88.87
-3 -6 -2 1420.72 161.48
-3 -6 -1 -6.53 26.76
-3 -6 0 7.85 30.51
-3 -6 1 1090.22 139.17
-3 -6 2 673.51 108.51
-3 -6 3 3342.8 249.29
-3 -6 4 51.81 37.61
-3 -6 5 90.71 42.79
-3 -6 6 465.91 95.27
-3 -6 7 224.04 69.42
-3 -6 8 848.67 133.9
-3 -6 9 54.19 34.64
-3 -6 10 16.74 35.78
-3 -6 11 79.5 64.54
-3 -6 12 707.27 142.95
-3 -6 13 466.26 121.14
-3 -5 -6 558.07 105.64
-3 -5 -5 186.98 62.29
-3 -5 -4 2906.7 230.53
-3 -5 -3 158.5 56.15
-3 -5 -2 1160.38 136.1
-3 -5 -1 561.04 93.32
-3 -5 0 28.31 29.12
-3 -5 1 1735 164.92
-3 -5 2 15.94 22.46
-3 -5 3 192.87 55.01
-3 -5 4 35.28 29.33
-3 -5 5 231.76 62.58
-3 -5 6 1073.14 136.34
-3 -5 7 2158.32 202.19
-3 -5 8 211.48 67.14
-3 -5 9 227.26 71.32
-3 -5 10 510.65 108.88
-3 -5 11 578.41 115.43
-3 -5 12 1701.04 206.8
-3 -5 13 373.93 109.17
-3 -5 14 322.76 101.17
-3 -4 -6 1238.28 147.17
-3 -4 -5 545.99 95.76
-3 -4 -4 1662.96 163.5
-3 -4 -3 89.36 41.04
-3 -4 -2 12.18 27.2
-3 -4 -1 859.63 110.05
-3 -4 0 2143.19 175.78
-3 -4 1 1695.63 153.7
-3 -4 2 947.59 111.9
-3 -4 3 50.87 30.68
-3 -4 4 -4.25 23.47
-3 -4 5 3274.88 227.91
-3 -4 6 1036.04 126.72
-3 -4 7 2013.02 183.43
-3 -4 8 23.9 24.34
-3 -4 9 151.05 58.51
-3 -4 10 989.88 139.42
-3 -4 11 365.35 89.46
-3 -4 12 1330.15 173.6
-3 -4 13 417.61 106.55
-3 -4 14 394.59 107.14
-3 -4 15 47.54 62.11
-3 -3 -6 2829.04 220.19
-3 -3 -5 1256.03 139.4
-3 -3 -4 288.95 65.42
-3 -3 -3 52 30.34
-3 -3 -2 984.41 111.29
-3 -3 -1 1627.13 143.06
-3 -3 0 6698.9 323.6
-3 -3 1 125.59 41.15
-3 -3 2 1472.14 132.2
-3 -3 3 772.61 95.76
-3 -3 4 180.68 47.39
-3 -3 5 2974.54 206.01
-3 -3 6 1201.78 128.51
-3 -3 7 2079.62 177.11
-3 -3 8 121.44 45.34
-3 -3 9 51.47 39.52
-3 -3 10 500.52 96.6
-3 -3 11 954.19 135.97
-3 -3 12 357.25 90.4
-3 -3 13 223.86 77.98
-3 -3 14 60.96 48.67
-3 -3 15 33.44 76.41
-3 -3 16 806.3 168.66
-3 -2 -5 2614.39 197.73
-3 -2 -4 66.48 14.14
-3 -2 -4 44.42 19.23
-3 -2 -4 32.28 25.91
-3 -2 -3 97.8 37.51
-3 -2 -2 4057.01 232.07
-3 -2 -1 66.22 27.77
-3 -2 0 2176.85 155.38
-3 -2 1 139.38 38.78
-3 -2 2 167.28 42.39
-3 -2 3 1243.36 113.84
-3 -2 4 1130.39 111.92
-3 -2 5 2038.08 156.27
-3 -2 6 687.62 91.36
-3 -2 7 61.32 30.13
-3 -2 8 39.46 27.84
-3 -2 9 844.45 113.14
-3 -2 10 205.79 63.12
-3 -2 11 1031.92 136.87
-3 -2 12 3.59 36.54
-3 -2 13 69.14 54.68
-3 -2 14 1811.79 207.24
-3 -2 15 339.44 101.7
-3 -2 16 684.91 155.93
-3 -1 -4 1070.4 112.8
-3 -1 -4 1073.87 58.56
-3 -1 -3 232.46 51.6
-3 -1 -3 340.08 36.42
-3 -1 -2 3041.09 186.85
-3 -1 -2 3170.28 145.92
-3 -1 -1 1933 139.67
-3 -1 0 262.85 48.92
-3 -1 1 7.33 15.06
-3 -1 2 476.6 42.36
-3 -1 2 388.57 57.44
-3 -1 3 598.69 40.06
-3 -1 3 564.14 70.87
-3 -1 4 2847.98 173.31
-3 -1 5 76.94 25.14
-3 -1 6 10.25 15.84
-3 -1 7 1642.9 138.32
-3 -1 8 125.55 41.75
-3 -1 9 1982.36 167.68
-3 -1 10 118.71 46.8
-3 -1 11 572.56 97.36
-3 -1 12 313.51 76.27
-3 -1 13 269.7 79.3
-3 -1 14 1200.27 164.8
-3 -1 15 607.56 125.64
-3 -1 16 313.14 118.56
-3 0 -6 41.44 12.85
-3 0 -5 276.83 29.47
-3 0 -4 847.94 58.46
-3 0 -3 2219.5 155.13
-3 0 -3 2430.7 116.36
-3 0 -2 1212.97 106.19
-3 0 -2 1480.49 90.62
-3 0 -1 1085.89 83.27
-3 0 -1 1211.19 101.15
-3 0 0 419.52 56.1
-3 0 0 502.47 58.47
-3 0 1 86 27.79
-3 0 2 2804.53 153.22
-3 0 3 1231.78 98.18
-3 0 3 1401.71 74.22
-3 0 4 7240.91 298.99
-3 0 4 7648.05 245.66
-3 0 5 132.98 35.17
-3 0 5 115.18 22.6
-3 0 6 18.64 11.45
-3 0 6 9.42 14.12
-3 0 7 2814 125
-3 0 7 2382.4 163.59
-3 0 8 885.31 69.35
-3 0 8 680.89 86.97
-3 0 9 1362.09 131.13
-3 0 10 546.94 87.95
-3 0 11 34.33 27.73
-3 0 12 405.39 84.54
-3 0 13 1179.18 149.88
-3 0 14 694.25 125.65
-3 0 15 1050.19 160.85
-3 1 -7 2.61 11.43
-3 1 -6 5.93 11.87
-3 1 -5 1882.24 105.15
-3 1 -4 2256.32 119.12
-3 1 -3 7398.48 271.68
-3 1 -2 10.63 13.05
-3 1 -2 -6.37 12.32
-3 1 -1 1371.82 101.3
-3 1 -1 1294.19 94.9
-3 1 0 2661.05 143.19
-3 1 0 2809.54 153.21
-3 1 1 956.83 86.72
-3 1 1 844.05 71.85
-3 1 2 6304.09 275.63
-3 1 2 6155.5 240.23
-3 1 3 648.92 78.06
-3 1 3 688.25 62.4
-3 1 4 638.96 81.1
-3 1 4 718.04 66.5
-3 1 5 72.18 31.37
-3 1 5 40.95 19.73
-3 1 6 1420.08 133.04
-3 1 6 1613.59 112.25
-3 1 7 1163.96 124.68
-3 1 7 1072.48 97.14
-3 1 7 1233.23 89.28
-3 1 8 2065.05 176.91
-3 1 8 2306.89 136.09
-3 1 8 2185.95 152.01
-3 1 9 884.83 99.95
-3 1 9 915.59 118.81
-3 1 9 1027.17 93.59
-3 1 10 220.8 55.67
-3 1 10 306.08 71.85
-3 1 10 318.61 57.46
-3 1 11 976.62 131.93
-3 1 11 1172.76 127.19
-3 1 12 333.34 82
-3 1 12 377 81.2
-3 1 13 1695.72 189.57
-3 1 14 196.68 80.65
-3 2 -8 1714.13 121.62
-3 2 -7 368.32 53.47
-3 2 -6 396.4 53.35
-3 2 -5 5547.05 237.57
-3 2 -4 310.86 45.69
-3 2 -3 2268.41 133.6
-3 2 -2 269.28 43.33
-3 2 -1 14.15 15.33
-3 2 0 1511.29 95.01
-3 2 0 1461.39 110.6
-3 2 1 3240.07 144.21
-3 2 1 3248.03 179.48
-3 2 2 2425.14 115.18
-3 2 2 2622.82 159.89
-3 2 3 291.33 34.4
-3 2 3 269.98 50.68
-3 2 4 1013.2 101.88
-3 2 4 990.67 68.47
-3 2 5 281.36 55.78
-3 2 5 171.22 29.88
-3 2 6 1478.03 135.22
-3 2 6 1579.91 100.61
-3 2 7 411.09 73.7
-3 2 7 501.82 60.38
-3 2 7 519.97 64.18
-3 2 8 2077.18 142.68
-3 2 8 2277.71 144.44
-3 2 8 1979.64 169.85
-3 2 9 -1.95 22.62
-3 2 9 2.49 21.69
-3 2 9 -1.68 23.01
-3 2 10 70.28 39.11
-3 2 10 201.18 50.82
-3 2 10 142.17 40.67
-3 2 11 1197.38 143.47
-3 2 11 1490.52 139.76
-3 2 12 225.98 69.85
-3 2 13 929.03 134.49
-3 3 -9 326.11 60.49
-3 3 -8 785.21 91.39
-3 3 -7 686.92 81.43
-3 3 -6 922.09 92.74
-3 3 -5 2423.17 155.11
-3 3 -4 1065.55 96.92
-3 3 -3 389.33 57.92
-3 3 -2 3 13.75
-3 3 -1 860.52 87.87
-3 3 0 1098.55 100.64
-3 3 1 5236.23 253.03
-3 3 2 192.65 43.64
-3 3 2 251.22 26.01
-3 3 3 981.88 50.27
-3 3 3 962.69 100.21
-3 3 4 845.48 48.73
-3 3 4 931.91 100.51
-3 3 5 34.66 23.31
-3 3 5 70.32 16.42
-3 3 6 2828.33 128.72
-3 3 6 2811.96 193.57
-3 3 7 70.41 32.66
-3 3 7 72.17 23.21
-3 3 8 490.8 84.07
-3 3 8 422.49 68.64
-3 3 9 401.64 68.27
-3 3 9 345.46 72.18
-3 3 10 265.23 66.66
-3 3 10 325.74 67.79
-3 3 11 1521.44 151.01
-3 3 11 1168.36 141.58
-3 3 12 766.14 114.37
-3 3 12 458.92 94.87
-3 4 -10 1089.14 125.87
-3 4 -9 160.64 48.4
-3 4 -8 3.09 18.31
-3 4 -7 1016.8 110.27
-3 4 -6 3064.39 196.73
-3 4 -5 606.77 82.44
-3 4 -4 1578.96 131.28
-3 4 -3 320.72 58.16
-3 4 -2 1.88 15.18
-3 4 -1 4555.98 242.36
-3 4 0 777.7 89.72
-3 4 1 1115.23 110.14
-3 4 2 570.38 79.35
-3 4 3 4.79 17.72
-3 4 4 3175.69 205.6
-3 4 5 876.26 104.82
-3 4 6 487.92 80.82
-3 4 7 251.01 61.47
-3 4 8 21.32 23.39
-3 4 8 54.17 31.67
-3 4 9 301.13 72.73
-3 4 9 632.52 94.37
-3 4 10 2263.08 189.55
-3 4 10 2059.19 186.87
-3 4 11 146.28 58.65
-3 4 11 172.17 60.29
-3 4 12 586.55 108.66
-3 4 13 -36.81 56.12
-3 5 -11 936.78 131.59
-3 5 -10 11.36 25.91
-3 5 -9 -57.37 35.57
-3 5 -8 1910.77 171.08
-3 5 -7 19.21 20.53
-3 5 -6 1332.63 135.51
-3 5 -5 37.38 23.51
-3 5 -4 11.29 18.67
-3 5 -3 1133.99 119.84
-3 5 -2 1625.54 143.77
-3 5 -1 4845.45 266.41
-3 5 0 382.26 68.38
-3 5 1 21.37 26.65
-3 5 2 558.74 84.77
-3 5 3 1351.26 134.64
-3 5 4 813.06 104.37
-3 5 5 2590.05 195.96
-3 5 6 264.52 65.46
-3 5 7 19.29 23.07
-3 5 8 1538.17 157.23
-3 5 8 1980.99 174.99
-3 5 9 399.94 83.4
-3 5 9 544.05 95.27
-3 5 10 1876.12 184.12
-3 5 10 1854.68 181.47
-3 5 11 186.96 67.54
-3 5 12 387.17 95.22
-3 5 13 354.93 98.8
-3 6 -11 243.83 79.41
-3 6 -10 377.05 89.1
-3 6 -9 391.73 85.95
-3 6 -8 3152.15 241.63
-3 6 -7 523.48 93.15
-3 6 -6 300.28 71.05
-3 6 -5 -0.41 22.11
-3 6 -4 127.91 44.58
-3 6 -3 2634.07 202.22
-3 6 -2 2560.75 199.45
-3 6 -1 1288.68 137.5
-3 6 0 1064.69 125.92
-3 6 1 379.96 74.75
-3 6 2 210.74 58.05
-3 6 3 2545.53 200.78
-3 6 4 518.21 89.72
-3 6 5 1950.28 177.37
-3 6 6 70.49 38.98
-3 6 7 25.67 32.33
-3 6 8 2121.46 194.85
-3 6 8 1415.93 159.79
-3 6 9 560.33 105.05
-3 6 9 609.64 108.82
-3 6 10 804.16 128.2
-3 6 11 -0.57 52.01
-3 6 12 -23.89 64.39
-3 6 13 155.9 105.46
-3 7 -11 -41.27 49.07
-3 7 -10 919.33 144.68
-3 7 -9 1428.11 174.76
-3 7 -8 1690.77 184.44
-3 7 -7 1607.75 177.27
-3 7 -6 142.21 54.62
-3 7 -5 -1.9 26.64
-3 7 -4 1901.99 185.13
-3 7 -3 1163.85 142.86
-3 7 -2 3624.38 259.16
-3 7 -1 31.8 32.86
-3 7 0 207.64 63.31
-3 7 1 1848.14 179.21
-3 7 2 -4.27 27.96
-3 7 3 1493.9 160.8
-3 7 4 417.82 87.98
-3 7 5 461.2 92.22
-3 7 6 127.21 53.85
-3 7 7 372.93 88.14
-3 7 8 387.48 92.31
-3 7 8 374.27 90.4
-3 7 9 433.63 96.71
-3 7 10 55.49 53.88
-3 7 11 -17.81 61.64
-3 8 -12 25.19 61.35
-3 8 -11 793.12 148.48
-3 8 -10 457.4 110.33
-3 8 -9 1309.2 177.48
-3 8 -8 253.53 83.83
-3 8 -7 760.37 130.58
-3 8 -6 359.4 91
-3 8 -5 70.36 46.65
-3 8 -4 1419.06 173.14
-3 8 -3 526.38 102.99
-3 8 -2 1225.02 155.41
-3 8 -1 226.1 72.9
-3 8 0 94.97 47.93
-3 8 1 318.43 85.52
-3 8 2 980.12 140.57
-3 8 3 1165.34 153.08
-3 8 4 35.9 41.38
-3 8 5 596.73 112.97
-3 8 6 707.36 123.84
-3 8 7 1085.17 154.11
-3 8 8 162.18 75.43
-3 8 9 450.47 121.28
-3 9 -12 -6.08 72.47
-3 9 -11 669.8 148.02
-3 9 -10 228.7 93.72
-3 9 -9 1079.69 175.1
-3 9 -8 -69.46 54.1
-3 9 -7 94.74 44.91
-3 9 -6 340.46 93.69
-3 9 -5 582.37 120.84
-3 9 -4 1169.28 168.5
-3 9 -3 122 64
-3 9 -2 34.33 52.52
-3 9 -1 335.77 91.5
-3 9 0 1089.02 158.34
-3 9 1 956.78 149.47
-3 9 2 714.52 128.96
-3 9 3 25.05 39.29
-3 9 4 100.77 62.67
-3 9 5 1560.85 193.28
-3 9 6 290.55 90.1
-3 9 7 989.75 163.52
-3 10 -10 431.16 129.95
-3 10 -9 220.9 98.16
-3 10 -8 -15.66 68.95
-3 10 -7 613.16 141.03
-3 10 -6 873.85 162.99
-3 10 -5 652.93 136.12
-3 10 -4 130.67 75.68
-3 10 -3 155.25 74.61
-3 10 -2 593.84 126.27
-3 10 -1 283.69 91.85
-3 10 0 1509.43 200.18
-3 10 1 192.09 74.99
-3 10 2 1045.84 165.84
-3 10 3 262.16 94.84
-3 10 4 70.61 63.47
-3 10 5 658.76 141.89
-3 11 -5 1119.85 196.86
-3 11 -4 29.73 70.26
-3 11 -3 17.88 66.02
-3 11 -2 596.61 150.71
-3 11 -1 363.5 122.67
-3 11 0 1510.28 219.03
-3 11 1 249.8 107.11
-3 11 2 23.79 81.05
-3 11 3 310.32 113.75
-3 11 4 718.6 182.51
-2 -10 2 901.97 153.61
-2 -10 3 337.87 97.43
-2 -10 4 966.66 157.15
-2 -10 5 1.98 63.23
-2 -10 6 72.91 67.18
-2 -10 7 362.76 110.82
-2 -9 -1 299.87 83.46
-2 -9 0 369.24 92.68
-2 -9 1 378.45 94.87
-2 -9 2 728.33 127.78
-2 -9 3 526.94 109.18
-2 -9 4 -14.68 35.4
-2 -9 5 25.45 39.09
-2 -9 6 1011.43 154.71
-2 -9 7 189.15 73.99
-2 -9 8 908.56 160.29
-2 -9 9 23.89 53.26
-2 -9 10 104.72 72.84
-2 -8 -4 262.75 75.48
-2 -8 -3 195.27 67.91
-2 -8 -2 10.33 44.38
-2 -8 -1 251.71 73.59
-2 -8 0 357.36 85.28
-2 -8 1 1684.15 179.12
-2 -8 2 88.33 47.45
-2 -8 3 552.69 105.85
-2 -8 4 475.96 97.74
-2 -8 5 138.81 58.46
-2 -8 6 1722.99 193
-2 -8 7 582.25 115.82
-2 -8 8 1358.79 179.93
-2 -8 9 26.19 38.78
-2 -8 10 -9.23 43.76
-2 -8 11 679.56 138.26
-2 -7 -6 1478.63 169.15
-2 -7 -5 235.74 69.93
-2 -7 -4 1435.66 159.77
-2 -7 -3 146.6 53.89
-2 -7 -2 -46.37 34.07
-2 -7 -1 1794.63 173.2
-2 -7 0 833.58 116.8
-2 -7 1 5348.01 319.09
-2 -7 2 679.36 109.11
-2 -7 3 49.82 36.82
-2 -7 4 1219.11 146.61
-2 -7 5 197.24 59.43
-2 -7 6 2027.46 197.99
-2 -7 7 698.42 116.63
-2 -7 8 215.6 71.48
-2 -7 9 39.74 45.23
-2 -7 10 718.28 132.78
-2 -7 11 453.34 113.96
-2 -7 12 1135.24 178.66
-2 -7 13 -17.45 59.73
-2 -6 -6 4046.07 277.06
-2 -6 -5 525.74 92.75
-2 -6 -4 750.31 109.67
-2 -6 -3 459.65 84.7
-2 -6 -2 18.34 24.71
-2 -6 -1 3197.37 225.13
-2 -6 0 1123.09 127.94
-2 -6 1 1418.29 143.47
-2 -6 2 27.98 21.85
-2 -6 3 32.11 30.06
-2 -6 4 430.62 81.81
-2 -6 5 1315.58 145.83
-2 -6 6 230.71 64.24
-2 -6 7 662.44 110.57
-2 -6 8 293.04 75.56
-2 -6 9 67.47 41.07
-2 -6 10 1066.25 150.69
-2 -6 11 12.84 42.49
-2 -6 12 561.48 124.57
-2 -6 13 -27.85 56.29
-2 -6 14 16.88 49.57
-2 -5 -6 2038.36 182.74
-2 -5 -5 105.7 43.38
-2 -5 -4 311.54 68.54
-2 -5 -3 154.74 47.76
-2 -5 -2 806.36 101.77
-2 -5 -1 1117.15 118.91
-2 -5 0 1290.17 128.18
-2 -5 1 7.37 18.02
-2 -5 2 22.58 19.34
-2 -5 3 1769.82 154.58
-2 -5 4 3.94 15.89
-2 -5 5 1539.63 149.71
-2 -5 6 7.45 22.6
-2 -5 7 122.7 49.67
-2 -5 8 1564.62 164.83
-2 -5 9 595.7 103.78
-2 -5 10 1310.08 162.38
-2 -5 11 57.78 43.48
-2 -5 12 15.71 45.86
-2 -5 13 540.18 122.99
-2 -5 14 295.34 113.3
-2 -5 15 612.91 139.62
-2 -4 -6 308.03 68.47
-2 -4 -5 162.7 49.33
-2 -4 -4 304.01 62.26
-2 -4 -3 219.43 50.67
-2 -4 -2 3273.73 204.78
-2 -4 -1 637.78 83.03
-2 -4 0 1117.74 110.44
-2 -4 1 2085.93 155.03
-2 -4 2 433.46 68.87
-2 -4 3 2685.11 183.74
-2 -4 4 297.63 60.32
-2 -4 5 1126 119.94
-2 -4 6 83.9 34.47
-2 -4 7 457.69 81.13
-2 -4 8 2470.33 201.51
-2 -4 9 1960.54 185.82
-2 -4 10 804.81 122.54
-2 -4 11 33.37 42.64
-2 -4 12 42.55 43.25
-2 -4 13 8.07 47.13
-2 -4 14 1418.63 193.17
-2 -4 15 304.47 99.81
-2 -3 -5 41.03 26.2
-2 -3 -4 3718.01 222.13
-2 -3 -4 3913.76 142.34
-2 -3 -3 136.15 39.14
-2 -3 -2 3209.39 190.82
-2 -3 -1 344.16 56.64
-2 -3 0 55.08 23.57
-2 -3 1 4302.41 220.46
-2 -3 2 2848.94 173.36
-2 -3 3 3426.12 196.84
-2 -3 4 729.65 85.94
-2 -3 5 486.48 72.62
-2 -3 6 4.89 18.92
-2 -3 7 3176.53 212.58
-2 -3 8 1655.03 155.25
-2 -3 9 1957.96 176.53
-2 -3 10 -39.91 32.34
-2 -3 11 340.89 81.14
-2 -3 12 1331.92 166.78
-2 -3 13 599.67 117.44
-2 -3 14 915.51 147.55
-2 -3 15 120.27 78.97
-2 -3 16 188.4 91.49
-2 -2 -5 533.75 77.79
-2 -2 -4 4720.89 243.54
-2 -2 -3 2858.75 174
-2 -2 -3 2862.48 112.37
-2 -2 -2 402.95 58.56
-2 -2 -1 180.69 37.79
-2 -2 0 1632.7 116.2
-2 -2 1 1743.59 119.73
-2 -2 2 5523.43 246.94
-2 -2 3 1028.75 92.96
-2 -2 4 1744.68 127.58
-2 -2 5 1218.72 109.08
-2 -2 6 349.2 59.9
-2 -2 7 3881.77 230.38
-2 -2 7 4035.13 136.31
-2 -2 8 263.01 29.98
-2 -2 8 219.51 54.65
-2 -2 9 1214.75 131.53
-2 -2 10 114.69 46.3
-2 -2 11 38.35 35.61
-2 -2 12 1062.62 142.16
-2 -2 13 327.77 87.04
-2 -2 14 489.17 106.8
-2 -2 15 10.06 56.65
-2 -2 16 71.98 75.36
-2 -1 -4 3834.25 208.58
-2 -1 -3 3350.98 187.96
-2 -1 -3 3884.56 124.46
-2 -1 -2 26.96 18.42
-2 -1 -1 70.44 23.9
-2 -1 0 3718.33 175.66
-2 -1 1 961.25 76.86
-2 -1 1 814.83 52.54
-2 -1 2 3701.2 177.65
-2 -1 2 3864.76 126.16
-2 -1 3 57.53 21.76
-2 -1 4 912.39 82.31
-2 -1 5 1755.25 123.91
-2 -1 6 584.67 72.41
-2 -1 6 564.83 38.44
-2 -1 7 1547.03 129.05
-2 -1 7 1704.95 86.15
-2 -1 8 0.66 11.08
-2 -1 8 -5.67 17.19
-2 -1 9 23.62 18.98
-2 -1 9 7.92 18.78
-2 -1 10 75.51 26.99
-2 -1 10 34.8 29.15
-2 -1 11 599.44 97.4
-2 -1 12 325.25 80.59
-2 -1 13 845.56 132.1
-2 -1 14 34.63 48.95
-2 -1 15 98.12 58.64
-2 -1 16 1128.28 179.81
-2 -1 17 31.16 111.91
-2 0 -10 2005.12 146.41
-2 0 -9 189.61 44.5
-2 0 -8 276.11 48.24
-2 0 -5 7084.66 219.06
-2 0 -4 746.34 43.07
-2 0 -3 1435.55 107.34
-2 0 -3 1437.67 67.58
-2 0 -2 1188.18 90.98
-2 0 -2 1326.45 68.64
-2 0 -1 92.64 18.64
-2 0 -1 86.19 22.72
-2 0 0 2864.33 122.83
-2 0 0 3026.21 138.68
-2 0 0 2622.92 127.66
-2 0 1 322.72 30.21
-2 0 1 245.2 33.49
-2 0 2 6088.97 193.15
-2 0 2 5842.37 223.75
-2 0 3 87.04 22.63
-2 0 3 71.42 14.48
-2 0 4 1106.8 82.98
-2 0 5 1849.05 86.93
-2 0 5 1714.18 114.09
-2 0 6 1437.58 109.7
-2 0 6 1494.32 86.48
-2 0 7 98.1 31.96
-2 0 7 120.07 26.18
-2 0 8 83.93 23.78
-2 0 8 94.4 35.58
-2 0 9 2019.11 162.69
-2 0 9 2564.86 147.5
-2 0 10 1044.35 96.68
-2 0 10 838.07 108.11
-2 0 11 2316.26 193.99
-2 0 11 2699.41 172.59
-2 0 12 247.72 70.99
-2 0 13 704.96 115.73
-2 0 14 432.6 95.94
-2 0 15 19.79 48.49
-2 1 -6 494.64 50.63
-2 1 -5 4262.64 172.38
-2 1 -4 67.69 18.03
-2 1 -3 182.18 26.75
-2 1 -2 2369.7 111.68
-2 1 -1 43.94 15.01
-2 1 -1 61.69 18.8
-2 1 0 2418.52 111.99
-2 1 0 2543.14 124.51
-2 1 1 2466.35 107.21
-2 1 1 2465.24 128.99
-2 1 2 9423.73 344.59
-2 1 2 9970.19 305.44
-2 1 3 3766 148.82
-2 1 3 3746.91 184.25
-2 1 4 4276.61 171.03
-2 1 4 3929.21 200.18
-2 1 5 1513.52 96.14
-2 1 6 3520.45 176.74
-2 1 6 3719.78 168.41
-2 1 7 133.72 31.32
-2 1 7 166.33 39.29
-2 1 8 -6.06 16.86
-2 1 8 1.11 17.16
-2 1 9 2825.62 171.98
-2 1 9 2632.48 180.82
-2 1 10 1046.58 116.26
-2 1 10 1158.41 110.97
-2 1 10 978.79 115.05
-2 1 11 2765.43 207.61
-2 1 11 2536.94 199.23
-2 1 11 3039.46 196.99
-2 1 12 63.73 37.43
-2 1 12 119.68 49.4
-2 1 12 70.29 49.96
-2 1 13 -5.01 42.88
-2 1 13 99.17 54.17
-2 1 14 315.98 90.67
-2 2 -7 2780.65 159.97
-2 2 -6 823.18 77.69
-2 2 -5 266.74 41.26
-2 2 -4 1400.4 95.8
-2 2 -3 3383.52 159.51
-2 2 -2 900.39 72.5
-2 2 -1 4915.07 204.58
-2 2 0 239.84 37.81
-2 2 1 1086.78 53.51
-2 2 1 1068.52 83.95
-2 2 2 2024.14 124.41
-2 2 2 1993.3 75.32
-2 2 3 2096.77 84.33
-2 2 3 2108.83 131.5
-2 2 4 7394.77 311.42
-2 2 4 8071.85 255.41
-2 2 5 462.75 64.57
-2 2 5 529.42 49.44
-2 2 6 1657.34 104.1
-2 2 6 1356.42 117.86
-2 2 6 1733.73 117.27
-2 2 7 262.76 47.26
-2 2 7 180.42 43.7
-2 2 7 246.69 44.68
-2 2 8 215.33 42.9
-2 2 8 149.88 44.96
-2 2 8 144.9 38.52
-2 2 9 1826.85 144.15
-2 2 9 1741.55 148.96
-2 2 9 1763.04 139.75
-2 2 10 693.97 92.53
-2 2 10 767.94 97.6
-2 2 10 754.09 100.21
-2 2 11 479.52 82.51
-2 2 11 563.36 89.7
-2 2 11 660.97 94.79
-2 2 12 205.11 63.29
-2 2 12 90.61 46.93
-2 2 12 99.15 46.73
-2 2 13 427.67 89.19
-2 3 -8 2755.07 181.46
-2 3 -7 2093.98 150.46
-2 3 -6 1948.09 138.42
-2 3 -5 943.21 90.38
-2 3 -4 513.45 64.38
-2 3 -3 6096.27 260.63
-2 3 -2 905.66 82.53
-2 3 -1 7771.79 306.39
-2 3 0 249.87 42.8
-2 3 1 218.16 41.17
-2 3 2 3684.93 190.37
-2 3 3 1545.33 116.12
-2 3 4 2573.8 97.33
-2 3 4 2573.91 94.18
-2 3 4 2783.13 165.36
-2 3 5 244.71 48.33
-2 3 5 257.38 29.9
-2 3 6 131.65 25.95
-2 3 6 154.81 40.1
-2 3 7 154.07 33.51
-2 3 7 54.19 29.83
-2 3 7 108.03 35.86
-2 3 8 1542.82 114.83
-2 3 8 1192.22 118.95
-2 3 8 1485.41 131.56
-2 3 9 193.67 46.98
-2 3 9 225.37 53.29
-2 3 9 183.41 49.3
-2 3 10 1472.22 144.47
-2 3 10 999.76 116.45
-2 3 11 78.07 41.04
-2 3 11 198.98 55.53
-2 3 12 20.66 38.45
-2 3 13 1370.17 165.47
-2 3 14 113.32 73.47
-2 4 -9 862.12 111.72
-2 4 -8 5090.28 281.07
-2 4 -7 153.22 45.2
-2 4 -6 403.79 66.03
-2 4 -5 1791.53 140.57
-2 4 -4 507.68 71.62
-2 4 -3 5392.16 260.85
-2 4 -2 2051.42 143.7
-2 4 -1 555.04 71
-2 4 0 138.21 36.46
-2 4 1 1138.62 103.83
-2 4 2 1499.29 121.47
-2 4 3 1681.68 131.17
-2 4 4 45.92 25.43
-2 4 5 571.43 77.24
-2 4 5 452.75 36.06
-2 4 5 492.29 37.58
-2 4 6 1692.97 93.13
-2 4 6 1557.04 133.69
-2 4 7 125.58 42.9
-2 4 7 37.34 25.47
-2 4 8 1829.73 154.33
-2 4 8 2143.52 171.79
-2 4 9 -32.37 29.92
-2 4 9 9.9 27.47
-2 4 10 28.12 31.12
-2 4 10 100.85 46.03
-2 4 11 385.65 88.49
-2 4 12 109.52 59.91
-2 4 13 2431.18 233.48
-2 4 14 771.97 140.07
-2 5 -9 980.32 126.47
-2 5 -8 216.84 62.4
-2 5 -7 32.77 34.15
-2 5 -6 46.36 28.36
-2 5 -5 1317.94 131.92
-2 5 -4 1648.97 144.11
-2 5 -3 589.13 82.85
-2 5 -2 1109.23 112.43
-2 5 -1 1.62 18.25
-2 5 0 239.6 52.25
-2 5 1 3358.3 205.93
-2 5 2 0.88 20.65
-2 5 3 892.31 100.85
-2 5 4 410.87 71.02
-2 5 5 123.8 41.81
-2 5 6 3226.03 211.05
-2 5 7 1184.53 131.93
-2 5 7 1072 117.2
-2 5 8 1377.77 136.86
-2 5 8 1506.35 154.11
-2 5 9 54.18 37.91
-2 5 9 -35.49 33.21
-2 5 10 -22.08 36.45
-2 5 11 1120.26 153.06
-2 5 12 1160.38 160.27
-2 5 13 418.27 109.97
-2 5 14 388.7 116.37
-2 6 -10 815.52 126.37
-2 6 -9 1182.76 149.16
-2 6 -8 455.78 91.62
-2 6 -7 3.51 25.36
-2 6 -6 921.87 120.37
-2 6 -5 126.79 44.9
-2 6 -4 1607.28 155.12
-2 6 -3 10.37 19.6
-2 6 -2 40.67 32.86
-2 6 -1 2451.32 187.65
-2 6 0 435.49 75.57
-2 6 1 4042.85 248.04
-2 6 2 35.37 25.47
-2 6 3 104.99 39.75
-2 6 4 928.5 112.59
-2 6 5 566.03 90.07
-2 6 6 1553.47 150.82
-2 6 7 1129.8 136.29
-2 6 7 1074.4 126.13
-2 6 8 127.45 54.57
-2 6 8 73.02 42.51
-2 6 9 67.05 42.79
-2 6 10 745.53 126.04
-2 6 11 302.22 87.17
-2 6 12 1486.42 193.55
-2 6 13 80.24 75.74
-2 7 -10 224.01 79.38
-2 7 -9 58.19 50.87
-2 7 -8 785.25 128.12
-2 7 -7 285.88 79.68
-2 7 -6 2598.15 224.7
-2 7 -5 464.93 91.67
-2 7 -4 1382.63 154.88
-2 7 -3 287.23 70.31
-2 7 -2 236.29 66.16
-2 7 -1 3274.51 237.54
-2 7 0 1847.76 173.06
-2 7 1 1177.54 136.08
-2 7 2 295.15 70.53
-2 7 3 241.18 64.18
-2 7 4 754.88 109.9
-2 7 5 2204.24 191.21
-2 7 6 683.6 109.24
-2 7 7 962.65 135.67
-2 7 7 1132.55 138.68
-2 7 8 -27.18 48.71
-2 7 9 46.25 49.94
-2 7 10 1201.6 173.71
-2 7 11 101 81.03
-2 8 -10 19.26 41.42
-2 8 -9 37.9 39.28
-2 8 -8 1035.61 156.5
-2 8 -7 464.73 104.64
-2 8 -6 2550.38 240.08
-2 8 -5 758.6 127.21
-2 8 -4 78.9 49.56
-2 8 -3 143.89 61.22
-2 8 -2 2183.03 207.87
-2 8 -1 872.67 129.25
-2 8 0 1638.13 175.02
-2 8 1 434.21 90.45
-2 8 2 351.57 81.44
-2 8 3 1161 146.06
-2 8 4 465.59 93.82
-2 8 5 1952.07 192.7
-2 8 6 57.45 46.74
-2 8 6 59.2 51.98
-2 8 7 715.35 128.08
-2 8 8 534.29 120.17
-2 8 9 320.66 102.17
-2 9 -10 4.21 60.58
-2 9 -9 302.79 99.63
-2 9 -8 610.83 131
-2 9 -7 1283.58 182
-2 9 -6 514.89 114.25
-2 9 -5 592.16 121.14
-2 9 -4 123.02 66.41
-2 9 -3 383.65 98.8
-2 9 -2 1565.31 189.07
-2 9 -1 247.62 81.38
-2 9 0 1336.06 173.38
-2 9 1 576.46 112.36
-2 9 2 35.96 49.89
-2 9 3 475.4 108.6
-2 9 4 51.95 55.32
-2 9 5 485.54 106.62
-2 9 6 5.21 53.51
-2 9 7 161.19 81.81
-2 10 -10 98.11 72.32
-2 10 -9 755.04 164.43
-2 10 -8 280.47 109.67
-2 10 -7 950.37 174.31
-2 10 -6 69.8 61.59
-2 10 -5 27.32 50.75
-2 10 -4 593.17 132.28
-2 10 -3 37.94 51.75
-2 10 -2 716.42 143.66
-2 10 -1 24.77 41.4
-2 10 0 45.92 49.69
-2 10 1 391.13 96.62
-2 10 2 816.8 144.84
-2 10 3 616.22 125.98
-2 10 4 650.49 132.45
-2 10 5 49.98 57.9
-2 11 -6 131.58 84.75
-2 11 -5 500.54 138.21
-2 11 -4 847.09 168.81
-2 11 -3 685.74 162
-2 11 -2 319.26 113.95
-2 11 -1 47.68 77.33
-2 11 0 594.33 147.83
-2 11 1 496.2 135.9
-2 11 2 2189.52 258.2
-1 -11 6 1152.83 187.7
-1 -11 7 1062.24 179.81
-1 -10 3 33.66 37.73
-1 -10 4 728.18 128.48
-1 -10 5 928.75 145.74
-1 -10 6 1395.92 182.31
-1 -10 7 -29.52 50.14
-1 -10 8 229.82 86.57
-1 -10 9 410.06 116.44
-1 -9 0 178.97 64.28
-1 -9 1 1103.34 141.8
-1 -9 2 110.33 48.33
-1 -9 3 -17.22 33.72
-1 -9 4 1320.28 159.16
-1 -9 5 183.09 69.44
-1 -9 6 969.83 145.02
-1 -9 7 -71.71 50.04
-1 -9 8 41.88 42.24
-1 -9 9 348.96 98.47
-1 -9 10 398.86 112.18
-1 -9 11 242.45 88.3
-1 -8 -3 1304.52 142.75
-1 -8 -2 49.41 38.62
-1 -8 -1 2600.89 203.92
-1 -8 0 42.05 36.87
-1 -8 1 302.33 68.04
-1 -8 2 503.69 89.47
-1 -8 3 404.86 82.15
-1 -8 4 1842.11 181.73
-1 -8 5 117.47 49.66
-1 -8 6 31.89 38.32
-1 -8 7 28.08 41.08
-1 -8 8 263.89 78.27
-1 -8 9 579.21 113.71
-1 -8 10 1090.98 160.16
-1 -8 11 -19.28 61.07
-1 -8 12 -13.52 51.95
-1 -7 -5 724.8 102.38
-1 -7 -4 128.08 48.75
-1 -7 -3 1958.77 166.51
-1 -7 -2 499.76 81.23
-1 -7 -1 763.16 101.14
-1 -7 0 66.88 33.39
-1 -7 1 -46.79 30.73
-1 -7 2 2176.36 177.92
-1 -7 3 1692.9 158.23
-1 -7 4 270.77 68.52
-1 -7 5 327.12 75.47
-1 -7 6 554.46 96.84
-1 -7 7 532.78 98.15
-1 -7 8 2584.59 225.54
-1 -7 9 246.48 76.16
-1 -7 10 1383.31 177.38
-1 -7 11 41.86 37.16
-1 -7 12 29.07 46.25
-1 -7 13 1016.11 177.22
-1 -6 -5 830.69 105.88
-1 -6 -4 658.41 89.71
-1 -6 -3 1152.35 117.77
-1 -6 -2 797.11 96.01
-1 -6 -1 11.64 23.57
-1 -6 0 511.31 77.4
-1 -6 1 3259.13 207.41
-1 -6 2 136.44 42.23
-1 -6 3 3697.16 230.87
-1 -6 4 53.9 31.75
-1 -6 5 230.55 58.43
-1 -6 6 1838.39 167.41
-1 -6 7 511.7 91.3
-1 -6 8 2627.75 219.15
-1 -6 9 711.92 115.19
-1 -6 10 429.63 94.79
-1 -6 11 110.94 59.41
-1 -6 12 388.64 97.52
-1 -6 13 809.13 150.83
-1 -6 14 606.05 136.23
-1 -5 -5 453.52 73.52
-1 -5 -4 2967.32 190.97
-1 -5 -3 436.23 67.8
-1 -5 -2 2436.64 163.15
-1 -5 -1 452.66 66.58
-1 -5 0 113.82 35.55
-1 -5 1 4903.61 247.56
-1 -5 2 927.2 99.37
-1 -5 3 2890.43 187.3
-1 -5 4 24.64 21.58
-1 -5 5 141.46 43.11
-1 -5 6 945.41 112.81
-1 -5 7 1022.26 123.17
-1 -5 8 920.04 120.02
-1 -5 9 220.44 64.1
-1 -5 10 51.89 39.4
-1 -5 11 -11.7 43.55
-1 -5 12 647.01 123.51
-1 -5 13 85.11 55.76
-1 -5 14 277 92.69
-1 -5 15 53.37 55.32
-1 -4 -5 392.92 64.64
-1 -4 -4 2991.97 182.36
-1 -4 -3 387.75 58.05
-1 -4 -2 689.3 76.52
-1 -4 -1 2538.09 154.98
-1 -4 0 816.1 82.37
-1 -4 1 3268.64 180.98
-1 -4 2 1247.66 106.41
-1 -4 3 22.32 18.43
-1 -4 4 12.24 15.28
-1 -4 5 863.49 97.7
-1 -4 6 906.06 104.7
-1 -4 7 1457.61 141.36
-1 -4 8 3.04 20.2
-1 -4 9 144.38 50.95
-1 -4 10 1828.49 181.81
-1 -4 11 241.55 70.91
-1 -4 12 1131.61 155.38
-1 -4 13 51.91 39.27
-1 -4 14 36.58 48.88
-1 -4 15 611.73 139.34
-1 -4 16 531.01 137.16
-1 -3 -5 640.44 46.81
-1 -3 -4 1062.71 96.82
-1 -3 -4 1111.5 65.64
-1 -3 -3 597.76 68
-1 -3 -2 1136.46 91.65
-1 -3 -1 516.6 59.39
-1 -3 0 4592.34 205.89
-1 -3 1 361.21 50.47
-1 -3 2 882.41 81.17
-1 -3 3 1415.46 107.13
-1 -3 4 700.4 77.87
-1 -3 5 5004.67 247.91
-1 -3 6 12.04 20.27
-1 -3 7 1017.57 112.14
-1 -3 7 1122.86 77
-1 -3 8 632.3 60.43
-1 -3 8 413.38 75.1
-1 -3 9 290.02 45.13
-1 -3 9 296.12 67.38
-1 -3 10 2907.31 230.95
-1 -3 10 3631.9 183.03
-1 -3 11 2208.03 203.95
-1 -3 12 1102.88 149.86
-1 -3 13 11.07 40.73
-1 -3 14 159.77 68.41
-1 -3 15 483.87 119.91
-1 -3 16 1174.77 189.34
-1 -2 -12 334.7 85.27
-1 -2 -4 62.61 10.83
-1 -2 -4 44.35 20.67
-1 -2 -3 53.88 20.15
-1 -2 -3 60.61 11.88
-1 -2 -2 7934.02 291.56
-1 -2 -2 7833.41 247.5
-1 -2 -1 1360.44 90.62
-1 -2 -1 1483.26 80.3
-1 -2 0 2740.37 134.56
-1 -2 1 327.82 41.26
-1 -2 2 56.17 17.55
-1 -2 3 7838.77 295.43
-1 -2 4 2809.46 156.42
-1 -2 5 3728.52 195.63
-1 -2 5 3704.78 137.68
-1 -2 6 233.17 30.1
-1 -2 6 264.23 51.57
-1 -2 7 93.4 22.4
-1 -2 7 91.42 33.14
-1 -2 8 477.57 52.15
-1 -2 8 604.92 86.3
-1 -2 9 1639.42 153.64
-1 -2 9 1626.28 109.39
-1 -2 10 1395.68 151.16
-1 -2 10 1533.72 112.85
-1 -2 11 1204.91 145.16
-1 -2 11 1282.97 108.96
-1 -2 12 34.36 26.07
-1 -2 13 -9.74 37.05
-1 -2 14 562.26 113.88
-1 -2 15 174.05 66.35
-1 -2 16 1433.95 206.54
-1 -2 17 122.31 88.64
-1 -1 -12 1402.69 154.67
-1 -1 -11 215.96 62.66
-1 -1 -10 47.71 32.99
-1 -1 -3 1111.24 83.53
-1 -1 -2 9370.6 318.83
-1 -1 -1 1053.82 69.03
-1 -1 0 1565.79 83.75
-1 -1 0 1577.96 71.99
-1 -1 1 38.59 13.65
-1 -1 2 30.78 13.32
-1 -1 3 3661.47 162.01
-1 -1 4 2816.36 145.4
-1 -1 4 2766.28 100.46
-1 -1 5 1415.33 104.63
-1 -1 5 1365.36 71.91
-1 -1 6 572.52 69.34
-1 -1 6 546.53 49.06
-1 -1 7 700.72 85.26
-1 -1 7 675.41 60.55
-1 -1 8 163.06 43.83
-1 -1 8 150.8 32.49
-1 -1 9 3491.19 229.52
-1 -1 9 3719.48 187.85
-1 -1 10 275.33 65.31
-1 -1 10 474.9 65.45
-1 -1 11 832.17 118.95
-1 -1 11 952.4 98.81
-1 -1 12 72.01 45.18
-1 -1 12 159.8 48.41
-1 -1 13 56.72 39.66
-1 -1 14 1235.91 166.63
-1 -1 15 105.48 61.7
-1 -1 16 402.06 122.05
-1 -1 17 132.43 102.28
-1 0 -12 933.4 120.01
-1 0 -11 454.46 78.94
-1 0 -10 39.45 27.81
-1 0 -9 4751.81 249.24
-1 0 -8 743.92 85.36
-1 0 -7 3308.2 180.51
-1 0 -3 1986.35 73.73
-1 0 -1 2160.89 98.08
-1 0 -1 2187.75 94.77
-1 0 -1 2259.44 80.06
-1 0 1 1315.21 69.56
-1 0 2 5914.21 198.15
-1 0 3 438.02 41.95
-1 0 3 427.53 30.89
-1 0 4 6841.8 250.69
-1 0 4 6622.12 222.59
-1 0 5 28.36 16.33
-1 0 5 88.88 20.49
-1 0 6 912.45 86.76
-1 0 6 797.25 68.31
-1 0 7 1761.44 134.64
-1 0 7 1880.61 117.84
-1 0 8 1506.9 132.68
-1 0 8 1739.3 120.48
-1 0 9 3618.59 225.96
-1 0 9 3501.08 194.76
-1 0 10 -0.19 26.6
-1 0 10 35.26 25.19
-1 0 11 71.63 44.07
-1 0 11 11.29 25.39
-1 0 12 571.15 87.21
-1 0 12 758.91 116.97
-1 0 13 357.68 85.71
-1 0 13 328.13 69.35
-1 0 14 410.65 97.18
-1 0 15 661.46 128.36
-1 0 16 -29.38 58.63
-1 0 17 25.29 102.2
-1 1 -10 471.65 71.97
-1 1 -9 2634.72 164.48
-1 1 -8 1478.18 111.32
-1 1 -7 554.67 60.61
-1 1 -6 501.47 52.17
-1 1 -4 311.32 36.84
-1 1 -3 6413.72 219.45
-1 1 -2 24.55 10.19
-1 1 -1 1554.92 74.63
-1 1 0 4352.45 155.97
-1 1 1 1601.3 81.59
-1 1 2 8491.89 248.58
-1 1 2 8546.71 282.87
-1 1 3 93.36 17.07
-1 1 3 111.36 23.24
-1 1 4 1000.34 75.51
-1 1 4 892.47 65.88
-1 1 5 336.26 42.89
-1 1 6 407.21 53.55
-1 1 7 3011.61 169.55
-1 1 8 369.58 58.94
-1 1 9 324.72 59.66
-1 1 10 86.07 34.29
-1 1 10 -20.23 21.72
-1 1 11 811.87 106.37
-1 1 11 869.37 101.48
-1 1 12 744.44 117.82
-1 1 12 820.96 111.05
-1 1 13 1694.39 183.85
-1 1 13 2042.98 184.33
-1 1 14 394.67 97.39
-1 1 14 435.48 91.33
-1 1 15 606.61 124.69
-1 2 -6 -1.71 14.82
-1 2 -5 3970.96 190.75
-1 2 -4 768.8 69.32
-1 2 -3 3256.86 154.11
-1 2 -2 327.83 39.74
-1 2 -1 -0.81 8.13
-1 2 0 2343.25 115.53
-1 2 1 12.31 9.66
-1 2 2 2157.72 113.41
-1 2 3 291.98 39.19
-1 2 4 11.34 13.13
-1 2 5 1549.13 103.86
-1 2 5 1577.19 109.47
-1 2 6 3124.73 167.48
-1 2 6 3518.15 184.07
-1 2 7 1252.68 101.02
-1 2 7 1170.79 106.02
-1 2 8 1219.63 105.99
-1 2 8 1544.75 129.72
-1 2 9 77.92 29.08
-1 2 9 110.17 39.7
-1 2 10 0.8 19.62
-1 2 10 66.78 36.64
-1 2 11 3366.4 234.9
-1 2 12 198.85 63.7
-1 2 13 1780.17 180.68
-1 2 14 -8.69 51.46
-1 2 15 71.23 49.93
-1 3 -7 1978.23 150.46
-1 3 -6 578.1 76.31
-1 3 -5 5118.06 244.74
-1 3 -4 569.86 68.13
-1 3 -3 1255.88 99.03
-1 3 -2 1622.16 110.57
-1 3 -1 4971.25 215.34
-1 3 0 3211.2 121.03
-1 3 0 2865.41 152.68
-1 3 1 3209.59 110.24
-1 3 1 2946.05 153.94
-1 3 2 1656.44 68.05
-1 3 2 1538.79 103.42
-1 3 3 546.21 39.45
-1 3 3 513.32 57.68
-1 3 4 3489.92 143.34
-1 3 4 3586.98 175.75
-1 3 5 459.05 57.93
-1 3 5 427.33 60.08
-1 3 6 4493.04 212.24
-1 3 6 4416.17 230.74
-1 3 7 191.34 41.88
-1 3 7 218.45 49.48
-1 3 8 1067.92 99.93
-1 3 8 1118.47 118.4
-1 3 9 1122.34 126.03
-1 3 9 908.26 94.98
-1 3 10 37.09 29.5
-1 3 11 1347.09 151.6
-1 3 12 1444.02 164.26
-1 3 13 851.37 132.25
-1 3 14 -4.53 46.96
-1 3 15 134.35 90.14
-1 4 -7 2753.47 195.55
-1 4 -6 3217.79 206.88
-1 4 -5 1953.29 151.55
-1 4 -4 2941.79 183.47
-1 4 -3 300.83 53.61
-1 4 -2 1432.17 116.42
-1 4 -1 5649.1 257.94
-1 4 0 645.44 72.92
-1 4 1 3783.39 146.19
-1 4 1 3900.63 198.43
-1 4 2 201.92 25.79
-1 4 2 189.3 39.72
-1 4 3 476.93 41.87
-1 4 3 461.65 61.93
-1 4 4 3406.41 184.2
-1 4 5 2399.61 152.84
-1 4 5 2466.1 167.99
-1 4 6 3201.81 181.14
-1 4 6 3100.58 201.2
-1 4 7 3.29 21.46
-1 4 7 21.66 21.25
-1 4 8 -0.55 22.56
-1 4 8 22.84 23.99
-1 4 9 290.1 73.02
-1 4 10 875.02 123.72
-1 4 11 1008.12 139
-1 4 12 502.46 107.21
-1 4 13 -37.88 54.4
-1 4 14 17 64.89
-1 4 15 1173.79 184.98
-1 5 -8 2198.76 191.14
-1 5 -7 817.71 110.54
-1 5 -6 3287.79 225.44
-1 5 -5 409.83 74.12
-1 5 -4 182.75 47.86
-1 5 -3 1369.5 128.23
-1 5 -2 -6.41 18.03
-1 5 -1 3517.96 208.52
-1 5 0 183.53 45.44
-1 5 1 847.09 93.31
-1 5 2 345.79 60.54
-1 5 3 761.58 88.93
-1 5 4 2337.71 160.49
-1 5 5 741.77 95.69
-1 5 5 563.26 76.02
-1 5 6 51.82 31.95
-1 5 6 55.19 25.19
-1 5 7 -5.37 22.58
-1 5 7 -55.08 30.81
-1 5 8 818.9 116.91
-1 5 9 409.06 87.97
-1 5 10 1676.75 183
-1 5 11 -10.66 39.62
-1 5 12 51.1 58.31
-1 5 13 1342.68 192.13
-1 5 14 93.34 72.76
-1 6 -8 2000.01 194.18
-1 6 -7 497.43 93.94
-1 6 -6 1719.61 168.86
-1 6 -5 164.59 50.67
-1 6 -4 51.51 33.75
-1 6 -3 2044.57 172.77
-1 6 -2 729.87 99.63
-1 6 -1 1157.97 123.94
-1 6 0 63.63 34.05
-1 6 1 132.02 43.66
-1 6 2 394.8 70.4
-1 6 3 2526.52 182.42
-1 6 4 185.09 49.62
-1 6 5 528.14 88.72
-1 6 5 524.68 80.28
-1 6 6 566.53 97.26
-1 6 6 577.12 84.94
-1 6 7 6.42 25.72
-1 6 7 24.28 23.36
-1 6 8 1581.47 172.84
-1 6 9 362.74 87.29
-1 6 10 1598.26 189.31
-1 6 11 -10.04 54.38
-1 6 12 -5.13 59.69
-1 7 -9 334.46 89.14
-1 7 -8 1672.11 189.41
-1 7 -7 200.36 67.3
-1 7 -6 -17.54 28.92
-1 7 -5 216.95 65.47
-1 7 -4 1134.22 141.75
-1 7 -3 967.93 129.56
-1 7 -2 1293.07 145.74
-1 7 -1 69.96 42.2
-1 7 0 557.29 94.39
-1 7 1 1637.53 160.45
-1 7 2 2056.96 177.69
-1 7 3 4306.37 267.51
-1 7 4 40.63 31.26
-1 7 5 183.8 61.21
-1 7 5 300.22 69.14
-1 7 6 490.97 96.99
-1 7 6 589.68 94.3
-1 7 7 83.98 57.71
-1 7 8 1726.85 192.87
-1 7 9 571.49 119.62
-1 7 10 326.52 98.15
-1 7 11 -1.41 57.8
-1 8 -9 717.41 135.09
-1 8 -8 50.94 51.96
-1 8 -7 273.36 87.3
-1 8 -6 1069.6 156.19
-1 8 -5 486.56 106.3
-1 8 -4 3479.94 275.3
-1 8 -3 273.51 78.84
-1 8 -2 1672.58 181.04
-1 8 -1 25.21 28.49
-1 8 0 159.11 58.56
-1 8 1 2331.71 208.5
-1 8 2 442.41 90.19
-1 8 3 1851.94 182.71
-1 8 4 47.2 40.97
-1 8 5 21.68 35.58
-1 8 5 74.48 51.49
-1 8 6 539.7 106.89
-1 8 7 1030.98 154.85
-1 8 8 498.38 118.77
-1 8 9 510.29 128.06
-1 9 -8 6.58 46.55
-1 9 -7 51.15 60.98
-1 9 -6 1287.68 182.77
-1 9 -5 241.23 81.78
-1 9 -4 2152.34 230.13
-1 9 -3 323.99 90.37
-1 9 -2 336.67 93.2
-1 9 -1 362.28 91.46
-1 9 0 682.66 122.67
-1 9 1 1098.97 155.48
-1 9 2 638.84 119.11
-1 9 3 23.24 47.08
-1 9 4 17.42 35.42
-1 9 5 716.5 133.82
-1 9 6 198.7 76.78
-1 9 7 865.4 154.83
-1 10 -8 25.69 65.06
-1 10 -7 65.71 77.02
-1 10 -6 822.01 161.65
-1 10 -5 532.74 126.46
-1 10 -4 674.63 145.67
-1 10 -3 395.57 114.86
-1 10 -2 48.41 51.27
-1 10 -1 294.63 91.99
-1 10 0 1407.03 192.69
-1 10 1 119.69 65.92
-1 10 2 709.88 135.53
-1 10 3 163.42 75.52
-1 10 4 12.97 47.47
-1 10 5 985.08 163.7
-1 11 -6 274.74 113.74
-1 11 -5 465.67 139.48
-1 11 -4 81.17 88.67
-1 11 -3 6.2 71.06
-1 11 -2 1370.82 214.87
-1 11 -1 161.06 92.33
-1 11 0 609.45 148.77
-1 11 1 14.7 72.29
-1 11 2 -1.31 50.18
0 -11 8 211.55 94.65
0 -11 9 1384.16 205.09
0 -10 4 887.88 132.47
0 -10 5 -13.21 53.51
0 -10 6 -20.61 44.59
0 -10 7 1221.33 165.79
0 -10 8 1182.32 169.4
0 -10 9 1365.76 192.23
0 -10 10 213.34 92.4
0 -9 1 498.89 90.93
0 -9 2 2209.86 186.92
0 -9 3 706.09 107.89
0 -9 4 260.47 68.34
0 -9 5 43.99 35.23
0 -9 6 199.08 64.67
0 -9 7 456.82 97.84
0 -9 8 1077.96 153.36
0 -9 9 116.48 52.7
0 -9 10 180.36 78.7
0 -9 11 546.98 129.89
0 -9 12 174.36 80.71
0 -8 -1 128.62 46.01
0 -8 0 384.33 69.7
0 -8 1 2322.11 177.67
0 -8 2 520.01 83.56
0 -8 3 332 71.52
0 -8 4 -4.56 25.88
0 -8 5 6.5 26.96
0 -8 6 1549.49 162.74
0 -8 7 205.88 66.07
0 -8 8 725.21 119.39
0 -8 9 165.16 62.42
0 -8 10 53.14 42.46
0 -8 11 861.28 147.23
0 -8 12 397.96 113.15
0 -8 13 292.47 100.33
0 -7 -4 923.34 101.47
0 -7 -3 102.72 38.17
0 -7 -2 50.02 31.21
0 -7 -1 1891.74 145.39
0 -7 0 212.93 48.06
0 -7 1 844.75 96.6
0 -7 2 13.49 27.1
0 -7 3 444.28 74.28
0 -7 4 1888 160.68
0 -7 5 321.35 69.39
0 -7 6 2905.96 217.92
0 -7 7 187.48 61.21
0 -7 8 68.29 40.7
0 -7 9 592.24 110.83
0 -7 10 414.55 96.27
0 -7 11 874.19 142.75
0 -7 12 910.5 153.02
0 -7 13 185.89 79.62
0 -7 14 -12.77 61.57
0 -6 -5 113.09 37.95
0 -6 -4 678.61 81.25
0 -6 -3 1382.74 113.43
0 -6 -2 216.9 44.25
0 -6 -1 4155.68 213.14
0 -6 0 163.24 39.2
0 -6 1 1253.13 110.8
0 -6 2 431.98 65.76
0 -6 3 218.79 49.32
0 -6 4 2296.52 167.72
0 -6 5 2727.48 193.2
0 -6 6 1332.24 136.79
0 -6 7 173.17 51.78
0 -6 8 310.98 72.98
0 -6 9 208.06 64.63
0 -6 10 1828.5 191.24
0 -6 11 783.68 130.56
0 -6 12 771.67 138.91
0 -6 13 -26.1 37.99
0 -6 14 12.87 50.18
0 -5 -4 123.25 35.06
0 -5 -3 1928.24 126.65
0 -5 -2 1353.79 101.81
0 -5 -1 3708.57 184.7
0 -5 0 935.47 83.93
0 -5 1 63.1 23.59
0 -5 2 11.6 15.02
0 -5 3 2009.02 141.25
0 -5 4 2375.84 162.34
0 -5 5 4014.81 229.31
0 -5 6 117.99 38.73
0 -5 7 251.56 59.71
0 -5 8 1214.81 137.03
0 -5 9 215.13 62.77
0 -5 10 868.85 99.22
0 -5 10 971.67 135.03
0 -5 11 -11.12 29.45
0 -5 12 739.56 130
0 -5 13 369.33 98.06
0 -5 14 210.12 86.78
0 -5 15 605.79 139.81
0 -4 -4 1674.99 115.06
0 -4 -3 3621.2 172.42
0 -4 -2 4123.41 183.08
0 -4 -1 1247.46 88
0 -4 0 3499.5 166.28
0 -4 1 176.7 33.09
0 -4 2 185.4 35.29
0 -4 3 3289.68 177.17
0 -4 4 453.94 63.34
0 -4 5 3135.12 188.91
0 -4 6 268.05 56.8
0 -4 7 13.04 15.09
0 -4 7 -8.55 17.91
0 -4 8 1364.56 141.57
0 -4 8 1400.62 112.09
0 -4 9 328.38 56.41
0 -4 9 223.44 60.46
0 -4 10 2631.5 221.23
0 -4 10 2799.57 178.12
0 -4 11 311.62 62.02
0 -4 11 158.3 63.23
0 -4 12 523.48 106.95
0 -4 13 337.07 90.54
0 -4 14 783.25 142.98
0 -4 15 102.83 67.43
0 -4 16 150.73 88.21
0 -3 -14 480.1 121.81
0 -3 -13 1537.39 201.21
0 -3 -3 401.47 46.03
0 -3 -2 3764.41 159.05
0 -3 -1 49.82 16.23
0 -3 0 1900.86 100.88
0 -3 1 2256.54 116.03
0 -3 2 1001.02 76.77
0 -3 3 7203.61 280.62
0 -3 4 9.29 11.26
0 -3 5 24.8 14.12
0 -3 5 9.73 20.06
0 -3 6 1149.46 111.95
0 -3 6 1194.18 88.18
0 -3 7 1094.32 115.54
0 -3 7 1176.39 93.09
0 -3 8 635.63 93.5
0 -3 8 891.92 83.62
0 -3 9 1206.4 137.63
0 -3 9 1374.82 112.31
0 -3 10 -48.59 34.69
0 -3 10 -31.92 24.16
0 -3 11 23.68 34.7
0 -3 11 8.71 22.42
0 -3 12 1503.83 176.83
0 -3 12 1295.27 128
0 -3 13 658.41 125.85
0 -3 14 1223.85 175.62
0 -3 15 -35.35 68.12
0 -3 16 103.4 77.15
0 -2 -14 975.25 155.78
0 -2 -13 454.74 105.58
0 -2 -12 175.81 72.66
0 -2 -3 17.14 9.14
0 -2 -2 1711.24 87.7
0 -2 -2 1901.31 87.53
0 -2 -1 51.32 12.12
0 -2 -1 62.52 15.32
0 -2 0 288.89 29.72
0 -2 0 352 36.91
0 -2 1 2802.83 119.08
0 -2 2 1712.38 93.83
0 -2 3 94.66 18.6
0 -2 3 59.84 19.03
0 -2 4 23.87 16.78
0 -2 4 11.72 10.75
0 -2 5 2334.28 148.79
0 -2 5 2358.67 118.48
0 -2 6 721.07 85.44
0 -2 6 874.86 70.32
0 -2 7 2785.14 190.94
0 -2 7 3114.65 157.75
0 -2 8 290.08 61.04
0 -2 8 270.5 45.63
0 -2 9 839.47 112.36
0 -2 9 855.15 86.25
0 -2 10 621.38 99.21
0 -2 10 524.79 72.3
0 -2 11 231.99 69.3
0 -2 11 70.47 33.4
0 -2 12 3184.83 258.56
0 -2 12 2942.19 202.15
0 -2 13 651.09 121.67
0 -2 13 621.82 96.61
0 -2 14 494.92 110.93
0 -2 15 60.03 58.04
0 -2 16 -59.38 82.39
0 -1 -14 1205.19 162.48
0 -1 -13 30.65 38.1
0 -1 -12 26.67 33.47
0 -1 -11 1926.54 179.37
0 -1 -10 120.15 47.01
0 -1 -9 1934.53 170.2
0 -1 -2 272.7 23.21
0 -1 2 5757.92 201.74
0 -1 2 5775.72 181.05
0 -1 2 5771.68 204.09
0 -1 3 1404.67 78.03
0 -1 3 1214.79 64.59
0 -1 4 12.48 10.55
0 -1 5 3696.76 160.43
0 -1 6 1243.29 89.06
0 -1 7 9270.03 344.64
0 -1 8 760.36 79.08
0 -1 9 253.25 48.31
0 -1 10 764.92 90.91
0 -1 11 690.61 91.4
0 -1 12 1371.1 136.12
0 -1 13 544.01 91.05
0 -1 14 46.49 42.74
0 -1 14 46.64 42.42
0 -1 15 -31.76 43.82
0 -1 16 807.63 160.92
0 -1 17 243.82 111.24
0 0 -14 41.59 45.39
0 0 -13 653.31 107.88
0 0 -12 37.81 37.7
0 0 -11 1762.1 164.41
0 0 -10 588.22 90.03
0 0 -9 168.26 48.48
0 0 -8 456.02 72.16
0 0 -7 1751.62 134.43
0 0 -6 1997.38 135.29
0 0 -5 3803.11 185.68
0 0 -4 13.11 13.27
0 0 -3 222.44 28.77
0 0 3 169.44 24.61
0 0 4 2.63 11.14
0 0 5 3680.29 169.34
0 0 6 2128.6 129.77
0 0 7 1732.71 122.88
0 0 8 349.06 56.6
0 0 9 191.52 47.39
0 0 10 855.92 101.25
0 0 11 1575.69 146.42
0 0 12 122.59 45.7
0 0 13 696.2 105.74
0 0 14 199.96 66.83
0 0 15 41.82 56.21
0 0 16 1011.14 174.45
0 0 17 235.88 116.18
0 1 -10 767.15 99.43
0 1 -9 215.82 50.11
0 1 -8 718.37 83.97
0 1 -7 9093.21 355.9
0 1 -6 1355.01 101.84
0 1 -3 1266.76 65.83
0 1 -2 6135.47 187.22
0 1 -2 5889.44 210.15
0 1 2 249.55 27.51
0 1 2 235.6 21.3
0 1 2 267.23 29.87
0 1 3 272.67 35.54
0 1 3 310.31 27.63
0 1 4 722.1 49.6
0 1 4 772.54 67.73
0 1 5 898.52 79.97
0 1 5 877.46 60.86
0 1 6 2141.14 138.81
0 1 6 2020.8 108.23
0 1 7 44.13 16.41
0 1 7 67.71 27.27
0 1 8 37.92 21.66
0 1 8 17 22.17
0 1 9 1999.82 160.2
0 1 9 2277.36 136.38
0 1 10 249.52 48.2
0 1 10 141.17 44.65
0 1 11 1978.06 174.42
0 1 12 -13.32 31.89
0 1 13 12.23 37.77
0 1 14 1208.38 154.76
0 1 15 318.1 94.86
0 1 16 1312.57 179.72
0 2 -3 100.34 19
0 2 -3 108.28 28.25
0 2 -2 1835.16 108.36
0 2 -2 1986.69 92.09
0 2 -1 3108.27 136.97
0 2 -1 2811.79 121.99
0 2 0 342.71 31.72
0 2 0 318.81 35.65
0 2 1 54.62 13.56
0 2 1 67.39 16.19
0 2 2 1909.98 91.01
0 2 2 1760.5 87.71
0 2 3 12.88 13.13
0 2 3 26.81 11.08
0 2 4 2541.22 144.83
0 2 4 2728.93 118.01
0 2 5 109.67 21.54
0 2 5 61.6 24.68
0 2 6 912.11 92.96
0 2 6 873.79 65.45
0 2 7 2378.82 123.91
0 2 7 2497.84 170.66
0 2 8 251.14 38.45
0 2 8 220.04 52.93
0 2 9 3520.58 226.24
0 2 9 3013.69 157.75
0 2 10 357.59 74.61
0 2 11 500.85 91.24
0 2 12 194.93 63.31
0 2 13 433.91 99.07
0 2 14 882.5 138.08
0 2 15 977.11 155.99
0 2 16 150.73 94.69
0 3 -4 41.73 22.78
0 3 -3 7254.8 300.76
0 3 -2 999.06 87.12
0 3 -1 2186.57 129.16
0 3 0 1778.3 109.96
0 3 1 40.22 16.92
0 3 2 3777.84 167.32
0 3 3 397.39 53.99
0 3 3 322.27 40.58
0 3 4 5802.27 222.23
0 3 4 5487.99 253.59
0 3 5 12 10.84
0 3 5 25.31 20.5
0 3 6 13.41 20.08
0 3 6 11.06 12.79
0 3 7 2004.49 160.28
0 3 7 2068.44 117.74
0 3 8 2346.4 131.42
0 3 8 2583.57 192.52
0 3 9 665.51 101.51
0 3 10 793.61 114.94
0 3 11 263.15 74.28
0 3 12 -3.62 35.64
0 3 13 1737.8 195.4
0 3 14 316.03 91.54
0 3 15 787.29 154.58
0 4 -5 2798.71 194.12
0 4 -4 452.4 71.53
0 4 -3 3379.26 200.34
0 4 -2 179.24 41.96
0 4 -1 197.69 43.13
0 4 0 3543.36 187.83
0 4 1 1332.28 103.92
0 4 2 3915.41 192.03
0 4 3 3244.05 167.86
0 4 3 3206.61 184.74
0 4 4 1707.52 113.32
0 4 4 1588.64 130.94
0 4 5 257.93 55.19
0 4 5 246.96 42.69
0 4 6 1630.91 111.02
0 4 6 1487.09 138.51
0 4 7 890.66 80.07
0 4 7 900.75 113.26
0 4 8 2256.63 190.38
0 4 9 468.89 91.43
0 4 10 501.84 99.68
0 4 11 859.67 135.09
0 4 12 68.92 55.04
0 4 13 1353.62 183.68
0 4 14 153.59 82.18
0 5 -6 121.41 47.79
0 5 -5 3692.06 242.12
0 5 -4 2504.74 188.93
0 5 -3 2326.86 176.73
0 5 -2 47.95 28.19
0 5 -1 82.7 32.89
0 5 0 906.41 96.28
0 5 1 3919.83 216.12
0 5 2 1407.81 118.01
0 5 3 1924.13 137.6
0 5 3 2002.98 151.64
0 5 4 114.07 39.83
0 5 4 131.92 34.53
0 5 5 -39.14 27.37
0 5 5 -3.07 21.47
0 5 6 2520.39 157.56
0 5 6 2729.4 205.49
0 5 7 214.7 60.89
0 5 8 1479.62 162.69
0 5 9 61.16 41.78
0 5 10 51.5 42.88
0 5 11 719.23 131.74
0 5 12 327.9 100.74
0 5 13 711.19 147.98
0 6 -6 1600.45 169.49
0 6 -5 2709.29 217.59
0 6 -4 2205.07 190.27
0 6 -3 219.81 57.51
0 6 -2 451.2 79.86
0 6 -1 1184.65 126.12
0 6 0 122.06 41.67
0 6 1 3851.33 233.31
0 6 2 195.85 50.7
0 6 3 1186.91 117.88
0 6 3 1016.73 116.13
0 6 4 782.6 105.3
0 6 4 624.08 83.14
0 6 5 135.13 48.11
0 6 5 88.49 38.36
0 6 6 1024.23 130.71
0 6 7 84.46 40.38
0 6 8 264.77 74.6
0 6 9 51.53 46.31
0 6 10 269.27 85.97
0 6 11 482.81 120.2
0 6 12 1430.33 204.87
0 7 -6 3306.43 264.74
0 7 -5 414.15 91.42
0 7 -4 1551.97 169.95
0 7 -3 333.14 78.36
0 7 -2 -21.81 31.52
0 7 -1 806.47 116.04
0 7 0 320.05 74.17
0 7 1 1821.11 167.86
0 7 2 88.96 39.11
0 7 3 97.54 42.21
0 7 3 44.09 32.21
0 7 4 832.01 108.96
0 7 4 949.87 124.92
0 7 5 1089.75 140.01
0 7 6 1121.71 146.85
0 7 7 136.23 57.03
0 7 8 618.79 120.5
0 7 9 197.52 86.3
0 7 10 1558.21 208.18
0 8 -6 1459.32 185.16
0 8 -5 98.52 56.68
0 8 -4 -30.77 38.72
0 8 -3 227.78 71.22
0 8 -2 473.75 98.81
0 8 -1 1897.84 194.17
0 8 0 385.7 87.8
0 8 1 150.52 60.22
0 8 2 86.27 49.61
0 8 2 255.71 65.53
0 8 3 1288.07 150.31
0 8 3 1614.64 168.5
0 8 4 716.73 116.91
0 8 5 1971.66 202.63
0 8 6 1.7 31.55
0 8 7 381.24 100.21
0 8 8 534.85 122.8
0 9 -6 193.1 82.02
0 9 -5 51.22 53.72
0 9 -4 326.29 93.71
0 9 -3 653.78 127.72
0 9 -2 1944.04 215.8
0 9 -1 437.36 106.48
0 9 0 1202.52 163.52
0 9 1 272.19 84.89
0 9 2 1.51 42.41
0 9 2 128.93 66.47
0 9 3 2136.38 211.45
0 9 4 422.22 103.83
0 9 5 1357.82 180.83
0 9 6 17.11 46.38
0 9 7 33.38 61.18
0 10 -5 99 64.22
0 10 -4 863.27 160.29
0 10 -3 521.87 129.14
0 10 -2 2402.38 255.93
0 10 -1 221.44 91.92
0 10 0 416.82 113.13
0 10 1 782.38 146.16
0 10 1 494.58 107.7
0 10 2 357.69 92.16
0 10 3 691.7 136.24
0 10 4 452.83 117.95
0 11 -4 1124.48 203.07
0 11 -3 537.18 143.19
0 11 -2 282.29 115.23
0 11 -1 82.2 89.66
0 11 0 148.42 109.85
0 11 0 161.63 83.06
0 11 1 205.01 96.55
0 11 2 703.14 138.88
1 -10 6 665.54 116.2
1 -10 7 22.29 40.25
1 -10 8 82.32 57.92
1 -10 9 878.07 150.54
1 -10 10 479.21 125.3
1 -10 11 1181.12 183.41
1 -9 3 377.77 74.31
1 -9 4 2235.84 188.52
1 -9 5 271.12 67.29
1 -9 6 1318.1 151.04
1 -9 7 7.61 37.56
1 -9 8 25.67 52.85
1 -9 9 1538.21 186.65
1 -9 10 729.09 134.25
1 -9 11 1233.87 183.82
1 -9 12 11.04 58.86
1 -8 1 51.27 27.36
1 -8 2 1720.12 144.12
1 -8 3 365.1 68.52
1 -8 4 3618.3 231.32
1 -8 5 1053.56 122.33
1 -8 6 815.6 113.11
1 -8 7 174.13 63.31
1 -8 8 136.8 56.31
1 -8 9 744.75 125.24
1 -8 10 972.19 147.27
1 -8 11 39.54 54.46
1 -8 12 -59.55 57.55
1 -8 13 184.38 89.32
1 -7 -2 2078.59 131.04
1 -7 -1 1910.34 127.58
1 -7 0 730.54 78.12
1 -7 1 160.62 40.79
1 -7 2 1174.66 108.55
1 -7 3 1112.13 110.51
1 -7 4 1482.65 133.62
1 -7 5 410.6 71.69
1 -7 6 9.99 26.23
1 -7 7 29.24 30.38
1 -7 8 1793.15 177.99
1 -7 9 262.13 73.91
1 -7 10 702.94 123.36
1 -7 11 29.45 41.32
1 -7 12 -32.74 38.1
1 -7 13 1006.03 171.6
1 -7 14 202.45 86.75
1 -6 -4 278.05 41.46
1 -6 -3 2933.32 146.65
1 -6 -2 582.14 59.09
1 -6 -1 229.11 38.55
1 -6 0 30.35 17.98
1 -6 1 1057.48 90.94
1 -6 2 825.45 83.05
1 -6 3 2190.2 149.88
1 -6 4 -28.42 19.93
1 -6 5 108.98 39.47
1 -6 6 1621.88 147.43
1 -6 7 577.09 92.76
1 -6 8 1496.71 157.78
1 -6 9 13.37 24.87
1 -6 10 3.16 29.36
1 -6 11 779 110.11
1 -6 11 748.14 127.16
1 -6 12 485.93 111.12
1 -6 13 1250.95 181.86
1 -6 14 376.16 114.66
1 -6 15 185.64 93.96
1 -5 -3 747.4 60.89
1 -5 -2 355.58 40.03
1 -5 -1 978.31 71.41
1 -5 0 191.13 32.53
1 -5 1 3618.17 170.11
1 -5 2 0.09 11.26
1 -5 3 1399.73 108.59
1 -5 4 172.91 39.96
1 -5 5 382.19 64.26
1 -5 6 3137.7 207.77
1 -5 7 577.54 88.94
1 -5 8 1913.74 174.08
1 -5 8 1981.17 154.92
1 -5 9 -23.38 28.14
1 -5 9 -50.58 30.89
1 -5 10 250.72 70.95
1 -5 10 357.63 71.62
1 -5 11 991.66 146.73
1 -5 11 1031.64 122.84
1 -5 12 1189.3 165.9
1 -5 12 1423.91 148.13
1 -5 13 764.87 141.79
1 -5 14 814.61 152.35
1 -5 15 -26.93 74.55
1 -4 -15 973.68 195.51
1 -4 -14 30.09 83.31
1 -4 -3 417.24 39.5
1 -4 -2 193.42 24.9
1 -4 -1 3732.06 144.14
1 -4 0 732.58 55.46
1 -4 1 5517.13 212.42
1 -4 2 1403.88 95.25
1 -4 3 372.16 51.41
1 -4 4 2488.94 155.16
1 -4 5 1862.14 140.85
1 -4 5 1813.88 129.71
1 -4 6 3065.02 199.01
1 -4 6 2986.02 177.97
1 -4 7 2532.75 190.17
1 -4 7 2820.4 174.94
1 -4 8 583.42 93.26
1 -4 8 635.31 80.61
1 -4 9 687.31 108.24
1 -4 9 728.91 92.13
1 -4 10 899.24 129.21
1 -4 10 1058.27 115.26
1 -4 11 599.76 112.87
1 -4 11 493.13 84.3
1 -4 12 1701.24 196.98
1 -4 12 1840.43 166.11
1 -4 13 80.39 60
1 -4 13 97.84 46.02
1 -4 14 441.3 114.87
1 -4 15 234.57 101.4
1 -3 -15 78.74 95.5
1 -3 -14 75.24 65.23
1 -3 -13 1368.41 192.3
1 -3 -2 1702.15 70.84
1 -3 -1 2990.89 106.07
1 -3 0 3083.8 117.13
1 -3 1 4808.89 179.12
1 -3 2 1639.52 97.91
1 -3 3 1216.93 91.57
1 -3 3 1137.12 88.68
1 -3 4 456.42 56.12
1 -3 5 4733.3 217.9
1 -3 6 475.85 61.4
1 -3 7 1794.46 130.68
1 -3 8 606.7 76.99
1 -3 9 99.94 36.77
1 -3 10 1594.43 139.75
1 -3 11 222.18 54.45
1 -3 12 697.63 101.47
1 -3 13 -4.55 27.16
1 -3 14 58.68 57.02
1 -3 14 -110.37 53.45
1 -3 15 888.43 161.38
1 -3 16 638.63 147.09
1 -2 -16 645.62 156.87
1 -2 -15 19.64 63.54
1 -2 -14 104.64 71.2
1 -2 -13 1765.67 205
1 -2 -12 386.89 94.71
1 -2 -11 3287.9 267.37
1 -2 0 2413.76 86.24
1 -2 2 366.88 42.14
1 -2 3 3216.58 149.14
1 -2 4 707.13 64.52
1 -2 5 4113.21 189.85
1 -2 6 7.2 12.95
1 -2 7 405.93 57.46
1 -2 8 1054.77 102.03
1 -2 9 469.56 70.95
1 -2 10 1015.74 110.61
1 -2 11 296.27 63.08
1 -2 12 72.6 39.19
1 -2 13 254.38 69.18
1 -2 14 1520.4 164.47
1 -2 15 424.82 96.51
1 -2 16 1156.24 188.94
1 -1 -16 198.37 98.58
1 -1 -15 488.91 116.43
1 -1 -14 373.84 101.14
1 -1 -13 1841.99 200.06
1 -1 -12 450.48 95.72
1 -1 -11 781.47 119.39
1 -1 -10 18 26.87
1 -1 -9 335.08 70.9
1 -1 -8 362.53 72.28
1 -1 0 4347.71 136.33
1 -1 1 1650.31 81.41
1 -1 1 1715.53 79.78
1 -1 2 1.99 7.48
1 -1 2 3.76 6.9
1 -1 3 6501.43 242.46
1 -1 3 6530.78 229.56
1 -1 4 416.96 47.44
1 -1 4 386.82 40.53
1 -1 5 1000.79 82.25
1 -1 6 467.85 60.47
1 -1 7 693.99 78.07
1 -1 8 1626.93 130.43
1 -1 9 2488.5 175.37
1 -1 10 540.16 82.7
1 -1 11 493.68 83.72
1 -1 12 518.66 89.52
1 -1 13 15.19 31.51
1 -1 14 2317.46 211.09
1 -1 15 586.69 112.88
1 -1 16 647.81 124.66
1 0 -14 594.79 117.14
1 0 -13 384.13 92.12
1 0 -12 538.04 101.71
1 0 -11 -8.46 40.98
1 0 -10 0.4 23.61
1 0 -9 3815.26 243.86
1 0 -8 1559.12 140.62
1 0 -7 1965.72 149.7
1 0 -6 657.51 79.45
1 0 -5 76.66 25.73
1 0 -4 6106.74 253.22
1 0 -3 351.24 44.03
1 0 -2 5897.02 219.83
1 0 -2 6376.09 207.56
1 0 -1 1240.18 61.43
1 0 1 2226.45 94.08
1 0 1 2134.51 78.93
1 0 2 6008.02 214.14
1 0 3 1921.01 107.7
1 0 3 1985.01 71.51
1 0 4 3235.69 162.64
1 0 4 3496.1 120.72
1 0 5 431.12 56.21
1 0 5 377.24 35.02
1 0 6 624.84 72.75
1 0 6 598.72 49.75
1 0 7 2923.95 178.9
1 0 8 594.88 81.23
1 0 9 4181.07 244.9
1 0 10 28.55 26.77
1 0 11 311.41 69.93
1 0 12 780.21 111.93
1 0 13 557.04 103.02
1 0 14 1432.28 167.93
1 0 15 245.9 80.43
1 0 16 113.13 77.68
1 1 -5 1376.58 72.98
1 1 -4 2704.73 99.63
1 1 -1 16.85 5.51
1 1 0 1541.64 72.3
1 1 1 970.02 63.27
1 1 2 8736.06 300.69
1 1 3 1167.1 86.43
1 1 4 1695.42 115.58
1 1 5 1476.47 114.38
1 1 6 48.14 9.87
1 1 6 17.81 18.93
1 1 6 42.7 11.24
1 1 7 3612.14 140.31
1 1 7 3880.29 221.58
1 1 7 3779.53 134.9
1 1 8 1066.52 114.68
1 1 8 1018.91 62.1
1 1 9 1909.21 164.72
1 1 10 33.3 22.4
1 1 11 275.54 68.79
1 1 12 1056.66 138.62
1 1 13 1278.21 158.77
1 1 14 180.66 67.8
1 1 15 228.72 89.83
1 1 16 197.33 95.06
1 2 -5 3537.55 132.22
1 2 -4 3271.36 114.28
1 2 -3 8208.57 244.56
1 2 0 2763.65 121.11
1 2 1 1458.38 88.77
1 2 2 7746.73 247.62
1 2 2 7390.69 283.07
1 2 3 74.59 22.71
1 2 3 54.64 12.92
1 2 4 55.95 23.09
1 2 4 42.99 9.86
1 2 5 1342.02 115.99
1 2 6 1028.71 106.34
1 2 7 1659.88 68.05
1 2 7 1856.82 152.58
1 2 8 425.98 76.38
1 2 9 -40.02 31.24
1 2 10 180.62 57.54
1 2 11 1225.14 149.2
1 2 12 302.18 82.21
1 2 13 809.3 132.46
1 2 14 89.91 53.86
1 2 15 105.22 70.1
1 3 -4 776.89 54.57
1 3 0 4434.39 204.71
1 3 0 4647.9 191.09
1 3 1 525.19 56.05
1 3 1 510.43 55.93
1 3 2 1044.06 76.48
1 3 2 1037.91 88.14
1 3 3 587.05 52.15
1 3 3 544.08 67.54
1 3 4 1046.83 66.92
1 3 4 1125.19 104.65
1 3 5 576.13 79.66
1 3 5 564.07 44.67
1 3 6 2283.17 96.45
1 3 6 2201.01 173.29
1 3 7 66.14 33.36
1 3 8 1120.18 130.32
1 3 9 968.48 127.29
1 3 10 413.52 90.6
1 3 11 1592.64 178.18
1 3 12 146.35 67.57
1 3 13 519.76 114.74
1 3 14 235.54 96.15
1 4 -1 3161.7 188.52
1 4 0 1020.55 96.29
1 4 1 2492.06 152.72
1 4 1 2676.15 154.92
1 4 2 701.22 72.88
1 4 2 708.2 78.96
1 4 3 311.51 56.72
1 4 3 400.44 52.51
1 4 4 3355.49 161.72
1 4 4 3228.53 204.16
1 4 5 341.48 64.58
1 4 5 340.27 43.31
1 4 6 2690.41 200.56
1 4 7 38.39 31.28
1 4 8 -6.93 32.3
1 4 9 2844.8 236.57
1 4 10 1101.22 148.92
1 4 11 1910.27 204.3
1 4 12 94.07 60.18
1 4 13 42.7 59.42
1 5 -2 984.51 112.46
1 5 -1 4435.88 251.09
1 5 0 118.17 39.85
1 5 1 575.38 75.28
1 5 1 648.09 81.42
1 5 2 2376.52 159.45
1 5 2 2439.65 168.24
1 5 3 520.85 78.65
1 5 3 491.45 67.31
1 5 4 3143.37 175.11
1 5 4 3021.58 207.18
1 5 5 448.27 80.48
1 5 6 718.69 107.54
1 5 7 10.04 26.49
1 5 8 394.88 88.08
1 5 9 765.05 129.55
1 5 10 1145.19 160.83
1 5 11 21.18 47.21
1 5 12 229.47 88.68
1 6 -2 325.77 72.66
1 6 -1 3080.18 220.21
1 6 0 488.46 84.25
1 6 0 491.46 72.23
1 6 1 79.35 33.02
1 6 1 -2.87 19.5
1 6 2 601.11 88.77
1 6 2 840.95 101.62
1 6 3 1104.05 113.36
1 6 3 995.91 118.04
1 6 4 792.53 92.99
1 6 4 857.19 113.21
1 6 5 805.3 114.2
1 6 6 18.35 28.79
1 6 7 28.35 36.63
1 6 8 1574.75 185.89
1 6 9 42.44 42.43
1 6 10 1186.44 175.99
1 6 11 107.29 79.45
1 7 -2 2123.48 197.47
1 7 -1 41.56 36.96
1 7 0 83.29 36.83
1 7 0 84.97 42.92
1 7 1 649 94.72
1 7 1 655.93 102.69
1 7 2 466.98 85.73
1 7 2 490.03 88.09
1 7 3 2007.77 172.21
1 7 3 2413.67 199.41
1 7 4 54.91 41.79
1 7 5 608.53 106.5
1 7 6 848.94 134.02
1 7 7 71.02 50.67
1 7 8 1869.4 213.64
1 7 9 36.5 58.69
1 8 -2 349.72 89.82
1 8 -1 277.04 65.15
1 8 -1 182.54 64.16
1 8 0 9.15 35.65
1 8 0 32.11 29.11
1 8 1 2281.6 209.69
1 8 1 2648.72 212.2
1 8 2 146.12 53.85
1 8 2 76.37 52.76
1 8 3 1100.13 143.95
1 8 4 20.77 37.34
1 8 5 13.78 35.19
1 8 6 1209.2 169.24
1 8 7 515.31 121.92
1 8 8 521.6 122.81
1 9 -2 152.3 52.8
1 9 -1 972.68 127.33
1 9 0 230.88 67.04
1 9 0 191.23 73.92
1 9 1 1108.24 145.74
1 9 1 1273.51 168.55
1 9 2 256.6 75.63
1 9 3 83.41 52.56
1 9 4 47.07 47.82
1 9 5 952.07 159.69
1 9 6 525.57 124.93
1 10 -1 667.66 115.21
1 10 0 1312.72 169.5
1 10 1 669.74 125.77
1 10 2 521.34 118.4
1 10 3 161.53 71.78
1 10 4 -100.98 69.4
1 11 0 808.45 156.68
1 11 1 155.88 92.42
2 -10 8 278.78 79.26
2 -10 9 788.81 139.22
2 -10 10 -51.75 60.91
2 -10 11 66.33 64.49
2 -9 5 443.35 82.4
2 -9 6 544.9 96.26
2 -9 7 1438.67 163.2
2 -9 8 603.14 111.66
2 -9 9 228.06 73.62
2 -9 10 81.55 56.17
2 -9 11 554.26 122.7
2 -9 12 454.77 124.53
2 -8 2 2299.93 155.14
2 -8 3 270.83 53.31
2 -8 4 -1.43 21.98
2 -8 5 804.75 104.73
2 -8 6 2423.34 194.93
2 -8 7 420.31 84.33
2 -8 8 974.09 133.94
2 -8 9 -7.75 29.48
2 -8 10 47.92 39.04
2 -8 11 615.62 125.53
2 -8 12 472.87 113.73
2 -8 13 756.07 152.64
2 -7 0 2118.22 122.13
2 -7 1 3323.75 172.85
2 -7 2 144.79 35.99
2 -7 3 358.72 60.93
2 -7 4 1266.18 119.45
2 -7 5 267.41 57.67
2 -7 6 2360.22 186.69
2 -7 7 88.35 37.57
2 -7 8 750.61 113.76
2 -7 9 211.25 66
2 -7 10 230.59 73.48
2 -7 11 1168.03 166.19
2 -7 12 480.58 112.19
2 -7 13 2.93 59.07
2 -7 14 40.93 59.8
2 -6 -2 33.23 13.15
2 -6 -1 4281.56 163.03
2 -6 0 436.14 46.89
2 -6 1 2379.72 130.65
2 -6 2 42.75 22.18
2 -6 3 -22.27 17.44
2 -6 4 1749.46 136.94
2 -6 5 174.83 47.57
2 -6 6 1131.96 124.45
2 -6 7 5.13 24.24
2 -6 8 362.14 78.76
2 -6 9 841.03 128.61
2 -6 9 993.31 124.21
2 -6 10 622.38 114.26
2 -6 10 987.99 130.43
2 -6 11 437.2 102.32
2 -6 11 645.09 107.49
2 -6 12 227.75 80.36
2 -6 12 292.94 80.94
2 -6 13 91.2 62.39
2 -6 13 147.51 65.44
2 -6 14 -118.72 76.74
2 -5 -1 3282.16 119.84
2 -5 0 286.04 32.78
2 -5 1 2.79 10.23
2 -5 2 1344.28 96.93
2 -5 3 635.45 71.75
2 -5 4 1615.28 127.55
2 -5 5 847.24 97.45
2 -5 6 43.46 28.13
2 -5 6 7.2 18.18
2 -5 7 2.1 19.18
2 -5 7 91.06 41.22
2 -5 8 226.16 61.43
2 -5 8 154.27 47.02
2 -5 9 903.86 114.09
2 -5 9 662.67 111.16
2 -5 10 3093.85 259.51
2 -5 10 3946.32 257.43
2 -5 11 8.75 33.35
2 -5 11 1.16 34.56
2 -5 12 38.15 39.47
2 -5 12 86 48.56
2 -5 13 620.88 127.64
2 -5 13 526.21 103.29
2 -5 14 192.05 88.74
2 -5 14 217.1 73.48
2 -5 15 996.69 182.14
2 -4 -14 3090.49 316.7
2 -4 -13 2449.43 276.65
2 -4 0 199.23 24.32
2 -4 1 569.66 51.45
2 -4 4 540.83 73.56
2 -4 5 1597.78 132.1
2 -4 6 386.97 66.9
2 -4 7 185.56 48.06
2 -4 8 4634.67 261.14
2 -4 9 675.36 94.22
2 -4 10 1068.28 126.22
2 -4 11 40.92 30.44
2 -4 12 52.21 42.35
2 -4 13 608.42 109.57
2 -4 14 806.02 128.47
2 -4 15 976.67 175.56
2 -4 15 902.81 144.04
2 -3 -15 607.98 155.26
2 -3 -14 -12.72 73.89
2 -3 -13 1289.02 192.65
2 -3 -12 46.55 55.77
2 -3 -11 131.66 66.08
2 -3 2 810.99 78.98
2 -3 3 5919.49 261.42
2 -3 4 429.26 60.52
2 -3 5 784.03 85.43
2 -3 6 1809.66 138.71
2 -3 7 1973.79 150.71
2 -3 8 2440.69 177.08
2 -3 9 508.86 81.9
2 -3 10 233.99 58.79
2 -3 11 8.8 22.86
2 -3 12 788.72 114.94
2 -3 13 548.05 101.09
2 -3 14 922.19 137.14
2 -3 15 241.6 80.62
2 -3 16 23.17 65.11
2 -2 -16 104.87 97.8
2 -2 -15 887.64 171.42
2 -2 -14 269.43 92.81
2 -2 -13 145.81 69.81
2 -2 -12 179.76 73.55
2 -2 -11 650.89 121.23
2 -2 -10 948.98 137.16
2 -2 -9 1859.4 189.38
2 -2 -2 2115.13 79.26
2 -2 -1 1103.21 53.07
2 -2 0 250.37 27.48
2 -2 1 4521.44 197.19
2 -2 2 807.63 72.57
2 -2 3 3257.57 167.73
2 -2 4 1301.25 102.8
2 -2 5 306.5 31.42
2 -2 5 298.58 50.57
2 -2 6 754.73 83.59
2 -2 7 2397.56 164.3
2 -2 8 265.01 56.12
2 -2 9 407.15 71.47
2 -2 10 412.91 77.56
2 -2 11 21.11 31
2 -2 12 2036.81 186.7
2 -2 13 93.01 47.17
2 -2 14 950.85 138.1
2 -2 15 126.84 62.36
2 -2 16 -16.52 69.72
2 -1 -16 846.02 168.79
2 -1 -15 534.82 133.83
2 -1 -14 263.25 86.3
2 -1 -13 104.88 73.45
2 -1 -12 65.74 44.32
2 -1 -11 2882.25 242.96
2 -1 -10 1151.89 145.13
2 -1 -9 2861.87 223.98
2 -1 -8 -41.69 30.09
2 -1 -7 141.36 48.26
2 -1 -6 3407.8 218.05
2 -1 -5 1343.26 124.12
2 -1 -4 4423.63 232.21
2 -1 -3 3622.41 193.79
2 -1 -2 8322.86 335.78
2 -1 -2 9999 299.55
2 -1 -1 2296.22 124.23
2 -1 -1 2455.16 105.92
2 -1 0 2532.53 114.41
2 -1 0 2525.05 121.03
2 -1 1 60.46 12.06
2 -1 1 31.04 13.35
2 -1 2 2122.27 117.83
2 -1 3 165.54 33.09
2 -1 4 62.61 23.25
2 -1 5 4225.92 212.07
2 -1 6 368.55 58.81
2 -1 7 2147.48 157.15
2 -1 8 14.57 19.75
2 -1 9 113.29 43.76
2 -1 10 1365.06 142.15
2 -1 11 129.15 49.81
2 -1 12 1089.45 138.51
2 -1 13 254.5 76.83
2 -1 14 44.63 46.04
2 -1 15 180.95 78.19
2 -1 16 836.73 151.69
2 0 -13 1152.76 159.51
2 0 -12 318.81 86.33
2 0 -11 2313.97 209.42
2 0 -10 943 125.96
2 0 -9 2224.58 188.34
2 0 -8 108.63 42.15
2 0 -7 138.82 44.97
2 0 -6 1594.49 135.44
2 0 -5 1557.03 126.35
2 0 -4 1099.93 98.04
2 0 -3 98.72 26.96
2 0 -2 6381.66 246.12
2 0 -1 357.52 32.47
2 0 0 2786.81 119.83
2 0 1 111.77 22.77
2 0 2 1170.43 83.44
2 0 3 1438 101.79
2 0 3 1453.11 70.44
2 0 4 782.67 78.97
2 0 4 780.56 44.3
2 0 5 6982.44 302.22
2 0 5 6976.67 211.98
2 0 6 852.44 93.01
2 0 6 841.23 45.44
2 0 7 1006.55 107.37
2 0 7 892.43 50.38
2 0 8 203.45 52.65
2 0 9 212.74 55.63
2 0 10 1885.17 173.27
2 0 11 2499.96 209.05
2 0 12 929.58 133.64
2 0 13 289.3 81.07
2 0 14 147.56 58.98
2 0 15 121.27 79.48
2 0 16 875.23 157.25
2 1 -2 4073.57 130.94
2 1 -1 963.88 55.95
2 1 0 3895.43 156.81
2 1 1 76.36 20.9
2 1 2 62.1 21.83
2 1 3 3219.62 172.74
2 1 4 3787.85 202.23
2 1 5 4377.47 232.23
2 1 6 852.66 97.5
2 1 7 42.1 28.52
2 1 8 7.41 22.18
2 1 9 1548.28 155.71
2 1 10 1344.23 149.7
2 1 11 2572.47 222.09
2 1 12 36.1 44.5
2 1 13 93.77 57.96
2 1 14 947.55 152.07
2 1 15 61.83 72.59
2 2 -3 1246.16 50.48
2 2 -2 6129.12 201.46
2 2 -1 1757.55 92.3
2 2 0 1629.43 98.36
2 2 1 261.48 41.04
2 2 2 382.82 53.19
2 2 3 2602.24 160.78
2 2 4 4693.81 241.47
2 2 5 448.42 71.18
2 2 6 1620.37 144.56
2 2 7 1161.53 126.63
2 2 8 3.97 24.21
2 2 9 1041.63 132.35
2 2 10 243.96 73.51
2 2 11 1111.43 146.44
2 2 12 194.22 74.51
2 2 13 136.42 65.49
2 2 14 421.47 110.1
2 3 -4 834.29 48.54
2 3 -4 803.15 44.58
2 3 -3 3188.58 126.3
2 3 -2 2800.77 126.86
2 3 -1 4177.69 180.48
2 3 0 14.46 12.49
2 3 1 222.36 41.31
2 3 2 3076.86 179.81
2 3 3 239.61 49.58
2 3 4 3300.07 207.68
2 3 5 7.74 25.33
2 3 6 275.74 61.52
2 3 7 553.23 92.26
2 3 8 1015.6 130.05
2 3 9 2713.3 228.42
2 3 10 59.67 43.84
2 3 11 2.84 41.09
2 3 12 381.17 102.29
2 3 13 651.5 135.46
2 4 -4 254.73 31.97
2 4 -3 2718.82 129.68
2 4 -2 396.16 47.92
2 4 -1 2038.14 125.8
2 4 0 1212.68 99.94
2 4 1 594.23 74.47
2 4 2 3479.41 203.42
2 4 3 226.55 51.16
2 4 4 475.15 79.2
2 4 5 85.29 39.84
2 4 6 313.66 72.44
2 4 7 1388.2 154.46
2 4 8 1007.74 137.69
2 4 9 173.53 67.21
2 4 10 56.24 49.5
2 4 11 750.03 135.57
2 4 12 229.54 96.68
2 5 -4 67.36 21.25
2 5 -3 1750.81 113.27
2 5 -2 -2.33 14.56
2 5 -1 55.44 26.7
2 5 0 1420.99 118.82
2 5 1 924.26 99.69
2 5 2 889.45 104.99
2 5 3 122.24 44.36
2 5 4 328.44 70.82
2 5 5 100.85 45.31
2 5 6 1991.8 190.07
2 5 7 443.44 95.93
2 5 8 1519.6 178.9
2 5 9 11.69 36.06
2 5 10 18.25 42.78
2 5 11 1635.03 209.22
2 6 -4 430.05 58.06
2 6 -3 36.07 24.24
2 6 -2 10.26 18.67
2 6 -1 1650.48 134.14
2 6 0 882 101.77
2 6 1 3245.13 213.34
2 6 2 26.02 27.5
2 6 3 552.69 93.46
2 6 4 552.29 95.97
2 6 5 577.75 103.32
2 6 6 3786.02 283.87
2 6 7 358.38 91.13
2 6 8 874.36 139.62
2 6 9 0.97 53.66
2 6 10 216.78 79.08
2 7 -3 -1.78 19.13
2 7 -2 689.2 89.29
2 7 -1 5560.2 292.44
2 7 0 607.81 91.21
2 7 1 1772.38 163.61
2 7 2 20.71 28.25
2 7 3 100.11 52.63
2 7 4 1364.64 162.39
2 7 5 264.33 77.74
2 7 6 821.04 136.85
2 7 7 361.37 96.51
2 7 8 -3.39 54.26
2 7 9 63.55 63.93
2 8 -2 94.45 43.14
2 8 -1 1944.17 171.87
2 8 0 302.28 71.7
2 8 1 353.75 83.48
2 8 2 6.34 35.83
2 8 3 235.43 71.58
2 8 4 445.97 102.34
2 8 5 979.15 154.81
2 8 6 36.7 57.44
2 8 7 115.46 76.13
2 9 0 229.1 70.69
2 9 1 260.04 72.59
2 9 2 3.09 46.2
2 9 3 888.4 146.86
2 9 4 133.38 74
2 9 5 523.08 124.16
2 10 1 652.98 135.32
2 10 2 463.23 127.74
2 10 3 1791.22 225.83
3 -10 10 215.76 88.58
3 -10 11 344.1 115.34
3 -9 7 213.58 63.93
3 -9 8 13.54 31.1
3 -9 9 846.38 138.17
3 -9 10 136.36 63.72
3 -9 11 658.14 138.41
3 -9 12 11.48 69.59
3 -8 4 1996.17 155.04
3 -8 5 8.62 26.02
3 -8 6 278.2 61.67
3 -8 7 549.48 98.12
3 -8 8 525.94 99.97
3 -8 9 990.75 144.19
3 -8 10 511.06 110.88
3 -8 11 429.28 106.32
3 -8 12 -46.06 64.22
3 -8 13 298.13 103.93
3 -7 2 3359.64 177.34
3 -7 3 966.53 95.63
3 -7 4 1799.76 144.31
3 -7 5 60.04 31.85
3 -7 6 214.25 56.49
3 -7 7 1473.87 157.61
3 -7 8 1655.01 174.63
3 -7 9 1195.17 157
3 -7 10 642.78 120.34
3 -7 11 22.82 36.75
3 -7 11 -95.85 56.92
3 -7 12 13.68 44.58
3 -7 12 35.42 34.91
3 -7 13 685.7 142.17
3 -7 13 891.21 149.57
3 -7 14 679.13 144.67
3 -6 0 1230.9 71.55
3 -6 1 1384.9 91.19
3 -6 2 2609.6 148.35
3 -6 3 2545.98 159.52
3 -6 4 102.2 35.46
3 -6 5 10.08 21.38
3 -6 6 314.6 67.36
3 -6 8 2781.97 224.24
3 -6 9 262.32 69.68
3 -6 10 290.81 78.69
3 -6 11 235.71 79.41
3 -6 11 169.28 67.33
3 -6 12 43.16 38.79
3 -6 12 -48.82 49.66
3 -6 13 935.05 146.79
3 -6 13 719.47 147.86
3 -6 14 22.21 53.65
3 -6 14 16.13 63.4
3 -6 15 135.4 110.03
3 -5 -13 267.41 121.59
3 -5 0 227.44 30.74
3 -5 0 218.53 28.09
3 -5 1 5256.51 212
3 -5 5 120.46 43.77
3 -5 6 1295.91 137.59
3 -5 7 25.76 28.69
3 -5 8 1860.66 175.01
3 -5 9 39.08 36.5
3 -5 10 3.3 31.1
3 -5 11 822.96 126.51
3 -5 12 292.12 81.6
3 -5 13 434.08 98.51
3 -5 14 284.15 88.71
3 -5 15 224.91 95.03
3 -4 -14 -61.72 84.12
3 -4 -13 176.39 98.28
3 -4 -12 613.69 141.67
3 -4 -1 1136.72 54.18
3 -4 3 307.49 59.13
3 -4 4 1272.4 124.14
3 -4 5 543.59 81.69
3 -4 6 2887.01 201.86
3 -4 7 872.94 109.81
3 -4 8 24.75 24.93
3 -4 9 216.53 63.35
3 -4 10 777.65 114.47
3 -4 11 727.43 112.86
3 -4 12 1041.44 143.65
3 -4 13 139.95 64.3
3 -4 14 64.48 55.51
3 -4 15 612.44 135.34
3 -4 16 101.89 96.31
3 -3 -14 -30.15 79.11
3 -3 -13 16.1 54.62
3 -3 -12 609.38 131.54
3 -3 -11 1567.98 200.15
3 -3 -10 369.24 97.83
3 -3 -9 595.35 117.1
3 -3 -3 995.04 52.18
3 -3 -2 302.92 28.02
3 -3 -1 5271.97 184.15
3 -3 2 50.23 26.59
3 -3 3 327.93 56.23
3 -3 4 974.58 101.46
3 -3 5 2240.05 164.45
3 -3 6 864.95 102.18
3 -3 7 598.98 88.2
3 -3 8 682.87 97.06
3 -3 9 249.1 61.72
3 -3 10 2518.67 207.31
3 -3 11 951.68 131.11
3 -3 12 1751.87 187.09
3 -3 13 43.5 45.4
3 -3 14 9.79 49.57
3 -3 15 1050.87 167.96
3 -3 16 447.3 123.4
3 -2 -15 142.39 97.81
3 -2 -14 -0.37 68.01
3 -2 -13 797.64 149.2
3 -2 -12 350.06 96.64
3 -2 -11 1104.96 161.79
3 -2 -10 148.37 66.34
3 -2 -9 -35.5 36.92
3 -2 -8 2229.97 204.72
3 -2 -7 522.7 94.17
3 -2 -6 1691.38 165.11
3 -2 -5 242 59.5
3 -2 0 1354.65 103.27
3 -2 1 -3.47 11.76
3 -2 2 248.48 44.81
3 -2 2 244.78 28.32
3 -2 3 2429.83 155.72
3 -2 4 241.42 48.82
3 -2 5 5132.65 259.8
3 -2 6 275 56.15
3 -2 7 448.06 73.68
3 -2 8 1385.93 138.98
3 -2 9 565.38 91.95
3 -2 10 2236.44 194.1
3 -2 11 121.94 51.45
3 -2 12 320.62 78.69
3 -2 13 73.32 49.32
3 -2 14 347.4 99.21
3 -2 15 490.72 119.41
3 -1 -15 475.96 128.44
3 -1 -14 136.24 73.16
3 -1 -13 1508.68 194.27
3 -1 -12 494.33 111.98
3 -1 -11 1193.95 164.96
3 -1 -10 192.56 67.9
3 -1 -9 950.28 132.13
3 -1 -8 1891.39 180.56
3 -1 -7 1024.7 125.99
3 -1 -6 1500.59 143.89
3 -1 -5 128.59 41.9
3 -1 -4 518.59 74.61
3 -1 -3 614.6 75.52
3 -1 -2 6432.77 272.54
3 -1 -1 833.38 74.05
3 -1 -1 881.28 72.95
3 -1 0 2878.43 134.83
3 -1 0 2701.4 144.19
3 -1 1 1375.97 100.08
3 -1 2 -2.37 11.6
3 -1 3 7470.37 308.85
3 -1 4 2431.1 158.11
3 -1 5 1864.9 143.12
3 -1 6 -5.54 14.69
3 -1 7 1.16 18.99
3 -1 8 1135.98 127.3
3 -1 9 821.21 112.35
3 -1 10 497.87 91.36
3 -1 11 477.63 94.59
3 -1 12 163.76 61.55
3 -1 13 133.78 64.86
3 -1 14 1001.39 152.38
3 -1 15 152.43 81.7
3 0 -11 43.17 48.2
3 0 -10 724.17 115.26
3 0 -9 1013.05 132.32
3 0 -8 589.67 98.1
3 0 -7 2526.39 194.4
3 0 -6 30.87 26.85
3 0 -5 97.41 33.77
3 0 -4 7888.27 337.84
3 0 -2 2858.47 128.62
3 0 -1 50.45 17.92
3 0 0 443.8 48.97
3 0 1 1120.26 86.09
3 0 2 1236.58 97.69
3 0 3 2456.54 152.74
3 0 4 832.5 90.02
3 0 5 244.37 52.84
3 0 6 16.17 16.85
3 0 7 1300.17 132.16
3 0 8 963.44 119.39
3 0 9 1828.51 174.86
3 0 10 21.63 32.38
3 0 11 121.81 55.27
3 0 12 1065.76 147.58
3 0 13 341.61 89.76
3 0 14 969.75 157.09
3 1 -3 667.36 42.64
3 1 -2 552.22 44.64
3 1 -1 32.2 13.48
3 1 0 307.28 41.29
3 1 1 1778.06 115.31
3 1 2 2823.57 162.94
3 1 3 348.18 56.85
3 1 4 1121.38 108.47
3 1 5 1011.37 109.13
3 1 6 539.73 83.75
3 1 7 2681.57 204.23
3 1 8 16.07 30.2
3 1 9 892.81 124.14
3 1 10 362.73 83.75
3 1 11 222.74 73.69
3 1 12 1761.31 198.23
3 1 13 805.38 143.08
3 1 14 1006.86 162.9
3 2 -3 1483.17 68.18
3 2 -2 118.27 22.03
3 2 -1 165.85 30.29
3 2 0 2752.1 147.78
3 2 1 72.15 29.11
3 2 2 4021.63 211.92
3 2 3 29.37 21.93
3 2 4 11.04 19.58
3 2 5 2260.51 176.09
3 2 6 466.2 82.03
3 2 7 3549.17 245.83
3 2 8 756.05 114.1
3 2 9 53.3 43.65
3 2 10 233.8 75.6
3 2 11 532.68 110.37
3 2 12 521.31 119.46
3 2 13 732.66 145.92
3 3 -4 198.74 19.65
3 3 -3 861.15 58.8
3 3 -2 1560.47 96.03
3 3 -1 108.23 26.1
3 3 0 6217.86 267.29
3 3 1 1617.51 125.04
3 3 2 910.94 98.11
3 3 3 126.91 40.38
3 3 4 212.86 52.76
3 3 5 1207.87 131.15
3 3 6 2702.8 212.09
3 3 7 1231.22 145.24
3 3 8 324.52 82.09
3 3 9 233.44 72.07
3 3 10 210.91 67.7
3 3 11 1656.55 201.15
3 3 12 307.41 103.44
3 4 -4 3.5 11.49
3 4 -3 70.48 22.48
3 4 -2 782.41 74.97
3 4 -1 1643.95 120.15
3 4 0 2128.83 148.07
3 4 1 781.07 91.13
3 4 2 1.09 22.95
3 4 3 112.4 41.75
3 4 4 1876.99 167.81
3 4 5 513.17 90.79
3 4 6 1480.2 162.12
3 4 7 93.56 45.22
3 4 8 151.53 64.09
3 4 9 1502.91 183.69
3 4 10 47.35 55.63
3 4 11 1165.42 176.56
3 5 -3 224.91 41.72
3 5 -2 34.04 24.33
3 5 -1 1406.1 120.99
3 5 0 58.11 27.61
3 5 1 449.27 75.99
3 5 2 986.09 117.46
3 5 3 94.47 45.74
3 5 4 2700.49 216.77
3 5 5 120.03 44.25
3 5 6 734.96 120.62
3 5 7 466.77 99.66
3 5 8 17.09 40.43
3 5 9 817.13 145.17
3 5 10 430.22 114.14
3 6 -2 507.84 73.53
3 6 -1 1216.76 121.66
3 6 0 18.54 29.16
3 6 1 33.27 38.33
3 6 2 1466.86 153.3
3 6 3 408.62 85.94
3 6 4 1500.57 168.92
3 6 5 235.77 72.61
3 6 6 69.04 57.51
3 6 7 396.39 98.75
3 6 8 1041.98 162.25
3 6 9 306.46 98
3 7 -1 407.03 79.3
3 7 0 196.7 60.26
3 7 1 697.52 109.94
3 7 2 1137.22 144.11
3 7 3 1484.97 171.51
3 7 4 17.59 43.32
3 7 5 30.36 45.51
3 7 6 471.97 117.39
3 7 7 72.86 67.62
3 8 1 1462.66 172.1
3 8 2 331.72 86.6
3 8 3 961.2 150.63
3 8 4 141.76 67.15
3 8 5 38.6 65.68
3 8 6 1018.78 172.79
3 9 3 117.52 82.81
3 9 4 -156.82 91.9
4 -9 9 174.8 70.69
4 -9 10 58.87 46.56
4 -9 11 64.19 72.04
4 -9 12 402.28 112.54
4 -8 6 725.49 106.8
4 -8 7 579.62 104.03
4 -8 8 338.45 83.79
4 -8 9 67.94 55.23
4 -8 10 55.47 57.62
4 -8 11 761.69 144.22
4 -8 12 349.71 114.73
4 -7 3 68.11 33.49
4 -7 4 1162.9 118.41
4 -7 5 1153.07 126.37
4 -7 6 2972.19 223.29
4 -7 7 291 76.72
4 -7 10 483.05 111.43
4 -7 10 449.51 104.15
4 -7 11 1295.07 182.24
4 -7 11 1162.25 169.41
4 -7 12 154 88.23
4 -7 12 151.25 81.23
4 -7 13 44.97 52.86
4 -7 13 232.71 105.63
4 -7 14 41.15 84.58
4 -6 1 823.66 73.8
4 -6 7 155.31 56.08
4 -6 8 111.6 56.19
4 -6 9 1920.39 201.71
4 -6 10 649.45 119.53
4 -6 11 714.13 128.67
4 -6 12 287.87 86.04
4 -6 13 30.43 72.86
4 -6 14 69.38 72.34
4 -5 -12 122.5 95.09
4 -5 -11 -48.89 87.34
4 -5 5 1429.85 151.19
4 -5 6 906.35 122.85
4 -5 7 62.7 39.54
4 -5 8 405.61 88.6
4 -5 9 133.27 54.39
4 -5 10 1463.64 175.64
4 -5 11 270.07 80.13
4 -5 12 238.94 81.19
4 -5 13 281.55 92.5
4 -5 14 119.93 82.64
4 -4 -13 528.44 143.5
4 -4 -12 245.08 105.08
4 -4 -11 -75.97 62.46
4 -4 -10 575.98 129.75
4 -4 -9 626.3 130.21
4 -4 -2 2142.49 99.4
4 -4 3 2016.95 166.04
4 -4 4 1351.49 137.5
4 -4 5 1014.84 121.46
4 -4 6 564.25 95.07
4 -4 7 47.71 34.68
4 -4 8 1230.18 146.66
4 -4 9 468.22 93.28
4 -4 10 1118.04 150.44
4 -4 11 24.68 40.85
4 -4 12 47.04 42.74
4 -4 13 824.71 143.05
4 -4 14 393.16 107.31
4 -3 -13 1036.51 185.01
4 -3 -12 36.96 63.94
4 -3 -11 189.18 81.84
4 -3 -10 1172.92 172.88
4 -3 -9 744.65 134.91
4 -3 -8 3093.36 267.31
4 -3 -7 529.94 105.19
4 -3 -6 499.15 98.87
4 -3 1 1094.67 110.85
4 -3 2 96.17 33.27
4 -3 3 1848.57 91.44
4 -3 3 1421.46 135
4 -3 4 45.48 30.79
4 -3 5 80.54 35.69
4 -3 6 1609.88 154.7
4 -3 7 459.82 85.05
4 -3 8 2235.58 197.32
4 -3 9 140.13 55.37
4 -3 10 201.2 66.22
4 -3 11 219.83 73.03
4 -3 12 518.69 108.94
4 -3 13 1016.58 157.62
4 -3 14 535.92 126.28
4 -2 -14 155.33 97.5
4 -2 -13 838.72 162.28
4 -2 -12 40.32 53.35
4 -2 -11 33.57 47.11
4 -2 -10 1139.78 161.42
4 -2 -9 688.58 122.68
4 -2 -8 742.16 121.57
4 -2 -7 212.96 67.43
4 -2 -6 186.79 56.25
4 -2 -5 38.48 30.63
4 -2 -4 395.05 72.33
4 -2 -3 644.79 87.68
4 -2 -2 607.76 79.77
4 -2 -1 1547.69 120.47
4 -2 0 61.64 24.39
4 -2 0 29.44 24.13
4 -2 1 4935.59 197.42
4 -2 1 4168.83 228.01
4 -2 2 1302.57 117.65
4 -2 3 2439.38 170.53
4 -2 4 662.5 88.62
4 -2 5 272.87 59.24
4 -2 6 1457.95 143.88
4 -2 7 1352.15 143.07
4 -2 8 1176.71 136.89
4 -2 9 391.86 84.59
4 -2 10 167.9 62.5
4 -2 11 364.9 88.97
4 -2 12 1397.11 175.13
4 -2 13 299.47 91.84
4 -2 14 600.55 131.35
4 -1 -14 150.36 89.28
4 -1 -13 -17.41 53.97
4 -1 -12 -8.25 51.94
4 -1 -11 433.01 101.54
4 -1 -10 511.83 106.77
4 -1 -9 839.69 130.62
4 -1 -8 81.15 43.02
4 -1 -7 16.82 32.36
4 -1 -6 2224.95 187.75
4 -1 -5 1690.82 152.52
4 -1 -4 4289.18 246.71
4 -1 -3 846.25 96.2
4 -1 -2 197.5 43.67
4 -1 -1 1713.33 118.53
4 -1 0 2589.56 154.88
4 -1 1 4404.1 222.23
4 -1 2 1729.89 132.84
4 -1 3 163.75 43.93
4 -1 4 102.18 38.29
4 -1 5 1603.25 143.11
4 -1 6 1312.36 134.77
4 -1 7 2393.19 195.06
4 -1 8 341.18 75.65
4 -1 9 865.55 123.03
4 -1 10 685.52 115.59
4 -1 11 313.46 82.8
4 -1 12 1168.59 163.28
4 -1 13 125.74 71.18
4 -1 14 278.37 101.93
4 0 -2 597.26 59.91
4 0 -1 2242.24 131.52
4 0 0 4925.37 224.25
4 0 1 1551.35 117.08
4 0 2 1546.51 122.57
4 0 3 365.83 62.43
4 0 4 74.41 31.7
4 0 5 2137.26 170.24
4 0 6 125.24 45.57
4 0 7 1770.04 167.08
4 0 8 -8.87 29.39
4 0 9 103.54 47.67
4 0 10 1963.13 200.13
4 0 11 366.68 88.99
4 0 12 604.02 122.86
4 0 13 -16.88 62.31
4 1 -3 -0.99 10.11
4 1 -2 2376.6 123.34
4 1 -1 301.14 44.05
4 1 0 3131.28 167.08
4 1 1 16.47 14.87
4 1 2 228.79 48.12
4 1 3 1286.1 121.65
4 1 4 92.53 37.11
4 1 5 2576.97 193.64
4 1 6 43.59 31.6
4 1 7 66.68 39.37
4 1 8 598.95 103.39
4 1 9 921.81 133.52
4 1 10 1132.79 154.98
4 1 11 657.22 124.57
4 1 12 -17.06 58.67
4 1 13 191.45 83.16
4 2 -3 -16.47 12.67
4 2 -2 3123.34 147.41
4 2 -1 181.33 35.66
4 2 0 792.47 79.63
4 2 1 586.97 73.69
4 2 2 111.38 40.18
4 2 3 1509.55 137.26
4 2 4 1283.98 132.18
4 2 5 178.79 56.39
4 2 6 1159.68 139.54
4 2 7 106.99 50.04
4 2 8 925.12 136.45
4 2 9 2385.18 223.84
4 2 10 219.84 71.04
4 2 11 535.39 117.25
4 2 12 220.76 94.65
4 3 -3 1127.7 74.75
4 3 -2 2408.99 132.39
4 3 -1 841.53 81.7
4 3 0 116.59 35.83
4 3 1 385.86 64.71
4 3 2 2594.32 182.95
4 3 3 644.71 93.89
4 3 4 2322.2 190.31
4 3 5 18.43 30.52
4 3 6 -3.93 31.58
4 3 7 2100.67 202.76
4 3 8 348.36 89.85
4 3 9 1928.11 210.05
4 3 10 -2.21 43.68
4 3 11 236.77 90.33
4 4 -2 119.7 32.52
4 4 -1 106.67 33.45
4 4 0 1309.7 119.74
4 4 1 427.78 72.86
4 4 2 3490.27 228.85
4 4 3 603.16 95.46
4 4 4 1528.09 158.87
4 4 5 203.89 64.38
4 4 6 134.43 61.35
4 4 7 991.3 144.32
4 4 8 459.04 104.57
4 4 9 777.69 139.39
4 4 10 33.85 54.81
4 5 -1 102.87 40.91
4 5 0 1106.14 117.79
4 5 1 198.38 52.85
4 5 2 1404 147.08
4 5 3 908.67 123.18
4 5 4 64.84 42.1
4 5 5 234.78 76.87
4 5 6 799.94 134.08
4 5 7 142.99 59.54
4 5 8 666.45 137.8
4 5 9 14.21 49.23
4 6 1 979.11 125.83
4 6 2 284.94 76.7
4 6 3 70.23 42.24
4 6 4 628.44 115.24
4 6 5 107.28 61.53
4 6 6 1799.53 209.73
4 6 7 2.32 73.58
4 6 8 218.07 85.61
4 7 2 195.48 73.3
4 7 3 52.89 44.63
4 7 4 1327.11 175.53
4 7 5 447.93 112.06
4 7 6 935.43 168.47
4 8 4 944.88 174.37
4 8 5 751.82 162.66
5 -8 8 26.12 41.94
5 -8 9 1081 163.71
5 -8 10 126.1 63.37
5 -8 11 212.34 98.95
5 -8 12 141.71 84.83
5 -7 9 153.17 71.74
5 -7 10 32.77 49.84
5 -7 11 27.18 69.41
5 -7 12 673.13 147.74
5 -6 6 500.82 104.33
5 -6 7 880.89 139.45
5 -6 8 1031.04 152.04
5 -6 9 104.19 62.95
5 -6 10 45.47 55.57
5 -6 11 304.15 99.35
5 -6 12 276.32 100.55
5 -5 -11 271.4 114.83
5 -5 -10 1315.1 208.82
5 -5 -9 214.63 93.46
5 -5 4 40.58 35.18
5 -5 5 253.4 69.59
5 -5 6 4042.23 289.9
5 -5 7 614.04 112.15
5 -5 8 943.31 142.47
5 -5 9 -20.52 36.78
5 -5 10 97.02 68.35
5 -5 11 804.06 146.13
5 -5 12 729.69 139.86
5 -5 13 773.02 157.75
5 -4 -12 911.54 179.63
5 -4 -11 151.24 82.54
5 -4 -10 886.75 160.63
5 -4 -9 -24.61 42.49
5 -4 -8 57.08 52.74
5 -4 -7 820.9 138.77
5 -4 -6 1370.83 173.58
5 -4 -5 2376.88 224.01
5 -4 2 119.29 34.4
5 -4 2 128.9 46.71
5 -4 3 519 88.81
5 -4 4 1119.36 135.89
5 -4 5 809.29 118.6
5 -4 6 2854.83 230.67
5 -4 7 436 92.94
5 -4 8 681.85 116.17
5 -4 9 57.27 46.65
5 -4 10 86.81 52.87
5 -4 11 857.66 146.31
5 -4 12 536.2 122.09
5 -4 13 211.86 90.83
5 -3 -12 1284.7 205.41
5 -3 -11 602.27 137.13
5 -3 -10 487.55 122.66
5 -3 -9 105.71 57.14
5 -3 -8 226.53 79.53
5 -3 -7 342.57 90.6
5 -3 -6 1335.58 163.53
5 -3 -5 379.18 85.49
5 -3 -4 1086.18 133.35
5 -3 -3 359.42 72.54
5 -3 -2 23.92 21.29
5 -3 -1 2533.71 176.87
5 -3 0 856.65 89.83
5 -3 1 1961.22 127.17
5 -3 1 1607.09 147.87
5 -3 2 22.15 16.51
5 -3 2 -2.29 23.9
5 -3 3 -3.52 26.58
5 -3 4 1341.99 142.02
5 -3 5 1089.11 132.11
5 -3 6 995.16 129.08
5 -3 7 310.15 78.34
5 -3 8 70.6 44.16
5 -3 9 220.24 73.04
5 -3 10 660.69 121.33
5 -3 11 296.59 87.71
5 -3 12 833.17 147.43
5 -3 13 205.2 85.93
5 -2 -13 658.6 148.2
5 -2 -12 654.06 142.74
5 -2 -11 1631.52 210.44
5 -2 -10 -56.68 46.95
5 -2 -9 50.51 38.72
5 -2 -8 502.77 104.34
5 -2 -7 837.06 128.45
5 -2 -6 2231.82 202.01
5 -2 -5 22.02 37.41
5 -2 -4 186.78 55.53
5 -2 -3 572.8 87.15
5 -2 -2 277.69 56.74
5 -2 -1 2316.51 157.39
5 -2 0 762.5 92.85
5 -2 1 1057.31 113.09
5 -2 2 4.86 21.18
5 -2 3 1686.92 152.83
5 -2 4 566.16 90.44
5 -2 5 874.06 116.18
5 -2 6 -13.32 27.54
5 -2 7 68.71 42.93
5 -2 8 829.67 126.31
5 -2 9 141.58 58.77
5 -2 10 1712.9 194.58
5 -2 11 35.76 39.02
5 -2 12 79.45 66.36
5 -1 -10 72.87 49.65
5 -1 -9 -43.94 42.11
5 -1 -8 1531.35 175.52
5 -1 -7 591.33 106.03
5 -1 -6 1702.48 169.68
5 -1 -1 611.91 76.55
5 -1 0 778.81 88.68
5 -1 1 785.33 92.15
5 -1 2 223.52 51.07
5 -1 3 1995.14 163.74
5 -1 4 454.88 81.76
5 -1 5 1274.79 138.26
5 -1 6 189.74 60.49
5 -1 7 15.98 25.84
5 -1 8 1448.35 165.2
5 -1 9 1064.45 148.23
5 -1 10 884.88 139.56
5 -1 11 46.79 43.68
5 -1 12 97.22 74.81
5 0 -2 2464.99 149.21
5 0 -1 159.74 38.96
5 0 0 90.24 32.02
5 0 1 2089.6 153.61
5 0 2 778.77 95.14
5 0 3 3155.01 209.38
5 0 4 311.06 67.17
5 0 5 -63.89 35.72
5 0 6 864.93 119.69
5 0 7 1024.3 136.59
5 0 8 1657.49 180.62
5 0 9 1323.81 167.23
5 0 10 251.14 79.31
5 0 11 162.47 76.95
5 0 12 542.25 123.48
5 1 -3 799.41 70.67
5 1 -2 1275.15 98.63
5 1 -1 316.31 51.23
5 1 0 160.07 40.69
5 1 1 2430.7 165.66
5 1 2 1781.98 147.55
5 1 3 686.73 95.33
5 1 4 322.15 68.37
5 1 5 25.98 37.12
5 1 6 149.43 57.18
5 1 7 2704.11 229.33
5 1 8 274.07 78.27
5 1 9 859.63 135.64
5 1 10 71.33 55.92
5 1 11 -1.68 49.3
5 2 -2 775.64 74.85
5 2 -1 22.81 22.52
5 2 0 2115.13 148.49
5 2 1 465.91 71.04
5 2 2 1516.69 139.4
5 2 3 -13.85 30.7
5 2 4 475.21 86.55
5 2 5 769.75 113.2
5 2 6 218.97 67.4
5 2 7 1211.29 156.5
5 2 8 68.84 41.84
5 2 9 29.65 40.56
5 2 10 303.79 97.79
5 3 -1 320.25 57.37
5 3 0 2831.16 182.21
5 3 1 242.99 55.64
5 3 2 826.77 106.53
5 3 3 226.44 59.93
5 3 4 281.41 70.37
5 3 5 1808.23 182.04
5 3 6 545.89 106.45
5 3 7 612.4 119.76
5 3 8 22.72 47.13
5 3 9 268.32 100.55
5 3 10 226.63 90.01
5 4 1 68.12 40.52
5 4 2 35.98 29.33
5 4 3 359.22 79.08
5 4 4 892.07 128.74
5 4 5 1019.91 144.53
5 4 6 943.03 144.06
5 4 7 84.17 61.35
5 4 8 62.39 67.13
5 4 9 1038.44 170.57
5 5 2 280.52 74.84
5 5 3 299.5 80.57
5 5 4 1879.46 195.62
5 5 5 197.7 73.37
5 5 6 733.42 133.98
5 5 7 265.05 95.13
5 5 8 129.28 68.58
5 6 4 1145.34 161.8
5 6 5 42.72 67
5 6 6 109.05 85.79
6 -7 9 342.5 116.14
6 -6 -9 76.13 76.05
6 -6 -8 109.34 90.06
6 -6 -7 1153.14 189.37
6 -6 6 755.18 133.8
6 -6 7 97.48 50.83
6 -6 8 -18.44 42.07
6 -6 9 971.11 166.66
6 -6 10 304.86 110.61
6 -5 -10 179.4 94.88
6 -5 -9 534.1 135.71
6 -5 -8 16.48 42.93
6 -5 -7 780.21 148.68
6 -5 -6 1157.88 175.27
6 -5 -5 359.77 98.1
6 -5 -4 -14.3 37.35
6 -5 -3 432.67 94.23
6 -5 -2 418.78 90.73
6 -5 -1 1020.45 130.66
6 -5 0 44.28 35.24
6 -5 4 2360.84 221.18
6 -5 5 122.25 58.08
6 -5 6 254.36 79.23
6 -5 7 42.65 45.52
6 -5 8 612.05 123.5
6 -5 9 1097.73 169.51
6 -5 10 724.5 146.59
6 -5 11 247.94 89.7
6 -4 -11 119.25 87.67
6 -4 -10 77.94 68.28
6 -4 -9 128.84 66.91
6 -4 -8 588.56 128.15
6 -4 -7 33.61 43.47
6 -4 -6 709.2 126.6
6 -4 -5 84.86 53.41
6 -4 -4 93.75 53.62
6 -4 -3 2018.44 191.27
6 -4 -2 309.86 70.28
6 -4 -1 746.52 102.41
6 -4 0 266.76 57.63
6 -4 2 1894.39 182.04
6 -4 3 1174.33 145.35
6 -4 4 1014.52 139.22
6 -4 5 461.3 97.89
6 -4 6 4.36 35.56
6 -4 7 308.26 86.53
6 -4 8 1336.77 176.42
6 -4 9 636.36 128.65
6 -4 10 696.86 144.44
6 -4 11 51.22 60.36
6 -3 -11 27.18 61.24
6 -3 -10 667.16 144.31
6 -3 -9 299.58 95.77
6 -3 -8 991.41 156.76
6 -3 -7 100.81 56.66
6 -3 -6 29.92 41
6 -3 -5 562.41 106.29
6 -3 -4 617.25 102.14
6 -3 -3 2832.44 215.21
6 -3 -2 486.05 84.8
6 -3 -1 572.9 83.51
6 -3 1 934.28 119.75
6 -3 2 1668.88 164.33
6 -3 3 1709.38 170.56
6 -3 4 206.62 59.76
6 -3 5 328.41 81.29
6 -3 6 480.92 98.96
6 -3 7 299.72 82.92
6 -3 8 2072.32 217.45
6 -3 9 125.71 63.3
6 -3 10 173.77 75.85
6 -3 11 101.4 72.92
6 -2 -11 161.54 95.47
6 -2 -10 1509.09 204.73
6 -2 -9 412.26 103.95
6 -2 -8 1248.55 176.53
6 -2 -7 198.56 73.02
6 -2 -6 -11.47 33.37
6 -2 -5 2486.23 215.82
6 -2 0 29.96 27.59
6 -2 1 1651.74 155.64
6 -2 2 359.23 73.86
6 -2 3 1323.01 145.28
6 -2 4 -7.34 33
6 -2 5 -5.46 29.17
6 -2 6 736.65 118.54
6 -2 7 226.24 72.94
6 -2 8 1010.32 149.71
6 -2 9 -56.15 47.62
6 -2 10 63.91 56.97
6 -2 11 184.1 73.33
6 -1 -1 675.36 89.09
6 -1 0 110.64 41.81
6 -1 1 1356.73 136.4
6 -1 2 164.53 51.57
6 -1 3 69.91 38.64
6 -1 4 641.96 103.33
6 -1 5 742.83 115.78
6 -1 6 1241.44 153.15
6 -1 7 1108.59 150.54
6 -1 8 79.04 48.86
6 -1 9 -76.78 57.7
6 -1 10 602.85 125.34
6 -1 11 567.3 133.5
6 0 -2 137.51 38.2
6 0 -1 1070.6 110.48
6 0 0 855.56 102.5
6 0 1 649.19 90.87
6 0 2 19.79 29.5
6 0 3 245.65 64.15
6 0 4 739.68 109.81
6 0 5 3334.52 251.03
6 0 6 448.92 93.25
6 0 7 740.38 124.41
6 0 8 72.26 50.99
6 0 9 32.73 43.9
6 0 10 1344.3 189.61
6 1 0 1293.37 123.08
6 1 1 80.36 36.21
6 1 2 7.87 30.8
6 1 3 1449.71 148.97
6 1 4 89.88 45.06
6 1 5 2045.8 196.75
6 1 6 389.83 91.59
6 1 7 112.72 61.46
6 1 8 449.87 103.73
6 1 9 133 71.89
6 1 10 706.93 147.53
6 2 1 76.32 38.45
6 2 2 166.92 52.33
6 2 3 1728.12 169.46
6 2 4 1270.95 150.04
6 2 5 749.81 122.6
6 2 6 -1.38 39.7
6 2 7 -5.36 36.98
6 2 8 104.8 69.82
6 2 9 705.57 140.41
6 3 2 742.29 107.48
6 3 3 1258.26 148.95
6 3 4 357.16 89.67
6 3 5 -41.44 42.31
6 3 6 -86.31 54.34
6 3 7 699.57 132.56
6 3 8 187.34 94.68
6 4 4 555.47 110.1
6 4 5 390.5 102.07
6 4 6 77.71 68.13
6 4 7 985.26 164.97
6 5 5 445.73 118.29
6 5 6 500.24 133.98
7 -7 -7 510.84 159.51
7 -7 -6 33.55 75.18
7 -7 -5 59.72 71.26
7 -7 -4 602.98 144.38
7 -6 -8 504.66 149.67
7 -6 -7 77.15 76.86
7 -6 -6 137.07 79.19
7 -6 -5 449.48 120.87
7 -6 -4 514.24 124.21
7 -6 -3 1398.5 185.43
7 -6 7 336.89 108.99
7 -6 8 594.48 134.58
7 -5 -9 1188.7 208.37
7 -5 -8 959.44 179.28
7 -5 -7 38.52 50.08
7 -5 -6 42.21 38.5
7 -5 -5 842.54 146.46
7 -5 -4 633.17 123.08
7 -5 -3 1316.16 164.03
7 -5 4 46.13 50.78
7 -5 5 -17.03 38.79
7 -5 6 691.97 133.17
7 -5 7 143.54 77.65
7 -5 8 471.54 117.95
7 -5 9 -79.46 64.05
7 -4 -10 735.29 174.78
7 -4 -9 115.33 86.82
7 -4 -8 85.08 75.56
7 -4 -7 346.45 99.7
7 -4 -6 163.85 78.31
7 -4 -5 836.07 137.41
7 -4 -4 217.52 73.94
7 -4 -3 269.92 78.81
7 -4 3 41.3 44.4
7 -4 4 475.69 101.8
7 -4 5 327.13 90.02
7 -4 6 1528.11 193.98
7 -4 7 277.9 90.54
7 -4 8 6 54.23
7 -4 9 298.92 95.08
7 -3 -10 356.45 117.32
7 -3 -9 84.34 66.49
7 -3 -8 -77.13 57.4
7 -3 -7 410.33 105.47
7 -3 -6 360.75 96.26
7 -3 -5 183.71 74.93
7 -3 1 1139.51 143.45
7 -3 2 181.93 63.53
7 -3 3 100.27 46.77
7 -3 4 1230.56 159.1
7 -3 5 480.14 105.61
7 -3 6 1068.17 159.59
7 -3 7 122.95 70.35
7 -3 8 -18.56 64.63
7 -3 9 632.42 134.04
7 -2 0 89.45 49.1
7 -2 1 76.54 47.09
7 -2 2 126.48 53.03
7 -2 3 329.07 80.4
7 -2 4 1067.82 145.8
7 -2 5 537.13 107.09
7 -2 6 229.11 76.7
7 -2 7 58.58 53.4
7 -2 8 434.07 116.92
7 -2 9 255.12 90.22
7 -1 0 200.85 59.89
7 -1 1 -4.39 27.86
7 -1 2 241.33 65.94
7 -1 3 2176.72 203.45
7 -1 4 930.04 135.93
7 -1 5 1107.23 152.34
7 -1 6 30.47 51.1
7 -1 7 1.9 41.36
7 -1 8 641.89 131.05
7 -1 9 98.72 69.88
7 0 1 690.15 109.1
7 0 2 34.66 32.19
7 0 3 945.09 133.07
7 0 4 196.4 68.41
7 0 5 209.58 70.2
7 0 6 631.71 120.79
7 0 7 319.03 93.51
7 0 8 727.9 146.92
7 1 2 217.37 69.86
7 1 3 750.43 119.53
7 1 4 65.13 51.52
7 1 5 302.01 87.12
7 1 6 459.16 109.16
7 1 7 1007.99 159.3
7 1 8 256.09 88.87
7 2 4 65.32 55.05
7 2 5 702.05 126.95
7 2 6 642.2 134.11
7 2 7 1111.21 176.88
7 3 5 1444.21 191.24
7 3 6 60.65 82.97
8 -6 -7 405.95 148.86
8 -6 -6 148.8 105.39
8 -5 -8 269.42 109.81
8 -5 -7 1036.48 193.68
8 -5 -6 566.5 135.06
8 -5 5 536.52 134.46
8 -5 6 164.62 86.4
8 -4 -8 846.91 178.2
8 -4 -7 472.74 132.63
8 -4 3 318.01 97
8 -4 4 541 121.02
8 -4 5 146.02 85.77
8 -4 6 71.62 66.77
8 -3 2 803.67 135.25
8 -3 3 370.27 95.83
8 -3 4 11.75 39.5
8 -3 5 27.14 63.81
8 -3 6 343.91 109.75
8 -3 7 390.16 119.95
8 -2 2 736.08 129.83
8 -2 3 626.35 122.04
8 -2 4 18.76 45.57
8 -2 5 4.25 56.72
8 -2 6 999.1 168.26
8 -2 7 407.43 111.17
8 -1 3 428.37 100.42
8 -1 4 407.31 104.89
8 -1 5 197.7 80.15
8 -1 6 579.09 126.07
8 -1 7 252.93 96.68
8 0 4 141.4 78.64
8 0 5 776.84 148.85
8 0 6 502.84 128.38
9 -4 4 302.61 116.27
9 -3 4 499.84 136.49
