#------------------------------------------------------------------------------
#$Date: 2019-11-24 06:26:29 +0200 (Sun, 24 Nov 2019) $
#$Revision: 236948 $
#$URL: file:///home/coder/svn-repositories/cod/cif/4/34/99/4349922.cif $
#------------------------------------------------------------------------------
#
# This file is available in the Crystallography Open Database (COD),
# http://www.crystallography.net/
#
# All data on this site have been placed in the public domain by the
# contributors.
#
data_4349922
loop_
_publ_author_name
'Vismara, Rebecca'
'Tuci, Giulia'
'Mosca, Nello'
'Domasevitch, Kostiantyn V.'
'Di Nicola, Corrado'
'Pettinari, Claudio'
'Giambastiani, Giuliano'
'Galli, Simona'
'Rossin, Andrea'
_publ_section_title
;
 Amino-decorated bis(pyrazolate) metal--organic frameworks for carbon
 dioxide capture and green conversion into cyclic carbonates
;
_journal_issue                   2
_journal_name_full               'Inorganic Chemistry Frontiers'
_journal_page_first              533
_journal_paper_doi               10.1039/C8QI00997J
_journal_volume                  6
_journal_year                    2019
_chemical_formula_sum            'C6 H7 N5'
_chemical_formula_weight         149.17
_space_group_crystal_system      monoclinic
_space_group_IT_number           7
_space_group_name_Hall           'P -2yc'
_space_group_name_H-M_alt        'P 1 c 1'
_atom_sites_solution_hydrogens   mixed
_atom_sites_solution_primary     direct
_atom_sites_solution_secondary   difmap
_audit_creation_method           SHELXL-2014/7
_audit_update_record
;
2018-09-06 deposited with the CCDC.
2018-12-27 downloaded from the CCDC.
;
_cell_angle_alpha                90
_cell_angle_beta                 107.583(13)
_cell_angle_gamma                90
_cell_formula_units_Z            2
_cell_length_a                   8.1099(9)
_cell_length_b                   4.5429(4)
_cell_length_c                   9.3940(12)
_cell_measurement_reflns_used    2608
_cell_measurement_temperature    213(2)
_cell_measurement_theta_max      27.861
_cell_measurement_theta_min      2.635
_cell_volume                     329.93(7)
_computing_cell_refinement       'IPDS Software (Stoe & Cie, 2000)'
_computing_data_collection       'IPDS Software (Stoe & Cie, 2000)'
_computing_data_reduction        'IPDS Software (Stoe & Cie, 2000)'
_computing_molecular_graphics    'Diamond 2.1e (Brandenburg, 1999)'
_computing_publication_material  'WinGX 1.70.01 (Farrugia, 1999)'
_computing_structure_refinement  'SHELXL-2014/7 (Sheldrick, 2014)'
_computing_structure_solution    'SHELXS-97 (Sheldrick, 2008)'
_diffrn_ambient_temperature      213(2)
_diffrn_measured_fraction_theta_full 0.993
_diffrn_measured_fraction_theta_max 0.995
_diffrn_measurement_device_type  'Stoe Image Plate Diffraction System'
_diffrn_measurement_method       '\f oscillation scans'
_diffrn_radiation_type           MoK\a
_diffrn_radiation_wavelength     0.71073
_diffrn_reflns_av_R_equivalents  0.0286
_diffrn_reflns_av_unetI/netI     0.0396
_diffrn_reflns_Laue_measured_fraction_full 0.993
_diffrn_reflns_Laue_measured_fraction_max 0.995
_diffrn_reflns_limit_h_max       10
_diffrn_reflns_limit_h_min       -10
_diffrn_reflns_limit_k_max       5
_diffrn_reflns_limit_k_min       -5
_diffrn_reflns_limit_l_max       12
_diffrn_reflns_limit_l_min       -12
_diffrn_reflns_number            2608
_diffrn_reflns_point_group_measured_fraction_full 0.916
_diffrn_reflns_point_group_measured_fraction_max 0.902
_diffrn_reflns_theta_full        25.242
_diffrn_reflns_theta_max         27.861
_diffrn_reflns_theta_min         2.635
_diffrn_source                   'fine-focus sealed tube'
_exptl_absorpt_coefficient_mu    0.104
_exptl_absorpt_correction_T_max  0.8982
_exptl_absorpt_correction_T_min  0.8508
_exptl_absorpt_correction_type   numerical
_exptl_absorpt_process_details
'X-RED (Stoe & Cie, 2001) and X-SHAPE (Stoe & Cie, 1999)'
_exptl_crystal_colour            colorless
_exptl_crystal_density_diffrn    1.502
_exptl_crystal_description       prism
_exptl_crystal_F_000             156
_exptl_crystal_size_max          0.280
_exptl_crystal_size_mid          0.220
_exptl_crystal_size_min          0.220
_refine_diff_density_max         0.273
_refine_diff_density_min         -0.161
_refine_diff_density_rms         0.040
_refine_ls_abs_structure_details
;
 Flack x determined using 408 quotients [(I+)-(I-)]/[(I+)+(I-)]
 (Parsons, Flack and Wagner, Acta Cryst. B69 (2013) 249-259).
;
_refine_ls_abs_structure_Flack   -1.4(10)
_refine_ls_extinction_method     none
_refine_ls_goodness_of_fit_ref   0.916
_refine_ls_hydrogen_treatment    constr
_refine_ls_matrix_type           full
_refine_ls_number_parameters     104
_refine_ls_number_reflns         1416
_refine_ls_number_restraints     2
_refine_ls_restrained_S_all      0.915
_refine_ls_R_factor_all          0.0516
_refine_ls_R_factor_gt           0.0352
_refine_ls_shift/su_max          0.000
_refine_ls_shift/su_mean         0.000
_refine_ls_structure_factor_coef Fsqd
_refine_ls_weighting_details
'w=1/[\s^2^(Fo^2^)+(0.0635P)^2^] where P=(Fo^2^+2Fc^2^)/3'
_refine_ls_weighting_scheme      calc
_refine_ls_wR_factor_gt          0.0887
_refine_ls_wR_factor_ref         0.0937
_reflns_Friedel_coverage         0.808
_reflns_Friedel_fraction_full    0.839
_reflns_Friedel_fraction_max     0.809
_reflns_number_gt                1029
_reflns_number_total             1416
_reflns_threshold_expression     'I > 2\s(I)'
_cod_data_source_file            c8qi00997j2.cif
_cod_data_source_block           H2BPZNH2
_cod_original_sg_symbol_H-M      'P c'
_cod_database_code               4349922
_shelx_shelxl_version_number     2014/7
_shelx_space_group_comment
;
The symmetry employed for this shelxl refinement is uniquely defined
by the following loop, which should always be used as a source of
symmetry information in preference to the above space-group names.
They are only intended as comments.
;
_shelx_estimated_absorpt_t_min   0.971
_shelx_estimated_absorpt_t_max   0.978
_shelx_res_file
;

    ip1958a.res created by SHELXL-2014/7

TITL 1958_pc in Pc
CELL  0.71073   8.1099   4.5429   9.3940   90.000  107.583   90.000
ZERR     2.00   0.0009   0.0004   0.0012    0.000    0.013    0.000
LATT  -1
SYMM    X, - Y, 1/2 + Z
SFAC  C    H    N
UNIT  12   14   10
MERG   2

EQIV $1 -1+X, -Y, -0.5+Z
EQIV $2 1+X, 1-Y, 0.5+Z
EQIV $3 -1+X, Y, Z
EQIV $4 X, -Y, -0.5+Z

RTAB H..O H1N N4_$1
RTAB H..O H1N N5_$4
RTAB H..O H2N N2_$2
RTAB H..O H4N N4_$3

RTAB O..O N1 N4_$1
RTAB O..O N1 N5_$4
RTAB O..O N3 N2_$2
RTAB O..O N5 N4_$3

RTAB XHY N1 H1N N4_$1
RTAB XHY N1 H1N N5_$4
RTAB XHY N3 H2N N2_$2
RTAB XHY N5 H4N N4_$3

FMAP   2
PLAN   10
SIZE     0.22   0.22   0.28
ACTA
BOND
BOND   $H
CONF
LIST   4
L.S.   6
TEMP   -60.00

WGHT    0.063500
FVAR       1.00054
PART    1
N1    3   -0.217910   -0.012343    0.466172    11.00000    0.02644    0.02968 =
         0.02867   -0.00521    0.00359   -0.00161
AFIX  43
H1N   2   -0.278056   -0.126774    0.395128    11.00000   -1.50000
AFIX   0
N2    3   -0.289323    0.182869    0.542763    11.00000    0.02834    0.03180 =
         0.02885    0.00562    0.00312   -0.00108
N3    3    0.408112    0.501961    0.865532    11.00000    0.01505    0.04038 =
         0.03304   -0.00531   -0.00159   -0.00771
AFIX  43
H2N   2    0.470760    0.615942    0.935541    11.00000   -1.50000
AFIX   0
N4    3    0.473308    0.314666    0.788094    11.00000    0.00746    0.04383 =
         0.03494   -0.00389    0.00221    0.00283
N5    3   -0.172862    0.508629    0.739364    10.77000    0.02302    0.03067 =
         0.03491   -0.00544    0.00963    0.00138
AFIX   3
H3N   2   -0.115675    0.664811    0.740341    11.00000   -1.50000
H4N   2   -0.282675    0.560711    0.723741    11.00000   -1.50000
AFIX   0
C1    1   -0.045675   -0.005363    0.513716    11.00000    0.02421    0.02787 =
         0.03236    0.00267    0.00930    0.00240
AFIX  43
H1    2    0.028233   -0.121558    0.476815    11.00000   -1.20000
AFIX   0
C2    1    0.005953    0.200648    0.626004    11.00000    0.01064    0.02281 =
         0.02539    0.00547    0.00325    0.00112
C3    1   -0.153171    0.313487    0.638451    11.00000    0.01625    0.02942 =
         0.02593    0.00432    0.00502    0.00383
C4    1    0.233898    0.495277    0.823290    11.00000    0.01464    0.03539 =
         0.03027   -0.00814    0.00019   -0.00465
AFIX  43
H4    2    0.161777    0.610059    0.862866    11.00000   -1.20000
AFIX   0
C5    1    0.180923    0.287649    0.710639    11.00000    0.02427    0.02403 =
         0.02331    0.00141    0.00408   -0.00227
C6    1    0.335956    0.186964    0.693301    11.00000    0.02151    0.02966 =
         0.02873   -0.00095    0.00270    0.00106
AFIX  43
H6    2    0.342792    0.044802    0.622594    11.00000   -1.20000
AFIX   0
PART    2
N5A   3    0.364148   -0.008586    0.591232    10.23000    0.02973
HKLF    4

REM  1958_pc in Pc
REM R1 =  0.0352 for    1029 Fo > 4sig(Fo)  and  0.0516 for all    1416 data
REM    104 parameters refined using      2 restraints

END

WGHT      0.0634      0.0000

REM Highest difference peak  0.273,  deepest hole -0.161,  1-sigma level  0.040
Q1    1  -0.0598  0.2202  0.6541  11.00000  0.05    0.27
Q2    1   0.2492  0.2676  0.6790  11.00000  0.05    0.25
Q3    1   0.0966  0.2571  0.6552  11.00000  0.05    0.20
Q4    1  -0.3817  0.2308  0.5594  11.00000  0.05    0.17
Q5    1  -0.0043  0.1311  0.5607  11.00000  0.05    0.17
Q6    1   0.1912  0.3987  0.7568  11.00000  0.05    0.16
Q7    1   0.4076  0.1969  0.7608  11.00000  0.05    0.16
Q8    1  -0.2216  0.2997  0.5714  11.00000  0.05    0.15
Q9    1  -0.3011 -0.1287  0.4261  11.00000  0.05    0.13
Q10   1   0.5632  0.2911  0.7877  11.00000  0.05    0.13
;
_shelx_res_checksum              74361
_shelx_hkl_file
;
  -2   0 -10    0.60    1.63   2
   0  -2 -11    1.83    2.10   2
   2   1   2   18.75    1.02   2
   5   4   2   25.39    1.61   2
   6   4   2    0.25    1.73   2
   0  -2  -4   27.94    1.55   3
   1  -3  -8    8.04    1.93   3
   2   5   0    3.79    1.96   3
   4  -4  -8    1.54    2.47   3
   4   0   2   32.49    1.54   3
   5  -4  -6    1.69    2.07   3
   5   5   1    1.11    2.87   3
   8   3   2    0.42    2.77   3
  -1  -1  -3   10.03    0.96   3
   1  -3  -9    0.27    1.54   3
   1  -3  -7    3.78    1.18   3
   6   0   2  236.32    2.10   3
   8   1   2    1.69    1.28   3
  -3   2  -8   33.49    2.50   4
  -3   2  -7    0.18    2.05   4
  -3   2  -6    2.21    1.80   4
   1  -3 -10    0.82    2.53   4
   2  -3  -4   88.86    1.99   4
   2   2   2    7.74    1.42   4
   2   4   1    1.49    1.42   4
   3  -3  -3    1.14    1.35   4
   3   3   2   80.09    1.91   4
   4  -4  -7   -0.21    2.14   4
   5   0   2  179.31    2.14   4
   7  -1   1    1.66    1.71   4
   8   2   2   -0.61    2.07   4
  -3   1  -7   12.03    1.34   4
   1  -3  -6  286.86    2.24   4
   7   3   2   14.69    1.54   4
   0   5  -2   72.64    2.97   4
  -3   1  -8   21.26    2.12   5
  -3   1  -6   33.95    1.76   5
  -3   2  -9    2.41    2.72   5
  -3   2  -5    2.07    1.57   5
  -2  -1  -8   14.35    1.82   5
  -2  -1  -7   99.79    1.93   5
  -2  -1  -6    1.96    1.66   5
  -2   0  -3    0.18    1.19   5
  -2   1  -2   17.88    1.46   5
  -1  -2  -8   55.13    1.91   5
  -1  -2  -7   11.03    1.50   5
   1  -2  -2   68.47    1.81   5
   1   5  -1    0.81    1.97   5
   4  -1   1   17.13    1.52   5
   6   3   2   86.87    2.14   5
   7   1   2   10.97    1.62   5
   9   0   1   -0.05    2.09   5
  -2  -1  -9    2.53    1.40   5
   4   3   2    7.36    1.04   5
   6  -1   1  241.49    2.94   5
  -3   1  -9    0.78    2.32   6
  -3   1  -5    3.23    1.70   6
  -3   3  -7    0.81    2.34   6
  -1  -2 -10    6.41    2.59   6
  -1  -2  -9    0.81    1.95   6
  -1  -2  -6   10.20    1.63   6
   1   3   1    2.36    1.37   6
   3  -4  -9    0.71    2.97   6
   3  -4  -8    0.82    2.35   6
   3   1   2  207.32    2.13   6
   3   2   2    2.83    1.36   6
   3   5   0   91.12    2.54   6
   4  -4  -6    0.27    1.86   6
   5  -1   1    1.80    1.37   6
   5   3   2    4.39    1.64   6
   7   2   2   46.28    1.98   6
   9  -2  -1    3.07    2.06   6
  -2  -1 -10    5.34    1.85   6
  -2  -1  -5  230.79    2.10   6
   1  -3  -5   15.46    1.20   6
   3   4   1  154.80    1.91   6
   6   1   2   56.35    1.30   6
   7   4   1    0.78    1.98   6
   6  -4  -5    5.79    2.83   6
   7  -4  -5   14.03    3.21   6
  -3   3  -8   29.45    3.44   6
  -3   3  -6   26.08    2.69   6
  -3   1 -10    3.89    3.14   7
   0  -2  -3   54.62    1.52   7
   1   4   0    9.88    1.55   7
   3  -4  -7    4.88    2.15   7
   4   1   2  262.30    2.38   7
   4   5   0   12.54    2.23   7
   5   1   2   30.15    1.45   7
   6   2   2   82.92    1.94   7
   9  -1   0    9.48    2.16   7
   9   1   1    2.52    2.24   7
  -3   0  -8    9.95    1.49   7
  -3   0  -7    0.12    1.25   7
  -1  -2  -5    0.30    0.96   7
  -1   0  -1    0.14    0.83   7
   4   2   2   11.97    1.01   7
   4   4   1    1.43    1.17   7
   5   2   2  238.74    1.99   7
   5   5   0   42.28    1.93   7
   6   4   1    0.50    1.50   7
   9   2   1   22.31    1.75   7
   5  -4  -5   20.13    2.36   7
  -3   0  -9   -1.14    2.29   8
  -3   0  -6    8.70    1.65   8
  -3   2  -4   46.18    2.05   8
   0  -3  -9    0.90    2.19   8
   0  -3  -8    2.71    1.90   8
   5   4   1   14.68    1.91   8
   8   0   1    0.26    1.85   8
   8   3   1    2.72    2.37   8
  10   0   0   -0.18    2.83   8
  -3   1  -4   27.18    1.26   8
   0  -3 -10    7.96    2.10   8
   0  -3  -7   -0.10    1.17   8
  -1   4  -2    4.38    2.15   8
  -3   0 -10   34.93    2.98   9
  -3   0  -5   -0.82    1.39   9
  -2  -1  -4    4.69    1.44   9
   0   3   0    7.24    1.45   9
   2  -4  -9   46.67    3.08   9
   2   5  -1   12.63    2.01   9
   3  -4  -6    2.58    1.88   9
  -1  -1  -2  872.07    4.57   9
   1   1   1   81.91    1.84   9
   1   2   1   13.58    0.99   9
   2   3   1    0.41    0.97   9
  -3   3  -5    2.70    2.22   9
   0   4  -1   22.87    2.05   9
   2  -2  -1   30.89    2.06   9
  -1  -2  -4  125.09    1.94  10
   0  -3  -6   58.96    1.70  10
   1  -3  -4   81.87    1.78  10
   2  -4  -8   44.87    2.51  10
   2  -3  -3    3.51    1.39  10
   2   0   1   -0.20    1.42  10
   4  -4  -5   16.12    2.00  10
   7   0   1   -0.67    1.51  10
   7   3   1    1.54    1.97  10
   8  -2  -1    5.65    1.91  10
   8  -1   0    0.09    1.77  10
   8   1   1   37.36    1.95  10
   8   2   1    2.25    2.07  10
   9  -3  -3   -0.02    3.52  10
  -1   3  -1    2.12    1.71  10
  -3  -1  -8   21.05    2.08  11
  -2  -2  -9    0.28    2.23  11
  -2  -2  -8    9.88    2.00  11
  -2  -2  -7   -0.48    1.71  11
   2  -4  -7   26.60    2.15  11
   2   4   0   32.46    1.63  11
   3   5  -1    1.02    2.19  11
   6   3   1   21.67    1.70  11
  10  -1  -1    5.07    2.43  11
  -3  -1  -9    1.20    1.60  11
  -3  -1  -7   14.31    1.29  11
  -2  -2 -10    1.19    2.13  11
   3   3   1    1.70    0.95  11
   7   4   0   15.67    1.74  11
   1   5  -2   30.71    2.57  11
  -3  -1 -10    3.55    3.05  12
  -3  -1  -6   35.13    1.70  12
  -3   0  -4   40.41    1.67  12
  -2  -2  -6  209.88    2.27  12
  -2   0  -2   16.23    1.42  12
   0  -3  -5    2.76    1.52  12
   0   5  -3    1.73    1.97  12
   4   3   1    7.22    1.54  12
   4   5  -1    1.40    2.19  12
   5   3   1    6.54    1.68  12
   5   5  -1   -0.11    2.46  12
   6   0   1   -0.46    1.56  12
   7   1   1    2.56    1.63  12
   7   2   1    8.72    1.61  12
   9   0   0    2.58    2.10  12
  -1  -3  -9   12.34    1.83  12
  -1  -3  -8    1.75    1.34  12
   6   4   0    3.37    1.49  12
  -4   1  -9    2.42    2.70  13
  -4   1  -8   73.84    2.55  13
  -4   1  -7    8.32    2.06  13
  -4   2  -8   14.82    2.71  13
  -3   1  -3  171.47    2.50  13
  -2  -1  -3   10.39    1.23  13
  -1  -3  -7    7.79    1.69  13
   1  -4  -8    9.98    2.46  13
   2  -4  -6    3.40    1.91  13
   2   2   1   -0.28    1.11  13
   3  -4  -5    2.05    1.66  13
   3   4   0    4.80    1.69  13
   5   4   0   58.00    2.08  13
   6   2   1    4.99    1.39  13
   8   3   0    0.87    2.22  13
   9   1   0   10.39    2.10  13
   9   2   0    2.24    2.36  13
   3   0   1    0.20    0.81  13
   4   4   0    5.81    1.17  13
   5   0   1    0.09    0.93  13
  -4   0  -8    5.80    2.13  14
  -4   1  -6   13.79    1.81  14
  -4   2  -7    3.65    2.05  14
  -3  -1  -5    2.15    1.67  14
  -2  -2  -5   63.80    1.88  14
   0  -2  -2  645.10    4.03  14
   1  -4  -7   11.34    2.05  14
   4   0   1   -0.14    1.06  14
   6   1   1  234.92    2.29  14
   7  -1   0   28.50    1.56  14
  -4   0  -9   -0.14    1.85  14
  -1  -3  -6   -0.23    1.17  14
  -1  -2  -3   56.66    1.37  14
   2   1   1    6.77    0.96  14
   5   2   1    6.62    1.13  14
  10   0  -1   -0.11    1.72  14
   7  -2  -1    0.54    2.06  14
  -4   0  -7   -0.03    1.86  15
  -4   2  -6   60.25    2.12  15
  -3   2  -3   40.93    1.87  15
   0  -3  -4   48.43    1.80  15
   1   3   0   44.92    1.66  15
   2   5  -2   16.19    2.03  15
   3   2   1  271.46    2.44  15
   4   2   1    8.76    1.39  15
   7   3   0   41.85    1.95  15
   8   0   0   72.88    1.87  15
   9  -1  -1    0.16    2.08  15
  -4   0  -6  143.02    1.92  15
   5   1   1    1.69    0.95  15
   8   2   0   17.46    1.35  15
   4  -3  -2  202.99    5.11  14
  -3   4  -7    1.53    3.61  15
   1   4  -1    5.83    1.86  15
  -4   1  -5    5.18    1.56  16
  -3  -2  -9    4.00    2.57  16
  -3  -2  -8   38.88    2.33  16
  -3   0  -3   -0.32    1.42  16
   1  -4  -6   15.99    1.95  16
   1  -3  -3   45.93    1.69  16
   2  -4  -5    1.99    1.66  16
   3   1   1    9.64    1.21  16
   4   1   1   18.08    1.42  16
   7   4  -1   -0.40    2.38  16
   8   1   0    0.42    1.71  16
   9  -2  -2    8.74    2.11  16
   9   3  -1    0.50    2.70  16
  10   1  -1    6.39    2.40  16
  -3  -2  -7   -0.22    1.40  16
  -3  -1  -4   34.94    1.22  16
  -2  -2  -4   24.71    1.15  16
  -3   3  -4   26.57    2.47  16
  -4  -1  -9    5.39    2.59  17
  -4  -1  -8   79.18    2.48  17
  -2  -3  -9    3.05    2.73  17
  -2  -3  -8   12.11    2.20  17
  -1  -3  -5    0.70    1.41  17
   0  -4  -8   17.28    2.49  17
   0   2   0   32.76    1.59  17
   3   5  -2   33.56    2.32  17
   4   5  -2   31.87    2.27  17
   5   5  -2    4.41    2.46  17
   6  -1   0   32.83    1.74  17
   6   3   0   65.79    1.86  17
  -4   0  -5   -0.29    1.11  17
  -3  -2  -6    2.55    1.21  17
   6   4  -1    3.33    1.49  17
   5  -4  -4    4.95    2.65  17
   4  -4  -4    0.81    2.03  17
  -4  -1  -7    8.38    2.02  18
  -4   2  -5    0.67    1.76  18
  -2  -3  -7    8.17    1.92  18
   0  -4  -7    3.91    2.11  18
   1   5  -3    1.28    1.95  18
   2   3   0   30.16    1.52  18
   2   4  -1    0.59    1.42  18
   5   3   0   10.46    1.41  18
   7   0   0    1.61    1.40  18
   7   2   0  162.64    2.12  18
   8   3  -1    1.43    2.04  18
   9   2  -1    3.85    2.06  18
  10  -1  -2    8.54    2.43  18
   9   0  -1   -0.42    1.29  18
  -1   5  -5    1.15    3.87  17
   3  -3  -2    6.78    2.01  18
  -4   3  -7    7.22    3.26  18
  -4  -1  -6   14.76    1.76  19
  -4   1  -4   88.71    2.12  19
  -2  -3  -6   33.37    1.79  19
  -2  -1  -2   18.90    1.34  19
   1  -4  -5   52.75    1.89  19
   3  -4  -4   48.83    2.03  19
   3   3   0  160.54    2.04  19
   3   4  -1   64.91    1.98  19
   4   3   0    0.52    1.55  19
   5   4  -1   17.33    1.92  19
   7   1   0   31.28    1.50  19
   8  -1  -1   30.48    1.76  19
   9   1  -1    0.06    2.07  19
  10  -2  -3    8.48    2.69  19
  -3  -2  -5    1.33    1.09  19
   4   4  -1   43.87    1.39  19
   8  -3  -3    2.02    2.78  19
   6  -2  -1    7.29    1.90  19
  -4   0  -4  314.95    2.68  20
  -1  -3  -4   15.78    1.62  20
   0  -4  -6    5.60    1.86  20
   0  -3  -3    9.67    1.38  20
   0   4  -2    3.69    1.48  20
   5  -1   0  324.13    3.03  20
   6   2   0  171.31    2.05  20
  -5   1  -8    0.39    1.87  20
  -4  -1  -5    4.37    1.12  20
  -3  -1  -3  174.38    1.93  20
  -1  -4  -8    1.83    2.00  20
   7   3  -1   11.39    1.35  20
   9   3  -2    7.36    1.92  20
   0   5  -4    1.96    2.68  20
   1  -2  -1   24.58    1.73  20
  -5   0  -8   27.24    2.66  21
  -5   1  -7    7.05    2.30  21
  -4  -2  -8   16.97    2.60  21
  -4   3  -6   10.40    2.35  21
  -2  -2  -3  154.39    2.08  21
  -1  -2  -2   24.16    1.32  21
  -1  -1  -1   81.62    2.13  21
   2  -4  -4   11.49    1.75  21
   2   5  -3    2.76    2.07  21
   6   0   0   87.57    1.73  21
   7   4  -2    0.20    2.34  21
   8   2  -1    5.70    1.82  21
  10   0  -2    5.58    2.44  21
  10   1  -2    8.04    2.42  21
  -5   0  -7    0.71    1.57  21
  -3  -3  -8   32.60    1.88  21
  -2  -3  -5   19.34    1.26  21
  -1  -4  -7   11.42    1.53  21
   5   5  -3    0.56    1.72  21
  -3   4  -6    6.07    4.04  20
   2  -3  -2  115.92    2.64  21
   8  -2  -2   14.08    2.33  21
  -5   1  -6   96.85    2.39  22
  -4  -2  -7    4.40    1.95  22
  -4   2  -4   41.38    1.87  22
  -3  -2  -4   48.82    1.82  22
  -3   1  -2  205.27    2.77  22
   3   5  -3   -0.29    2.18  22
   4  -1   0   88.45    1.94  22
   4   5  -3    2.16    2.16  22
   5   2   0  103.08    1.74  22
   6   1   0   35.08    1.68  22
  -3  -3  -7    0.76    1.53  22
   6   3  -1   20.13    1.25  22
   6   4  -2   62.54    1.56  22
   8   0  -1   -0.07    1.13  22
   8   1  -1   26.13    1.24  22
   0   3  -1  118.81    2.54  22
  -5  -1  -8    1.26    2.58  23
  -5   0  -6   72.92    2.16  23
  -5   2  -7   25.12    2.75  23
  -4  -2  -6   61.95    1.94  23
  -4  -1  -4   89.84    2.00  23
  -3   0  -2  922.25    4.61  23
  -1  -4  -6    2.19    1.85  23
   0  -4  -5    4.15    1.64  23
   1   2   0   14.75    1.29  23
   8   3  -2    0.62    2.00  23
   9  -1  -2    2.22    1.86  23
   9   2  -2   10.80    2.06  23
  -5  -1  -7    5.78    1.61  23
   4   2   0    4.60    0.99  23
  -2   1  -1    7.04    1.64  23
  -1   4  -3   21.36    2.35  23
  -3  -3  -6   25.12    1.98  24
  -2   0  -1    0.29    1.44  24
   0   1   0   33.80    2.09  24
   1  -4  -4   64.18    2.03  24
   1   4  -2   31.93    1.69  24
   5   0   0  155.99    2.07  24
   5   1   0  370.68    2.63  24
   5   4  -2   14.80    1.89  24
   7  -1  -1  131.27    2.08  24
   7   2  -1    1.04    1.60  24
  -4   0  -3    0.07    0.97  24
  -2  -3  -4  168.37    1.86  24
   2   2   0  240.10    2.24  24
   3   2   0    6.73    1.00  24
   5   3  -1    5.96    1.01  24
  10   2  -3    7.22    1.95  24
   6  -4  -4    9.86    4.04  22
   3  -1   0  577.41    5.10  24
   5  -2  -1   63.21    2.31  24
   9  -3  -4   15.10    3.22  24
  -5  -1  -6  102.53    2.33  25
  -5   0  -5   -0.67    1.72  25
  -5   1  -5   92.21    2.17  25
  -5   2  -6   15.55    2.10  25
  -4  -2  -5    0.98    1.72  25
  -4   1  -3   25.82    1.55  25
  -2  -4  -7    0.26    2.43  25
  -1  -3  -3    0.88    1.31  25
   1  -3  -2  125.06    2.25  25
   1   5  -4   20.96    2.30  25
   3  -5  -6    1.57    2.37  25
   4  -5  -6    0.53    2.64  25
   4   4  -2    5.01    1.64  25
   9  -2  -3    6.59    2.09  25
   9   0  -2    0.41    1.84  25
   9   1  -2    1.01    1.83  25
   9   3  -3   -0.70    2.49  25
  10  -1  -3   30.80    2.54  25
   7   4  -3   26.65    1.74  25
   2  -1   0   22.15    2.29  25
  -3  -3  -5    3.33    1.64  26
  -3  -2  -3   44.09    1.57  26
  -1  -4  -5    2.18    1.88  26
   0  -2  -1   10.33    1.26  26
   1   3  -1   43.18    1.66  26
   2  -5  -6    0.72    2.45  26
   2   4  -2   39.08    1.69  26
   3   4  -2    2.30    1.68  26
   4   3  -1    0.77    1.55  26
   5   5  -4    3.92    2.68  26
   7   1  -1  131.66    1.91  26
   7   3  -2  138.66    2.21  26
  -5  -1  -5   83.17    1.63  26
  -3  -1  -2  198.61    2.05  26
  -2  -2  -2    9.11    1.01  26
   4   1   0   90.33    1.41  26
   7   0  -1   -0.13    1.02  26
   8   2  -2   11.19    1.33  26
  10   1  -3   27.66    1.77  26
  -4   3  -5    1.04    2.45  26
  -5  -2  -7   28.81    2.63  27
  -4  -3  -7    8.89    2.51  27
  -4  -1  -3   26.84    1.52  27
  -2  -4  -6    6.51    2.13  27
   0  -4  -4    2.05    1.68  27
   2   3  -1    3.43    1.36  27
   2   5  -4    6.23    2.22  27
   3   3  -1   11.17    1.37  27
   3   5  -4   -0.94    2.18  27
   4   0   0  236.13    2.41  27
   4   5  -4   13.34    2.52  27
   6   2  -1    8.63    1.47  27
  10  -2  -4    9.50    2.76  27
  10   0  -3   -0.20    2.43  27
  -4  -2  -4   42.05    1.30  27
   6   4  -3   -0.12    1.45  27
   0   5  -5    0.88    2.98  27
  -6   0  -7    0.45    2.56  28
  -5  -2  -6   17.64    1.99  28
  -5   0  -4  215.92    2.43  28
  -5   1  -4   48.93    1.78  28
  -5   2  -5   31.38    2.17  28
  -4  -3  -6   10.12    2.19  28
   0  -3  -2   33.34    1.59  28
   1  -5  -6   -0.67    2.48  28
   7  -2  -2   99.16    2.29  28
   8  -1  -2   28.44    1.77  28
   8   3  -3    2.03    2.03  28
  -6   1  -7    1.59    1.87  28
   3   1   0  576.35    3.30  28
   6   3  -2    3.41    1.14  28
   9   2  -3    6.20    1.47  28
  -6  -1  -7    1.32    2.60  29
  -6   0  -6   54.14    2.41  29
  -3  -4  -7    1.91    2.85  29
  -3  -3  -4   26.75    1.65  29
  -2  -4  -5   35.76    1.99  29
  -2  -3  -3    2.12    1.61  29
  -2  -1  -1    7.17    1.30  29
   6  -1  -1   53.31    1.65  29
   8   1  -2   28.15    1.69  29
   9   3  -4   14.03    2.69  29
  -5  -1  -4   46.51    1.33  29
   1   1   0  590.26    4.35  29
   5   2  -1   66.77    1.28  29
   5   4  -3    1.12    1.29  29
   6   1  -1   46.55    1.19  29
   7   4  -4   16.00    1.71  29
   7  -3  -3   15.26    2.67  29
   2  -4  -3    4.70    2.15  29
   3  -4  -3    8.92    2.13  29
  -6   1  -6    8.00    2.29  30
  -5  -2  -5   32.37    2.08  30
  -4  -3  -5    2.03    1.91  30
  -1  -4  -4   22.65    1.77  30
   0  -5  -6    1.37    2.70  30
   0   4  -3   18.36    1.62  30
   2   1   0   23.78    1.48  30
   3   0   0  293.40    2.90  30
   7   2  -2  108.44    1.98  30
   8   0  -2   52.70    1.83  30
   9  -1  -3   14.69    1.94  30
  -6  -1  -6    8.13    1.60  30
  -3  -4  -6    6.33    1.74  30
  -4   2  -3   14.60    2.11  30
  -4  -2  -3   14.56    1.67  31
  -4   0  -2   34.04    1.57  31
  -1  -3  -2    6.43    1.38  31
  -1  -2  -1   12.80    1.26  31
   1  -4  -3   27.29    1.65  31
   1   5  -5    0.09    2.19  31
   2  -5  -5   -0.12    2.33  31
   3  -5  -5    1.11    2.39  31
   4   4  -3   65.83    1.91  31
   4   5  -5    1.68    2.49  31
   5   3  -2  145.97    1.97  31
   6   0  -1   -0.17    1.28  31
   7   3  -3   14.29    1.85  31
   9   1  -3   16.47    1.87  31
  10  -1  -4    1.25    2.48  31
  -6   0  -5   -0.24    1.39  31
  -3  -2  -2    2.40    0.99  31
  10   1  -4    0.77    1.69  31
  -3   2  -2    2.06    1.95  31
  -5   0  -3   -0.19    1.62  32
   0  -4  -3   18.88    1.57  32
   1  -5  -5    0.54    2.19  32
   2   5  -5    0.83    2.35  32
   3   4  -3    9.46    1.70  32
   3   5  -5    1.90    2.50  32
   4   2  -1   72.44    1.67  32
   6   4  -4   12.58    2.08  32
   8   2  -3    2.34    1.80  32
   9   0  -3   -0.02    1.86  32
  10   0  -4   19.95    2.49  32
  -6  -1  -5   -0.27    1.39  32
  -5  -3  -6    7.50    1.80  32
  -5  -2  -4   19.40    1.30  32
  -4  -1  -2  264.01    2.25  32
  -3  -4  -5    0.85    1.50  32
  -3  -3  -3   16.60    1.15  32
  -2  -4  -4    1.88    1.18  32
  -1  -5  -6   16.73    2.09  32
   8   3  -4   21.28    1.51  32
  -1   3  -2    6.01    1.77  32
   1   4  -3   28.01    1.94  32
   4  -5  -5    1.34    2.76  32
   8  -2  -3    3.19    2.29  32
  -6  -2  -6    6.80    2.57  33
  -6   1  -5    0.70    1.97  33
  -5  -1  -3   74.44    1.91  33
  -4  -3  -4   76.37    1.99  33
  -4   1  -2  267.01    2.93  33
  -3   0  -1   -0.31    1.19  33
   2   4  -3    5.92    1.72  33
   4   3  -2  216.99    2.35  33
   7   1  -2   53.57    1.64  33
   9   2  -4    3.61    2.03  33
   9   3  -5    1.07    2.64  33
   5   1  -1    5.34    0.97  33
   6   2  -2   62.90    1.33  33
  -5   2  -4   19.62    2.25  33
   4  -2  -1   67.54    2.59  33
  -6   0  -4  154.22    2.33  34
  -6   2  -6    8.68    2.68  34
  -5  -3  -5   13.57    2.23  34
  -5   1  -3   70.88    2.02  34
  -4  -4  -6   50.33    2.99  34
  -2  -3  -2  116.46    1.92  34
   0  -5  -5    1.28    2.50  34
   6   3  -3    5.88    1.58  34
   7  -1  -2   55.66    1.77  34
   7   4  -5   14.99    2.37  34
   9  -2  -4    3.37    2.13  34
  -3  -1  -1   10.58    0.95  34
  -1  -4  -3   22.34    1.35  34
   3   2  -1  180.99    1.96  34
   5   4  -4    5.21    1.31  34
  -1   2  -1   13.81    1.95  34
   4  -4  -3   64.07    3.11  34
  -5   3  -6    5.36    3.20  34
   0   5  -6    0.69    3.11  34
   5  -1  -1    6.19    1.66  34
   8  -3  -4   21.95    2.58  34
  -6  -2  -5    3.85    2.24  35
  -6  -1  -4   64.53    1.96  35
  -2  -2  -1   -0.25    1.11  35
   3   3  -2    6.97    1.35  35
   7   0  -2  131.26    2.04  35
   8   1  -3   11.68    1.64  35
  -7   0  -6   -0.38    1.84  35
  -3  -4  -4   -0.04    1.34  35
  -1  -5  -5    1.20    1.80  35
   5   0  -1    0.12    0.92  35
  -7  -1  -6    0.24    3.00  36
  -6   1  -4   61.95    2.06  36
  -5  -2  -3   -0.19    1.46  36
  -4  -4  -5    0.70    2.47  36
  -4  -3  -3    1.33    1.69  36
  -4  -2  -2   12.82    1.43  36
   1   0   0   77.97    2.67  36
   3   5  -6   -0.51    2.76  36
   7   2  -3   43.56    1.74  36
   7   3  -4   12.00    1.80  36
   9  -3  -5    1.03    2.59  36
   9   1  -4    5.55    1.85  36
  10   1  -5    5.53    2.41  36
   2   2  -1   32.35    1.13  36
   2   3  -2  112.10    1.72  36
   4   4  -4    1.16    1.16  36
   6   4  -5    5.56    1.49  36
   1   5  -6    0.59    3.02  36
   6  -2  -2   65.12    2.32  36
  -7   1  -6    1.31    3.06  37
  -6  -2  -4   14.64    2.01  37
  -5  -3  -4   70.71    2.21  37
  -2  -4  -3   73.37    2.00  37
   0   3  -2   34.27    1.72  37
   1  -5  -4   23.35    2.34  37
   1   3  -2  125.21    2.18  37
   2   5  -6    0.82    2.51  37
   4   1  -1   37.66    1.35  37
   5   2  -2    1.22    1.29  37
   5   3  -3    1.74    1.38  37
   8  -1  -3   11.86    1.72  37
   8   0  -3    0.51    1.64  37
   8   2  -4    4.56    1.82  37
   8   3  -5   10.17    2.04  37
  -7   0  -5   -0.71    1.59  37
  -5   0  -2  170.76    1.99  37
  -3  -3  -2   82.65    1.55  37
   6   1  -2   10.29    0.99  37
   7   4  -6    7.33    1.95  37
   9   2  -5   13.94    1.48  37
  10  -1  -5    4.10    1.81  37
  -1   4  -4   23.10    2.34  37
  -7  -1  -5    8.57    2.27  38
  -6  -1  -3  109.62    2.16  38
  -6   0  -3   -0.17    1.45  38
  -6   2  -5    3.71    2.28  38
  -5  -1  -2   31.58    1.53  38
  -3   1  -1   10.22    1.31  38
  -2  -5  -5    3.80    2.92  38
   0  -5  -4    1.29    2.25  38
   0   2  -1   10.55    1.34  38
   1   2  -1   24.53    1.42  38
   2  -5  -4    6.63    2.22  38
   3   4  -4   50.47    1.91  38
   9  -1  -4    6.25    1.95  38
   9   0  -4   25.18    1.99  38
  10   0  -5   -0.66    2.48  38
  -6  -3  -5    0.71    1.79  38
  -3  -2  -1  270.22    2.30  38
  -4   3  -4   75.13    3.43  38
   5  -5  -5    0.13    3.63  38
  -4  -4  -4    6.25    2.17  39
  -1  -5  -4    1.53    2.23  39
   0  -3  -1  119.52    2.18  39
   0  -1   0   36.01    2.13  39
   5   4  -5   21.93    1.94  39
   6   3  -4  120.24    2.02  39
  -7  -2  -5    9.29    1.87  39
  -5  -4  -5   13.75    2.10  39
  -4  -1  -1   16.89    1.12  39
  -4   0  -1   -0.07    0.78  39
  -3  -4  -3   29.67    1.33  39
   1  -3  -1   43.36    2.07  39
   3  -5  -4   -0.08    2.52  39
  -7  -1  -4    0.37    1.95  40
  -7   0  -4   22.91    2.06  40
  -7   1  -5    8.45    2.32  40
  -6  -2  -3   25.30    1.81  40
  -5  -3  -3    6.15    1.70  40
  -5  -2  -2  246.35    2.45  40
  -1  -3  -1    3.02    1.38  40
  -1  -1   0  579.81    4.55  40
   0  -4  -2    3.52    1.50  40
   0   4  -4    2.40    1.74  40
   1  -4  -2   34.20    1.76  40
   1   4  -4   62.72    2.08  40
   2   4  -4   11.31    1.75  40
   4   3  -3    4.23    1.55  40
   6   0  -2  361.93    2.73  40
   6   2  -3   10.06    1.49  40
   7   1  -3   98.23    1.82  40
  -6  -3  -4    0.86    1.56  40
  -4  -3  -2    7.87    1.06  40
   4   2  -2   16.51    1.05  40
   6   4  -6    6.05    1.70  40
   7   3  -5    1.69    1.28  40
   8   3  -6    2.51    1.62  40
  10   1  -6    4.56    1.74  40
  -6   1  -3  107.38    2.26  41
  -5   1  -2   30.44    1.59  41
  -2  -5  -4   19.16    2.60  41
  -1  -4  -2    5.10    1.47  41
   4   0  -1   -0.30    1.11  41
   6  -1  -2   11.25    1.41  41
   7  -2  -3   44.95    1.98  41
   8   1  -4   26.62    1.68  41
   9   1  -5    0.87    1.95  41
  -7  -2  -4   12.45    1.63  41
  -2  -3  -1    0.65    0.97  41
   3   1  -1  122.83    1.72  41
   4   4  -5   17.81    1.42  41
   7   2  -4    3.76    1.13  41
   9   2  -6    0.27    1.64  41
  -5   3  -5   14.11    3.28  41
  -5   2  -3    0.43    1.80  41
  -5  -4  -4    9.16    2.52  42
  -4  -4  -3   11.86    1.97  42
  -4  -2  -1    7.87    1.44  42
  -2  -4  -2    2.32    1.71  42
  -1   0   0   75.48    2.66  42
   4  -1  -1   36.31    1.51  42
   8   2  -5   16.79    1.83  42
   9  -2  -5   13.68    2.28  42
  -6  -1  -2   56.99    1.41  42
  -2  -1   0   23.33    1.21  42
   3   3  -3    1.35    0.93  42
   5   1  -2   71.77    1.38  42
   5   3  -4   11.70    1.01  42
  10   0  -6   -1.03    1.78  42
   2  -4  -2   40.42    2.18  42
   6  -3  -3    4.62    2.08  42
   8  -2  -4    5.49    2.39  42
  -7  -1  -3   33.09    2.08  43
  -7   1  -4    1.01    1.98  43
  -6   0  -2  279.72    2.71  43
  -6   2  -4   14.31    2.11  43
  -3  -5  -4   -0.89    2.78  43
   5   4  -6    1.91    2.12  43
   7   0  -3    1.22    1.50  43
  10  -1  -6    6.40    2.85  43
  -8   0  -5   -0.75    2.17  43
  -6  -3  -3   12.63    1.45  43
  -5  -1  -1    1.37    1.00  43
  -3  -3  -1    1.70    0.97  43
   7  -1  -3   85.19    1.61  43
   8   0  -4  167.54    1.93  43
   9   0  -5    0.14    1.34  43
  -7   0  -3   -0.03    1.69  44
  -6  -2  -2   85.50    2.07  44
  -5  -3  -2    5.07    1.73  44
  -3  -4  -2   19.58    1.80  44
  -1  -5  -3    0.42    2.26  44
   0  -5  -3    2.25    2.14  44
   3   2  -2   28.06    1.54  44
   3   4  -5    2.07    1.67  44
   5   2  -3    1.50    1.30  44
   6   3  -5    3.58    1.59  44
   6   4  -7    1.96    2.44  44
   8  -1  -4   25.53    1.82  44
   8   3  -7   -0.04    2.34  44
   9  -1  -5    2.18    2.10  44
  -7  -3  -4   16.18    2.17  44
  -7  -2  -3    0.44    1.43  44
   7   3  -6    8.77    1.49  44
  -8  -1  -4    0.27    2.60  45
  -5  -4  -3    1.33    2.20  45
  -5  -2  -1    7.33    1.70  45
  -5   0  -1    0.00    1.41  45
  -4   1  -1   17.83    1.57  45
  -3  -1   0  595.69    3.63  45
  -2  -5  -3    1.59    2.27  45
  -1  -2   0   14.65    1.31  45
   1  -5  -3    1.89    1.98  45
   2   3  -3    4.45    1.37  45
   6   1  -3    9.32    1.36  45
   9   2  -7    3.06    2.33  45
  -2  -2   0  242.26    2.32  45
   9   1  -6    1.53    1.48  45
   6  -4  -4   10.33    4.04  43
  -2   4  -5   34.04    3.09  45
   2  -3  -1    3.81    2.01  45
  -4   2  -2   12.00    1.88  45
  -8   0  -4    1.02    2.62  46
  -7   2  -5    8.71    2.72  46
  -4  -4  -2   -1.72    1.96  46
  -4  -3  -1    8.12    1.59  46
   0  -2   0   33.57    1.58  46
   2   4  -5    2.36    1.72  46
   4   3  -4   96.16    1.88  46
   4   4  -6   -0.05    1.92  46
   6   2  -4  134.39    1.92  46
   7   1  -4   71.67    1.71  46
   8   1  -5   32.90    1.73  46
   8   2  -6    0.31    1.81  46
   7   2  -5   13.34    1.18  46
   7  -3  -4   11.34    2.41  46
   8  -3  -5   12.10    2.68  46
  -7  -3  -3    1.84    2.57  47
  -7  -1  -2   10.55    1.77  47
  -6  -3  -2   90.55    2.30  47
  -6   1  -2   55.41    1.88  47
  -3  -5  -3    2.44    2.60  47
  -3  -2   0    6.50    1.44  47
   1   4  -5   50.93    2.05  47
   2   1  -1  174.47    2.45  47
   5  -2  -2    0.51    1.37  47
   5   0  -2  168.32    2.20  47
   5   4  -7    9.53    2.20  47
  10   0  -7    0.76    2.71  47
  -7   1  -3   26.25    1.59  47
  -6  -4  -3   10.98    1.83  47
  -6  -1  -1  226.57    2.13  47
  -3   0   0  283.02    2.85  47
   4  -5  -4   11.07    3.19  47
   7  -4  -5   14.44    3.22  47
   2  -5  -3    3.49    2.65  47
  -8  -1  -3    3.12    2.25  48
  -7  -2  -2   50.06    2.16  48
  -7   0  -2    2.85    1.76  48
  -5  -3  -1    6.36    1.78  48
  -4  -1   0   92.96    1.71  48
  -1   4  -5    1.97    2.01  48
   0   4  -5    3.61    1.76  48
   1   3  -3   47.05    1.73  48
   4   1  -2    8.95    1.16  48
   5   3  -5    1.54    1.62  48
   6   3  -6   15.50    1.89  48
   7   3  -7    1.19    2.08  48
  10  -1  -7    1.91    3.00  48
  -8  -2  -3    1.34    1.85  48
  -6  -2  -1    4.24    1.09  48
  -5  -4  -2   27.44    1.68  48
  -4  -5  -3    8.00    2.17  48
   2   2  -2  282.96    2.51  48
   3   0  -1    0.13    0.89  48
   3   4  -6    2.26    1.40  48
   4   2  -3  206.86    1.96  48
   9   0  -6   20.69    1.61  48
   9   2  -8   37.35    2.07  48
  -8   0  -3    0.44    2.25  49
  -8   1  -4    0.73    2.67  49
  -6   0  -1    0.21    1.66  49
  -4  -2   0    4.98    1.45  49
  -2  -4  -1    1.67    1.47  49
  -1  -4  -1    2.84    1.53  49
   5  -1  -2   77.37    1.94  49
   6   0  -3   -0.27    1.35  49
   9  -2  -6   -0.81    2.62  49
  -3  -4  -1  160.77    2.01  49
   3   3  -4   10.48    1.19  49
   8   0  -5    0.71    1.17  49
   9   1  -7    7.39    1.52  49
  -7  -3  -2   17.44    2.30  50
  -6   2  -3   22.14    1.96  50
  -2  -5  -2    4.65    2.31  50
  -2  -3   0   31.05    1.57  50
  -1  -5  -2   19.06    2.11  50
   0  -4  -1   23.34    1.72  50
   0   3  -3    9.50    1.49  50
   4   4  -7    0.98    2.20  50
   5   4  -8    2.99    2.53  50
   7   0  -4  154.48    2.12  50
   8   2  -7   26.26    2.14  50
   9  -1  -6    0.57    2.27  50
  -5  -1   0  325.66    2.47  50
  -4   0   0  223.32    2.39  50
   5   1  -3   42.77    1.24  50
   5   2  -4   21.82    1.21  50
  -8  -1  -2    1.79    1.96  51
  -7   2  -4   13.52    2.41  51
  -6  -4  -2    0.20    2.55  51
  -6  -3  -1   21.36    1.81  51
  -5  -2   0  101.12    1.86  51
  -5   1  -1    1.03    1.45  51
  -4  -4  -1    0.41    1.71  51
  -3  -5  -2   54.46    2.49  51
  -3  -3   0  160.21    2.13  51
  -1  -3   0   44.42    1.68  51
   0  -5  -2   77.89    2.42  51
   2   4  -6    4.06    1.99  51
   6  -2  -3   10.16    1.68  51
   6   2  -5   11.45    1.40  51
   7   2  -6   73.37    1.84  51
   7   3  -8   14.33    2.45  51
   8  -2  -5   17.31    2.10  51
   8  -1  -5   32.85    1.88  51
   8   1  -6  124.64    2.29  51
  -8  -2  -2    0.50    1.59  51
  -7  -2  -1    7.58    1.25  51
  -7  -1  -1    2.63    1.25  51
   4   3  -5   14.53    1.10  51
  -4  -5  -2   20.72    2.69  52
  -4  -3   0   -0.21    1.62  52
   5   3  -6   12.87    1.66  52
   6  -1  -3   10.30    1.44  52
   6   1  -4   68.77    1.85  52
   6   3  -7    0.84    1.84  52
   7  -2  -4    3.73    1.78  52
   7  -1  -4   72.26    1.88  52
   7   1  -5    9.28    1.42  52
  -5  -4  -1   13.88    1.46  52
  -3   4  -6    6.19    3.83  51
  -2   3  -3    2.63    2.42  52
  -1   3  -3    0.50    1.72  52
  -8  -3  -2    1.68    3.04  53
  -8   0  -2   44.18    2.16  53
  -8   1  -3    2.60    2.33  53
  -7   1  -2   11.14    1.80  53
   1   2  -2   70.95    1.78  53
   1   4  -6   17.05    2.09  53
   2   3  -4   94.00    2.10  53
   3   4  -7    3.35    2.27  53
   4   4  -8    1.80    2.56  53
   8   2  -8   11.02    2.27  53
   9   0  -7    0.39    2.17  53
   9   1  -8   11.08    2.47  53
  -7  -3  -1    1.60    1.40  53
  -7   0  -1    0.29    1.02  53
  -6  -2   0  162.46    1.87  53
  -6  -1   0   32.07    1.37  53
  -5  -3   0   10.04    1.09  53
  -5   0   0  144.48    1.92  53
   3   2  -3   -0.08    0.96  53
   3  -4  -2    2.99    2.72  52
  -5   2  -2  237.30    3.70  53
   1  -4  -1    5.99    1.92  53
  -9   0  -3    0.95    3.06  54
   0  -3   0    7.85    1.47  54
   1   1  -1  263.95    3.40  54
   3   1  -2   95.46    1.75  54
   7   3  -9    2.93    2.83  54
  -6  -4  -1    1.34    1.58  54
   4   0  -2  329.82    2.67  54
  -6   3  -5    0.10    3.55  54
   1  -5  -2   31.46    2.57  54
   3  -1  -1  135.18    2.73  54
  -9  -1  -2    7.42    2.62  55
  -8  -2  -1    1.28    2.26  55
  -8  -1  -1   36.72    2.13  55
  -6   1  -1  225.09    2.80  55
   0   4  -6    4.84    2.01  55
   2   4  -7   30.37    2.29  55
   6   3  -8    5.97    2.15  55
   7   2  -7    0.47    1.83  55
   8  -3  -6    1.23    2.58  55
   8   0  -6   41.50    1.83  55
   8   1  -7    2.44    1.86  55
   9  -2  -7    2.75    2.66  55
   9  -1  -7    7.64    2.30  55
  -6  -3   0   65.34    1.55  55
   3   3  -5    1.90    1.08  55
   4   2  -4  188.29    1.89  55
   1  -2   0   14.32    1.95  55
   3  -5  -3    0.21    2.87  55
   3  -2  -1  170.62    4.42  55
  -2   4  -6    5.71    2.71  55
  -7  -2   0  172.41    2.34  56
  -3  -5  -1    0.15    2.30  56
  -3  -4   0    2.27    1.77  56
  -2  -5  -1    1.04    2.01  56
  -2  -4   0   32.15    1.67  56
  -1   4  -6    2.92    1.99  56
   3   4  -8    1.18    2.47  56
   5   2  -5   22.81    1.63  56
   5   3  -7   20.52    1.98  56
   6   2  -6   69.60    1.89  56
   7   0  -5    0.44    1.45  56
   8   2  -9    5.85    2.44  56
   9   1  -9    1.84    2.82  56
  -8  -3  -1    2.65    1.84  56
  -7  -1   0   29.19    1.25  56
  -6   0   0   80.09    1.57  56
  -4  -4   0    5.67    1.24  56
   4   3  -6    9.24    1.25  56
   7   1  -6    0.30    1.17  56
   9   0  -8    3.99    1.76  56
  -5   3  -4   63.61    4.00  55
  -7  -4  -1    2.09    3.01  57
  -7   2  -3    1.27    2.07  57
  -4  -5  -1    0.73    2.63  57
  -4  -2   1   72.21    1.77  57
  -3  -2   1  176.18    2.21  57
   1   3  -4   83.45    1.93  57
   4   1  -3  201.06    2.08  57
   5   0  -3   -0.33    1.36  57
   6   0  -4   15.10    1.45  57
   8  -1  -6  133.96    2.52  57
  -9   0  -2    4.89    1.86  57
  -8   0  -1    0.01    1.41  57
  -7  -3   0   36.18    1.58  57
  -5  -4   0   53.80    1.69  57
  -4  -1   1   32.91    1.14  57
  -3  -1   1  125.21    1.79  57
  -9  -2  -1   23.52    2.67  58
  -8   1  -2    0.94    2.04  58
  -5  -5  -1    0.99    3.08  58
  -5  -2   1   68.63    1.74  58
  -2  -2   1   32.82    1.45  58
  -1  -5  -1    9.82    2.08  58
  -1  -4   0    9.95    1.61  58
   1   4  -7   12.33    2.34  58
   5   1  -4    2.41    1.34  58
   6   1  -5   51.81    1.76  58
   6   3  -9    3.66    2.48  58
   7  -3  -5    2.80    2.04  58
   7   2  -8    0.27    2.01  58
   8  -2  -6    2.81    2.04  58
  -5  -1   1    4.14    1.07  58
   3   4  -9    2.71    2.19  58
   8   1  -8    0.55    1.49  58
   4  -3  -2  214.19    5.41  57
  -9  -1  -1    2.57    2.44  59
  -8  -2   0   18.82    2.07  59
  -7   1  -1    2.75    1.79  59
  -6  -4   0    3.30    2.24  59
  -4  -3   1    0.04    1.66  59
  -3  -3   1    8.90    1.44  59
   2   2  -3    3.13    1.15  59
   2   4  -8   45.44    2.51  59
   5   3  -8    0.62    1.92  59
   7  -1  -5   10.59    1.54  59
   8   0  -7    0.76    1.90  59
   9  -1  -8   14.83    2.64  59
  -8  -1   0    0.59    1.23  59
  -7   0   0    2.04    1.10  59
  -6  -2   1    6.49    1.18  59
  -5  -3   1    5.16    1.10  59
  -2  -1   1  174.93    2.31  59
   9   0  -9    0.89    2.05  59
  -6   2  -2   84.22    2.83  59
  -8  -3   0    1.28    2.46  60
  -6  -1   1   55.41    1.69  60
   0   2  -2  678.24    4.92  60
   0   4  -7    2.06    2.29  60
   2   0  -1    0.63    1.75  60
   2   3  -5   11.77    1.66  60
   4  -1  -2    8.49    1.23  60
   4   3  -7    5.87    1.69  60
   6  -3  -4  116.84    2.65  60
   6   2  -7   -0.22    1.63  60
   7  -2  -5   14.25    1.89  60
  -7  -4   0   17.84    1.90  60
  -2  -3   1    3.72    1.05  60
   3   3  -6   99.95    1.61  60
   7   1  -7   13.94    1.22  60
   7   2  -9    0.31    1.51  60
   0  -5  -1    7.68    2.47  60
   5  -3  -3    1.86    1.90  60
   7  -4  -6    7.71    3.51  60
  -7  -2   1    2.17    1.77  61
  -6  -3   1   21.13    1.84  61
  -4   1   0   86.95    2.06  61
   0   3  -4   49.38    2.06  61
   1   4  -8    7.36    2.67  61
   2   4  -9   48.11    3.25  61
   3   2  -4  182.81    2.17  61
   5   2  -6   71.06    1.77  61
   6  -1  -4   75.44    2.06  61
   8   1  -9    0.33    2.30  61
  -9   0  -1    0.05    1.62  61
   4   2  -5    2.71    0.96  61
   5  -1  -3   48.52    1.42  61
   7   0  -6   31.13    1.37  61
  -3   4  -7    1.05    3.29  61
  -1   4  -7   11.73    2.80  61
   2  -5  -2   16.52    2.43  61
  -9  -2   0    2.28    2.61  62
  -7  -3   1   11.55    2.04  62
  -7  -1   1  130.50    2.12  62
  -5  -5   0   43.83    2.82  62
  -5   1   0  341.60    3.35  62
  -4  -5   0   13.72    2.38  62
  -3  -5   0   99.34    2.65  62
  -3   1   0  550.89    5.18  62
  -1  -2   1   24.31    1.44  62
   0  -4   0  185.30    2.70  62
   5   3  -9    9.61    2.25  62
   6  -2  -4  128.41    2.39  62
   8  -3  -7    1.20    2.69  62
   8  -1  -7    2.60    1.98  62
   9  -1  -9    0.81    3.01  62
  -4  -4   1   45.35    1.49  62
   2   1  -2  517.80    3.48  62
   6   1  -6   63.53    1.38  62
   7   2 -10    0.93    1.75  62
   8   0  -8   26.87    1.47  62
  -2   4  -7    1.81    2.99  62
   1  -3   0   45.81    2.27  62
  -9  -1   0    9.36    2.28  63
  -9   1  -2    6.11    2.77  63
  -8   0   0   72.98    2.06  63
  -5  -4   1   18.48    2.06  63
  -5   0   1    0.07    1.43  63
  -4   0   1    0.02    1.23  63
  -3  -4   1   65.34    2.05  63
  -2  -5   0    4.58    2.04  63
   0   4  -8   15.97    2.68  63
   4   3  -8    1.20    1.95  63
   6   2  -8    7.91    1.93  63
   8  -2  -7   30.53    2.46  63
   8   1 -10    2.00    2.87  63
  -8  -2   1    5.28    1.45  63
  -6  -4   1    4.34    1.60  63
   5   3 -10    2.85    2.08  63
   6   0  -5   -0.15    1.16  63
  -8   1  -1   40.11    2.67  63
  -8   2  -3    0.84    3.28  63
   4  -2  -2   18.08    2.01  63
  -8  -3   1    1.90    2.27  64
  -6   1   0   33.30    1.91  64
  -1  -3   1   42.32    1.74  64
   1   3  -5   17.02    1.76  64
   1   4  -9    0.33    3.08  64
   5  -2  -3    1.61    1.48  64
   5   1  -5   27.38    1.47  64
   7   1  -8   36.70    2.05  64
  -8  -1   1   28.37    1.38  64
  -6   0   1   -0.02    1.02  64
  -3   0   1    0.37    0.95  64
   3   3  -7    0.95    1.24  64
  -7   2  -2   48.11    2.85  64
  -7  -4   1    0.31    2.60  65
  -2  -4   1    0.43    1.49  65
  -1   4  -8    1.46    2.74  65
   2   3  -6  104.27    2.03  65
   3   0  -2  296.78    2.91  65
   3   1  -3   23.03    1.32  65
   4   1  -4    8.51    1.40  65
   5   0  -4    1.73    1.41  65
   5   2  -7    1.73    1.69  65
   6   2  -9    2.72    2.16  65
   7  -1  -6    0.94    1.75  65
  -5  -2   2   -0.05    1.02  65
   8   0  -9    0.35    1.55  65
   2  -4  -1    0.68    2.14  65
   6  -4  -5    7.00    3.15  65
  -1   3  -4   15.10    2.24  65
 -10  -1   0   10.35    3.10  66
  -9  -3   1    1.40    3.04  66
  -9  -2   1    1.91    2.29  66
  -9   0   0    2.42    2.31  66
  -7   0   1    1.03    1.60  66
  -6  -2   2   63.07    1.91  66
  -5  -3   2  143.01    2.14  66
  -4  -2   2   16.62    1.55  66
  -1  -5   0   15.84    2.09  66
  -1  -1   1  263.91    3.44  66
   1   2  -3   16.61    1.32  66
   4   0  -3   -0.43    1.16  66
   4   3  -9    0.36    2.24  66
   7  -3  -6    9.22    2.39  66
   7   0  -7    0.34    1.68  66
   8  -1  -8   -0.11    2.24  66
  -6  -3   2    4.52    1.24  66
  -4  -3   2  212.59    2.11  66
   4   2  -6   43.37    1.37  66
   6   1  -7   15.52    1.27  66
   7   1  -9   22.53    1.62  66
  -9  -1   1    0.79    2.12  67
  -7  -3   2  134.10    2.46  67
  -7  -2   2  109.42    2.19  67
  -7   1   0   31.36    1.78  67
  -5  -5   1    0.37    2.64  67
  -5  -1   2   77.36    1.84  67
   1  -5  -1    1.02    1.93  67
   4   3 -10    0.72    2.59  67
   6   2 -10   13.87    2.54  67
   7  -2  -6   79.81    2.20  67
   8  -2  -8   14.12    2.56  67
  -6  -1   2   11.51    1.09  67
  -4  -5   1    1.93    1.65  67
  -3  -2   2   25.95    1.22  67
   3   2  -5    6.84    1.03  67
   3   3  -8    7.37    1.46  67
   8   0 -10   14.60    1.85  67
  -9   1  -1    1.85    2.37  68
  -8  -2   2   13.37    2.07  68
  -8   0   1    0.92    1.75  68
  -4  -1   2    9.41    1.28  68
  -3  -3   2    6.22    1.45  68
   2   2  -4   10.42    1.46  68
   5   2  -8   31.96    1.79  68
   6  -1  -5   52.51    1.94  68
  -8  -3   2    0.67    1.61  68
  -7  -1   2   50.80    1.41  68
  -6  -4   2   60.61    1.69  68
  -5  -4   2   13.24    1.47  68
   6   0  -6   10.09    1.19  68
   6   2 -11    1.30    2.07  68
   7   1 -10   23.06    1.64  68
   8  -1  -9   -0.23    1.58  68
 -10   0   0    0.96    2.89  69
  -7  -4   2   -1.80    2.44  69
  -4  -4   2    5.15    1.74  69
  -3  -5   1    1.58    2.28  69
  -1  -4   1    4.99    1.60  69
  -1   2  -2   22.55    1.59  69
   0   3  -5    3.49    1.68  69
   1   3  -6  318.14    2.96  69
   2   3  -7   11.69    1.82  69
   5   1  -6   33.37    1.73  69
   7   0  -8  113.73    2.25  69
   3   3  -9    2.67    1.60  69
   7  -1  -7   14.83    1.31  69
  -8   2  -2    0.72    2.82  69
  -2   3  -4  175.95    3.41  69
 -10  -1   1    4.90    2.65  70
  -9  -3   2    7.63    2.86  70
  -9  -2   2   10.25    2.31  70
  -8  -1   2   27.29    1.89  70
  -8   1   0    0.20    1.79  70
   4   2  -7    1.38    1.47  70
   5   2  -9   -0.49    1.94  70
   6   1  -8    0.40    1.68  70
   7   1 -11    2.40    2.89  70
   8  -2  -9    6.72    2.93  70
  -2   0   1    0.17    1.30  70
   5  -4  -4    5.33    2.86  70
  -5   2  -1    6.31    2.21  70
   6  -3  -5    4.04    2.24  70
  -9   0   1    0.32    2.00  71
  -3  -4   2    3.97    1.76  71
  -3  -1   2   97.27    1.87  71
  -2  -5   1   11.87    2.06  71
  -2  -3   2  111.48    2.05  71
   3   3 -10    2.38    2.63  71
   5  -1  -4    1.64    1.47  71
   6  -2  -5   13.12    1.65  71
   8  -1 -10    0.84    2.79  71
  -2  -2   2  278.90    2.53  71
   2   3  -8   67.66    1.79  71
   4   1  -5  221.44    2.00  71
   5   0  -5    0.22    0.97  71
   5   2 -10    8.58    1.60  71
   7   0  -9   -0.18    1.36  71
  -6   3  -4    0.04    4.30  69
  -6   2  -1    4.55    1.96  71
   0  -5   0    0.18    2.42  71
   0  -3   1  120.47    2.66  71
   1  -4   0   10.14    2.06  71
  -9  -1   2    2.37    1.99  72
   0  -2   1   10.17    1.39  72
   3   2  -6   12.29    1.71  72
   6   1  -9   13.41    1.97  72
   7  -3  -7    2.53    2.38  72
   7  -2  -7    1.39    2.04  72
  -7  -3   3   15.12    1.49  72
  -7  -2   3   39.04    1.47  72
  -6  -3   3    4.88    1.26  72
  -6  -2   3    9.65    1.22  72
  -5  -5   2    4.05    1.88  72
   6   0  -7   -0.09    1.03  72
   5  -5  -5   -0.06    4.22  71
  -4   2  -1    8.21    2.26  72
  -2   1   0   22.57    2.49  72
  -9   1   0    9.71    2.40  73
  -8  -3   3    1.61    2.27  73
  -7   0   2  127.39    2.22  73
  -6   0   2  367.46    2.96  73
  -5  -3   3    1.39    1.55  73
  -5  -2   3    2.07    1.42  73
   1   3  -7    2.00    1.85  73
   4   2  -8   38.51    1.86  73
   5   1  -7  130.20    2.03  73
   5   2 -11   -0.65    2.51  73
   7  -1  -8   37.78    2.11  73
  -8  -2   3    2.05    1.43  73
  -5   0   2  164.27    2.03  73
  -4  -5   2   28.14    1.78  73
   2   3  -9    1.80    1.64  73
   3   1  -4    9.36    0.90  73
   6  -1  -6   68.81    1.51  73
   6   1 -10    1.17    1.55  73
   7   0 -10   41.32    1.73  73
  -1   3  -5   -0.75    1.97  73
 -10  -1   2    7.74    2.63  74
 -10   0   1   -0.85    2.66  74
  -7  -4   3   26.98    2.67  74
  -7   2  -1    7.05    1.87  74
  -6  -4   3    0.62    2.09  74
  -6   1   1   53.13    1.83  74
  -2  -4   2   37.83    1.74  74
   0   3  -6   61.78    1.94  74
   2   2  -5    4.89    1.46  74
   4  -1  -3  207.19    2.49  74
  -9  -3   3    0.75    2.13  74
  -9  -2   3    6.93    1.64  74
  -8   0   2   46.37    1.51  74
  -4  -3   3    4.48    1.18  74
   2   3 -10   -0.06    1.87  74
   4   0  -4  179.33    1.89  74
   7   0 -11   -0.57    2.08  74
   0   2  -3   55.48    1.90  74
   6  -4  -6    5.34    3.14  74
  -7  -1   3   97.15    1.99  75
  -7   1   1  132.40    2.32  75
  -6  -1   3   10.19    1.47  75
  -5  -4   3   -0.66    1.97  75
  -5   1   1    5.75    1.51  75
  -4  -2   3  208.72    2.32  75
   1   2  -4 1463.90    5.63  75
   2   1  -3   99.73    1.86  75
   4   2  -9    7.46    1.97  75
   5  -2  -4   22.12    1.90  75
   6   1 -11   32.10    2.60  75
   7  -2  -8    0.37    2.16  75
  -8  -1   3    8.88    1.29  75
   1   3  -8    6.29    1.49  75
   5   1  -8    2.15    1.21  75
   6   0  -8    7.00    1.24  75
   7  -1  -9   21.34    1.47  75
  -3   3  -4   27.28    2.51  75
  -1  -5   1    0.90    2.43  75
 -10  -2   3    7.63    3.05  76
 -10   1   0   12.88    3.21  76
  -9   0   2    1.42    2.02  76
  -8   1   1   29.77    1.97  76
  -5  -1   3   56.68    1.75  76
  -4  -4   3   64.77    2.02  76
  -4   0   2  375.30    3.07  76
  -3  -5   2   31.09    2.43  76
   3   2  -7   21.45    1.66  76
   4   1  -6    7.57    1.42  76
   4   2 -10    3.35    2.23  76
   5  -3  -4   12.16    1.70  76
   7  -3  -8   15.52    2.76  76
  -2  -1   2  566.97    3.79  76
   5   0  -6   58.72    1.34  76
   0  -4   1   24.34    2.14  76
  -9  -1   3   15.34    2.08  77
  -8   2  -1    0.89    2.33  77
  -3  -3   3    1.74    1.41  77
   0   3  -7    0.03    1.82  77
   1   3  -9   -0.69    2.35  77
   3  -1  -2   93.62    2.12  77
   3   0  -3   -0.45    1.21  77
   4   2 -11    2.95    2.52  77
   6  -3  -6   16.59    2.20  77
   6  -2  -6   72.51    2.19  77
   7  -1 -10   24.84    2.50  77
   5   1  -9   58.98    1.48  77
   6  -1  -7   14.95    1.34  77
 -10   0   2    5.24    2.67  78
  -9   1   1   -0.36    2.20  78
  -8  -3   4   23.14    2.32  78
  -7  -3   4    9.84    2.04  78
  -5  -5   3    0.97    2.62  78
  -4   1   1   36.24    1.61  78
  -3  -2   3    0.71    1.46  78
  -1  -3   2  122.43    2.26  78
   1   3 -10    0.17    2.69  78
   3   2  -8   19.04    1.84  78
   5  -1  -5   30.46    1.62  78
   6   0  -9   -0.14    1.98  78
   7  -2  -9    0.47    2.29  78
   7  -1 -11    1.53    2.98  78
 -10  -1   3   29.99    1.94  78
  -7  -2   4    4.56    1.26  78
  -6  -3   4  114.49    1.78  78
  -4  -1   3  197.52    2.03  78
   2   2  -6  162.44    1.88  78
   4  -4  -3   65.48    3.61  77
  -2   3  -5   19.47    2.42  78
  -9  -3   4   15.30    3.08  79
  -8  -2   4    4.61    2.03  79
  -7  -4   4   17.61    2.63  79
  -6  -2   4  136.19    2.13  79
  -3  -4   3    8.60    1.81  79
  -2  -5   2   17.60    2.09  79
  -1  -2   2   72.22    1.83  79
  -1   3  -6    0.07    1.84  79
   5   1 -10    1.63    1.96  79
   6   0 -10   46.22    2.27  79
  -9  -2   4    2.73    1.63  79
   0   3  -8    1.88    1.48  79
   3   1  -5   79.38    1.49  79
   4   1  -7   10.29    1.21  79
   5   1 -11    6.99    1.60  79
   7  -2 -10    0.74    1.86  79
   2  -1  -1  169.20    3.53  79
  -6  -4   4   10.69    2.27  80
  -5  -3   4   12.66    1.56  80
  -4  -5   3    2.68    2.27  80
  -1  -4   2   32.81    1.80  80
   2   0  -2   81.22    2.18  80
   3   2  -9    1.83    1.70  80
   4  -2  -3  209.76    2.93  80
   5   0  -7    0.29    1.62  80
   6  -4  -7    1.10    2.72  80
   6  -1  -8    1.35    1.74  80
   6   0 -11   -0.01    2.53  80
 -10  -2   4   11.57    2.16  80
  -8   0   3   -0.23    1.25  80
  -7   0   3    0.27    1.17  80
   4   0  -5    0.37    0.98  80
  -9   2  -1   22.65    3.29  80
 -10   1   1    6.30    2.73  81
  -6   0   3    1.10    1.45  81
  -5  -4   4    4.66    1.97  81
  -5  -2   4   21.02    1.81  81
  -3   0   2  297.01    2.97  81
   0   3 -10    7.71    3.14  81
   0   3  -9    1.34    2.33  81
   1   2  -5  167.65    2.32  81
   3   2 -11   10.87    2.57  81
   3   2 -10    3.76    2.09  81
   6  -2  -7   -0.55    1.79  81
  -9   0   3   -0.78    1.43  81
  -8  -1   4   25.04    1.38  81
  -7  -1   4   68.27    1.49  81
   2   2  -7   55.64    1.46  81
  -4   3  -4   72.90    3.65  80
  -9  -1   4    6.84    2.02  82
  -4  -3   4   94.40    2.00  82
  -2  -3   3    3.82    1.47  82
  -1   3  -7    9.09    1.86  82
   4   1  -8    9.00    1.54  82
   5  -4  -5   20.66    2.22  82
   5  -2  -5   25.01    1.88  82
   6  -3  -7    1.67    2.06  82
   6  -1  -9   13.17    2.03  82
  -6  -1   4   69.95    1.58  82
   5  -1  -6   29.35    1.38  82
   5   0  -8  205.00    1.95  82
   4  -3  -3    4.36    2.20  82
 -10  -1   4   -2.01    2.63  83
 -10   0   3    0.68    2.62  83
  -8  -3   5   12.74    2.28  83
  -8   1   2   28.85    1.96  83
  -7   1   2   52.14    1.95  83
  -5   0   3   -0.03    1.46  83
  -3  -5   3    0.65    2.28  83
  -3  -1   3   21.90    1.41  83
  -2   3  -6   33.15    2.06  83
  -1   3  -8    2.26    2.07  83
   1   0  -1    0.46    1.22  83
   2   1  -4  131.89    1.97  83
   4  -1  -4    7.74    1.50  83
   4   1  -9    0.30    1.73  83
  -9  -3   5   -0.49    2.15  83
  -7  -3   5    2.77    1.40  83
  -4  -4   4    1.32    1.23  83
  -4  -2   4  198.57    2.01  83
   2   2  -8   47.83    1.53  83
   3   1  -6   81.08    1.48  83
   6  -2  -8    7.48    1.48  83
   6  -1 -10    1.74    1.58  83
   4  -5  -4   12.04    4.01  82
   1  -5   0   14.70    2.90  83
  -7   2   0  171.52    3.31  83
  -3   3  -5    3.36    2.22  83
   0  -5   1    6.52    2.52  83
  -9   1   2    1.89    2.05  84
  -8  -2   5   17.40    2.06  84
  -6   1   2   11.67    1.54  84
  -5  -5   4    5.72    2.83  84
  -2  -4   3    6.01    1.82  84
  -2  -2   3    3.55    1.21  84
  -1   3  -9   12.83    2.74  84
   0   2  -4   27.26    1.68  84
   4   1 -12    7.11    2.94  84
   4   1 -10   46.71    2.15  84
   5  -3  -5    1.32    1.87  84
   5   0  -9   -0.90    1.72  84
   6  -1 -11   28.85    2.71  84
  -9  -2   5   14.24    1.68  84
  -7  -4   5   15.05    1.88  84
  -5  -1   4    2.20    1.05  84
   2   2  -9   37.08    1.41  84
   4   1 -11    1.51    1.58  84
  -8   2   0   20.18    2.62  84
  -6   2   0  176.11    3.33  84
  -7  -2   5   11.25    1.83  85
  -6  -3   5    3.54    1.74  85
   1   2  -6    5.53    1.48  85
   2   2 -11    1.66    2.57  85
   2   2 -10    1.18    2.13  85
   4   0  -6  103.33    1.90  85
   5   0 -12   21.06    3.01  85
   5   0 -11   -0.20    2.23  85
   5   0 -10   33.28    2.11  85
   6  -3  -8    5.37    2.39  85
   6  -2  -9    2.14    2.29  85
  -6  -4   5    7.31    1.59  85
   3   0  -4  143.35    1.83  85
  -2   3  -7    8.88    2.56  85
  -1  -5   2   32.12    2.63  85
  -1   2  -3   59.77    2.32  85
 -10   1   2    8.66    2.73  86
  -6  -2   5   12.90    1.57  86
  -3  -3   4   10.28    1.76  86
   3   1  -7   -0.17    1.55  86
   5  -1  -7  131.17    2.14  86
   6  -2 -10   15.82    2.65  86
  -4  -5   4   12.22    1.90  86
   6  -3  -9    2.70    1.95  86
  -2   2  -2    7.40    2.23  86
  -9   2   0    1.64    3.18  86
  -9  -1   5    0.26    1.99  87
  -9   0   4   24.17    2.14  87
  -8  -1   5   33.03    1.90  87
  -8   0   4  193.70    2.51  87
  -5  -3   5    0.05    1.76  87
  -5   1   2   75.44    1.97  87
  -4   0   3    0.12    1.20  87
  -3  -4   4   48.46    1.99  87
  -3   1   1  127.74    2.57  87
  -2   3  -9    3.87    2.88  87
  -2   3  -8   11.02    2.39  87
   1   1  -3 1541.25    6.17  87
   5  -2  -6   74.93    1.98  87
  -7   0   4  139.88    1.86  87
  -5  -4   5   19.58    1.51  87
   1   2  -7   18.54    1.29  87
   4   0  -7    0.49    1.20  87
  -5   3  -4   61.81    4.11  86
  -3   3  -6   26.74    2.65  87
   3  -2  -2   26.86    2.13  87
 -10  -1   5    4.55    2.63  88
 -10   0   4   17.48    2.70  88
  -7  -1   5    9.04    1.57  88
  -5  -2   5   25.04    1.77  88
  -4  -1   4    7.75    1.50  88
  -3  -2   4  182.95    2.26  88
  -2  -5   3    2.46    2.31  88
  -1  -1   2 1122.16    5.81  88
   2   1  -5   91.27    1.91  88
   3   1 -12    2.05    2.93  88
   3   1  -8   56.79    1.82  88
   5  -4  -6    2.50    2.38  88
   5  -1  -8    1.02    1.79  88
  -8  -3   6    2.27    1.80  88
  -1   0   1   -0.05    0.88  88
   1   2 -11   -0.43    1.83  88
   4  -1  -5  202.45    2.14  88
  -5   2   0   94.49    2.87  88
  -4   3  -5    0.74    2.46  88
  -9  -2   6    1.53    2.44  89
  -7  -3   6    7.50    2.14  89
  -6   0   4   14.06    1.52  89
  -3   3  -7    1.09    2.29  89
   0  -3   2   33.93    1.85  89
   0   2  -5   19.60    1.62  89
   1   2 -10   13.66    2.31  89
   1   2  -9    1.16    2.02  89
   1   2  -8    9.13    1.82  89
   3  -1  -3   20.77    1.41  89
   3   1 -11   -0.82    2.21  89
   3   1 -10   26.92    2.06  89
   3   1  -9    9.72    1.78  89
   4  -2  -4  200.06    2.66  89
   5  -3  -6   13.83    1.91  89
   5  -1  -9   61.56    2.02  89
  -8  -2   6    1.91    1.43  89
  -6  -1   5   51.10    1.47  89
   4   0  -8   39.25    1.32  89
   2  -5  -1   10.67    3.87  87
  -3   3  -8   30.43    3.32  89
  -9   1   3   17.07    2.13  90
  -8   1   3   10.66    1.86  90
  -7  -4   6    5.60    2.99  90
  -7   1   3   94.82    2.09  90
  -5  -5   5   -0.32    3.04  90
  -4  -3   5   14.85    1.60  90
  -3  -5   4    0.74    2.28  90
  -1  -3   3   46.30    1.83  90
   4   0 -12   13.06    2.61  90
   4   0  -9    0.53    1.74  90
   5  -2  -7    3.16    1.82  90
   5  -1 -11    6.58    2.27  90
   5  -1 -10    1.72    1.99  90
  -7  -2   6   68.78    1.58  90
  -4  -4   5   15.83    1.51  90
   3   0  -5    0.20    1.03  90
   4   0 -11    0.52    1.57  90
   4   0 -10   22.79    1.51  90
   0  -4   2    3.65    2.02  90
   1  -3   1    2.01    1.93  90
 -10   1   3   32.65    2.83  91
  -6  -4   6    5.82    2.43  91
  -6  -3   6   15.07    2.06  91
  -2  -1   3   98.09    1.91  91
  -1  -4   3   27.96    1.77  91
   5  -4  -7    8.28    2.64  91
  -2   0   2   79.61    1.92  91
   2   0  -3    0.23    0.97  91
   2   1  -6   57.23    1.40  91
  -4   3  -6    9.88    2.82  91
   4  -4  -4    1.35    2.26  91
  -9  -1   6    1.79    2.27  92
  -9   0   5    0.12    2.02  92
  -8   2   1    5.58    2.11  92
  -5   0   4    2.03    1.47  92
  -4  -2   5    2.04    1.45  92
  -4   3  -7    7.27    2.57  92
  -2  -3   4   97.80    2.22  92
   0   2 -11    0.19    3.05  92
   0   2  -6    5.69    1.81  92
   2   1 -12    1.99    2.96  92
   4  -1  -6    7.15    1.53  92
   5  -3  -7   21.42    2.21  92
   5  -2  -8   33.13    1.92  92
 -10  -1   6    5.59    1.89  92
 -10   0   5   -0.17    1.87  92
  -6  -2   6   69.84    1.58  92
  -5  -1   5   28.97    1.20  92
   5  -2  -9    1.42    1.44  92
  -6   3  -4    0.40    4.15  90
  -9   2   1    2.54    2.84  92
  -7   2   1    1.52    2.30  92
  -5   3  -5   11.95    2.76  92
   1  -4   1    3.42    2.07  92
   4  -5  -5    0.87    3.27  92
   4  -3  -4  100.26    2.71  92
  -8  -1   6  126.77    2.51  93
  -8   0   5   -0.61    1.79  93
  -6   1   3   10.29    1.53  93
  -4  -5   5    0.75    2.67  93
  -4   1   2    8.67    1.29  93
  -2  -4   4   11.33    1.88  93
  -1   2  -4  125.71    2.39  93
   0   2 -10    7.07    2.32  93
   0   2  -7   16.20    1.69  93
   2   1 -11    1.78    2.23  93
   2   1  -7   52.46    1.68  93
   5  -4  -8    2.67    2.83  93
   5  -2 -11    0.02    2.65  93
   5  -2 -10   10.40    2.36  93
  -8  -3   7    0.17    1.84  93
  -5  -3   6   12.77    1.29  93
   0   2  -9    0.82    1.43  93
   3   0  -6  175.69    1.94  93
   5  -3  -8    1.10    1.48  93
   3  -4  -2    2.82    3.04  92
  -9  -2   7    0.72    2.62  94
  -7  -1   6    0.64    1.79  94
  -7   0   5   -0.02    1.56  94
  -5  -4   6    3.02    2.26  94
  -3  -1   4    9.22    1.25  94
  -3   0   3    0.37    1.23  94
  -1  -2   3   16.75    1.39  94
   0  -2   2  661.77    4.93  94
   0   2  -8   41.97    1.99  94
   1   1  -4   46.10    1.61  94
   2   1 -10   89.41    2.31  94
   2   1  -9    0.74    1.75  94
   2   1  -8   24.73    1.72  94
   3   0 -12   54.05    2.73  94
   4  -1 -12    6.43    3.04  94
   4  -1  -7    9.34    1.76  94
   5  -3  -9   11.15    2.42  94
  -3  -3   5    2.43    1.15  94
   4  -2  -5    3.04    1.06  94
   5  -3 -10    2.70    2.23  94
  -5   3  -6    4.91    3.03  94
   3  -3  -2    5.70    1.98  94
  -9   1   4    6.54    2.08  95
  -8  -2   7   30.65    2.36  95
  -7  -3   7    0.54    2.26  95
  -5  -2   6   75.20    1.87  95
  -3  -4   5    2.64    1.79  95
  -2  -2   4   11.63    1.54  95
  -1  -5   3    1.45    2.04  95
   3   0 -11    2.66    2.23  95
   4  -1 -11    2.97    2.29  95
   3   0  -7    0.12    1.01  95
   4  -1  -8    9.57    1.14  95
  -6   3  -5    0.55    3.27  95
  -6   2   1    6.42    2.15  95
 -10   1   4    0.06    2.72  96
  -8   1   4   26.60    1.93  96
  -7  -2   7    1.18    1.99  96
  -6  -1   6   72.66    1.90  96
  -6   0   5    0.49    1.72  96
  -2  -5   4    6.88    2.35  96
  -1   2 -10    6.34    2.68  96
   3  -1  -4    9.09    1.28  96
   3   0 -10   24.59    2.09  96
   3   0  -8    2.09    1.65  96
   4  -1 -10   46.21    2.21  96
   4  -1  -9    0.68    1.76  96
  -4  -1   5  212.26    2.04  96
   3   0  -9    0.60    1.24  96
   0  -5   2   73.92    3.02  96
 -10  -1   7    1.85    3.02  97
  -7   1   4   66.98    1.93  97
  -6  -4   7    1.37    2.59  97
  -6  -3   7    0.21    1.95  97
  -5   1   3   54.67    1.82  97
  -4  -4   6    1.39    1.99  97
  -4  -3   6    9.45    1.82  97
  -4   0   4  177.78    2.11  97
  -3  -2   5    7.37    1.51  97
  -1   2  -5    0.47    1.49  97
   1   1 -11    7.59    2.24  97
   4  -4  -5   15.91    2.26  97
 -10   0   6   -0.36    1.88  97
  -9  -1   7    8.28    1.63  97
  -9   0   6   19.58    1.50  97
  -3  -5   5    3.61    1.85  97
  -1   2  -9   -0.40    1.43  97
   1   1  -5  187.24    2.11  97
   4  -2  -6   41.82    1.47  97
  -9   2   2    9.77    2.37  98
  -8  -1   7    2.23    2.01  98
  -1   2  -8   53.77    2.05  98
  -1   2  -6   10.66    1.78  98
   2   0  -4   29.92    1.48  98
   4  -3  -5   15.42    1.72  98
  -8   0   6   40.14    1.46  98
  -6  -2   7    0.26    1.24  98
   1   1 -10    4.24    1.40  98
   2   0 -12    8.67    1.82  98
   4  -2 -11    2.34    1.88  98
   3  -5  -3   -0.05    3.27  98
  -9  -2   8   41.97    3.14  99
  -8   2   2   13.93    2.17  99
  -4  -2   6   46.24    1.89  99
  -2   2 -10    2.19    3.14  99
  -2   2  -3  143.69    2.82  99
  -1   2  -7   10.86    1.62  99
   1   1  -6  100.91    1.98  99
   3  -2  -3    0.24    1.52  99
   3  -1 -12    4.16    3.00  99
   4  -2 -10    4.77    2.32  99
   4  -2  -7    4.17    1.58  99
  -5  -1   6   33.16    1.39  99
  -4  -5   6    1.44    2.19  99
   1   1  -9    3.13    1.25  99
   4  -2  -9    5.35    1.50  99
   4  -2  -8   33.71    1.47  99
  -8  -2   8   15.68    2.47 100
  -7  -3   8   16.58    2.62 100
  -7  -1   7   14.95    1.84 100
  -7   0   6   33.29    1.81 100
  -6   1   4   70.00    2.08 100
  -5  -4   7    7.50    2.50 100
  -5  -3   7   22.75    2.08 100
  -5   0   5    0.54    1.44 100
   1   1  -8   28.84    1.70 100
   1   1  -7    2.17    1.44 100
   2  -1  -2  540.51    4.53 100
   2   0 -11    1.09    2.22 100
   3  -1 -11    0.53    2.27 100
   3  -1  -5   83.29    1.93 100
   4  -4  -6    0.45    2.15 100
   4  -3  -6    9.43    1.93 100
 -10   1   5    3.98    1.94 100
  -7   2   2  111.18    2.95 100
  -9   1   5    1.13    2.22 101
  -2  -4   5    3.35    1.84 101
  -2  -3   5   10.50    1.80 101
  -2   2  -9   -0.15    2.35 101
  -1  -4   4   65.82    2.28 101
  -1  -3   4   86.15    2.04 101
   0   1 -11   21.98    2.62 101
   2   0 -10   29.09    2.11 101
   2   0  -5   -0.60    1.21 101
   4  -4  -7    1.36    2.44 101
   4  -3 -10    0.11    2.72 101
   4  -3  -7    4.74    1.86 101
  -5  -2   7    1.98    1.26 101
   3  -1 -10   26.17    1.54 101
   4  -3  -9   -0.17    1.68 101
 -10   0   7   -0.38    2.89 102
  -9  -1   8   13.15    2.68 102
  -8   1   5   33.07    1.97 102
  -7  -2   8    1.23    2.10 102
  -3  -4   6    2.16    2.10 102
  -3  -3   6  106.53    2.06 102
  -2  -1   4  127.60    1.97 102
   0   1  -3  113.08    2.20 102
   1   0 -12   12.71    3.01 102
   2   0  -9    0.14    1.77 102
   3  -1  -9    9.80    1.85 102
   3  -1  -6   81.65    1.89 102
   4  -4  -8    2.83    2.84 102
   4  -3  -8    0.50    2.09 102
  -9   0   7   -0.46    1.62 102
  -6  -3   8    6.09    1.62 102
  -6  -1   7   14.48    1.15 102
  -3  -1   5   72.45    1.46 102
  -2   2  -8    9.34    1.51 102
   0   1 -10    4.49    1.41 102
   2   0  -6   39.70    1.30 102
   3  -1  -7   -0.38    1.25 102
   1  -5   1    9.27    3.01 102
   1  -2   1   12.51    2.07 102
  -5   2   1   62.07    2.49 102
  -6   0   6   11.94    1.69 103
  -4   1   3  182.94    2.37 103
  -3   1   2   86.25    2.05 103
  -2   2  -4   24.31    1.75 103
   0  -4   3   17.67    1.79 103
   2  -1 -12    3.77    2.99 103
   2   0  -8  224.59    2.46 103
   2   0  -7   -0.34    1.45 103
   3  -1  -8   58.07    1.87 103
  -8  -1   8    0.27    1.60 103
  -1  -1   3 1525.49    6.07 103
   3  -2 -11   11.25    1.92 103
   0  -3   3    9.49    1.96 103
 -10   2   3    8.66    3.07 104
  -9   2   3    7.28    2.39 104
  -8   0   7   -0.68    2.02 104
  -7   1   5    9.33    1.59 104
  -6  -2   8    8.42    2.02 104
  -4  -4   7    0.01    2.32 104
  -4  -3   7    5.62    1.78 104
  -4  -1   6    6.36    1.46 104
  -3  -5   6    0.29    2.71 104
  -3   2  -9    3.40    2.73 104
  -2  -5   5   -0.12    2.55 104
  -2  -2   5    5.55    1.51 104
  -2   2  -7    1.90    1.81 104
  -2   2  -6  208.85    2.68 104
  -2   2  -5   62.33    2.17 104
  -1   1 -11   22.75    2.88 104
   0   1  -9    1.47    1.72 104
   1   0 -11   -0.30    2.21 104
   3  -2  -4  165.75    2.48 104
  -3   0   4  136.89    1.79 104
  -1  -5   4   22.25    3.01 104
   3  -5  -4    0.02    2.97 104
 -10   1   6    7.79    2.75 105
  -8  -2   9    8.80    2.63 105
  -8   2   3    1.85    2.12 105
  -6   2   2   59.02    2.20 105
  -5   1   4    1.71    1.48 105
  -4   0   5   -0.25    1.43 105
  -3  -2   6   12.22    1.78 105
  -2   0   3    0.42    1.35 105
  -1  -2   4 1496.49    5.74 105
   2  -1 -11    1.17    2.26 105
   3  -3  -3    0.70    1.52 105
   3  -2 -10    3.29    2.17 105
  -7  -3   9    3.38    2.14 105
  -7  -1   8   34.43    1.57 105
  -5  -4   8    2.49    1.91 105
   0   1  -8    3.77    1.08 105
   0   1  -4  140.22    1.97 105
  -4   2   0    5.10    2.75 104
   3  -4  -3    8.09    2.42 105
  -9   1   6    1.91    2.33 106
  -7   0   7    0.33    1.75 106
  -5  -3   8    2.53    2.00 106
  -5  -1   7  125.66    2.07 106
  -4  -2   7    2.69    1.56 106
  -3   2  -8   39.38    2.51 106
  -1   1 -10   -1.18    2.26 106
   1   0 -10    2.29    1.99 106
   3  -2  -9    2.29    1.92 106
   0   1  -7   18.60    1.32 106
   2  -1 -10   83.31    1.79 106
   2  -2  -1   32.16    2.35 106
  -9  -1   9    0.91    3.03 107
  -8   1   6  127.27    2.56 107
  -7  -2   9   -0.28    2.24 107
  -6   1   5   52.92    1.95 107
  -5   0   6   58.37    1.70 107
   0   1  -6   18.56    1.57 107
   0   1  -5   -0.68    1.48 107
   3  -3 -10    2.86    2.70 107
   3  -2  -8   20.69    1.92 107
   3  -2  -5    7.67    1.56 107
  -9   0   8    3.56    1.87 107
   0   0 -11   -0.75    1.81 107
   1   0  -9    0.28    1.24 107
   2  -1  -3   91.44    1.80 107
  -1   1  -1   76.23    3.56 107
  -7   2   3   44.53    2.55 107
   3  -5  -5    1.88    3.49 107
  -6  -3   9    3.41    2.61 108
  -6  -1   8    2.51    1.73 108
  -5  -2   8   31.79    1.87 108
  -3   2  -7    0.40    2.10 108
  -1   1  -9  107.44    2.41 108
   0  -5   3    1.51    2.09 108
   2  -2 -11   -0.50    2.66 108
   2  -1  -9    1.10    1.80 108
   3  -5  -6    1.44    3.15 108
   3  -3  -9    2.79    2.38 108
   3  -2  -7   22.11    1.76 108
   3  -2  -6   11.25    1.85 108
  -8  -1   9    0.59    1.59 108
   1   0  -3   -0.14    1.10 108
   3  -4  -9    2.39    2.33 108
 -10   2   4   10.00    3.84 108
  -9   2   4    2.22    2.39 109
  -8   0   8   30.24    2.10 109
  -7   1   6   -0.17    1.82 109
  -6   0   7   -0.16    1.50 109
  -4   2  -8   16.39    2.79 109
  -3  -4   7    3.75    2.40 109
  -3  -3   7    0.79    1.82 109
  -2  -4   6    3.09    2.16 109
  -2  -3   6  106.29    2.12 109
  -2   1 -10    4.14    2.66 109
  -2   1   1  153.78    3.32 109
   0  -2   3   54.03    1.76 109
   1  -1 -11    7.86    2.28 109
   1   0  -8   20.03    1.73 109
   3  -4  -4   47.81    2.29 109
   3  -3  -4   11.29    1.89 109
   2  -1  -8   26.55    1.31 109
   3  -3  -8    7.66    1.55 109
  -3   2  -2    2.21    1.92 109
  -8   2   4    6.06    2.13 110
  -6  -2   9    2.87    2.11 110
  -4  -4   8    1.48    2.72 110
  -4  -3   8    0.06    2.04 110
  -3  -1   6   79.88    1.82 110
  -3   2  -6    2.72    1.88 110
  -1  -4   5   54.94    2.23 110
  -1  -3   5   17.32    1.89 110
  -1   1  -8   12.80    1.84 110
   0   0 -10   11.30    2.02 110
   1   0  -7    0.45    1.46 110
   2  -2 -10    1.59    2.34 110
   3  -4  -8    1.38    2.67 110
   3  -4  -7    4.20    2.51 110
   3  -3  -7    2.46    1.86 110
   3  -3  -5    1.08    1.73 110
  -9   1   7    8.28    1.69 110
  -7  -1   9   22.49    1.49 110
  -4  -1   7    8.36    1.23 110
   2  -1  -7   49.09    1.35 110
   2  -1  -4  121.12    1.83 110
   3  -4  -5    2.45    2.35 110
  -7   0   8  114.04    2.30 111
  -5  -3   9   11.90    2.33 111
  -4   2  -7    5.01    2.12 111
  -3   2  -5    1.50    1.66 111
  -2  -5   6   -0.63    2.74 111
  -2  -1   5   89.19    1.89 111
  -1   0 -11    0.63    2.55 111
   1  -1 -10    4.36    2.01 111
   1   0  -6  171.30    2.23 111
   1   0  -4   40.71    1.59 111
   2  -1  -6   59.88    1.81 111
   3  -4  -6    2.83    2.21 111
   3  -3  -6  112.97    2.20 111
  -4   1   4    7.15    1.09 111
  -3  -2   7   21.10    1.27 111
  -3   1 -10    4.45    2.25 111
   1   0  -5    0.16    0.86 111
   2  -1  -5   88.45    1.64 111
   2  -5  -1   11.86    4.39 109
   1  -4   2    4.31    2.06 111
  -9   0   9    0.05    2.85 112
  -8   1   7    0.78    2.06 112
  -7  -2  10   -0.67    2.60 112
  -6   2   3   10.86    1.82 112
  -5  -1   8    3.22    1.76 112
  -5   1   5   29.52    1.62 112
  -4  -2   8   41.12    1.91 112
  -4   0   6  101.46    1.88 112
  -3   0   5    0.47    1.30 112
  -3   2  -4   45.88    2.17 112
  -2  -2   6  164.81    2.22 112
  -2   1  -9    2.66    2.03 112
  -1   1  -7   57.76    1.90 112
   0   0  -9    0.16    1.73 112
   2  -3 -10   -0.69    2.71 112
   2  -2  -9   39.81    1.96 112
   0  -1 -11   21.86    1.92 112
   1  -2 -11    0.65    1.85 112
  -5   2   2    0.90    1.87 112
  -3   2  -3   43.03    2.30 112
   1  -3   2    5.86    1.99 112
  -8  -1  10    2.64    2.81 113
  -7   2   4    3.04    1.92 113
  -6   1   6   75.31    1.95 113
  -5  -2   9    1.12    2.00 113
  -5   0   7   -0.51    1.65 113
  -1  -5   5    1.26    2.38 113
  -6  -1   9   13.51    1.46 113
  -1   0 -10  158.92    2.17 113
   1  -1  -9    3.23    1.29 113
  -9   2   5   17.73    2.97 113
   0  -4   4    2.43    2.38 113
  -8   0   9   -1.75    2.28 114
  -6   0   8    7.88    1.76 114
  -5   2  -7   25.62    2.87 114
  -4   2  -6   61.96    2.20 114
  -3   1   3   21.62    1.46 114
  -1  -2   5  166.34    2.35 114
  -1  -1   4   46.49    1.58 114
  -1   1  -6   57.87    1.77 114
   0  -3   4   48.56    2.16 114
   2  -3  -9    2.50    2.38 114
   2  -2  -8   49.04    2.06 114
  -7   1   7   15.35    1.35 114
  -2   0   4   29.47    1.16 114
  -2   1  -8   14.77    1.32 114
   0   0  -8   10.56    1.19 114
   2  -4  -9   44.54    2.45 114
  -9   1   8   13.97    2.72 115
  -8   2   5   16.83    2.18 115
  -6  -2  10   16.20    2.60 115
  -3  -4   8    1.08    2.60 115
  -3  -3   8    9.12    2.11 115
  -3   1  -9    2.80    2.35 115
   1  -2 -10   12.11    2.33 115
  -7  -1  10   23.35    1.71 115
  -4  -3   9   -1.20    1.65 115
   0  -1 -10    5.86    1.42 115
   1  -1  -8   26.83    1.28 115
   2  -2  -7   51.85    1.50 115
  -7   0   9    0.59    1.95 116
  -2  -4   7   27.69    2.57 116
  -2  -3   7   11.33    1.91 116
  -1  -1 -11   24.57    2.85 116
  -1   1  -5    1.37    1.46 116
  -1   1  -2  817.57    6.05 116
   0  -2 -11   -0.95    3.01 116
   2  -3  -8   72.65    2.41 116
   2  -2  -2  274.11    3.47 116
  -5  -3  10    2.34    2.16 116
  -4  -1   8    9.18    1.10 116
  -3  -1   7    0.99    0.98 116
  -2   0 -10    0.20    1.60 116
  -1   0  -9    0.47    1.22 116
   2  -4  -8   40.62    1.95 116
  -8   1   8    0.23    2.30 117
  -5  -1   9   60.20    1.96 117
  -5   2  -6   16.43    2.19 117
  -4   1  -9    3.69    2.79 117
  -4   2  -5    1.44    1.85 117
  -2   1  -7  103.66    2.02 117
  -1   1  -4   38.60    1.54 117
   0   0  -7   -0.41    1.42 117
   1  -3 -10   -0.66    2.68 117
   2  -2  -6  169.27    2.26 117
  -5   1   6   29.50    1.40 117
  -4  -2   9    6.74    1.45 117
  -3  -2   8   17.62    1.37 117
  -1   1  -3    8.78    1.02 117
   1  -2  -9    1.43    1.45 117
   2  -5  -2   16.66    2.82 117
  -9   2   6    0.76    2.72 118
  -8   0  10   14.85    2.61 118
  -7   2   5   13.67    1.93 118
  -6   1   7   15.35    1.74 118
  -6   2   4  133.49    2.48 118
  -5   0   8  210.97    2.27 118
  -4   0   7    0.43    1.68 118
  -4   1   5  227.75    2.50 118
  -3   1  -8   21.81    2.15 118
  -2  -1   6   59.13    1.73 118
  -1  -4   6   15.42    2.24 118
  -1  -3   6  309.46    3.00 118
   0  -5   4    2.30    2.36 118
   0  -1  -9   -0.68    1.76 118
   1  -1  -7    1.90    1.46 118
   2  -5  -6    0.08    2.97 118
   2  -4  -7   29.33    2.59 118
   2  -3  -7   13.15    1.91 118
   2  -2  -5    4.59    1.56 118
  -6  -1  10    0.86    1.56 118
  -5  -2  10   11.69    1.62 118
  -3   0   6  173.81    1.87 118
  -2  -2   7   50.08    1.46 118
  -9   1   9    0.65    3.11 119
  -7   1   8   38.54    2.19 119
  -6   0   9   -0.66    1.96 119
  -6   2  -6    8.51    2.79 119
  -5   2   3    1.62    1.53 119
  -3   0 -10   32.33    2.95 119
  -1  -1 -10    0.98    2.23 119
  -1   0  -8  138.78    2.05 119
   0  -2 -10    8.23    2.31 119
   0  -2   4   29.11    1.72 119
   0   0  -6   55.66    1.74 119
   2  -5  -5    1.31    2.78 119
   2  -2  -4    9.88    1.60 119
   2  -2  -3    3.47    1.27 119
   1  -4  -9   -0.84    2.27 119
   1  -3  -9    0.21    1.66 119
  -4   2   1   68.40    3.06 119
  -4   2  -4   42.92    2.33 119
   2  -5  -4    6.05    3.19 119
   2  -5  -3    2.82    3.14 119
  -8   2   6    3.27    2.08 120
  -7  -1  11    3.08    2.95 120
  -4   1  -8   76.77    2.67 120
  -2   0  -9   -0.54    1.99 120
  -2   1  -6    1.25    1.73 120
   1  -2  -8   10.14    1.84 120
   1  -1  -6  101.12    1.97 120
   2  -4  -6    4.13    2.22 120
   2  -3  -6  104.84    2.15 120
  -7   0  10   37.68    1.73 120
  -3   1   4    9.64    0.95 120
  -1   0   3   -0.02    1.09 120
   0  -3 -10    4.55    2.18 120
   2  -3  -1    3.70    2.26 120
  -1  -5   6    0.24    3.31 120
  -8   1   9    0.16    2.44 121
  -5   2  -5   31.51    2.31 121
  -4  -3  10    2.25    2.67 121
  -3  -4   9    2.61    3.26 121
  -3  -3   9    4.20    2.33 121
  -3   1  -7   13.84    1.86 121
  -2   0   5    0.15    1.19 121
  -2   1   2  565.77    4.68 121
  -1  -2   6    4.54    1.48 121
  -1  -1   5  197.83    2.38 121
   0  -1  -8    3.56    1.49 121
   0  -1   3  106.33    2.14 121
   0   0  -5    0.20    1.19 121
  -4  -1   9    0.58    1.22 121
  -2  -1 -10    5.94    1.82 121
   2  -3  -5    9.82    1.34 121
   2  -4  -1    0.53    2.35 121
  -9   2   7    2.62    2.72 122
  -6   2   5   12.55    1.68 122
  -5  -1  10    2.94    1.93 122
  -5   1  -8    0.46    2.85 122
  -5   1   7  125.92    2.11 122
  -3  -1   8   56.14    1.78 122
  -2  -4   8   45.49    2.81 122
  -2  -3   8   74.95    2.44 122
  -1  -2 -10    6.96    2.58 122
  -1  -1  -9  109.51    2.37 122
  -1   0  -7    1.10    1.67 122
   0  -4   5    4.24    1.89 122
   0  -3   5    2.15    1.74 122
   0  -2  -9    0.77    2.01 122
   1  -4  -8    7.11    2.79 122
   1  -3  -8    7.99    2.10 122
   1  -1  -5  201.94    2.42 122
   2  -4  -5    3.37    1.93 122
  -7   2   6   66.04    1.73 122
  -6   1   8    1.33    1.20 122
  -3   0  -9   -1.07    1.62 122
   1  -2  -7   18.65    1.29 122
  -4   2  -3   13.78    2.30 122
   1  -2   2   21.99    1.86 122
  -6  -1  11   29.68    2.63 123
  -5   0   9   -0.18    1.66 123
  -4  -2  10    3.74    2.24 123
  -4   0   8   39.54    1.68 123
  -4   1   6    8.42    1.46 123
  -3  -2   9    2.31    1.73 123
  -2   0  -8   44.86    1.89 123
  -2   1  -5  229.50    2.59 123
   0   0  -4   36.68    1.52 123
   2  -4  -4   12.23    2.01 123
   2  -3  -4   96.42    2.36 123
  -7   1   9   22.69    1.50 123
  -6   0  10   40.85    1.53 123
  -5  -2  11   -0.59    1.83 123
  -2  -1   7   47.97    1.28 123
   1  -5   2   16.10    3.88 122
  -6   2  -5    2.35    2.97 123
   2  -4  -2   40.53    2.40 123
   2  -3  -2  114.22    2.84 123
  -8   2   7   27.60    2.49 124
  -5   2   4   21.58    1.94 124
  -4   1  -7    8.85    2.15 124
  -3  -1 -10    3.35    2.98 124
  -3   0   7    0.36    1.38 124
  -2  -2   8   49.57    2.01 124
  -1  -4   7   11.76    2.49 124
  -1  -3   7    3.86    1.86 124
   0  -3  -9    1.15    2.31 124
   0  -1  -7   20.24    1.77 124
   1  -1  -4   47.92    1.60 124
   2  -4  -3    4.95    2.00 124
   2  -3  -3    3.28    1.58 124
  -4   0  -9    0.30    1.87 124
   1  -4   3   20.34    2.55 124
   1  -3   3    0.76    1.84 124
  -9   2   8   40.37    3.29 125
  -8   1  10    2.77    2.80 125
  -7   0  11    0.47    2.73 125
  -7   2  -5    7.97    2.80 125
  -5   2  -4   17.50    1.95 125
  -4   2   2   14.64    1.71 125
  -3   1  -6   35.88    1.77 125
  -2  -2 -10   -0.86    2.96 125
  -2  -1  -9    3.45    1.95 125
   0  -2  -8   43.57    1.95 125
   1  -5  -6    0.60    2.91 125
   1  -4  -7   10.91    2.46 125
   1  -3  -7    4.10    1.84 125
   1  -2  -6    4.49    1.49 125
  -1  -2  -9    0.53    1.38 125
  -1  -1  -8   13.73    1.28 125
  -1   0  -6    8.72    1.08 125
   0   0  -3    0.13    1.03 125
   1  -1  -3 1479.97    6.14 125
  -7   2   7    0.04    2.08 126
  -6   2   6   71.44    2.20 126
  -5   1  -7    8.73    2.45 126
  -3  -3  10    1.08    2.70 126
  -3   0  -8    9.82    2.03 126
  -3   1   5   84.08    1.89 126
   0  -2   5   20.32    1.61 126
  -5  -1  11    6.64    1.57 126
  -5   1   8    3.33    1.25 126
  -4  -1  10   41.50    1.57 126
  -2   0   6   39.09    1.24 126
   0  -5   5    0.49    3.26 126
   1  -1  -1  251.95    4.48 126
  -8   2   8   13.00    2.59 127
  -6   1   9   13.16    2.01 127
  -3  -1   9    8.19    1.75 127
  -2  -4   9   49.56    3.40 127
  -2  -3   9    2.59    2.37 127
  -2   0  -7    0.88    1.52 127
  -2   1  -4    4.57    1.45 127
  -2   1   3   99.67    2.05 127
  -1  -3  -9   11.86    2.61 127
  -1  -2   7   20.25    1.73 127
  -1  -1   6   95.67    1.90 127
  -1   0   4   39.36    1.52 127
   0  -4  -8   15.53    2.75 127
   0  -3  -8    2.21    2.02 127
   0  -1  -6   16.66    1.54 127
   1  -1  -2 1166.29    6.42 127
  -7   1  10   22.30    1.67 127
  -5   0  10   29.71    1.47 127
  -4  -2  11    1.32    1.85 127
  -4   0   9   -0.21    1.18 127
  -4   1   7    9.59    1.23 127
   0   0  -2  220.23    2.99 127
   1  -4  -6   14.02    1.61 127
  -4   2  -2   11.86    2.21 127
  -6   0  11    0.50    2.47 128
  -6   1  -7    2.39    2.86 128
  -5   2   5   25.08    1.88 128
  -3  -2  10    3.17    2.13 128
  -3  -1  -9    1.77    2.24 128
   0  -1   4  149.85    2.18 128
   1  -5  -5    1.97    2.55 128
   1  -3  -6  315.48    2.83 128
   1  -2  -5  166.78    2.29 128
  -4   0  -8    6.22    1.63 128
  -4   1  -6   11.53    1.37 128
  -3   0   8    3.34    1.12 128
  -2  -2  -9    0.38    1.57 128
  -2  -1   8   24.15    1.24 128
   0  -2  -7   15.34    1.20 128
  -6   2  -4   13.39    2.68 128
  -4   2   3  217.35    3.17 128
  -3   1  -5    2.92    1.73 129
  -2  -2   9   40.43    1.90 129
  -2  -1  -8   15.23    1.77 129
  -1  -2  -8   52.81    1.94 129
  -1  -1  -7   55.52    1.86 129
  -1   0  -5   -0.80    1.44 129
   0  -4   6    4.84    2.16 129
   0  -3   6   56.32    1.96 129
  -4  -1  -9    3.73    1.83 129
  -1  -3   8    5.77    1.52 129
  -7   2  -4   12.80    2.48 130
  -7   2   8    0.00    2.20 130
  -6   2   7    0.69    1.78 130
  -5   0  -8   23.85    2.77 130
  -5   2  -3    0.03    1.58 130
  -3   1   6   79.17    1.81 130
  -2  -3  -9    4.08    3.00 130
  -1  -4   8    7.99    2.79 130
   0  -4  -7    3.07    2.37 130
   1  -5  -4   24.34    2.68 130
  -6   1  10    0.47    1.54 130
  -5   1   9   56.91    1.49 130
  -3   0  -7   -0.96    1.24 130
   0  -3  -7    0.86    1.25 130
   1  -4  -5   47.85    1.64 130
  -8   2   9    7.95    2.94 131
  -5   1  -6  104.04    2.58 131
  -5   2   6   73.00    1.98 131
  -4  -1  11    1.73    2.21 131
  -3  -2  -9    3.15    2.54 131
  -2   0  -6   83.84    1.80 131
  -2   0   7    0.72    1.37 131
  -2   1  -3    8.51    1.28 131
  -2   1   4  129.12    2.03 131
  -1  -4  -8    1.04    2.87 131
  -1  -3  -8    1.03    2.12 131
   0  -5  -6    0.98    3.11 131
   0  -1  -5    0.69    1.43 131
   1  -3  -5   17.91    1.81 131
   1  -2  -4 1454.96    5.57 131
   1  -2   3   51.94    2.01 131
  -7   1  11   -0.28    2.09 131
  -5   0  11   -0.26    1.51 131
  -4   0  10   20.26    1.45 131
  -4   1   8    9.87    1.08 131
  -3  -1  10   23.90    1.47 131
  -1   0   5   -0.01    0.82 131
   0  -2   6    4.40    1.26 131
  -9   3   3    0.45    3.22 131
  -9   3   4   13.21    3.44 131
  -4   2   4  207.25    2.66 132
  -3  -1  -8   21.60    2.02 132
  -2  -3  10    0.55    2.72 132
  -1  -2   8    8.19    1.83 132
  -1  -1   7    1.41    1.38 132
   0  -2  -6    4.51    1.75 132
   1  -3   4   14.24    1.88 132
  -3  -2  11   10.32    1.86 132
  -2  -2  -8    8.65    1.44 132
   1  -5  -3    2.26    2.76 132
  -7   1  -6   -0.82    3.37 133
  -7   2   9    0.30    2.30 133
  -6   1  -6    8.69    2.47 133
  -6   2   8    7.51    2.07 133
  -4   0  -7   -0.44    1.88 133
  -4   1  -5    5.28    1.60 133
  -3   0   9    0.46    1.69 133
  -2  -1  -7   98.45    1.89 133
  -2  -1   9    1.74    1.71 133
  -1  -2  -7   11.39    1.52 133
  -1  -1  -6   54.31    1.68 133
   0  -1   5   -0.14    1.44 133
   1  -4  -4   59.47    2.23 133
  -3   1   7    0.62    0.96 133
  -1   0  -4  402.68    2.94 133
   0  -4  -6    3.67    1.51 133
   1  -4   4   23.10    2.87 133
  -9   3   5    1.41    3.43 133
   0  -5   6    1.24    3.59 133
  -6   1  11   32.82    2.59 134
  -5   1  10    2.37    1.90 134
  -5   2   7    2.47    1.81 134
  -4  -1  -8   69.73    2.46 134
  -4   2   5    2.90    1.45 134
  -3   1  -4   33.42    1.66 134
  -2  -3  -8   12.80    2.28 134
  -2  -2  10    1.15    2.27 134
   0  -5  -5    0.58    2.86 134
   0  -3  -6   60.04    1.81 134
   0  -3   7    1.20    1.82 134
   1  -3  -4   81.60    1.97 134
  -2   1   5   92.05    1.61 134
  -1  -4  -7   10.96    1.68 134
  -1  -3   9    0.74    1.68 134
  -8   3   3    1.98    3.06 134
  -8   3   4   20.34    2.82 134
  -6   2  -3   22.72    2.43 134
   0  -4   7    2.44    2.95 134
  -5  -1  -8    1.68    2.54 135
  -5   0  -7   -0.70    2.18 135
  -4  -1  12    6.74    2.93 135
  -4   1   9    1.13    1.67 135
  -3  -2  -8   35.22    2.33 135
  -3   0  -6    8.71    1.63 135
  -2   0   8  218.18    2.36 135
  -1  -3  -7    9.99    1.92 135
   0  -1  -4  147.08    2.08 135
   1  -5  -2   30.95    2.51 135
   1  -2  -3   16.81    1.39 135
  -5   0  12   18.16    2.09 135
  -4   0  11    0.38    1.51 135
  -3  -1  11    0.98    1.53 135
  -1   0   6  156.36    1.84 135
  -9   3   2    6.29    4.84 133
  -4   2  -1    7.95    2.44 134
  -8   3   5   11.23    2.81 135
  -7   2  10    1.15    2.63 136
  -6   0  -7   -0.28    2.70 136
  -6   2   9    2.97    2.15 136
  -5   1  -5   96.99    2.32 136
  -2   0  -5   -0.38    1.40 136
  -1  -2   9    0.71    2.02 136
  -1  -1   8   31.60    1.66 136
   0  -2  -5   21.59    1.57 136
   0  -2   7   16.32    1.64 136
   0   0   2  243.02    3.34 136
   1  -2   4  116.17    2.32 136
  -3  -3  -8   29.48    1.93 136
  -3  -1  -7   12.39    1.29 136
  -3   0  10   23.28    1.47 136
  -7   2  -3    1.69    2.63 136
  -8   2  -3    1.49    2.76 137
  -8   3   6    1.45    2.61 137
  -5   2  -2  207.13    3.36 137
  -5   2   8   33.84    1.90 137
  -4  -2  -8   14.53    2.55 137
  -4   2   6   48.64    1.94 137
  -3   1   8   58.23    1.78 137
  -2  -2  -7    0.90    1.71 137
  -2  -1  10   90.02    2.29 137
  -2   1  -2   18.21    1.46 137
   0  -4  -5    4.85    1.84 137
   0  -1   6   19.16    1.54 137
   1  -4  -3   28.84    1.85 137
   1  -3   5   -0.28    1.63 137
  -2  -4  -7    0.96    1.86 137
  -2   1   6   57.69    1.39 137
  -1  -2  -6   10.13    1.23 137
   1  -5  -1    0.44    2.80 137
  -7   3   4    9.16    2.09 138
  -6   1  -5   -0.09    2.15 138
  -5   1  11    8.04    2.34 138
  -4   0  -6  156.28    2.36 138
  -2  -3  -7    8.82    2.01 138
  -2  -2  11    3.82    2.63 138
  -2  -1  -6    0.63    1.66 138
  -1  -4  -6    2.44    2.05 138
  -1  -1  -5    0.21    1.43 138
   0  -5  -4    2.83    2.51 138
   0  -3  -5    2.65    1.69 138
   0   0   3    0.10    1.43 138
   1  -3  -3   47.79    1.87 138
  -4  -1  -7    9.05    1.41 138
  -4   1  10   43.32    1.56 138
  -2   0   9    0.31    1.19 138
   0  -3   8    2.06    1.48 138
  -7   3   5    3.49    2.50 138
   1  -4   5    2.75    2.64 138
  -8   3   7    1.44    2.65 139
  -7   1  -5    7.56    2.52 139
  -6   2  10   14.77    2.49 139
  -4   0  12   15.32    2.52 139
  -4   1  -4   91.90    2.21 139
  -1  -3  -6   -0.05    1.76 139
  -1  -3  10    1.69    2.76 139
  -1   0  -3   -0.19    1.28 139
  -1   0   7   -0.40    1.39 139
   0  -4   8   15.15    2.84 139
   1  -2  -2   70.26    1.96 139
  -4   2   7    3.31    1.09 139
  -3  -2  -7   -0.60    1.39 139
  -3  -1  12    3.22    2.09 139
  -1  -5  -5    1.29    1.99 139
  -8   3   2    0.66    4.22 137
  -7   3   3   15.48    2.97 139
  -7   3   6    7.99    2.37 140
  -5  -1  -7    9.56    2.22 140
  -5   0  -6   76.83    2.21 140
  -5   2   9    0.16    1.99 140
  -3   0  -5   -0.05    1.38 140
  -3   0  11    0.82    2.13 140
  -3   1  -3  165.70    2.49 140
  -3   1   9   11.51    1.73 140
  -3   2   3   -0.29    1.46 140
  -1  -2  10   12.92    2.34 140
  -1  -1   9    4.35    1.71 140
   0  -2   8   43.71    1.96 140
   0  -1  -3  115.63    2.06 140
   1  -2   5    0.11    1.45 140
  -6  -1  -7    0.99    1.83 140
  -3  -3  -7    0.38    1.57 140
  -2   1   7   47.78    1.29 140
   0   0   4   36.82    1.22 140
   1  -5   0   15.23    2.90 140
   1  -4  -2   33.97    2.29 140
  -7   0  -6    0.11    2.72 141
  -7   3   7    2.89    2.34 141
  -6   0  -6   56.33    2.50 141
  -3  -1  -6   33.89    1.66 141
  -3   2   2   25.33    1.77 141
  -3   2   4  183.24    2.48 141
  -2  -1  11    2.41    2.21 141
  -2   0  -4  233.09    2.48 141
   0  -5  -3    2.61    2.39 141
   0  -4  -4    3.33    1.86 141
   0  -2  -4   29.48    1.63 141
   0  -1   7   17.80    1.74 141
  -4  -2  -7    3.68    1.38 141
  -2  -2  -6  197.78    1.95 141
   1  -3   6   -0.22    2.27 141
   1  -1   2  850.54    6.30 141
  -6   2  -2   75.28    2.49 142
  -5   1  -4   51.30    1.90 142
  -4   1  11    3.24    2.15 142
  -4   2   8   39.28    1.92 142
  -3   2   5    8.61    1.47 142
  -2  -4  -6    8.10    2.29 142
  -2   0  10   28.63    2.03 142
  -1  -2  -5    0.56    1.40 142
  -1   0   8   21.05    1.64 142
  -1   1   2 1149.66    6.24 142
  -1   1   3 1636.70    6.34 142
   1  -1   3   10.10    1.35 142
  -5  -2  -7   23.43    1.86 142
  -4  -3  -7    7.84    1.81 142
  -2  -3  -6   30.14    1.37 142
  -1  -4  -5    2.21    1.46 142
  -1   1   4   46.77    1.28 142
   0  -3  -4   46.48    1.52 142
   0   0   5    0.46    0.81 142
   1  -3  -2  126.27    2.67 142
  -7   3   8   17.05    2.74 143
  -6   3   5    4.02    1.80 143
  -5   2  10   11.25    2.28 143
  -3   1  10   24.90    2.01 143
  -3   2   6   11.05    1.74 143
  -2  -5  -5    1.17    3.19 143
  -2  -1  -5  234.97    2.35 143
  -2   1   8   27.31    1.64 143
  -1  -5  -4    0.99    2.46 143
  -1  -1  -4   36.76    1.41 143
  -1  -1  10    4.85    1.96 143
   0  -3   9    1.33    2.38 143
   1  -2   6   10.08    1.74 143
  -4  -1  -6   12.77    1.28 143
  -4   0  -5   -0.48    1.13 143
  -3   0  12   52.19    1.94 143
  -1  -3  -5   -0.20    1.10 143
  -6   3   4  122.97    3.02 143
   1  -4   6    2.41    2.61 143
   1  -1   1   72.43    3.24 143
  -8   1  -4    1.22    2.85 144
  -8   2  -2    0.41    2.42 144
  -7   2  -2   42.62    2.48 144
  -6   1  -4   63.50    2.21 144
  -6   3   6   14.74    2.16 144
  -4   2   9    7.07    1.99 144
  -3  -4  -6    5.03    2.63 144
  -1  -2  11   -1.62    2.66 144
  -1   1   5  200.00    2.31 144
   0  -2   9    1.18    2.01 144
   0  -1   8    3.36    1.49 144
   1  -1   4   38.72    1.50 144
  -3  -2  -6    2.49    1.20 144
  -2  -1  12    5.23    2.08 144
   1  -5   1   10.20    3.65 143
  -7   1  -4    0.53    2.15 145
  -7   3   9    3.82    3.14 145
  -6   3   7    1.04    2.05 145
  -5  -1  -6  100.11    2.28 145
  -4   1  12    6.31    2.86 145
  -3  -3  -6   24.38    2.06 145
  -3   2   7   22.08    1.69 145
  -2   0  11   -1.21    2.16 145
  -1   0   9    1.03    1.68 145
   0  -5  -2   78.84    2.67 145
   0   0   6   54.05    1.69 145
   1  -4  -1    5.62    1.75 145
   1  -3   7    9.08    2.01 145
  -7  -1  -6    0.30    2.12 145
  -6  -1  -6    7.50    1.59 145
  -5   0  -5   -0.54    1.24 145
  -5   2  11    0.06    1.80 145
  -2   1   9    1.32    1.20 145
  -1   1   6   97.77    1.54 145
  -6   3   3    4.84    2.24 145
  -6   0  -5   -0.11    2.03 146
  -6   3   8    6.82    2.36 146
  -4  -4  -6   47.23    3.11 146
  -4   1  -3   27.07    1.63 146
  -3   1  11   -2.19    2.15 146
  -2  -4  -5   33.19    2.18 146
   0  -4  -3   19.15    1.71 146
   1  -2  -1   23.12    1.60 146
   1  -2   7   11.07    1.58 146
   1  -1   5   -0.23    1.44 146
  -7   0  -5    0.38    1.66 146
  -4  -2  -6   57.25    1.48 146
  -3   0  -4   38.85    1.28 146
  -2  -2  -5   57.98    1.47 146
  -1  -1  11    6.92    1.60 146
   0  -3  10    5.87    2.29 146
   0  -2  -3   53.83    1.34 146
  -1   1   1  256.96    4.39 146
  -4  -3  -6   12.21    2.22 147
  -4   2  10    4.43    2.21 147
  -3  -1  -5    2.71    1.64 147
  -3   2   8   19.05    1.82 147
  -2  -5  -4   17.18    2.79 147
  -1  -4  -4   24.65    1.92 147
  -1   0  -2  617.46    4.53 147
   0  -2  10    7.45    2.33 147
   0  -1   9    0.64    1.71 147
   0   0   7   -0.31    1.38 147
   1  -4   7   11.07    2.46 147
  -5  -2  -6   14.37    1.42 147
  -2  -3  -5   18.44    1.33 147
  -1   1   7    1.64    0.97 147
   1  -5   4    0.65    4.52 145
  -5   2  -1    6.08    2.21 147
  -6  -2  -6    7.90    2.52 148
  -6   3   9    5.28    2.68 148
  -5  -3  -6    4.31    2.53 148
  -5   3   5    0.39    1.81 148
  -5   3   6   13.05    1.87 148
  -2   0  12   10.13    2.51 148
  -2   1  10   85.94    2.22 148
  -1  -5  -3   -1.24    2.46 148
  -1  -2  -4  120.47    2.00 148
  -1   0  10    2.03    1.92 148
   0  -3  -3    8.83    1.50 148
   1  -1   6   57.16    1.73 148
  -2   0  -3    0.18    0.83 148
  -1  -3  -4   14.39    1.26 148
   1  -3  -1   43.39    2.26 148
  -5   3   4   12.24    1.66 149
  -5   3   7   21.30    2.15 149
  -4  -1  -5    4.61    1.50 149
  -4   2  11    1.76    2.52 149
  -3  -4  -5    1.61    2.24 149
  -3   1  -2  190.22    2.70 149
  -3   1  12    5.12    2.85 149
  -3   2   9    1.79    1.69 149
  -2  -1  -4    3.99    1.40 149
   0   0   8   11.76    1.55 149
   1  -3   8    1.05    2.24 149
   1  -2   8   55.97    2.04 149
  -2   2   5    4.44    1.04 149
  -1   1   8   28.76    1.22 149
   1  -5   2   19.26    4.43 147
  -3   2   1  171.94    4.53 148
  -2   1  -1    6.30    1.66 149
  -5   1  -3   65.18    2.05 150
  -5   3   8    1.38    2.05 150
  -4   0  -4  297.65    2.65 150
  -3  -5  -4    0.54    2.93 150
  -3  -3  -5    1.89    1.71 150
  -3  -2  -5    0.85    1.50 150
  -2   2   4    9.85    1.47 150
  -2   2   6  168.18    2.14 150
  -1  -1  -3   10.25    1.26 150
   0  -5  -1    8.05    2.31 150
   0  -1  10    4.65    1.97 150
   1  -1   7   56.81    1.86 150
  -5  -1  -5   84.51    1.60 150
  -4  -4  -5    0.01    1.84 150
  -1   0  11   -0.07    1.53 150
   0  -2  11   -0.09    2.19 150
  -7   3   2  121.82    6.29 147
   1  -5   5    1.44    4.30 149
  -9   2  -1   21.17    2.87 151
  -8   1  -3    2.15    2.48 151
  -7  -1  -5    7.42    2.26 151
  -7   1  -3   33.05    2.31 151
  -6  -1  -5    0.10    1.95 151
  -6   1  -3  109.62    2.40 151
  -5   3   9    9.55    2.37 151
  -3   2  10    4.39    2.04 151
  -2  -4  -4    2.03    1.75 151
  -2   1  11    2.01    2.16 151
  -2   2   7   57.56    1.81 151
   0  -4  -2    4.08    1.64 151
   1  -4   8    0.19    2.98 151
  -5  -4  -5   16.35    2.15 151
  -1   1   9    3.66    1.20 151
   0   0   9   -0.79    1.21 151
   1  -4   0   11.49    2.50 151
  -8   0  -4    0.82    2.72 152
  -5   0  -4  216.71    2.45 152
  -4  -3  -5   -0.13    1.95 152
  -4  -2  -5    1.09    1.68 152
  -2  -5  -3    1.51    2.41 152
  -2   2   3    3.36    1.15 152
  -1  -5  -2   19.68    2.28 152
  -1  -4  -3   24.33    1.93 152
   1  -3   9   12.96    2.79 152
   1  -2   9    0.63    2.03 152
   1  -1   8   14.84    1.79 152
  -7   0  -4   22.79    1.54 152
  -6   0  -4  134.55    1.92 152
  -2  -2  -4   24.23    1.14 152
  -2   2   8   45.71    1.44 152
  -8   2  -1    0.69    3.01 152
  -6   2  -1    4.15    1.99 152
  -7  -2  -5    7.68    2.54 153
  -6  -3  -5   -1.68    2.53 153
  -6  -2  -5    2.30    2.19 153
  -5  -3  -5   11.68    2.24 153
  -5  -2  -5   32.46    2.03 153
  -5   3  10    0.48    2.88 153
  -4   3   6    9.38    1.84 153
  -4   3   7    5.95    1.76 153
  -3  -1  -4   33.91    1.54 153
  -3   2  11   10.21    2.55 153
  -2  -3  -4  169.78    2.24 153
  -1   0  12   15.76    2.94 153
   0  -1  11   24.18    2.64 153
  -2   1  12    3.55    2.03 153
  -1   1  10    4.79    1.35 153
   0   1   5   -0.17    0.98 153
   1   0   4  432.62    3.01 153
   1   0   5   -0.10    0.99 153
  -7   2  -1    6.59    2.38 153
  -5   3   3    1.71    1.91 153
  -4   3   5   16.95    1.96 153
  -4   3   8   -0.20    2.01 154
  -3  -4  -4    0.05    1.98 154
  -3   0  -3    0.47    1.37 154
  -2   2   9   38.46    1.84 154
   0  -3  -2   34.95    1.70 154
   0  -2  -2  659.53    4.20 154
   0   0  10   11.67    1.95 154
   0   1   4  146.29    2.01 154
   0   1   6   18.75    1.47 154
   1   0   6   11.54    1.46 154
  -1  -3  -3    1.71    0.97 154
  -1  -2  -3   54.87    1.39 154
   0   1   7   17.25    1.25 154
   1  -1   9   93.05    1.82 154
   2  -3   4  179.54    3.51 154
   2  -3   5   19.22    2.47 154
  -4   3   9    0.35    2.27 155
  -3  -5  -3    2.54    2.70 155
   0  -5   0    0.97    2.25 155
   1  -2  10    8.91    2.69 155
   1   0   3    0.39    1.23 155
   1   0   7    0.36    1.62 155
   2  -2   4   23.87    1.70 155
   2  -2   5   62.96    2.13 155
  -8  -1  -4   -0.81    1.84 155
  -4  -4  -4    6.30    1.61 155
  -4  -1  -4   83.43    1.56 155
  -3  -3  -4   25.92    1.20 155
  -3  -2  -4   47.52    1.38 155
  -2   2  10    1.53    1.55 155
   0   1   3  111.82    1.76 155
  -4   3   4  101.03    2.60 155
  -9   0  -3   -0.81    3.19 156
  -9   1  -2    7.24    2.88 156
  -5  -4  -4    9.79    2.57 156
  -4   1  -2  242.01    2.90 156
  -4   3  10    0.50    2.61 156
  -2  -4  -3   74.16    2.10 156
  -1   1  11    5.40    2.21 156
   0   0  11   -0.24    2.36 156
   0   1   8    2.85    1.48 156
   2  -3   6   32.34    2.09 156
   2  -2   6  205.97    2.66 156
  -7  -1  -4    0.39    1.37 156
  -5  -1  -4   48.07    1.32 156
  -4  -5  -3    9.35    2.23 156
  -2  -5  -2    4.66    1.75 156
  -2  -1  -3    8.94    0.89 156
   1   0   8  131.65    1.69 156
  -9   3   2    5.71    5.22 154
   2  -2   3  157.27    3.14 156
  -6  -1  -4   59.79    1.94 157
  -4  -3  -4   77.18    1.99 157
  -2   2   2  268.61    3.34 157
  -1  -5  -1   11.01    2.24 157
  -1   2   5  169.93    2.16 157
  -1   2   6    5.08    1.37 157
  -1   2   7   20.05    1.63 157
   0  -4  -1   25.12    1.83 157
   1  -1  10    0.58    2.25 157
   2  -3   7    9.46    2.15 157
   2  -2   7    1.74    1.79 157
  -4  -2  -4   42.03    1.29 157
  -4   0  -3    0.42    0.97 157
  -2   2  11    1.62    1.76 157
  -1  -4  -2    3.78    1.12 157
   0   1   9    0.02    1.19 157
   1  -5   3   -0.14    5.62 154
  -4   2   0    4.89    2.57 156
  -8   0  -3   -0.64    2.32 158
  -8   1  -2    1.63    2.14 158
  -7  -3  -4   14.28    2.98 158
  -7  -2  -4   11.82    2.23 158
  -6  -3  -4    0.67    2.18 158
  -5  -3  -4   70.08    2.19 158
  -5   1  -2   28.40    1.63 158
  -3   3   6  109.07    2.06 158
  -3   3   7    1.11    1.73 158
  -3   3   8    9.00    2.00 158
  -1   2   8    8.19    1.72 158
   1   0   9   -0.32    1.69 158
   2  -1   5  242.19    2.60 158
  -6  -2  -4   12.22    1.40 158
  -5  -2  -4   16.54    1.26 158
  -2   0  -2   13.84    1.05 158
  -1   2   4 1485.49    5.20 158
   2  -1   6    1.46    1.17 158
   2  -3   3    2.46    2.58 158
   1  -3   0   44.82    2.33 158
  -7   0  -3   -0.17    1.73 159
  -7   1  -2   10.92    1.89 159
  -6   0  -3    0.24    1.47 159
  -6   1  -2   59.22    1.97 159
  -5   0  -3    0.25    1.61 159
  -3  -5  -2   52.89    2.60 159
  -3  -4  -3   29.83    1.85 159
  -3   3   5    1.35    1.56 159
  -3   3   9    3.27    2.24 159
  -2  -3  -3    3.81    1.62 159
  -1   2   9    0.71    1.93 159
   0   1  10    4.34    1.91 159
   1  -1  11   21.56    2.91 159
   1   0   2  614.30    4.53 159
   2  -3   8   13.25    2.47 159
   2  -2   8    9.99    2.09 159
   2  -1   4    3.98    1.45 159
   2  -1   7  106.78    2.00 159
  -2  -2  -3  141.54    1.77 159
  -1  -1  -2  830.02    4.47 159
  -9   2   0    1.85    3.36 159
   1  -4   1    3.77    2.08 159
  -4  -4  -3   14.41    2.04 160
  -3   3  10    2.13    2.57 160
  -1   2  10   11.87    2.20 160
   1   0  10  174.45    2.71 160
   2  -2   9    0.81    2.34 160
  -3  -1  -3  170.64    1.91 160
   2  -1   8   14.31    1.31 160
   1  -2   0   13.99    1.81 160
  -8  -1  -3    2.21    2.25 161
  -6  -4  -3    7.73    2.83 161
  -5  -4  -3    1.34    2.26 161
  -4  -5  -2   22.29    2.78 161
  -4   3   3    4.04    1.70 161
  -1  -3  -2    6.23    1.46 161
   0  -5   1    8.19    2.32 161
   0   1  11   24.71    2.56 161
   2  -3   9    3.68    3.23 161
  -3  -3  -3   15.88    1.19 161
   1   1   6   57.84    1.32 161
   1   1   7   52.96    1.40 161
   0   0   0    0.00    0.00   0
;
_shelx_hkl_checksum              5060
loop_
_space_group_symop_operation_xyz
'x, y, z'
'x, -y, z+1/2'
loop_
_atom_site_label
_atom_site_type_symbol
_atom_site_fract_x
_atom_site_fract_y
_atom_site_fract_z
_atom_site_U_iso_or_equiv
_atom_site_adp_type
_atom_site_occupancy
_atom_site_site_symmetry_order
_atom_site_calc_flag
_atom_site_refinement_flags_posn
_atom_site_refinement_flags_adp
_atom_site_refinement_flags_occupancy
_atom_site_disorder_assembly
_atom_site_disorder_group
N1 N -0.2179(4) -0.0123(10) 0.4662(4) 0.0293(8) Uani 1 1 d . . . A 1
H1N H -0.2781 -0.1268 0.3951 0.044 Uiso 1 1 calc R U . A 1
N2 N -0.2893(5) 0.1829(8) 0.5428(4) 0.0309(10) Uani 1 1 d . . . A 1
N3 N 0.4081(4) 0.5020(10) 0.8655(4) 0.0315(9) Uani 1 1 d . . . A 1
H2N H 0.4708 0.6159 0.9355 0.047 Uiso 1 1 calc R U . A 1
N4 N 0.4733(4) 0.3147(9) 0.7881(4) 0.0297(10) Uani 1 1 d . . . A 1
N5 N -0.1729(7) 0.5086(12) 0.7394(6) 0.0293(11) Uani 0.77 1 d . . P A 1
H3N H -0.1157 0.6648 0.7403 0.044 Uiso 1 1 d R U . A 1
H4N H -0.2827 0.5607 0.7237 0.044 Uiso 1 1 d R U . A 1
C1 C -0.0457(5) -0.0054(11) 0.5137(5) 0.0280(10) Uani 1 1 d . . . A 1
H1 H 0.0282 -0.1216 0.4768 0.034 Uiso 1 1 calc R U . A 1
C2 C 0.0060(5) 0.2006(9) 0.6260(5) 0.0201(9) Uani 1 1 d . . . A 1
C3 C -0.1532(5) 0.3135(8) 0.6385(4) 0.0242(10) Uani 1 1 d . . . A 1
C4 C 0.2339(4) 0.4953(12) 0.8233(5) 0.0282(9) Uani 1 1 d . . . A 1
H4 H 0.1618 0.6101 0.8629 0.034 Uiso 1 1 calc R U . A 1
C5 C 0.1809(5) 0.2876(10) 0.7106(5) 0.0246(10) Uani 1 1 d . . . A 1
C6 C 0.3360(5) 0.1870(9) 0.6933(4) 0.0277(11) Uani 1 1 d . . . A 1
H6 H 0.3428 0.0448 0.6226 0.033 Uiso 1 1 calc R U . A 1
N5A N 0.364(2) -0.009(4) 0.5912(19) 0.030(4) Uiso 0.23 1 d . . P B 2
loop_
_atom_site_aniso_label
_atom_site_aniso_U_11
_atom_site_aniso_U_22
_atom_site_aniso_U_33
_atom_site_aniso_U_23
_atom_site_aniso_U_13
_atom_site_aniso_U_12
N1 0.026(2) 0.0297(19) 0.0287(19) -0.0052(18) 0.0036(16) -0.0016(19)
N2 0.028(2) 0.032(2) 0.029(2) 0.0056(19) 0.0031(18) -0.0011(19)
N3 0.0151(18) 0.040(2) 0.0330(19) -0.005(2) -0.0016(16) -0.008(2)
N4 0.0075(15) 0.044(2) 0.035(2) -0.004(2) 0.0022(16) 0.0028(18)
N5 0.0230(17) 0.0307(18) 0.0349(18) -0.0054(15) 0.0096(13) 0.0014(14)
C1 0.024(2) 0.028(2) 0.032(2) 0.003(2) 0.0093(19) 0.002(2)
C2 0.0106(18) 0.023(2) 0.025(2) 0.0055(18) 0.0032(17) 0.0011(18)
C3 0.016(2) 0.029(2) 0.026(2) 0.0043(19) 0.0050(19) 0.0038(19)
C4 0.015(2) 0.035(2) 0.030(2) -0.008(2) 0.0002(16) -0.005(2)
C5 0.024(2) 0.024(2) 0.023(2) 0.0014(18) 0.004(2) -0.002(2)
C6 0.022(2) 0.030(3) 0.029(3) -0.0009(19) 0.003(2) 0.001(2)
loop_
_atom_type_symbol
_atom_type_description
_atom_type_scat_dispersion_real
_atom_type_scat_dispersion_imag
_atom_type_scat_source
C C 0.0033 0.0016 'International Tables Vol C Tables 4.2.6.8 and 6.1.1.4'
H H 0.0000 0.0000 'International Tables Vol C Tables 4.2.6.8 and 6.1.1.4'
N N 0.0061 0.0033 'International Tables Vol C Tables 4.2.6.8 and 6.1.1.4'
loop_
_geom_angle_atom_site_label_1
_geom_angle_atom_site_label_2
_geom_angle_atom_site_label_3
_geom_angle
C1 N1 N2 112.0(4)
C1 N1 H1N 124.0
N2 N1 H1N 124.0
C3 N2 N1 104.2(4)
N4 N3 C4 112.3(4)
N4 N3 H2N 123.8
C4 N3 H2N 123.8
N3 N4 C6 104.7(3)
C3 N5 H3N 112.3
C3 N5 H4N 112.7
H3N N5 H4N 107.3
N1 C1 C2 108.6(4)
N1 C1 H1 125.7
C2 C1 H1 125.7
C1 C2 C3 103.5(3)
C1 C2 C5 128.6(3)
C3 C2 C5 127.9(3)
N2 C3 N5 121.3(4)
N2 C3 C2 111.7(3)
N5 C3 C2 126.8(4)
N3 C4 C5 107.2(4)
N3 C4 H4 126.4
C5 C4 H4 126.4
C4 C5 C6 103.3(4)
C4 C5 C2 128.9(3)
C6 C5 C2 127.7(3)
N4 C6 C5 112.4(4)
N4 C6 H6 123.8
C5 C6 H6 123.8
loop_
_geom_bond_atom_site_label_1
_geom_bond_atom_site_label_2
_geom_bond_distance
N1 C1 1.332(4)
N1 N2 1.375(6)
N1 H1N 0.8700
N2 C3 1.334(5)
N3 N4 1.329(5)
N3 C4 1.348(4)
N3 H2N 0.8700
N4 C6 1.331(5)
N5 C3 1.342(6)
N5 H3N 0.8462
N5 H4N 0.8898
C1 C2 1.377(7)
C1 H1 0.9400
C2 C3 1.426(5)
C2 C5 1.456(3)
C4 C5 1.385(7)
C4 H4 0.9400
C5 C6 1.393(6)
C6 H6 0.9400
loop_
_geom_torsion_atom_site_label_1
_geom_torsion_atom_site_label_2
_geom_torsion_atom_site_label_3
_geom_torsion_atom_site_label_4
_geom_torsion
C1 N1 N2 C3 0.8(4)
C4 N3 N4 C6 0.4(5)
N2 N1 C1 C2 -0.3(5)
N1 C1 C2 C3 -0.3(5)
N1 C1 C2 C5 -179.3(3)
N1 N2 C3 N5 -176.1(4)
N1 N2 C3 C2 -1.0(4)
C1 C2 C3 N2 0.8(5)
C5 C2 C3 N2 179.8(3)
C1 C2 C3 N5 175.5(5)
C5 C2 C3 N5 -5.4(6)
N4 N3 C4 C5 0.3(5)
N3 C4 C5 C6 -0.9(5)
N3 C4 C5 C2 -178.9(3)
C1 C2 C5 C4 179.7(7)
C3 C2 C5 C4 0.9(5)
C1 C2 C5 C6 2.2(5)
C3 C2 C5 C6 -176.6(6)
N3 N4 C6 C5 -1.0(5)
C4 C5 C6 N4 1.2(5)
C2 C5 C6 N4 179.3(3)
