#------------------------------------------------------------------------------
#$Date: 2019-11-23 15:35:18 +0200 (Sat, 23 Nov 2019) $
#$Revision: 233851 $
#$URL: file:///home/coder/svn-repositories/cod/cif/4/34/93/4349320.cif $
#------------------------------------------------------------------------------
#
# This file is available in the Crystallography Open Database (COD),
# http://www.crystallography.net/
#
# All data on this site have been placed in the public domain by the
# contributors.
#
data_4349320
loop_
_publ_author_name
'Seth, Saona'
'Matzger, Adam J.'
_publ_section_title
;
 Coordination Polymerization of 5,5'-Dinitro-2H,2H'-3,3'-bi-1,2,4-triazole
 Leads to a Dense Explosive with High Thermal Stability.
;
_journal_issue                   1
_journal_name_full               'Inorganic chemistry'
_journal_page_first              561
_journal_page_last               565
_journal_paper_doi               10.1021/acs.inorgchem.6b02383
_journal_volume                  56
_journal_year                    2017
_chemical_formula_moiety         'C8 H4 N16 Ni O10, 2(C2 H8 N), 2(H2 O)'
_chemical_formula_sum            'C12 H24 N18 Ni O12'
_chemical_formula_weight         671.20
_space_group_crystal_system      triclinic
_space_group_IT_number           2
_space_group_name_Hall           '-P 1'
_space_group_name_H-M_alt        'P -1'
_atom_sites_solution_hydrogens   mixed
_audit_creation_method           SHELXL-2014/6
_cell_angle_alpha                99.422(7)
_cell_angle_beta                 91.316(6)
_cell_angle_gamma                102.579(7)
_cell_formula_units_Z            1
_cell_length_a                   6.9323(5)
_cell_length_b                   7.5416(5)
_cell_length_c                   12.9399(11)
_cell_measurement_reflns_used    3094
_cell_measurement_temperature    85(2)
_cell_measurement_theta_max      68.9700
_cell_measurement_theta_min      3.4810
_cell_volume                     650.15(9)
_computing_cell_refinement       'CrysAlisPro 1.171.38.41 (Rigaku OD, 2015)'
_computing_data_collection
'CrystalClear-SM Expert 2.0 r16 (Rigaku, 2014)'
_computing_data_reduction        'CrysAlisPro 1.171.38.41 (Rigaku OD, 2015)'
_computing_molecular_graphics    'Bruker SHELXTL'
_computing_publication_material  'Bruker SHELXTL'
_computing_structure_refinement  'SHELXL-2014/6 (Sheldrick, 2014)'
_computing_structure_solution    'SHELXT (Sheldrick, 2014)'
_diffrn_ambient_temperature      85(2)
_diffrn_measured_fraction_theta_full 1.000
_diffrn_measured_fraction_theta_max 0.997
_diffrn_measurement_device_type  'Rigaku Saturn 944+ CCD'
_diffrn_measurement_method       '\w scans'
_diffrn_radiation_type           CuK\a
_diffrn_radiation_wavelength     1.54178
_diffrn_reflns_av_R_equivalents  0.1719
_diffrn_reflns_av_unetI/netI     0.0635
_diffrn_reflns_Laue_measured_fraction_full 1.000
_diffrn_reflns_Laue_measured_fraction_max 0.997
_diffrn_reflns_limit_h_max       8
_diffrn_reflns_limit_h_min       -8
_diffrn_reflns_limit_k_max       9
_diffrn_reflns_limit_k_min       -9
_diffrn_reflns_limit_l_max       15
_diffrn_reflns_limit_l_min       -15
_diffrn_reflns_number            9913
_diffrn_reflns_point_group_measured_fraction_full 1.000
_diffrn_reflns_point_group_measured_fraction_max 0.997
_diffrn_reflns_theta_full        67.679
_diffrn_reflns_theta_max         69.121
_diffrn_reflns_theta_min         3.469
_diffrn_source                   'micro-focus rotating anode'
_exptl_absorpt_coefficient_mu    1.941
_exptl_absorpt_correction_T_max  1.00000
_exptl_absorpt_correction_T_min  0.47678
_exptl_absorpt_correction_type   multi-scan
_exptl_absorpt_process_details
; 
CrysAlisPro 1.171.38.41 (Rigaku Oxford Diffraction, 2015) 
Empirical absorption correction using spherical harmonics, 
 implemented in SCALE3 ABSPACK scaling algorithm. 
;
_exptl_crystal_colour            green
_exptl_crystal_density_diffrn    1.714
_exptl_crystal_description       plate
_exptl_crystal_F_000             346
_exptl_crystal_size_max          0.22
_exptl_crystal_size_mid          0.12
_exptl_crystal_size_min          0.04
_refine_diff_density_max         0.866
_refine_diff_density_min         -0.696
_refine_diff_density_rms         0.122
_refine_ls_extinction_method     none
_refine_ls_goodness_of_fit_ref   0.946
_refine_ls_hydrogen_treatment    mixed
_refine_ls_matrix_type           full
_refine_ls_number_parameters     223
_refine_ls_number_reflns         4177
_refine_ls_number_restraints     6
_refine_ls_restrained_S_all      0.946
_refine_ls_R_factor_all          0.0868
_refine_ls_R_factor_gt           0.0721
_refine_ls_shift/su_max          0.000
_refine_ls_shift/su_mean         0.000
_refine_ls_structure_factor_coef Fsqd
_refine_ls_weighting_details
'w=1/[\s^2^(Fo^2^)+(0.1325P)^2^] where P=(Fo^2^+2Fc^2^)/3'
_refine_ls_weighting_scheme      calc
_refine_ls_wR_factor_gt          0.1781
_refine_ls_wR_factor_ref         0.1847
_reflns_Friedel_coverage         0.000
_reflns_number_gt                2883
_reflns_number_total             4177
_reflns_threshold_expression     'I > 2\s(I)'
_cod_data_source_file            ic6b02383_si_001.cif
_cod_data_source_block           Ni-DNBT
_cod_database_code               4349320
_shelx_space_group_comment
; 
The symmetry employed for this shelxl refinement is uniquely defined 
by the following loop, which should always be used as a source of 
symmetry information in preference to the above space-group names. 
They are only intended as comments. 
;
_shelx_estimated_absorpt_t_min   0.698
_shelx_estimated_absorpt_t_max   0.698
_shelxl_version_number           2014/6
_shelx_res_file
; 
TITL ss146g_a.res in P-1 
CELL  1.54178   6.9323   7.5416  12.9399   99.422   91.316  102.579 
ZERR    1.000   0.0005   0.0005   0.0011    0.007    0.006    0.007 
LATT 1 
SFAC C  H  N  O  Ni 
UNIT 12 24 18 12 1 
REM Old TITL ss146g in P-1 
REM SHELXT solution in P-1 
REM R1 0.204,  Rweak 0.084,  Alpha 0.147,  Orientation as input 
REM Formula found by SHELXT:  C30 N4 O8 Ni 
L.S. 20 
REM EXTI 0.000000 
ACTA 
conf 
htab 
BOND $H 
FMAP 2 
PLAN 20 
SIZE 0.20 0.20 0.20 
TEMP -188 
sadi o5 h5a o5 h5b o6 h6a o6 h6b 
  
REM Instructions for potential hydrogen bonds 
EQIV $1 -x+1, -y+1, -z+1 
HTAB O5 N7_$1 
HTAB O5 O6 
EQIV $2 -x+2, -y+2, -z+1 
HTAB O6 O5_$2 
EQIV $3 -x+1, -y+2, -z+1 
HTAB N9 O3_$3 
HTAB N9 N6_$3 
HTAB N9 N2 
HTAB C5 O1 
EQIV $4 x+1, y+1, z 
HTAB O6 O2_$4 
HTAB O6 N3_$4 
  
WGHT    0.132500 
BASF   0.37914 
FVAR       8.45775 
NI1   5    0.500000    1.000000    0.500000    10.50000    0.01678    0.00862 = 
         0.02118    0.00389    0.00132    0.00467 
O1    4    0.142008    0.799834    0.887996    11.00000    0.02937    0.01980 = 
         0.02397    0.00101    0.00434    0.00855 
O2    4   -0.005489    0.518956    0.816634    11.00000    0.02282    0.01532 = 
         0.03247    0.01035    0.00490    0.00486 
O3    4    0.483296    0.387463    0.150807    11.00000    0.02480    0.02139 = 
         0.02417    0.00601    0.00601    0.01054 
O4    4    0.273209    0.183513    0.216967    11.00000    0.02654    0.01337 = 
         0.03013    0.00107   -0.00060    0.00603 
O5    4    0.757403    0.927051    0.545446    11.00000    0.01817    0.01157 = 
         0.02633    0.00435    0.00028    0.00391 
H5A   2    0.732789    0.827465    0.571894    11.00000    0.05062 
H5B   2    0.841892    1.015367    0.583797    11.00000    0.05668 
O6    4    1.062617    1.177397    0.650970    11.00000    0.02179    0.01196 = 
         0.03019    0.00322    0.00149    0.00530 
H6A   2    1.142172    1.152095    0.602723    11.00000    0.05866 
H6B   2    1.072424    1.294164    0.650713    11.00000    0.07106 
N1    3    0.336423    0.843139    0.602500    11.00000    0.01753    0.00918 = 
         0.01942    0.00102    0.00004    0.00589 
N2    3    0.280160    0.869144    0.703283    11.00000    0.01701    0.01239 = 
         0.02204    0.00396    0.00206    0.00613 
N3    3    0.171876    0.565938    0.632185    11.00000    0.01495    0.01187 = 
         0.02557    0.00706    0.00267    0.00617 
N4    3    0.101405    0.671725    0.813559    11.00000    0.01692    0.01758 = 
         0.02628    0.00676    0.00455    0.00838 
N5    3    0.418201    0.735540    0.408745    11.00000    0.01784    0.01070 = 
         0.01932    0.00153   -0.00101    0.00621 
N6    3    0.454149    0.652023    0.312271    11.00000    0.01753    0.01233 = 
         0.02010    0.00196   -0.00123    0.00530 
N7    3    0.286761    0.433137    0.399816    11.00000    0.01503    0.00880 = 
         0.02520    0.00428    0.00161    0.00537 
N8    3    0.376255    0.339593    0.220751    11.00000    0.01828    0.01534 = 
         0.02679    0.00688   -0.00015    0.00724 
N9    3    0.334559    1.198275    0.853212    11.00000    0.02991    0.01205 = 
         0.01966    0.00179    0.00267    0.00473 
H9A   2    0.363208    1.270141    0.805778    11.00000    0.04914 
H9B   2    0.298129    1.109561    0.816566    11.00000    0.02809 
C1    1    0.185229    0.701847    0.714834    11.00000    0.01426    0.01436 = 
         0.02175    0.00708    0.00125    0.00766 
C2    1    0.269530    0.662229    0.564599    11.00000    0.01440    0.01212 = 
         0.02106    0.00324   -0.00165    0.00613 
C3    1    0.319381    0.602244    0.457182    11.00000    0.01197    0.01366 = 
         0.02423    0.00669   -0.00003    0.00516 
C4    1    0.373130    0.475807    0.312555    11.00000    0.01532    0.01177 = 
         0.02034    0.00061   -0.00103    0.00610 
C5    1    0.177241    1.232981    0.924827    11.00000    0.03416    0.02284 = 
         0.02981    0.00635    0.00903    0.01264 
AFIX 137 
H5E   2    0.161286    1.146313    0.974422    11.00000   -1.50000 
H5C   2    0.052092    1.215902    0.883682    11.00000   -1.50000 
H5D   2    0.214592    1.359618    0.963610    11.00000   -1.50000 
AFIX   0 
C6    1    0.525248    1.197853    0.906369    11.00000    0.03178    0.02797 = 
         0.02942    0.00928    0.00218    0.01117 
AFIX 137 
H6E   2    0.578049    1.318678    0.950055    11.00000   -1.50000 
H6C   2    0.619390    1.172175    0.853687    11.00000   -1.50000 
H6D   2    0.504830    1.102428    0.950637    11.00000   -1.50000 
  
AFIX   0 
HKLF 5 
  
REM  ss146g_a.res in P-1 
REM R1 =  0.0721 for    2883 Fo > 4sig(Fo)  and  0.0868 for all    4177 data 
REM    223 parameters refined using      6 restraints 
  
END 
  
WGHT      0.1320      0.0000 
  
REM Instructions for potential hydrogen bonds 
HTAB O5 N7_$1 
HTAB O5 O6 
HTAB O6 O5_$2 
HTAB O6 O2_$4 
HTAB O6 N3_$4 
HTAB N9 O3_$3 
HTAB N9 N6_$3 
HTAB N9 N2 
HTAB C5 O1 
  
REM Highest difference peak  0.866,  deepest hole -0.696,  1-sigma level  0.122 
Q1    1   0.3629  0.9453  0.5234  11.00000  0.05    0.75 
Q2    1   0.7280  0.6828  0.5323  11.00000  0.05    0.66 
Q3    1   0.4177  0.8580  0.6185  11.00000  0.05    0.57 
Q4    1   0.4211  0.8302  0.5640  11.00000  0.05    0.49 
Q5    1   0.4205  0.4614  0.3787  11.00000  0.05    0.44 
Q6    1   0.4574  0.7955  0.4629  11.00000  0.05    0.44 
Q7    1   0.1380  0.5213  0.3908  11.00000  0.05    0.40 
Q8    1   0.7596  0.9902  0.5788  11.00000  0.05    0.40 
Q9    1   0.3025  0.9735  0.7525  11.00000  0.05    0.40 
Q10   1   0.0548  0.4130  0.4242  11.00000  0.05    0.38 
Q11   1   0.3046  0.8541  0.6770  11.00000  0.05    0.38 
Q12   1   0.9106  0.9645  0.5038  11.00000  0.05    0.38 
Q13   1   0.6586  0.9288  0.5616  11.00000  0.05    0.37 
Q14   1   0.2689  0.4571  0.5303  11.00000  0.05    0.36 
Q15   1   0.4053  1.3843  0.7600  11.00000  0.05    0.36 
Q16   1   0.5038  0.9054  0.4373  11.00000  0.05    0.36 
Q17   1   0.5904  0.7350  0.3061  11.00000  0.05    0.36 
Q18   1   0.2048  0.6854  0.7965  11.00000  0.05    0.35 
Q19   1   0.5095  0.5601  0.3076  11.00000  0.05    0.35 
Q20   1   0.9885  0.8249  0.6349  11.00000  0.05    0.35 
;
_shelx_res_checksum              99576
_shelx_hkl_file
; 
   0   0  -1 309746. 625.290  -2 
   0   0  -1 309746. 625.290   1 
   0   0  -2 13837.2 202.197  -2 
   0   0  -2 13837.2 202.197   1 
   0   0  -3 144392. 846.918  -2 
   0   0  -3 144392. 846.918   1 
   0   0   4 99144.8 802.198  -2 
   0   0   4 99144.8 802.198   1 
   0   0   5 643.880 307.358  -2 
   0   0   5 643.880 307.358   1 
   0   0   6 19741.6 978.223  -2 
   0   0   6 19741.6 978.223   1 
   0   0  -7 917.030 395.053  -2 
   0   0  -7 917.030 395.053   1 
   0   0  -8 5381.69 547.995  -2 
   0   0  -8 5381.69 547.995   1 
   0   0  -9 4112.38 647.919  -2 
   0   0  -9 4112.38 647.919   1 
   0   0 -10 34756.2 1046.48  -2 
   0   0 -10 34756.2 1046.48   1 
   0   0 -11 7286.39 818.576  -2 
   0   0 -11 7286.39 818.576   1 
   0   0 -12 20.8763 828.782  -2 
   0   0 -12 20.8763 828.782   1 
   0   0 -13 1018.83 787.137  -2 
   0   0 -13 1018.83 787.137   1 
   0   0 -14 2273.15 836.126  -2 
   0   0 -14 2273.15 836.126   1 
   0   0  15 3183.42 756.088  -2 
   0   0  15 3183.42 756.088   1 
   0   1 -15 1783.43 472.449   1 
   0   1 -14 5363.64 575.939   1 
   0   1 -13 13319.1 714.341   1 
   0   1 -12 3078.34 642.744   1 
   0   1 -11 3444.66 504.469   1 
   0   1 -10 4892.05 506.088   1 
   0   1  -9 2366.81 412.494   1 
   0   1  -8 35845.3 561.076   1 
   0   1  -7 27093.4 465.324   1 
   0  -1   6 40.5092 410.521   1 
   0  -1   5 35521.8 718.354   1 
   0  -1   4 8025.00 404.210   1 
   0   1  -3 121154. 690.850   1 
   0   1  -2 120429. 610.507   1 
   0  -1   1 22620.4 251.292   1 
   0  -1   0 11032.7 103.115   1 
   0  -1  -1 121242. 224.200   1 
   0   1   2 97566.5 316.535   1 
   0   1   3 5236.07 129.892   1 
   0  -1  -4 196828. 747.146   1 
   0  -1  -5 103585. 655.607   1 
   0  -1  -6 155.963 247.196   1 
   0  -1  -7 2293.69 475.082   1 
   0  -1  -8 12310.8 586.375   1 
   0  -1  -9 213.436 518.200   1 
   0  -1 -10 507.950 544.428   1 
   0  -1 -11 23672.1 736.778   1 
   0  -1 -12 385.624 611.141   1 
   0  -1 -13 261.683 837.214   1 
   0  -1 -14 1579.29 882.733   1 
   0  -1 -15 81.1513 816.605   1 
   0   2 -15 9791.20 589.092   1 
   0   2 -14 198.411 493.137   1 
   0   2 -13 39.3122 590.601   1 
   0   2 -12 67.7481 520.089   1 
   0   2 -11 7278.41 554.663   1 
   0   2 -10 3544.68 515.957   1 
   0   2  -9 36476.3 615.608   1 
   0   2  -8 121.335 373.081   1 
   0  -2   7 4348.21 386.342   1 
   0  -2   6 9868.21 467.076   1 
   0  -2   5 40594.0 896.257   1 
   0  -2   4 108594. 1229.22   1 
   0  -2   3 25501.6 632.928   1 
   0  -2   2 599.097 232.664   1 
   0   2  -1 278067. 977.334   1 
   0  -2   0 33884.3 251.915   1 
   0  -2  -1 24413.9 237.082   1 
   0   2   2 105936. 636.079   1 
   0  -2  -3 3597.56 469.419   1 
   0  -2  -4 10276.5 1475.86   1 
   0  -2  -5 38915.0 788.446   1 
   0  -2  -6 80320.0 914.633   1 
   0  -2  -7 5398.04 538.045   1 
   0  -2  -8 6187.98 602.435   1 
   0  -2  -9 2921.36 605.777   1 
   0  -2 -10 313.856 771.660   1 
   0  -2 -11 10044.8 854.066   1 
   0  -2 -12 2967.09 982.966   1 
   0  -2 -13 595.089 862.944   1 
   0  -2 -14 614.986 777.696   1 
   0  -3  15 48.6594 495.655   1 
   0   3 -14 6959.13 530.917   1 
   0   3 -13 945.506 449.941   1 
   0   3 -12 191.329 474.730   1 
   0  -3  11 10539.3 627.464   1 
   0  -3  10 984.998 534.128   1 
   0  -3   9 7302.14 526.345   1 
   0   3  -8 6068.53 455.237   1 
   0  -3   7 891.936 403.932   1 
   0  -3   6 17420.7 474.428   1 
   0  -3   5 34761.4 641.720   1 
   0   3   3 148170. 2130.87  -2 
   0  -3   5 148170. 2130.87   1 
   0  -3   4 68261.3 1146.74   1 
   0  -3   3 2863.09 488.887   1 
   0  -3   2 4113.01 429.427   1 
   0  -3   1 1541.08 369.260   1 
   0   3   0 9865.49 327.011   1 
   0  -3  -1 171869. 711.168   1 
   0  -3  -2 67650.2 1038.19   1 
   0  -3  -3 136584. 3430.25   1 
   0  -3  -4 73684.4 1092.89   1 
   0  -3  -5-32.4138 692.659   1 
   0  -3  -6 1357.92 695.989   1 
   0  -3  -7-28.4967 751.011   1 
   0  -3  -8 3922.36 816.524   1 
   0  -3  -9 1635.75 848.947   1 
   0  -3 -10 1894.88 854.133   1 
   0  -3 -11 312.210 934.878   1 
   0  -3 -12 6869.18 950.377   1 
   0  -3 -13 2354.32 839.204   1 
   0   4 -15 23.8910 1469.93   1 
   0  -4  14 1804.71 608.211   1 
   0   4 -13 23979.0 506.658   1 
   0  -4  12 35062.3 652.289   1 
   0   4 -11 16899.5 580.861   1 
   0   4 -10 5626.25 474.943   1 
   0  -4   9 1689.29 428.780   1 
   0  -4   8 36.9205 436.052   1 
   0  -4   7 87.5459 400.447   1 
   0  -4   6 7560.06 415.653   1 
   0  -4   5 129.398 425.795   1 
   0  -4   4 367.691 387.079   1 
   0  -4   3 12881.0 475.548   1 
   0  -4   2 37205.2 556.377   1 
   0  -4   1 1419.08 372.063   1 
   0  -4   0 112.717 383.702   1 
   0  -4  -1 759.897 595.453   1 
   0  -4  -2 2997.29 636.044   1 
   0  -4  -3 4599.47 1003.14   1 
   0  -4  -4 4215.29 721.695   1 
   0  -4  -5 17747.1 956.700   1 
   0  -4  -6 11252.8 955.462   1 
   0  -4  -7 28600.1 1146.26   1 
   0  -4  -8 10354.2 1035.72   1 
   0  -4  -9 11841.3 1078.09   1 
   0  -4 -10 11663.9 1041.49   1 
   0  -4 -11 1656.20 875.848   1 
   0  -4 -12 373.760 941.777   1 
   0  -5 -11 5394.21 1223.71  -2 
   0   5 -14 5394.21 1223.71   1 
   0   5  10 266.516 701.901  -2 
   0  -5  13 266.516 701.901   1 
   0   5   9 10237.7 762.887  -2 
   0  -5  12 10237.7 762.887   1 
   0   5   8 29665.6 819.118  -2 
   0  -5  11 29665.6 819.118   1 
   0  -5  -7 18170.4 793.034  -2 
   0   5 -10 18170.4 793.034   1 
   0   5   6 7989.35 710.202  -2 
   0  -5   9 7989.35 710.202   1 
   0  -5  -5 30553.2 1021.12  -2 
   0   5  -8 30553.2 1021.12   1 
   0  -5  -4 17467.7 791.277  -2 
   0   5  -7 17467.7 791.277   1 
   0  -5  -3 13713.8 727.790  -2 
   0   5  -6 13713.8 727.790   1 
   0   5   2 70544.5 1019.10  -2 
   0  -5   5 70544.5 1019.10   1 
   0   5   1 330.621 582.817  -2 
   0  -5   4 330.621 582.817   1 
   0   5   0 35175.3 943.614  -2 
   0  -5   3 35175.3 943.614   1 
   0   5  -1 3413.71 696.186  -2 
   0  -5   2 3413.71 696.186   1 
   0   5  -2 3333.35 720.761  -2 
   0  -5   1 3333.35 720.761   1 
   0   5  -3 41257.3 974.449  -2 
   0  -5   0 41257.3 974.449   1 
   0   5  -4 442.030 846.044  -2 
   0  -5  -1 442.030 846.044   1 
   0   5  -5 57086.7 1695.48  -2 
   0  -5  -2 57086.7 1695.48   1 
   0   5  -6 14472.1 1560.83  -2 
   0  -5  -3 14472.1 1560.83   1 
   0   5  -7 16170.5 1628.99  -2 
   0  -5  -4 16170.5 1628.99   1 
   0   5  -8 13907.4 2288.26  -2 
   0  -5  -5 13907.4 2288.26   1 
   0   5  -9 6354.61 1261.84  -2 
   0  -5  -6 6354.61 1261.84   1 
   0   5 -10 20677.7 1428.38  -2 
   0  -5  -7 20677.7 1428.38   1 
   0   5 -11 35069.3 1526.56  -2 
   0  -5  -8 35069.3 1526.56   1 
   0   5 -12 7690.01 1313.18  -2 
   0  -5  -9 7690.01 1313.18   1 
   0   5 -13 1393.58 1257.90  -2 
   0  -5 -10 1393.58 1257.90   1 
   0  -6  12 2554.48 482.055   1 
   0  -6  11 10504.2 536.836   1 
   0   6 -10 37993.7 741.708   1 
   0  -6   9 2247.51 508.200   1 
   0  -6   8 1131.97 538.367   1 
   0  -6   7 23457.2 612.528   1 
   0  -6   6 24656.7 624.498   1 
   0  -6   5 188.333 530.900   1 
   0  -6   4 33.8116 519.803   1 
   0  -6   3 4188.43 630.778   1 
   0  -6   2 69.4882 590.429   1 
   0  -6   1 13644.7 714.107   1 
   0  -6   0 34752.5 871.018   1 
   0   6  -4 44484.3 2316.58  -2 
   0  -6   0 44484.3 2316.58   1 
   0  -6  -1 3577.32 1290.74   1 
   0   6  -5 4257.93 1877.92  -2 
   0  -6  -1 4257.93 1877.92   1 
   0  -6  -2 21702.6 1337.93   1 
   0  -6  -3 4893.23 1147.35   1 
   0  -6  -4 21082.4 1356.23   1 
   0  -6  -5 3256.25 1701.82   1 
   0  -6  -6 4225.18 1162.11   1 
   0  -6  -7 874.311 1163.63   1 
   0  -6  -8 463.233 1856.90   1 
   0  -7  11 137.833 658.256   1 
   0   7 -10 8004.66 565.934   1 
   0  -7   9 59368.3 871.739   1 
   0  -7   8 9902.49 673.923   1 
   0  -7   7 1648.85 541.838   1 
   0  -7  -3 2916.76 1633.45  -2 
   0   7  -7 2916.76 1633.45   1 
   0  -7   6 5041.48 586.381   1 
   0  -7  -2 7928.25 1692.52  -2 
   0   7  -6 7928.25 1692.52   1 
   0  -7   5 8798.03 808.097   1 
   0  -7  -1 37124.3 1299.35  -2 
   0   7  -5 37124.3 1299.35   1 
   0  -7   4 4728.01 927.010   1 
   0   7   0 4421.11 883.659  -2 
   0  -7   4 4421.11 883.659   1 
   0  -7   3 3639.20 606.539   1 
   0  -7   1 6285.33 1692.80  -2 
   0   7  -3 6285.33 1692.80   1 
   0  -7   2 3018.18 615.212   1 
   0  -7   2 4631.32 1665.35  -2 
   0   7  -2 4631.32 1665.35   1 
   0  -7   1 4934.84 654.100   1 
   0  -7   0 57.7328 807.417   1 
   0  -7  -1 35470.8 1402.61   1 
   0  -7  -2 3279.60 998.099   1 
   0  -7  -3 1805.41 967.020   1 
   0  -7  -4 10910.2 1086.85   1 
   0  -7  -5 3600.27 1291.66   1 
   0  -7  -6 623.326 1362.91   1 
   0   8   4 5982.52 686.540  -2 
   0  -8   9 5982.52 686.540   1 
   0   8   3 3766.18 720.229  -2 
   0  -8   8 3766.18 720.229   1 
   0   8   2 4114.24 771.865  -2 
   0  -8   7 4114.24 771.865   1 
   0   8   1 3790.77 624.440  -2 
   0  -8   6 3790.77 624.440   1 
   0   8   0 12740.9 695.974  -2 
   0  -8   5 12740.9 695.974   1 
   0   8  -1 31673.4 818.389  -2 
   0  -8   4 31673.4 818.389   1 
   0   8  -2 4266.33 698.086  -2 
   0  -8   3 4266.33 698.086   1 
   0   8  -3 5397.27 862.822  -2 
   0  -8   2 5397.27 862.822   1 
   0   8  -4 16934.2 966.922  -2 
   0  -8   1 16934.2 966.922   1 
   0   8  -5 9151.37 1063.84  -2 
   0  -8   0 9151.37 1063.84   1 
   0   8  -6 1858.22 1012.92  -2 
   0  -8  -1 1858.22 1012.92   1 
   0   8  -7 3084.06 1030.38  -2 
   0  -8  -2 3084.06 1030.38   1 
   0   8  -8 2437.70 1296.15  -2 
   0  -8  -3 2437.70 1296.15   1 
   1  -9   1 7599.07 682.407   1 
   1  -9   2 1272.50 590.172   1 
   1  -9   3 1409.51 965.615   1 
   1  -8  -3 874.712 843.699   1 
   1  -8  -2 60.7651 796.747   1 
   1  -8  -1 22774.3 1032.16   1 
   1  -8   0 23968.9 1061.99   1 
   1  -8   1 4022.02 834.163   1 
   1  -8   2 6335.94 575.906   1 
   1  -8   3 317.820 500.773   1 
   1  -8   4 2152.39 492.225   1 
   1  -8   5 38302.8 722.950   1 
   1  -8   6 3195.86 553.565   1 
   1  -8   7 113.290 513.237   1 
  -1   8  -8 6996.04 553.053   1 
   1  -8   9 1257.92 509.708   1 
  -1   7  -9 4781.41 1821.59  -2 
   1  -7  -5 4781.41 1821.59   1 
  -1   7  -8 1582.47 1236.62  -2 
   1  -7  -4 1582.47 1236.62   1 
  -1   7  -7 33328.7 1596.50  -2 
   1  -7  -3 33328.7 1596.50   1 
  -1   7  -6 31776.4 1530.38  -2 
   1  -7  -2 31776.4 1530.38   1 
  -1   7  -5 1028.35 1161.27  -2 
   1  -7  -1 1028.35 1161.27   1 
  -1   7  -4 190.204 777.012  -2 
   1  -7   0 190.204 777.012   1 
  -1   7  -3 11230.7 892.772  -2 
   1  -7   1 11230.7 892.772   1 
  -1   7  -2 10979.8 891.110  -2 
   1  -7   2 10979.8 891.110   1 
  -1   7  -1 7171.60 831.718  -2 
   1  -7   3 7171.60 831.718   1 
  -1   7   0 251.320 732.612  -2 
   1  -7   4 251.320 732.612   1 
  -1   7   1 781.556 682.701  -2 
   1  -7   5 781.556 682.701   1 
  -1   7   2 22249.0 958.270  -2 
   1  -7   6 22249.0 958.270   1 
  -1   7   3 24518.9 1132.46  -2 
   1  -7   7 24518.9 1132.46   1 
  -1   7   4 1895.68 809.263  -2 
   1  -7   8 1895.68 809.263   1 
   1  -7  -5 12449.3 922.630  -2 
  -1   7  -9 12449.3 922.630   1 
  -1   7   6 25754.9 985.955  -2 
   1  -7  10 25754.9 985.955   1 
  -1   7   7 824.599 952.465  -2 
   1  -7  11 824.599 952.465   1 
   1  -6  -6 7159.37 1667.81   1 
   1  -6  -5 5926.63 1130.22   1 
   1  -6  -4 2532.80 1064.66   1 
   1  -6  -3 10462.5 986.182   1 
   1  -6  -2 1022.97 885.599   1 
   1  -6  -1 4910.96 629.609   1 
   1  -6   0 1173.19 579.052   1 
   1  -6   1 5108.14 612.381   1 
   1  -6   2 55043.7 994.293   1 
   1  -6   3 35712.5 877.793   1 
   1  -6   4 14865.9 715.373   1 
   1  -6   5 43602.5 843.336   1 
   1  -6   6 29249.7 749.670   1 
  -1   6  -7 6184.98 718.143   1 
   1  -6   8 2350.82 691.176   1 
  -1   6  -9 1487.43 526.434   1 
  -1   6 -10 4231.55 523.919   1 
   1  -6  11 18475.8 897.322   1 
  -1   6 -12 1201.21 558.673   1 
  -1   6 -13 1312.60 902.405   1 
   1  -5  -7 13109.4 2180.61   1 
   1  -5  -6 16862.8 1486.17   1 
   1  -5  -5 5528.01 1195.59   1 
   1  -5  -4 2898.35 1488.67   1 
  -1   5  -7 2350.31 2196.42  -2 
   1  -5  -4 2350.31 2196.42   1 
   1  -5  -3 5840.65 1520.87   1 
  -1   5  -6 10177.6 2180.90  -2 
   1  -5  -3 10177.6 2180.90   1 
   1  -5  -2-211.787 1385.59   1 
  -1   5  -5 8434.68 1169.68  -2 
   1  -5  -2 8434.68 1169.68   1 
   1  -5  -1 6486.62 729.130   1 
  -1   5  -4 17474.2 1093.60  -2 
   1  -5  -1 17474.2 1093.60   1 
  -1   5  -3 89703.9 1031.73  -2 
   1  -5   0 89703.9 1031.73   1 
  -1   5  -2 267.730 685.843  -2 
   1  -5   1 267.730 685.843   1 
   1  -5   2 403.669 1442.47   1 
  -1   5  -1 251.802 723.930  -2 
   1  -5   2 251.802 723.930   1 
   1  -5   3 174233. 1982.33   1 
  -1   5   0 152693. 1266.65  -2 
   1  -5   3 152693. 1266.65   1 
   1  -5   4 27015.4 850.836   1 
   1  -5  -1 30982.6 1017.53  -2 
  -1   5  -4 30982.6 1017.53   1 
   1  -5   5 11254.2 824.173   1 
  -1   5   2 10480.0 913.548  -2 
   1  -5   5 10480.0 913.548   1 
   1  -5   6 10861.9 671.184   1 
  -1   5   3 15507.1 1172.21  -2 
   1  -5   6 15507.1 1172.21   1 
   1  -5   7 2417.19 526.463   1 
   1  -5  -4 3425.71 1735.60  -2 
  -1   5  -7 3425.71 1735.60   1 
  -1   5  -8 23457.3 570.183   1 
  -1   5  -9 34627.5 608.927   1 
   1  -5  10 97.3741 450.944   1 
   1  -5  11 211.769 484.258   1 
  -1   5 -12 2283.01 517.648   1 
  -1   5 -13 2367.92 701.815   1 
  -1   5 -14 1556.46 1617.49   1 
   1  -4 -12 4830.18 1016.36   1 
   1  -4 -11 15671.9 1189.66   1 
   1  -4 -10 4463.50 986.894   1 
   1  -4  -9 3510.22 874.208   1 
   1  -4  -8 11.9859 877.137   1 
   1  -4  -7 137.911 849.965   1 
   1  -4  -6 1662.85 837.499   1 
   1  -4  -5 126.529 744.577   1 
   1  -4  -4 10187.2 833.684   1 
   1  -4  -3 1243.30 1325.29   1 
  -1   4  -5 1011.66 1929.06  -2 
   1  -4  -3 1011.66 1929.06   1 
   1  -4  -2 136.463 570.826   1 
  -1   4  -3 10206.9 645.455  -2 
   1  -4  -1 10206.9 645.455   1 
   1  -4   0 2628.13 374.111   1 
  -1   4  -2 5647.22 594.227  -2 
   1  -4   0 5647.22 594.227   1 
   1  -4   1 32112.0 658.196   1 
  -1   4  -1 39352.8 650.758  -2 
   1  -4   1 39352.8 650.758   1 
   1  -4   2 6960.60 579.447   1 
  -1   4   0 6870.51 718.109  -2 
   1  -4   2 6870.51 718.109   1 
   1  -4   3 1176.04 506.212   1 
  -1   4   1 7893.76 868.938  -2 
   1  -4   3 7893.76 868.938   1 
   1  -4   4 12176.0 657.394   1 
  -1   4   2 9525.12 800.049  -2 
   1  -4   4 9525.12 800.049   1 
  -1   4  -5 1507.39 453.760   1 
  -1   4   3 2057.83 767.054  -2 
   1  -4   5 2057.83 767.054   1 
   1  -4   6 1851.64 355.773   1 
   1  -4   7 20440.8 489.462   1 
   1  -4   8 6847.58 451.241   1 
  -1   4  -9 18718.3 531.863   1 
  -1   4 -10 17640.8 534.541   1 
  -1   4 -11 8968.33 509.807   1 
  -1   4 -12 20879.6 573.318   1 
  -1   4 -13 7250.23 600.333   1 
  -1   4 -14 8514.39 607.097   1 
   1  -3 -13 1825.25 917.019   1 
   1  -3 -12 7947.75 1128.27   1 
   1  -3 -11 2422.93 844.581   1 
   1  -3 -10 1240.90 878.798   1 
   1  -3  -9 2657.20 877.531   1 
   1  -3  -8 73.1868 868.073   1 
   1  -3  -7 3389.32 839.854   1 
   1  -3  -6 40651.3 1060.90   1 
   1  -3  -5 170.847 645.576   1 
   1  -3  -2 1857.49 548.025   1 
   1  -3  -1 37555.8 262.376   1 
   1  -3   0 65214.5 459.460   1 
  -1   3  -1 4873.89 313.950   1 
   1  -3   2 2219.88 364.400   1 
   1  -3   3 17062.2 616.043   1 
   1  -3   4 9915.90 614.434   1 
   1  -3   5 72997.8 887.052   1 
  -1   3  -6 21208.0 479.821   1 
  -1   3  -7 142808. 868.616   1 
   1  -3   8 41420.0 635.932   1 
  -1   3  -9 127.486 457.233   1 
  -1   3 -10 182.568 504.370   1 
  -1   3 -11 338.234 450.641   1 
  -1   3 -12 1608.76 540.344   1 
  -1   3 -13 136.147 481.957   1 
   1  -3  14 8374.03 635.762   1 
  -1   3 -15 431.580 501.758   1 
  -1   2 -15 5046.71 1206.28  -2 
   1  -2 -14 5046.71 1206.28   1 
  -1   2 -14 2507.66 1232.46  -2 
   1  -2 -13 2507.66 1232.46   1 
  -1   2 -13 1405.11 1052.39  -2 
   1  -2 -12 1405.11 1052.39   1 
  -1   2 -12 21268.3 1361.46  -2 
   1  -2 -11 21268.3 1361.46   1 
  -1   2 -11 40016.6 1365.85  -2 
   1  -2 -10 40016.6 1365.85   1 
  -1   2 -10 5142.74 956.703  -2 
   1  -2  -9 5142.74 956.703   1 
  -1   2  -9 36331.9 1018.86  -2 
   1  -2  -8 36331.9 1018.86   1 
  -1   2  -8 45845.1 1007.94  -2 
   1  -2  -7 45845.1 1007.94   1 
  -1   2  -7 18680.8 814.908  -2 
   1  -2  -6 18680.8 814.908   1 
   1  -2   5 48977.9 812.115  -2 
  -1   2   4 48977.9 812.115   1 
   1  -2   4 14334.3 568.799  -2 
  -1   2   3 14334.3 568.799   1 
  -1   2  -3 147498. 1298.27  -2 
   1  -2  -2 147498. 1298.27   1 
  -1   2  -2 87855.0 435.077  -2 
   1  -2  -1 87855.0 435.077   1 
   1  -2   1 48128.8 537.875  -2 
  -1   2   0 48128.8 537.875   1 
  -1   2   0 53595.6 623.880  -2 
   1  -2   1 53595.6 623.880   1 
   1  -2  -1 97234.8 982.931  -2 
  -1   2  -2 97234.8 982.931   1 
  -1   2   2 162929. 1762.46  -2 
   1  -2   3 162929. 1762.46   1 
  -1   2   3 31146.5 938.566  -2 
   1  -2   4 31146.5 938.566   1 
  -1   2   4 116647. 1755.57  -2 
   1  -2   5 116647. 1755.57   1 
  -1   2   5 51770.9 892.731  -2 
   1  -2   6 51770.9 892.731   1 
   1  -2  -6 20590.1 653.001  -2 
  -1   2  -7 20590.1 653.001   1 
   1  -2  -7 69322.5 924.069  -2 
  -1   2  -8 69322.5 924.069   1 
   1  -2  -8 52579.9 991.040  -2 
  -1   2  -9 52579.9 991.040   1 
   1  -2  -9 9834.47 703.561  -2 
  -1   2 -10 9834.47 703.561   1 
   1  -2 -10 38874.4 1099.73  -2 
  -1   2 -11 38874.4 1099.73   1 
   1  -2 -11 21480.5 948.258  -2 
  -1   2 -12 21480.5 948.258   1 
   1  -2 -12 2166.30 740.682  -2 
  -1   2 -13 2166.30 740.682   1 
   1  -2 -13 2888.85 790.371  -2 
  -1   2 -14 2888.85 790.371   1 
   1  -2 -14 8536.55 735.171  -2 
  -1   2 -15 8536.55 735.171   1 
   1  -1 -15 6449.06 890.438   1 
   1  -1 -14 800.496 881.954   1 
   1  -1 -13 2757.53 560.026   1 
   1  -1 -12 201.077 571.363   1 
   1  -1 -11 18061.2 714.366   1 
   1  -1 -10 35676.2 813.438   1 
   1  -1  -9 70684.5 956.211   1 
   1  -1  -8 20515.1 557.574   1 
   1  -1  -7 1076.37 461.824   1 
   1  -1  -6 7858.05 433.892   1 
   1  -1  -5 15201.0 281.210   1 
   1  -1  -4 26775.1 364.470   1 
  -1   1   3 1104.83 130.287   1 
  -1   1   2 72648.8 320.179   1 
  -1   1   1 4087.05 93.0281   1 
  -1   1   0 21178.6 201.320   1 
  -1   1  -1 189902. 684.687   1 
  -1   1  -2 10554.0 245.267   1 
   1  -1   3 35148.6 436.581   1 
  -1   1  -4 1234.89 325.966   1 
   1  -1   5 4228.05 440.316   1 
   1  -1   6 49241.1 1225.39   1 
   1  -1   7 1890.77 339.524   1 
   1  -1   8 3336.77 363.421   1 
  -1   1  -9 2171.28 400.726   1 
  -1   1 -10 29892.2 772.227   1 
  -1   1 -11 618.410 548.667   1 
  -1   1 -12 5641.87 679.800   1 
  -1   1 -13 44463.2 1024.24   1 
  -1   1 -14 53.9703 515.312   1 
   1  -1  15 618.856 648.662   1 
   1   0 -15 244.593 863.897   1 
   1   0 -14 1094.87 551.853   1 
   1   0 -13 1357.28 592.103   1 
   1   0 -12 20124.9 713.782   1 
   1   0 -11 47444.9 769.663   1 
   1   0 -10 172.221 482.242   1 
   1   0  -9 5572.55 513.989   1 
   1   0  -8 34643.8 583.020   1 
   1   0  -7 164.339 350.772   1 
  -1   0   6 650.474 415.985   1 
  -1   0   5 163295. 1215.51   1 
  -1   0   4 161759. 1084.30   1 
   1   0  -3 2284.36 220.634   1 
  -1   0   2 74593.2 385.948   1 
  -1   0   1 5875.55 132.977   1 
  -1   0   0 146073. 584.524   1 
  -1   0  -1 138604. 550.722   1 
   1   0   2 3824.49 170.034   1 
  -1   0  -3 53380.2 421.816   1 
   1   0   4 13480.1 294.052   1 
  -1   0  -5 1579.33 266.112   1 
  -1   0  -6 3558.46 384.679   1 
  -1   0  -7 14907.2 416.861   1 
  -1   0  -8 1857.30 376.542   1 
  -1   0  -9 5816.04 504.158   1 
  -1   0 -10 27734.8 818.729   1 
  -1   0 -11 36536.3 906.673   1 
  -1   0 -12 153.866 599.215   1 
  -1   0 -13 9857.12 748.463   1 
  -1   0 -14 2647.90 602.585   1 
  -1   0 -15 1866.24 768.173   1 
   1   1 -15 997.507 483.216   1 
   1   1 -14 3845.29 567.598   1 
   1   1 -13 1086.49 600.824   1 
   1   1 -12 924.332 471.903   1 
   1   1 -11 1800.97 480.248   1 
   1   1 -10 3824.15 476.855   1 
   1   1  -9 4410.84 451.715   1 
   1   1  -8 21277.6 526.021   1 
   1   1  -7 128527. 761.913   1 
   1   1  -6 35611.2 639.845   1 
   1   1  -5 475.105 333.379   1 
  -1  -1   4 40038.5 514.088   1 
  -1  -1   3 165895. 791.880   1 
   1   1  -2 1149.42 167.426   1 
   1   1  -1 18513.3 208.112   1 
  -1  -1   0 554.411 144.532   1 
  -1  -1  -1 3040.00 148.293   1 
  -1  -1  -2 40824.7 353.868   1 
   1   1   3 81606.2 619.552   1 
  -1  -1  -4 11774.5 296.298   1 
  -1  -1  -5 30124.9 559.471   1 
  -1  -1  -6 3329.28 307.077   1 
  -1  -1  -7 49070.2 614.955   1 
  -1  -1  -8 2075.09 483.922   1 
  -1  -1  -9 10747.9 598.829   1 
  -1  -1 -10 216.930 676.482   1 
  -1  -1 -11 384.752 682.349   1 
  -1  -1 -12 25642.0 1103.00   1 
  -1  -1 -13 1796.60 659.594   1 
  -1  -1 -14 5212.07 632.608   1 
   1   2 -15 2074.88 450.968   1 
   1   2 -14 2666.12 549.200   1 
   1   2 -13 2551.04 523.931   1 
  -1  -2  12 1155.23 495.973   1 
   1   2 -11 4592.37 488.994   1 
   1   2 -10 11280.6 540.003   1 
  -1  -2   9 9.57726 402.635   1 
   1   2  -8 1027.67 374.862   1 
  -1  -2   7 8658.81 394.471   1 
  -1  -2   6 227295. 1145.16   1 
  -1  -2   5 59339.0 971.272   1 
  -1  -2   4 53137.6 636.348   1 
  -1  -2   3 132464. 741.486   1 
  -1  -2   2 5396.10 364.772   1 
  -1  -2   1 89662.2 671.634   1 
  -1  -2   0 40234.3 446.679   1 
   1   2   1 20110.3 256.978   1 
  -1  -2  -2 171673. 695.038   1 
   1   2   3 1606.09 243.594   1 
  -1  -2  -4 14355.5 419.015   1 
  -1  -2  -5 17108.6 430.661   1 
  -1  -2  -6 504.141 578.797   1 
  -1  -2  -7 15219.9 731.298   1 
  -1  -2  -8 4876.89 664.672   1 
  -1  -2  -9 1742.30 834.826   1 
  -1  -2 -10 3376.64 884.377   1 
  -1  -2 -11 221.602 866.639   1 
  -1  -2 -12 282.993 846.671   1 
  -1  -2 -13 2636.38 856.170   1 
  -1  -2 -14 8225.76 813.589   1 
   1   3 -15-25.2398 1637.63   1 
  -1  -3 -13 4141.90 713.144  -2 
   1   3 -15 4141.90 713.144   1 
   1   3 -14-218.496 1737.61   1 
  -1  -3 -12 1350.47 660.393  -2 
   1   3 -14 1350.47 660.393   1 
  -1  -3 -11 7834.07 686.421  -2 
   1   3 -13 7834.07 686.421   1 
  -1  -3 -10 4824.58 715.201  -2 
   1   3 -12 4824.58 715.201   1 
  -1  -3  -9 10399.3 806.412  -2 
   1   3 -11 10399.3 806.412   1 
  -1  -3  -8 11130.3 761.129  -2 
   1   3 -10 11130.3 761.129   1 
  -1  -3  -7 8791.32 757.488  -2 
   1   3  -9 8791.32 757.488   1 
   1   3   6 31838.3 766.591  -2 
  -1  -3   8 31838.3 766.591   1 
   1   3   5 11836.3 692.125  -2 
  -1  -3   7 11836.3 692.125   1 
   1   3   4 22995.9 715.917  -2 
  -1  -3   6 22995.9 715.917   1 
   1   3   3 4486.17 538.262  -2 
  -1  -3   5 4486.17 538.262   1 
   1   3   2 3110.93 488.564  -2 
  -1  -3   4 3110.93 488.564   1 
   1   3   1 64010.0 1379.81  -2 
  -1  -3   3 64010.0 1379.81   1 
   1   3   0 71437.8 1359.03  -2 
  -1  -3   2 71437.8 1359.03   1 
   1   3  -1 37314.5 983.096  -2 
  -1  -3   1 37314.5 983.096   1 
   1   3  -2 91428.1 1233.57  -2 
  -1  -3   0 91428.1 1233.57   1 
   1   3  -3 66057.7 1019.08  -2 
  -1  -3  -1 66057.7 1019.08   1 
   1   3  -4 2838.72 467.643  -2 
  -1  -3  -2 2838.72 467.643   1 
   1   3  -5 4470.91 592.177  -2 
  -1  -3  -3 4470.91 592.177   1 
   1   3  -6 17589.7 851.014  -2 
  -1  -3  -4 17589.7 851.014   1 
   1   3  -7 8206.68 842.871  -2 
  -1  -3  -5 8206.68 842.871   1 
   1   3  -8 15971.0 995.870  -2 
  -1  -3  -6 15971.0 995.870   1 
   1   3  -9 3645.63 1051.50  -2 
  -1  -3  -7 3645.63 1051.50   1 
   1   3 -10 4850.18 1147.41  -2 
  -1  -3  -8 4850.18 1147.41   1 
   1   3 -11 5745.66 1277.95  -2 
  -1  -3  -9 5745.66 1277.95   1 
   1   3 -12 2446.88 1205.62  -2 
  -1  -3 -10 2446.88 1205.62   1 
   1   3 -13 6439.44 1256.69  -2 
  -1  -3 -11 6439.44 1256.69   1 
   1   3 -14 2539.76 1082.17  -2 
  -1  -3 -12 2539.76 1082.17   1 
   1   3 -15 8229.91 1052.54  -2 
  -1  -3 -13 8229.91 1052.54   1 
   1   4 -14 477.406 411.997   1 
  -1  -4  13 9139.47 498.363   1 
   1   4 -12 1620.98 471.019   1 
   1   4 -11-6.91833 497.449   1 
  -1  -4  10 703.375 512.715   1 
   1   4  -9 6818.75 551.955   1 
  -1  -4   8 961.912 493.331   1 
   1   4  -7 37200.9 760.981   1 
  -1  -4   6 629.618 475.091   1 
  -1  -4   5 4598.11 417.425   1 
  -1  -4   4 940.455 423.965   1 
  -1  -4   3 304.743 409.535   1 
  -1  -4   2 295793. 1065.03   1 
  -1  -4   1 72334.4 593.623   1 
  -1  -4   0 6989.89 437.993   1 
  -1  -4  -1 11383.8 565.897   1 
  -1  -4  -2 339.478 468.033   1 
  -1  -4  -3 2720.72 553.160   1 
  -1  -4  -4 10228.1 646.366   1 
  -1  -4  -5 20257.7 969.467   1 
  -1  -4  -6 2807.41 852.581   1 
  -1  -4  -7 2812.23 905.776   1 
  -1  -4  -8 36373.5 1279.69   1 
  -1  -4  -9 6213.31 952.350   1 
  -1  -4 -10 2810.23 861.046   1 
  -1  -4 -11 124.646 822.001   1 
   1   5 -13 1506.77 435.688   1 
   1   5 -12 1300.51 434.724   1 
   1   5 -11 866.722 469.781   1 
   1   5 -10 10805.2 543.653   1 
  -1  -5   9 16800.1 650.752   1 
   1   5  -8 8071.83 604.107   1 
  -1  -5   7 7122.07 574.642   1 
   1   5  -6 80.6454 540.805   1 
  -1  -5   5 17792.7 775.495   1 
  -1  -5  -2 24068.1 1598.34  -2 
   1   5  -5 24068.1 1598.34   1 
  -1  -5   4 34218.2 794.046   1 
  -1  -5   3 21797.8 770.395   1 
   1   5   0 64907.5 2249.53  -2 
  -1  -5   3 64907.5 2249.53   1 
  -1  -5   2 28467.9 977.862   1 
   1   5  -1 52485.5 2109.54  -2 
  -1  -5   2 52485.5 2109.54   1 
  -1  -5   1 20202.5 828.917   1 
   1   5  -2 46950.0 1256.35  -2 
  -1  -5   1 46950.0 1256.35   1 
  -1  -5   0 30462.9 1525.48   1 
   1   5  -3 67703.4 1346.26  -2 
  -1  -5   0 67703.4 1346.26   1 
  -1  -5  -1 997.602 1245.90   1 
   1   5  -4 21820.1 1148.91  -2 
  -1  -5  -1 21820.1 1148.91   1 
  -1  -5  -2 1810.79 924.815   1 
   1   5  -5 13614.8 1498.09  -2 
  -1  -5  -2 13614.8 1498.09   1 
  -1  -5  -3 39506.3 1108.02   1 
  -1  -5  -4 880.838 1147.57   1 
  -1  -5  -5 455.376 1495.84   1 
  -1  -5  -6 10209.6 1782.79   1 
  -1  -5  -7 499.418 1608.84   1 
  -1  -5  -8 109.399 1585.19   1 
  -1  -5  -9 6830.71 1675.26   1 
  -1  -5 -10 920.731 1598.39   1 
  -1  -6  -8 1617.59 579.854  -2 
   1   6 -12 1617.59 579.854   1 
   1   6   7 15933.4 717.686  -2 
  -1  -6  11 15933.4 717.686   1 
  -1  -6  10-67.6706 1094.62   1 
   1   6   6 741.859 680.516  -2 
  -1  -6  10 741.859 680.516   1 
  -1  -6  -5 6969.33 688.328  -2 
   1   6  -9 6969.33 688.328   1 
  -1  -6  -4 55273.3 1003.16  -2 
   1   6  -8 55273.3 1003.16   1 
   1   6   3 5768.95 696.490  -2 
  -1  -6   7 5768.95 696.490   1 
   1   6   2 3455.11 629.496  -2 
  -1  -6   6 3455.11 629.496   1 
   1   6   1 16332.0 832.396  -2 
  -1  -6   5 16332.0 832.396   1 
   1   6   0 8240.06 776.605  -2 
  -1  -6   4 8240.06 776.605   1 
   1   6  -1 6077.35 871.698  -2 
  -1  -6   3 6077.35 871.698   1 
   1   6  -2 4558.72 792.164  -2 
  -1  -6   2 4558.72 792.164   1 
   1   6  -3 4036.01 1212.62  -2 
  -1  -6   1 4036.01 1212.62   1 
   1   6  -4 14037.8 1122.50  -2 
  -1  -6   0 14037.8 1122.50   1 
   1   6  -5 14699.6 1149.63  -2 
  -1  -6  -1 14699.6 1149.63   1 
   1   6  -6 4242.37 1278.56  -2 
  -1  -6  -2 4242.37 1278.56   1 
   1   6  -7 6924.03 1532.68  -2 
  -1  -6  -3 6924.03 1532.68   1 
   1   6  -8 53038.1 1889.62  -2 
  -1  -6  -4 53038.1 1889.62   1 
   1   6  -9 8288.60 1998.89  -2 
  -1  -6  -5 8288.60 1998.89   1 
  -1  -6  -6 1201.39 1520.30   1 
  -1  -6  -7 2773.65 1055.80   1 
  -1  -6  -8 469.927 1472.63   1 
  -1  -7  11 535.875 635.981   1 
  -1  -7  10 4495.13 509.461   1 
   1   7  -9 177.679 500.091   1 
   1   7  -8-25.9668 545.887   1 
   1   7  -7 2089.17 547.322   1 
  -1  -7   6 5722.44 533.372   1 
  -1  -7   5 2689.96 520.882   1 
  -1  -7   4 13649.1 600.391   1 
  -1  -7   3 17888.7 723.237   1 
  -1  -7   1 21586.1 1653.09  -2 
   1   7  -3 21586.1 1653.09   1 
  -1  -7   2 13651.1 731.789   1 
  -1  -7   1 2614.81 803.019   1 
  -1  -7   0 4009.48 851.295   1 
  -1  -7  -1 6253.21 890.571   1 
  -1  -7  -2 30064.6 1278.87   1 
  -1  -7  -3 692.938 937.019   1 
  -1  -7  -4 346.480 1230.73   1 
  -1  -7  -5 271.815 1160.33   1 
   1   8   3 1837.69 1068.82  -2 
  -1  -8   8 1837.69 1068.82   1 
   1   8   2 345.426 747.128  -2 
  -1  -8   7 345.426 747.128   1 
   1   8   1 11083.5 700.341  -2 
  -1  -8   6 11083.5 700.341   1 
  -1  -8   0 2117.23 600.284  -2 
   1   8  -5 2117.23 600.284   1 
  -1  -8   1 517.422 670.555  -2 
   1   8  -4 517.422 670.555   1 
   1   8  -2 2801.31 709.536  -2 
  -1  -8   3 2801.31 709.536   1 
   1   8  -3 3324.99 724.195  -2 
  -1  -8   2 3324.99 724.195   1 
   1   8  -4 708.265 725.047  -2 
  -1  -8   1 708.265 725.047   1 
  -1  -8   5 2131.91 818.562  -2 
   1   8   0 2131.91 818.562   1 
   1   8  -6 10432.3 1064.09  -2 
  -1  -8  -1 10432.3 1064.09   1 
   1   8  -7 369.662 1210.66  -2 
  -1  -8  -2 369.662 1210.66   1 
  -2   9  -4 858.696 1276.30  -2 
   2  -9   1 858.696 1276.30   1 
  -2   9  -3 6334.46 1340.47  -2 
   2  -9   2 6334.46 1340.47   1 
  -2   9  -2 5647.62 1295.51  -2 
   2  -9   3 5647.62 1295.51   1 
   2  -9   1 1336.87 1739.89  -2 
  -2   9  -4 1336.87 1739.89   1 
   2  -9   0 5822.83 1759.24  -2 
  -2   9  -5 5822.83 1759.24   1 
   2  -8  -3 22937.7 1010.08   1 
   2  -8  -2 543.159 774.400   1 
   2  -8  -1 1095.20 784.488   1 
   2  -8   0 37211.4 1020.50   1 
   2  -8   1 29577.9 1109.02   1 
   2  -8   2 1939.87 516.631   1 
   2  -8   3 9258.32 568.628   1 
   2  -8   4 224.472 479.278   1 
   2  -8   5 15768.8 682.205   1 
   2  -8   6 4175.84 528.105   1 
   2  -8   7 846.266 545.263   1 
   2  -8   8 3154.72 642.641   1 
  -2   8  -9 63.4726 500.547   1 
   2  -7  -4 9598.69 1017.42   1 
   2  -7  -3 2718.71 963.760   1 
   2  -7  -2 30679.6 1055.84   1 
   2  -7  -1 141.364 951.504   1 
   2  -7   0 6886.66 1546.00   1 
  -2   7  -4 8095.20 1566.71  -2 
   2  -7   0 8095.20 1566.71   1 
   2  -7   1 27251.6 1301.26   1 
  -2   7  -3 34498.2 1251.75  -2 
   2  -7   1 34498.2 1251.75   1 
   2  -7   2 21512.7 1649.45   1 
  -2   7  -2 32287.5 1074.30  -2 
   2  -7   2 32287.5 1074.30   1 
   2  -7   3 10218.0 1481.49   1 
  -2   7  -1 24465.1 1008.81  -2 
   2  -7   3 24465.1 1008.81   1 
   2  -7   4 1517.74 1493.80   1 
  -2   7   0 6749.33 823.812  -2 
   2  -7   4 6749.33 823.812   1 
   2  -7   5 6163.05 1603.62   1 
  -2   7   1 6756.11 814.894  -2 
   2  -7   5 6756.11 814.894   1 
   2  -7   6 4492.43 1529.66   1 
  -2   7   2 26361.6 1165.35  -2 
   2  -7   6 26361.6 1165.35   1 
  -2   7  -7 4493.86 1051.06   1 
  -2   7   3 6003.31 1229.50  -2 
   2  -7   7 6003.31 1229.50   1 
   2  -7   8 36427.7 926.119   1 
   2  -7   9 1254.76 596.382   1 
  -2   7 -10 16209.8 847.406   1 
  -2   7 -11 973.454 590.411   1 
   2  -6  -5 4686.99 1433.67   1 
   2  -6  -4 802.792 1036.02   1 
  -2   6  -7 4770.14 2097.97  -2 
   2  -6  -4 4770.14 2097.97   1 
   2  -6  -3 13487.4 1679.60   1 
  -2   6  -6 15499.0 1458.15  -2 
   2  -6  -3 15499.0 1458.15   1 
  -2   6  -5 17140.2 1343.62  -2 
   2  -6  -2 17140.2 1343.62   1 
  -2   6  -4 70354.8 1325.71  -2 
   2  -6  -1 70354.8 1325.71   1 
  -2   6  -3 24934.1 918.072  -2 
   2  -6   0 24934.1 918.072   1 
  -2   6  -2 17636.2 849.470  -2 
   2  -6   1 17636.2 849.470   1 
  -2   6  -1 19809.8 879.745  -2 
   2  -6   2 19809.8 879.745   1 
  -2   6   0 21091.6 864.533  -2 
   2  -6   3 21091.6 864.533   1 
  -2   6   1 54898.5 1068.43  -2 
   2  -6   4 54898.5 1068.43   1 
  -2   6   2 34947.3 969.094  -2 
   2  -6   5 34947.3 969.094   1 
   2  -6   6 12562.4 1042.68   1 
  -2   6   3 20726.2 1163.25  -2 
   2  -6   6 20726.2 1163.25   1 
   2  -6   7 12308.3 1500.70   1 
  -2   6   4 9590.25 1448.72  -2 
   2  -6   7 9590.25 1448.72   1 
  -2   6  -8 98.5929 677.904   1 
   2  -6   9 3236.66 711.509   1 
  -2   6 -10 2865.65 845.890   1 
  -2   6 -11 8292.25 714.401   1 
  -2   6 -12-12.4012 908.610   1 
  -2   6 -13 1974.62 899.423   1 
   2  -5  -6 2569.71 1538.54   1 
   2  -5  -5 16081.9 1058.31   1 
   2  -5  -4 1850.46 817.420   1 
   2  -5  -3 32541.9 1301.06   1 
   2  -5  -2 5914.43 629.590   1 
   2  -5  -1 5390.55 613.023   1 
   2  -5   0 1496.63 511.649   1 
   2  -5   1 3712.45 538.699   1 
   2  -5   2 13470.3 634.377   1 
   2  -5   3 29212.9 566.532   1 
   2  -5   4 64297.2 737.510   1 
   2  -5   5 26483.4 600.745   1 
   2  -5   6 1165.66 484.428   1 
  -2   5  -7 894.243 519.627   1 
   2  -5   8 5365.74 537.226   1 
  -2   5  -9 4140.89 527.532   1 
  -2   5 -10 919.632 599.139   1 
   2  -5  11 289.724 579.435   1 
  -2   5 -12 11859.5 685.869   1 
  -2   5 -13 3851.29 628.334   1 
  -2   4 -14 831.183 1379.09  -2 
   2  -4 -12 831.183 1379.09   1 
  -2   4 -13 11956.8 1181.81  -2 
   2  -4 -11 11956.8 1181.81   1 
  -2   4 -12 4565.30 1208.52  -2 
   2  -4 -10 4565.30 1208.52   1 
  -2   4 -11 1047.47 1251.17  -2 
   2  -4  -9 1047.47 1251.17   1 
  -2   4 -10 9340.45 1392.40  -2 
   2  -4  -8 9340.45 1392.40   1 
  -2   4  -9 26923.0 1234.95  -2 
   2  -4  -7 26923.0 1234.95   1 
  -2   4  -8 7955.92 1095.02  -2 
   2  -4  -6 7955.92 1095.02   1 
  -2   4  -7 21660.3 1181.99  -2 
   2  -4  -5 21660.3 1181.99   1 
  -2   4  -6 20484.0 1174.37  -2 
   2  -4  -4 20484.0 1174.37   1 
  -2   4  -5 34700.2 1046.02  -2 
   2  -4  -3 34700.2 1046.02   1 
  -2   4  -4 79907.0 946.442  -2 
   2  -4  -2 79907.0 946.442   1 
  -2   4  -3 55854.0 847.263  -2 
   2  -4  -1 55854.0 847.263   1 
  -2   4  -2 40281.0 578.424  -2 
   2  -4   0 40281.0 578.424   1 
  -2   4  -1 34072.8 588.243  -2 
   2  -4   1 34072.8 588.243   1 
  -2   4   0 37492.6 654.080  -2 
   2  -4   2 37492.6 654.080   1 
  -2   4   1 42824.8 736.530  -2 
   2  -4   3 42824.8 736.530   1 
  -2   4   2 80838.7 951.613  -2 
   2  -4   4 80838.7 951.613   1 
  -2   4   3 46302.7 834.769  -2 
   2  -4   5 46302.7 834.769   1 
  -2   4   4 43683.3 902.713  -2 
   2  -4   6 43683.3 902.713   1 
   2  -4  -5 47255.3 912.552  -2 
  -2   4  -7 47255.3 912.552   1 
   2  -4  -6 13070.9 704.021  -2 
  -2   4  -8 13070.9 704.021   1 
   2  -4  -7 35101.3 943.449  -2 
  -2   4  -9 35101.3 943.449   1 
   2  -4  -8 15409.5 1091.52  -2 
  -2   4 -10 15409.5 1091.52   1 
  -2   4   9 733.627 792.122  -2 
   2  -4  11 733.627 792.122   1 
   2  -4 -10 3466.11 783.037  -2 
  -2   4 -12 3466.11 783.037   1 
   2  -4 -11 6922.76 755.167  -2 
  -2   4 -13 6922.76 755.167   1 
   2  -4 -12 1501.54 667.124  -2 
  -2   4 -14 1501.54 667.124   1 
   2  -3 -13 297.642 989.347   1 
   2  -3 -12 88.0267 827.241   1 
   2  -3 -11 14601.1 1047.20   1 
   2  -3 -10 6959.18 1026.16   1 
   2  -3  -9 842.534 784.026   1 
   2  -3  -8 112.583 763.507   1 
   2  -3  -7 339.006 717.002   1 
   2  -3  -6 5361.51 741.804   1 
   2  -3  -5 14756.1 653.447   1 
   2  -3  -4 82754.8 903.041   1 
   2  -3  -3 734.262 481.225   1 
  -2   3   2 20643.9 305.344   1 
   2  -3  -1 14228.1 446.788   1 
   2  -3   0 19543.6 333.092   1 
   2  -3   1 3990.59 363.260   1 
   2  -3   2 32708.5 833.736   1 
   2  -3   3 167050. 1904.86   1 
   2  -3   4 193.569 354.821   1 
   2  -3   5 44952.0 542.244   1 
  -2   3  -6 34641.4 488.564   1 
  -2   3  -7 1786.84 365.669   1 
   2  -3   8 44112.4 730.898   1 
   2  -3   9 9379.23 549.581   1 
  -2   3 -10 9708.51 587.993   1 
  -2   3 -11 20070.9 753.254   1 
  -2   3 -12 2441.04 613.874   1 
  -2   3 -13 717.611 559.715   1 
  -2   3 -14 231.651 573.455   1 
   2  -3  15 166.618 628.292   1 
   2  -2 -14 2539.77 938.371   1 
   2  -2 -13 2603.43 762.832   1 
   2  -2 -12 6959.04 931.496   1 
   2  -2 -11 383.106 903.626   1 
   2  -2 -10 6735.01 726.537   1 
   2  -2  -9 23200.9 718.372   1 
   2  -2  -8 2794.11 559.406   1 
   2  -2  -7 12268.6 610.867   1 
   2  -2  -6 7949.17 665.131   1 
   2  -2  -5 7174.15 674.223   1 
   2  -2  -4 3972.74 285.960   1 
  -2   2   3 12521.9 255.393   1 
  -2   2   2 8771.77 231.983   1 
  -2   2   1 52356.1 430.758   1 
   2  -2   0 101098. 668.607   1 
   2  -2   1 77156.8 889.741   1 
   2  -2   2 155535. 1436.82   1 
   2  -2   3 46200.6 955.179   1 
   2  -2   4 60062.2 1187.74   1 
  -2   2  -5 884.733 377.522   1 
   2  -2   6 28235.9 462.165   1 
  -2   2  -7 34395.3 621.183   1 
  -2   2  -8 32759.9 690.597   1 
   2  -2   9 24055.0 657.713   1 
   2  -2  10 18613.1 657.061   1 
  -2   2 -11 5599.47 665.885   1 
  -2   2 -12 201.703 605.595   1 
  -2   2 -13 2163.17 584.089   1 
   2  -2  14 10644.1 671.186   1 
  -2   2 -15 5136.25 645.285   1 
   2  -1 -14 2893.13 953.355   1 
   2  -1 -13 4710.89 615.570   1 
   2  -1 -12 6183.10 655.004   1 
  -2   1 -12 4542.43 3618.02  -2 
   2  -1 -12 4542.43 3618.02   1 
   2  -1 -11 961.119 608.642   1 
   2  -1 -10 6654.13 651.888   1 
   2  -1  -9 28481.4 778.750   1 
   2  -1  -8 9288.26 508.974   1 
   2  -1  -7 23926.0 563.560   1 
  -2   1   6 6111.99 467.297   1 
  -2   1  -6 8897.19 1131.82  -2 
   2  -1  -6 8897.19 1131.82   1 
   2  -1  -5 1264.60 465.555   1 
  -2   1   4 1026.12 354.187   1 
  -2   1  -4 940.511 985.961  -2 
   2  -1  -4 940.511 985.961   1 
  -2   1   3 106625. 825.866   1 
  -2   1  -3 185095. 1067.05  -2 
   2  -1  -3 185095. 1067.05   1 
   2  -1  -2 3561.84 241.874   1 
   2  -1   2 578215. 1833.02  -2 
  -2   1   2 578215. 1833.02   1 
  -2   1   1 4213.01 473.927   1 
   2  -1   1 551418. 1884.07  -2 
  -2   1   1 551418. 1884.07   1 
   2  -1   0 5629.06 372.667   1 
   2  -1   0 6240.86 398.740  -2 
  -2   1   0 6240.86 398.740   1 
  -2   1  -1 853530. 2979.68   1 
  -2   1   1 999999. 2747.21  -2 
   2  -1   1 999999. 2747.21   1 
  -2   1   2 872838. 2877.87  -2 
   2  -1   2 872838. 2877.87   1 
   2  -1   3 55851.6 897.087   1 
   2  -1   4-5.93490 326.772   1 
   2  -1   5 35108.7 900.707   1 
   2  -1   6 4154.28 368.164   1 
  -2   1  -7 20382.3 487.036   1 
  -2   1  -8 15917.3 495.655   1 
  -2   1  -9 530.921 515.542   1 
  -2   1 -10 176.517 612.298   1 
   2  -1  11 22939.5 709.337   1 
  -2   1 -12 23221.6 702.379   1 
  -2   1 -13 1957.72 585.420   1 
   2  -1  14 175.743 698.816   1 
  -2   1 -15 32.9679 995.137   1 
   2   0 -15 491.420 878.836   1 
   2   0 -14 166.862 578.831   1 
   2   0 -13 7870.49 585.233   1 
   2   0 -12 14763.8 638.485   1 
   2   0 -11 9939.67 537.599   1 
   2   0 -10 1536.62 511.707   1 
   2   0  -9 2988.97 531.863   1 
   2   0  -8 40285.2 643.665   1 
   2   0  -7 22521.9 399.390   1 
   2   0  -6 62289.0 645.166   1 
  -2   0   4 10287.6 418.583   1 
  -2   0   3 41176.8 570.827   1 
   2   0  -2 1325.57 211.200   1 
  -2   0   1 125131. 965.835   1 
  -2   0   0 3285.55 287.358   1 
  -2   0  -1 270584. 1696.66   1 
   2   0   2 2460.57 309.899   1 
   2   0   3 4715.09 341.073   1 
  -2   0  -4 3137.19 297.100   1 
  -2   0  -5 22058.3 557.532   1 
  -2   0  -6 91086.8 667.415   1 
  -2   0  -7 17055.9 440.475   1 
  -2   0  -8 930.523 521.517   1 
  -2   0  -9 20523.1 723.853   1 
  -2   0 -10 5639.06 625.500   1 
   2   0  11 242.596 542.684   1 
   2   0  12 28917.2 939.164   1 
  -2   0 -13 8420.60 682.038   1 
  -2   0 -14 145.000 593.684   1 
   2   1 -15 2321.87 973.636   1 
  -2  -1 -14 10297.6 1209.69  -2 
   2   1 -15 10297.6 1209.69   1 
   2   1 -14 356.623 2086.45   1 
  -2  -1 -13 11245.4 788.904  -2 
   2   1 -14 11245.4 788.904   1 
   2   1 -13 854.721 2166.61   1 
  -2  -1 -12 10595.6 635.552  -2 
   2   1 -13 10595.6 635.552   1 
  -2  -1 -11 3850.37 635.776  -2 
   2   1 -12 3850.37 635.776   1 
  -2  -1 -10 13277.2 711.520  -2 
   2   1 -11 13277.2 711.520   1 
  -2  -1  -9 4576.83 669.666  -2 
   2   1 -10 4576.83 669.666   1 
  -2  -1  -8 9310.23 685.028  -2 
   2   1  -9 9310.23 685.028   1 
   2   1   7 124960. 964.113  -2 
  -2  -1   8 124960. 964.113   1 
   2   1   6 4591.66 500.124  -2 
  -2  -1   7 4591.66 500.124   1 
  -2  -1  -5 5346.10 420.893  -2 
   2   1  -6 5346.10 420.893   1 
   2   1   4 57935.4 1578.54  -2 
  -2  -1   5 57935.4 1578.54   1 
   2   1   3 8440.70 799.223  -2 
  -2  -1   4 8440.70 799.223   1 
  -2  -1  -2 33987.3 647.434  -2 
   2   1  -3 33987.3 647.434   1 
   2   1   1 31724.3 532.783  -2 
  -2  -1   2 31724.3 532.783   1 
   2   1   0 2594.90 250.056  -2 
  -2  -1   1 2594.90 250.056   1 
   2   1  -1 1879.98 381.704  -2 
  -2  -1   0 1879.98 381.704   1 
   2   1  -2 21067.9 707.037  -2 
  -2  -1  -1 21067.9 707.037   1 
   2   1  -3 22623.9 724.178  -2 
  -2  -1  -2 22623.9 724.178   1 
   2   1  -4 12306.2 645.950  -2 
  -2  -1  -3 12306.2 645.950   1 
   2   1  -5 49655.0 1109.07  -2 
  -2  -1  -4 49655.0 1109.07   1 
   2   1  -6 2569.82 433.934  -2 
  -2  -1  -5 2569.82 433.934   1 
   2   1  -7 3238.74 490.137  -2 
  -2  -1  -6 3238.74 490.137   1 
   2   1  -8 87363.3 1115.72  -2 
  -2  -1  -7 87363.3 1115.72   1 
   2   1  -9 13163.4 920.634  -2 
  -2  -1  -8 13163.4 920.634   1 
   2   1 -10 6187.96 941.606  -2 
  -2  -1  -9 6187.96 941.606   1 
   2   1 -11 16245.1 1065.29  -2 
  -2  -1 -10 16245.1 1065.29   1 
  -2  -1  12 2441.22 875.377  -2 
   2   1  11 2441.22 875.377   1 
  -2  -1  13 10845.1 905.597  -2 
   2   1  12 10845.1 905.597   1 
   2   1 -14 14625.3 1093.28  -2 
  -2  -1 -13 14625.3 1093.28   1 
   2   1 -15 7579.99 1048.55  -2 
  -2  -1 -14 7579.99 1048.55   1 
   2   2 -15 931.381 558.107   1 
   2   2 -14 8.32036 516.649   1 
   2   2 -13 616.509 445.728   1 
   2   2 -12 7064.44 491.872   1 
   2   2 -11 4910.58 492.040   1 
   2   2 -10 4423.41 470.807   1 
   2   2  -9 18432.9 546.136   1 
  -2  -2   8 1139.73 450.662   1 
   2   2  -7 11795.2 447.666   1 
   2   2  -6 33885.0 463.355   1 
   2   2  -5 21194.2 419.775   1 
  -2  -2   4 86991.8 957.116   1 
  -2  -2   3 73388.7 1381.18   1 
  -2  -2   2 4974.53 494.539   1 
   2   2  -1 2928.24 166.437   1 
  -2  -2   0 608.698 139.357   1 
  -2  -2  -1 12254.7 539.596   1 
  -2  -2  -2 8877.93 504.746   1 
  -2  -2  -3 71727.3 527.372   1 
  -2  -2  -4 9193.91 365.468   1 
  -2  -2  -5 33938.4 637.907   1 
  -2  -2  -6 2723.21 508.923   1 
  -2  -2  -7 5302.10 566.821   1 
  -2  -2  -8 396.197 576.561   1 
  -2  -2  -9 1201.78 744.941   1 
  -2  -2 -10 175.956 723.977   1 
  -2  -2 -11 3896.43 866.343   1 
  -2  -2 -12 10.5024 796.272   1 
  -2  -2 -13 4670.58 835.042   1 
   2   3 -14 1510.41 394.216   1 
   2   3 -13 2392.08 457.815   1 
   2   3 -12 17557.3 591.195   1 
   2   3 -11 40521.9 765.990   1 
   2   3 -10 23744.4 633.306   1 
   2   3  -9 8451.21 518.213   1 
   2   3  -8 1020.93 546.467   1 
  -2  -3   7 20869.0 591.733   1 
  -2  -3   6 1229.37 442.427   1 
  -2  -3   5 8748.83 369.647   1 
  -2  -3   4 9546.94 377.889   1 
  -2  -3   3 1281.86 371.794   1 
   2   3   1 6079.56 1284.14  -2 
  -2  -3   3 6079.56 1284.14   1 
  -2  -3   2 16802.6 496.101   1 
   2   3   0 41169.5 1095.87  -2 
  -2  -3   2 41169.5 1095.87   1 
  -2  -3   1 24996.4 505.971   1 
   2   3  -1 54900.1 1560.18  -2 
  -2  -3   1 54900.1 1560.18   1 
  -2  -3   0 25429.5 644.079   1 
   2   3  -2 35213.0 831.832  -2 
  -2  -3   0 35213.0 831.832   1 
  -2  -3  -1 3774.88 386.791   1 
   2   3  -3 3929.28 1519.44  -2 
  -2  -3  -1 3929.28 1519.44   1 
  -2  -3  -2 3247.19 390.231   1 
  -2  -3  -3 250.926 440.437   1 
  -2  -3  -4 1407.43 524.023   1 
  -2  -3  -5 1700.77 584.291   1 
  -2  -3  -6 3296.37 610.576   1 
  -2  -3  -7 3732.85 657.420   1 
  -2  -3  -8 17307.5 820.768   1 
  -2  -3  -9 18943.4 1127.28   1 
  -2  -3 -10 5355.74 950.958   1 
  -2  -3 -11 13830.3 1021.20   1 
  -2  -3 -12 79.4186 1518.22   1 
   2   4 -14 109.107 449.270   1 
   2   4 -13 4893.00 584.052   1 
  -2  -4 -10 5968.18 842.923  -2 
   2   4 -13 5968.18 842.923   1 
   2   4 -12 1899.32 1032.24   1 
  -2  -4  -9 7175.48 697.016  -2 
   2   4 -12 7175.48 697.016   1 
  -2  -4  -8 5849.04 677.427  -2 
   2   4 -11 5849.04 677.427   1 
  -2  -4  -7 15888.0 810.707  -2 
   2   4 -10 15888.0 810.707   1 
  -2  -4   9 610.788 1589.10   1 
  -2  -4  -6 9089.07 781.503  -2 
   2   4  -9 9089.07 781.503   1 
  -2  -4  -5 18541.0 847.682  -2 
   2   4  -8 18541.0 847.682   1 
   2   4   4 53252.9 1032.61  -2 
  -2  -4   7 53252.9 1032.61   1 
  -2  -4  -3 45899.6 1099.85  -2 
   2   4  -6 45899.6 1099.85   1 
   2   4   2 3846.20 691.980  -2 
  -2  -4   5 3846.20 691.980   1 
   2   4   1 61498.5 879.472  -2 
  -2  -4   4 61498.5 879.472   1 
   2   4   0 42396.9 739.449  -2 
  -2  -4   3 42396.9 739.449   1 
   2   4  -1 28146.5 636.712  -2 
  -2  -4   2 28146.5 636.712   1 
   2   4  -2 30352.6 694.284  -2 
  -2  -4   1 30352.6 694.284   1 
   2   4  -3 33343.0 774.877  -2 
  -2  -4   0 33343.0 774.877   1 
   2   4  -4 52176.6 1072.56  -2 
  -2  -4  -1 52176.6 1072.56   1 
   2   4  -5 2813.14 809.691  -2 
  -2  -4  -2 2813.14 809.691   1 
   2   4  -6 19298.2 1131.68  -2 
  -2  -4  -3 19298.2 1131.68   1 
   2   4  -7 32938.8 1180.55  -2 
  -2  -4  -4 32938.8 1180.55   1 
   2   4  -8 9839.72 1325.77  -2 
  -2  -4  -5 9839.72 1325.77   1 
   2   4  -9 12268.9 1010.80  -2 
  -2  -4  -6 12268.9 1010.80   1 
   2   4 -10 11726.8 1227.87  -2 
  -2  -4  -7 11726.8 1227.87   1 
   2   4 -11 3149.11 2346.79  -2 
  -2  -4  -8 3149.11 2346.79   1 
  -2  -4  -9 4426.80 1696.47   1 
  -2  -4 -10 2276.49 1592.93   1 
  -2  -4 -11-199.295 1454.71   1 
   2   5 -13 207.307 387.514   1 
   2   5 -12 174.473 427.434   1 
   2   5 -11 1075.85 474.329   1 
   2   5 -10 1873.95 505.588   1 
   2   5  -9 24730.2 717.547   1 
   2   5  -8 18799.7 693.579   1 
   2   5  -7 5914.75 694.057   1 
   2   5  -6 12023.0 826.364   1 
  -2  -5   5 50012.2 849.544   1 
  -2  -5   4 2492.70 566.343   1 
  -2  -5   3 1896.99 743.569   1 
  -2  -5   2 11011.2 748.654   1 
  -2  -5   1 13203.5 822.991   1 
  -2  -5   0 8711.48 791.665   1 
  -2  -5  -1 37471.3 955.535   1 
  -2  -5  -2 6543.08 765.218   1 
  -2  -5  -3 24270.5 949.746   1 
  -2  -5  -4 349.647 848.772   1 
  -2  -5  -5 20087.8 1194.04   1 
  -2  -5  -6 6283.18 1618.79   1 
  -2  -5  -7 788.159 1527.11   1 
  -2  -5  -8-128.221 1441.70   1 
  -2  -5  -9 396.037 1443.80   1 
  -2  -6  12 1186.71 695.834   1 
  -2  -6  -7 539.757 562.262  -2 
   2   6 -11 539.757 562.262   1 
   2   6   6 4912.15 599.000  -2 
  -2  -6  10 4912.15 599.000   1 
  -2  -6  -5 1344.38 604.290  -2 
   2   6  -9 1344.38 604.290   1 
  -2  -6  -4 44326.4 949.382  -2 
   2   6  -8 44326.4 949.382   1 
  -2  -6  -3 41108.1 929.080  -2 
   2   6  -7 41108.1 929.080   1 
   2   6   2 14777.4 946.138  -2 
  -2  -6   6 14777.4 946.138   1 
  -2  -6  -1 3467.03 850.742  -2 
   2   6  -5 3467.03 850.742   1 
  -2  -6   0 6225.93 778.240  -2 
   2   6  -4 6225.93 778.240   1 
   2   6  -1 2460.72 805.957  -2 
  -2  -6   3 2460.72 805.957   1 
   2   6  -2 229.392 878.827  -2 
  -2  -6   2 229.392 878.827   1 
   2   6  -3 3237.46 1161.16  -2 
  -2  -6   1 3237.46 1161.16   1 
   2   6  -4 10456.0 1106.04  -2 
  -2  -6   0 10456.0 1106.04   1 
   2   6  -5 2487.27 924.769  -2 
  -2  -6  -1 2487.27 924.769   1 
   2   6  -6 23417.0 1108.56  -2 
  -2  -6  -2 23417.0 1108.56   1 
   2   6  -7 48099.0 1620.60  -2 
  -2  -6  -3 48099.0 1620.60   1 
   2   6  -8 30272.3 2388.32  -2 
  -2  -6  -4 30272.3 2388.32   1 
   2   6  -9 2398.25 1920.14  -2 
  -2  -6  -5 2398.25 1920.14   1 
   2   6 -10 7130.88 1759.66  -2 
  -2  -6  -6 7130.88 1759.66   1 
   2   6 -11 1227.91 1708.12  -2 
  -2  -6  -7 1227.91 1708.12   1 
   2   7  -9 1406.91 490.704   1 
   2   7  -8 446.761 510.032   1 
  -2  -7   7 436.342 505.795   1 
  -2  -7   6 385.481 631.974   1 
  -2  -7  -1 408.257 1283.34  -2 
   2   7  -6 408.257 1283.34   1 
  -2  -7   5 2072.81 709.565   1 
  -2  -7   0 7107.16 1358.18  -2 
   2   7  -5 7107.16 1358.18   1 
  -2  -7   4 9473.40 785.618   1 
  -2  -7   1 17068.6 1562.01  -2 
   2   7  -4 17068.6 1562.01   1 
  -2  -7   3 26477.7 952.965   1 
  -2  -7   2 51306.2 1934.62  -2 
   2   7  -3 51306.2 1934.62   1 
  -2  -7   2 14948.7 885.351   1 
  -2  -7   3 46017.4 1916.39  -2 
   2   7  -2 46017.4 1916.39   1 
  -2  -7   1 3347.20 781.262   1 
  -2  -7   0 4622.50 801.969   1 
  -2  -7  -1 127.716 784.549   1 
  -2  -7  -2 587.058 891.341   1 
  -2  -7  -3 3735.14 1118.14   1 
  -2  -7  -4 1253.72 1075.37   1 
  -2  -7  -5 296.875 1047.21   1 
  -2  -8   5 18.2652 898.512   1 
  -2  -8   4 2195.84 733.949   1 
  -2  -8   1 4407.92 1265.18  -2 
   2   8  -4 4407.92 1265.18   1 
  -2  -8   3 1914.66 799.299   1 
  -2  -8   2 4242.83 1304.77  -2 
   2   8  -3 4242.83 1304.77   1 
  -2  -8   2 326.171 824.159   1 
  -2  -8   3 2759.28 1270.86  -2 
   2   8  -2 2759.28 1270.86   1 
  -2  -8   1 404.827 698.863   1 
   3  -9   2 1808.17 904.342   1 
   3  -8  -3 3953.43 1122.06   1 
  -3   8  -6 9316.20 1464.42  -2 
   3  -8  -2 9316.20 1464.42   1 
  -3   8  -5 33998.8 1071.32  -2 
   3  -8  -1 33998.8 1071.32   1 
  -3   8  -4 761.779 856.934  -2 
   3  -8   0 761.779 856.934   1 
  -3   8  -3 12633.4 1047.60  -2 
   3  -8   1 12633.4 1047.60   1 
  -3   8  -2 1724.44 1527.58  -2 
   3  -8   2 1724.44 1527.58   1 
  -3   8  -1 10878.1 1578.78  -2 
   3  -8   3 10878.1 1578.78   1 
  -3   8   0 1119.11 862.013  -2 
   3  -8   4 1119.11 862.013   1 
   3  -8  -1 24342.4 966.575  -2 
  -3   8  -5 24342.4 966.575   1 
   3  -8  -2 5854.59 950.692  -2 
  -3   8  -6 5854.59 950.692   1 
   3  -8  -3 5585.18 897.221  -2 
  -3   8  -7 5585.18 897.221   1 
  -3   8   4 2310.21 858.359  -2 
   3  -8   8 2310.21 858.359   1 
   3  -7  -5 212.434 1310.70   1 
   3  -7  -4 2153.05 970.998   1 
   3  -7  -3 14511.5 896.130   1 
   3  -7  -2 854.071 768.276   1 
   3  -7  -1 1482.18 901.592   1 
   3  -7   0 2146.86 916.346   1 
   3  -7   1 2414.13 891.551   1 
   3  -7   2 42.5740 544.078   1 
   3  -7   3 20869.3 733.811   1 
   3  -7   4 33912.3 934.848   1 
   3  -7   5 695.574 611.617   1 
  -3   7  -6 7504.77 640.753   1 
  -3   7  -7 7675.75 844.294   1 
  -3   7  -8 4186.02 665.874   1 
  -3   7  -9 1236.11 615.429   1 
  -3   7 -10 512.942 592.369   1 
  -3   7 -11 108.504 871.509   1 
  -3   6  -9 27262.5 2098.15  -2 
   3  -6  -6 27262.5 2098.15   1 
  -3   6  -8 33956.2 1517.22  -2 
   3  -6  -5 33956.2 1517.22   1 
  -3   6  -7 34144.2 1598.48  -2 
   3  -6  -4 34144.2 1598.48   1 
  -3   6  -6 12962.8 1131.99  -2 
   3  -6  -3 12962.8 1131.99   1 
  -3   6  -5 30787.7 1568.25  -2 
   3  -6  -2 30787.7 1568.25   1 
  -3   6  -4 14349.6 1341.51  -2 
   3  -6  -1 14349.6 1341.51   1 
  -3   6  -3 1138.37 837.905  -2 
   3  -6   0 1138.37 837.905   1 
  -3   6  -2 3266.63 747.806  -2 
   3  -6   1 3266.63 747.806   1 
  -3   6  -1 4428.50 674.153  -2 
   3  -6   2 4428.50 674.153   1 
  -3   6   0 772.080 651.389  -2 
   3  -6   3 772.080 651.389   1 
  -3   6   1 12818.9 754.271  -2 
   3  -6   4 12818.9 754.271   1 
  -3   6   2 46998.6 1128.15  -2 
   3  -6   5 46998.6 1128.15   1 
  -3   6   3 15162.9 844.141  -2 
   3  -6   6 15162.9 844.141   1 
  -3   6   4 28007.8 1014.13  -2 
   3  -6   7 28007.8 1014.13   1 
   3  -6  -5 25627.7 1099.77  -2 
  -3   6  -8 25627.7 1099.77   1 
   3  -6  -6 19607.8 894.646  -2 
  -3   6  -9 19607.8 894.646   1 
  -3   6   7 22706.1 1068.57  -2 
   3  -6  10 22706.1 1068.57   1 
  -3   6   8 478.369 804.343  -2 
   3  -6  11 478.369 804.343   1 
   3  -6  -9 3948.77 1107.43  -2 
  -3   6 -12 3948.77 1107.43   1 
   3  -5  -9 2830.06 1670.88   1 
   3  -5  -8 2526.05 1102.95   1 
   3  -5  -7 1434.54 1104.71   1 
   3  -5  -6 118.520 816.387   1 
   3  -5  -5 6064.47 851.797   1 
   3  -5  -4 96.2732 800.453   1 
   3  -5  -3 7895.18 748.604   1 
   3  -5  -2 25434.6 787.656   1 
   3  -5  -1 1368.12 911.322   1 
  -3   5  -3 6770.11 1202.06  -2 
   3  -5  -1 6770.11 1202.06   1 
   3  -5   0 52202.9 860.251   1 
  -3   5  -2 53455.1 1512.00  -2 
   3  -5   0 53455.1 1512.00   1 
   3  -5   1 26451.8 703.390   1 
  -3   5  -1 38521.0 1403.86  -2 
   3  -5   1 38521.0 1403.86   1 
   3  -5   2 14744.9 624.317   1 
  -3   5   0 40555.2 1427.98  -2 
   3  -5   2 40555.2 1427.98   1 
   3  -5   3 9895.45 605.867   1 
  -3   5   1 9069.82 1177.80  -2 
   3  -5   3 9069.82 1177.80   1 
   3  -5   4 1876.14 512.314   1 
   3  -5   5 2153.92 528.456   1 
   3  -5   6 3.98568 544.586   1 
   3  -5   7 5579.90 608.215   1 
  -3   5  -8 3189.03 685.465   1 
  -3   5  -9 102.490 583.355   1 
   3  -5  10 2027.17 690.173   1 
   3  -5  11 475.806 647.837   1 
  -3   5 -12 5660.33 653.777   1 
   3  -5  13 3539.23 627.829   1 
   3  -4 -11 92.7909 907.974   1 
   3  -4 -10 5268.32 1012.87   1 
   3  -4  -9 2894.96 828.438   1 
   3  -4  -8 73.0937 818.352   1 
   3  -4  -7 2899.88 816.787   1 
   3  -4  -6 457.977 750.314   1 
   3  -4  -5 40650.3 1022.58   1 
   3  -4  -4 13889.1 745.986   1 
   3  -4  -3 161.827 469.998   1 
   3  -4  -2 57964.3 808.000   1 
   3  -4  -1 45916.2 839.806   1 
  -3   4  -3 36302.4 975.815  -2 
   3  -4  -1 36302.4 975.815   1 
   3  -4   0 18612.7 505.875   1 
  -3   4  -2 27433.1 1157.29  -2 
   3  -4   0 27433.1 1157.29   1 
   3  -4   1 67188.9 676.188   1 
  -3   4  -1 100414. 1223.59  -2 
   3  -4   1 100414. 1223.59   1 
   3  -4   2 18350.9 556.315   1 
  -3   4   0 29861.6 891.565  -2 
   3  -4   2 29861.6 891.565   1 
   3  -4   3 672.914 384.912   1 
  -3   4   1 25319.0 1172.86  -2 
   3  -4   3 25319.0 1172.86   1 
   3  -4   4 2819.47 418.859   1 
   3  -4   5 4086.76 450.253   1 
  -3   4  -6 27494.1 730.445   1 
  -3   4  -7 15810.2 788.270   1 
   3  -4   8 6418.43 695.254   1 
   3  -4   9 30713.5 932.140   1 
   3  -4  10 1397.75 650.136   1 
  -3   4 -11 2369.72 628.409   1 
  -3   4 -12 359.246 607.325   1 
   3  -4  13 2560.20 591.060   1 
   3  -4  14 1817.05 773.854   1 
   3  -3 -13 1670.62 738.429   1 
   3  -3 -12 1501.44 813.540   1 
   3  -3 -11 58.6312 907.737   1 
   3  -3 -10 158.156 993.782   1 
   3  -3  -9 50670.5 1394.08   1 
  -3   3 -10 24186.3 1910.94  -2 
   3  -3  -9 24186.3 1910.94   1 
  -3   3  -9 11819.2 1011.70  -2 
   3  -3  -8 11819.2 1011.70   1 
  -3   3  -8 5300.05 978.185  -2 
   3  -3  -7 5300.05 978.185   1 
   3  -3  -6 21207.9 1312.72   1 
  -3   3  -7 14176.2 1020.41  -2 
   3  -3  -6 14176.2 1020.41   1 
  -3   3  -6 47377.6 959.662  -2 
   3  -3  -5 47377.6 959.662   1 
  -3   3  -5 13411.7 604.119  -2 
   3  -3  -4 13411.7 604.119   1 
  -3   3  -4 26868.7 696.589  -2 
   3  -3  -3 26868.7 696.589   1 
  -3   3  -3 1744.05 403.533  -2 
   3  -3  -2 1744.05 403.533   1 
  -3   3  -2 77032.2 737.846  -2 
   3  -3  -1 77032.2 737.846   1 
  -3   3  -1 88198.8 853.126  -2 
   3  -3   0 88198.8 853.126   1 
  -3   3   0 65577.1 663.816  -2 
   3  -3   1 65577.1 663.816   1 
  -3   3   1 57967.3 658.147  -2 
   3  -3   2 57967.3 658.147   1 
  -3   3   2 1886.00 421.599  -2 
   3  -3   3 1886.00 421.599   1 
   3  -3  -3 22015.9 623.195  -2 
  -3   3  -4 22015.9 623.195   1 
  -3   3   4 11116.6 635.834  -2 
   3  -3   5 11116.6 635.834   1 
   3  -3  -5 102663. 1104.43  -2 
  -3   3  -6 102663. 1104.43   1 
   3  -3  -6 13914.1 887.099  -2 
  -3   3  -7 13914.1 887.099   1 
  -3   3  -8 9637.81 2090.51   1 
   3  -3  -7 12508.1 993.747  -2 
  -3   3  -8 12508.1 993.747   1 
  -3   3  -9 4988.55 934.017   1 
   3  -3  -8 11976.6 1149.85  -2 
  -3   3  -9 11976.6 1149.85   1 
  -3   3 -10 7855.83 696.898   1 
   3  -3  -9 7027.12 3459.26  -2 
  -3   3 -10 7027.12 3459.26   1 
  -3   3 -11 15557.7 696.017   1 
  -3   3 -12 682.840 603.098   1 
  -3   3 -13 3965.48 615.433   1 
  -3   3 -14 1585.77 648.454   1 
   3  -2 -13 120.554 733.953   1 
   3  -2 -12 450.956 850.692   1 
   3  -2 -11 4951.99 846.535   1 
   3  -2 -10 16927.5 1008.78   1 
   3  -2  -9 120.203 663.056   1 
   3  -2  -8 59956.3 889.485   1 
   3  -2  -7 12032.8 632.788   1 
   3  -2  -6 218.033 510.759   1 
   3  -2  -5 20897.7 541.334   1 
  -3   2   4 4865.33 304.695   1 
  -3   2   3 11054.6 335.290   1 
   3  -2  -2 2702.61 292.248   1 
   3  -2  -1 26169.1 528.500   1 
  -3   2   0 1218.28 401.102   1 
   3  -2   1 52790.7 993.746   1 
   3  -2   2 107028. 1290.68   1 
   3  -2   3 225692. 1316.74   1 
   3  -2   4 57525.7 670.665   1 
  -3   2  -5 8253.08 449.335   1 
  -3   2  -6 6213.92 469.840   1 
  -3   2  -7 1984.96 464.936   1 
   3  -2   8 4817.84 576.543   1 
   3  -2   9 1459.28 585.128   1 
  -3   2 -10 48.7836 621.935   1 
  -3   2 -11 8312.10 702.627   1 
  -3   2 -12 558.235 646.541   1 
  -3   2 -13 100.586 602.702   1 
   3  -2  14 6408.92 711.922   1 
   3  -1 -14 439.812 931.505   1 
   3  -1 -13 1222.44 1553.66   1 
  -3   1 -13 4282.89 936.665  -2 
   3  -1 -13 4282.89 936.665   1 
  -3   1 -12 7219.56 863.482  -2 
   3  -1 -12 7219.56 863.482   1 
  -3   1 -11 4046.68 1004.31  -2 
   3  -1 -11 4046.68 1004.31   1 
  -3   1 -10 44756.5 1295.95  -2 
   3  -1 -10 44756.5 1295.95   1 
  -3   1  -9 13823.5 876.043  -2 
   3  -1  -9 13823.5 876.043   1 
  -3   1  -8 17775.1 765.427  -2 
   3  -1  -8 17775.1 765.427   1 
  -3   1  -7 14480.3 731.551  -2 
   3  -1  -7 14480.3 731.551   1 
  -3   1  -6 6918.52 661.905  -2 
   3  -1  -6 6918.52 661.905   1 
  -3   1  -5 39750.4 578.430  -2 
   3  -1  -5 39750.4 578.430   1 
  -3   1  -4 39733.6 565.719  -2 
   3  -1  -4 39733.6 565.719   1 
  -3   1  -3 112625. 1203.67  -2 
   3  -1  -3 112625. 1203.67   1 
   3  -1   2 74793.1 1003.95  -2 
  -3   1   2 74793.1 1003.95   1 
  -3   1  -1 11419.5 488.167  -2 
   3  -1  -1 11419.5 488.167   1 
   3  -1   0 76491.6 1373.49  -2 
  -3   1   0 76491.6 1373.49   1 
   3  -1  -1 18610.5 795.714  -2 
  -3   1  -1 18610.5 795.714   1 
  -3   1   2 238476. 2747.90  -2 
   3  -1   2 238476. 2747.90   1 
  -3   1   3 167278. 1972.31  -2 
   3  -1   3 167278. 1972.31   1 
   3  -1  -4 37673.6 660.948  -2 
  -3   1  -4 37673.6 660.948   1 
   3  -1  -5 48831.6 662.215  -2 
  -3   1  -5 48831.6 662.215   1 
  -3   1   6 10904.1 504.379  -2 
   3  -1   6 10904.1 504.379   1 
   3  -1  -7 21506.7 611.259  -2 
  -3   1  -7 21506.7 611.259   1 
  -3   1   8 15760.2 750.177  -2 
   3  -1   8 15760.2 750.177   1 
   3  -1  -9 13005.3 765.532  -2 
  -3   1  -9 13005.3 765.532   1 
  -3   1  10 44315.7 936.115  -2 
   3  -1  10 44315.7 936.115   1 
   3  -1 -11 4897.17 814.368  -2 
  -3   1 -11 4897.17 814.368   1 
   3  -1 -12 17872.1 870.909  -2 
  -3   1 -12 17872.1 870.909   1 
   3  -1 -13 4475.09 1031.82  -2 
  -3   1 -13 4475.09 1031.82   1 
   3  -1 -14 14221.1 990.598  -2 
  -3   1 -14 14221.1 990.598   1 
   3   0 -14 324.455 563.843   1 
   3   0 -13 2566.82 575.960   1 
   3   0 -12 11003.8 607.423   1 
  -3   0  11 184.267 561.060   1 
   3   0 -10 140.546 481.630   1 
   3   0  -9 236.347 447.819   1 
   3   0  -8 307.824 433.834   1 
  -3   0   7 7268.02 393.918   1 
   3   0  -6 21268.5 450.857   1 
   3   0  -5 92467.8 659.719   1 
   3   0  -4 11647.9 360.233   1 
   3   0  -3 491.662 293.311   1 
   3   0  -2 37301.7 596.490   1 
   3   0  -1 1261.70 259.297   1 
  -3   0   0 2898.66 420.443   1 
  -3   0  -1 4855.24 473.876   1 
  -3   0  -2 21967.9 754.793   1 
  -3   0  -3 6273.17 374.422   1 
  -3   0  -4 26817.1 670.314   1 
   3   0   5 68837.0 697.134   1 
  -3   0  -6 736.272 429.403   1 
   3   0   7 8512.76 529.967   1 
  -3   0  -8 48811.2 866.634   1 
   3   0   9 25722.0 772.648   1 
  -3   0 -10 7801.11 665.276   1 
  -3   0 -11 84.1819 602.728   1 
  -3   0 -12 114.513 555.470   1 
  -3   0 -13 2906.57 760.675   1 
   3   1 -14 1861.20 636.250   1 
   3   1 -13 14348.9 562.052   1 
   3   1 -12 6777.47 494.703   1 
   3   1 -11 1972.88 477.084   1 
   3   1 -10 1969.31 467.719   1 
   3   1  -9 18640.8 540.484   1 
   3   1  -8 187.967 470.162   1 
   3   1  -7 5.13068 369.788   1 
  -3  -1   6 2567.73 388.713   1 
   3   1  -5 66354.6 600.173   1 
   3   1  -4 14405.2 394.167   1 
   3   1  -3 3872.11 287.144   1 
  -3  -1   2 24862.0 495.415   1 
   3   1  -1 1634.13 276.783   1 
  -3  -1   0 779.193 418.240   1 
  -3  -1  -1 37947.1 500.014   1 
  -3  -1  -2 4088.29 351.102   1 
  -3  -1  -3 10360.3 364.141   1 
  -3  -1  -4 45079.2 573.391   1 
  -3  -1  -5 1577.76 392.554   1 
  -3  -1  -6 46065.5 750.900   1 
  -3  -1  -7 22684.0 776.484   1 
  -3  -1  -8 3112.31 660.983   1 
  -3  -1  -9 16031.7 752.730   1 
  -3  -1 -10 85.5294 636.020   1 
  -3  -1 -11 799.638 757.804   1 
  -3  -1 -12 171.203 664.176   1 
  -3  -1 -13-185.111 1661.08   1 
   3   2 -14 2444.34 863.285   1 
  -3  -2 -12 2218.36 742.103  -2 
   3   2 -14 2218.36 742.103   1 
   3   2 -13 388.578 815.330   1 
  -3  -2 -11 2589.86 670.750  -2 
   3   2 -13 2589.86 670.750   1 
  -3  -2 -10 1923.17 627.328  -2 
   3   2 -12 1923.17 627.328   1 
  -3  -2  -9 19692.2 717.860  -2 
   3   2 -11 19692.2 717.860   1 
  -3  -2  -8 14283.0 694.515  -2 
   3   2 -10 14283.0 694.515   1 
   3   2   7 32765.4 791.293  -2 
  -3  -2   9 32765.4 791.293   1 
  -3  -2  -6 47456.8 839.470  -2 
   3   2  -8 47456.8 839.470   1 
  -3  -2  -5 19589.0 631.769  -2 
   3   2  -7 19589.0 631.769   1 
   3   2   4 20970.5 550.913  -2 
  -3  -2   6 20970.5 550.913   1 
   3   2   3 4692.95 443.623  -2 
  -3  -2   5 4692.95 443.623   1 
  -3  -2  -2 5069.74 457.550  -2 
   3   2  -4 5069.74 457.550   1 
   3   2   1 23503.1 547.905  -2 
  -3  -2   3 23503.1 547.905   1 
   3   2   0 421.567 401.281  -2 
  -3  -2   2 421.567 401.281   1 
   3   2  -1 83633.7 843.487  -2 
  -3  -2   1 83633.7 843.487   1 
   3   2  -2 522.407 431.453  -2 
  -3  -2   0 522.407 431.453   1 
   3   2  -3 16801.1 640.278  -2 
  -3  -2  -1 16801.1 640.278   1 
   3   2  -4 5860.80 597.270  -2 
  -3  -2  -2 5860.80 597.270   1 
   3   2  -5 1910.28 612.231  -2 
  -3  -2  -3 1910.28 612.231   1 
   3   2  -6 11661.5 575.946  -2 
  -3  -2  -4 11661.5 575.946   1 
   3   2  -7 17123.6 775.877  -2 
  -3  -2  -5 17123.6 775.877   1 
   3   2  -8 49106.1 1008.34  -2 
  -3  -2  -6 49106.1 1008.34   1 
   3   2  -9 23336.3 942.738  -2 
  -3  -2  -7 23336.3 942.738   1 
   3   2 -10 13547.4 958.025  -2 
  -3  -2  -8 13547.4 958.025   1 
   3   2 -11 16208.2 1022.83  -2 
  -3  -2  -9 16208.2 1022.83   1 
   3   2 -12 1869.31 993.015  -2 
  -3  -2 -10 1869.31 993.015   1 
  -3  -2 -11 2347.34 1773.41   1 
   3   2 -13 2685.19 1905.59  -2 
  -3  -2 -11 2685.19 1905.59   1 
  -3  -2 -12 2800.33 1626.81   1 
   3   3 -14 6318.24 740.043   1 
   3   3 -13 271.840 406.807   1 
   3   3 -12 5599.30 469.300   1 
   3   3 -11 17760.8 615.897   1 
   3   3 -10-17.2082 436.467   1 
   3   3  -9 17798.9 581.086   1 
  -3  -3   8 222.825 545.221   1 
  -3  -3   7 4229.48 525.897   1 
   3   3  -6 25028.1 489.044   1 
  -3  -3   5 1061.03 366.420   1 
   3   3  -4 1194.60 346.813   1 
  -3  -3   3 1813.68 347.520   1 
  -3  -3   2 245.906 338.194   1 
  -3  -3   1 29989.4 479.668   1 
  -3  -3   0 51439.2 594.868   1 
  -3  -3  -1 900.138 379.801   1 
  -3  -3  -2 11883.5 565.336   1 
  -3  -3  -3 5150.76 637.101   1 
  -3  -3  -4 348.258 651.092   1 
  -3  -3  -5 929.953 793.405   1 
  -3  -3  -6 11321.6 952.108   1 
  -3  -3  -7 917.605 965.009   1 
  -3  -3  -8 376.636 1038.13   1 
  -3  -3  -9 13951.4 1157.12   1 
  -3  -3 -10 21013.5 2006.21   1 
  -3  -3 -11 3235.27 1611.90   1 
   3   4 -13 168.517 561.495   1 
  -3  -4 -10 7562.42 901.209  -2 
   3   4 -13 7562.42 901.209   1 
  -3  -4  12 256.981 764.194   1 
  -3  -4  -9 1986.41 655.924  -2 
   3   4 -12 1986.41 655.924   1 
  -3  -4  -8 3724.27 633.926  -2 
   3   4 -11 3724.27 633.926   1 
  -3  -4  -7 12594.1 758.485  -2 
   3   4 -10 12594.1 758.485   1 
  -3  -4  -6 21737.3 766.400  -2 
   3   4  -9 21737.3 766.400   1 
  -3  -4  -5 30352.0 872.624  -2 
   3   4  -8 30352.0 872.624   1 
  -3  -4  -4 9562.49 760.848  -2 
   3   4  -7 9562.49 760.848   1 
  -3  -4  -3 20608.9 994.683  -2 
   3   4  -6 20608.9 994.683   1 
   3   4   2 8092.11 689.247  -2 
  -3  -4   5 8092.11 689.247   1 
   3   4   1 27086.9 842.846  -2 
  -3  -4   4 27086.9 842.846   1 
   3   4   0 26594.3 837.339  -2 
  -3  -4   3 26594.3 837.339   1 
   3   4  -1 17806.3 865.887  -2 
  -3  -4   2 17806.3 865.887   1 
   3   4  -2 14079.8 687.807  -2 
  -3  -4   1 14079.8 687.807   1 
   3   4  -3 17476.0 767.372  -2 
  -3  -4   0 17476.0 767.372   1 
   3   4  -4 18296.8 783.717  -2 
  -3  -4  -1 18296.8 783.717   1 
   3   4  -5 10421.1 753.873  -2 
  -3  -4  -2 10421.1 753.873   1 
   3   4  -6 11338.7 775.869  -2 
  -3  -4  -3 11338.7 775.869   1 
   3   4  -7 6184.67 1078.87  -2 
  -3  -4  -4 6184.67 1078.87   1 
   3   4  -8 17156.6 1254.14  -2 
  -3  -4  -5 17156.6 1254.14   1 
   3   4  -9 16387.2 1422.22  -2 
  -3  -4  -6 16387.2 1422.22   1 
   3   4 -10 8030.04 1413.47  -2 
  -3  -4  -7 8030.04 1413.47   1 
   3   4 -11 3563.20 2116.80  -2 
  -3  -4  -8 3563.20 2116.80   1 
   3   4 -12 2279.61 2058.27  -2 
  -3  -4  -9 2279.61 2058.27   1 
   3   4 -13 7627.50 1942.23  -2 
  -3  -4 -10 7627.50 1942.23   1 
   3   5 -12 1031.46 398.059   1 
   3   5 -11 1008.21 429.637   1 
   3   5 -10 27908.2 718.329   1 
   3   5  -9 3013.13 504.954   1 
   3   5  -8 285.225 614.237   1 
   3   5  -7 29635.2 797.755   1 
  -3  -5   6 22618.3 897.887   1 
  -3  -5  -2 30299.7 1853.06  -2 
   3   5  -6 30299.7 1853.06   1 
  -3  -5   5 9323.13 712.784   1 
  -3  -5  -1 9511.05 1523.89  -2 
   3   5  -5 9511.05 1523.89   1 
  -3  -5   4 3937.56 781.045   1 
   3   5   0 4789.79 1725.51  -2 
  -3  -5   4 4789.79 1725.51   1 
  -3  -5   3 9334.15 1078.77   1 
   3   5  -1 28998.8 2048.57  -2 
  -3  -5   3 28998.8 2048.57   1 
  -3  -5   2 8171.11 1926.40   1 
   3   5  -2 24799.1 1079.48  -2 
  -3  -5   2 24799.1 1079.48   1 
  -3  -5   1 17893.5 2144.99   1 
   3   5  -3 37223.9 1047.33  -2 
  -3  -5   1 37223.9 1047.33   1 
  -3  -5   0 451.125 1765.24   1 
   3   5  -4 3290.19 869.986  -2 
  -3  -5   0 3290.19 869.986   1 
  -3  -5  -1 97.7573 995.294   1 
   3   5  -5 5992.43 1134.04  -2 
  -3  -5  -1 5992.43 1134.04   1 
  -3  -5  -2 8896.54 932.886   1 
   3   5  -6 27911.0 2230.51  -2 
  -3  -5  -2 27911.0 2230.51   1 
  -3  -5  -3 1902.22 776.859   1 
  -3  -5  -4 151.754 850.860   1 
  -3  -5  -5 11427.0 1035.91   1 
  -3  -5  -6 5356.51 1229.33   1 
  -3  -5  -7 1852.34 1442.04   1 
  -3  -5  -8 844.012 1363.63   1 
   3   6 -10 735.081 415.694   1 
   3   6  -9 550.383 419.511   1 
   3   6  -8 10705.8 526.112   1 
   3   6  -7 578.664 440.840   1 
  -3  -6   6 3295.42 755.409   1 
  -3  -6  -2 6430.04 1430.32  -2 
   3   6  -6 6430.04 1430.32   1 
  -3  -6   5 13661.1 1173.23   1 
  -3  -6  -1 30297.4 1721.02  -2 
   3   6  -5 30297.4 1721.02   1 
  -3  -6   4 48.8858 1000.02   1 
  -3  -6   0 1661.83 1360.12  -2 
   3   6  -4 1661.83 1360.12   1 
  -3  -6   3 969.698 781.078   1 
   3   6  -1 3169.76 1054.92  -2 
  -3  -6   3 3169.76 1054.92   1 
  -3  -6   2 17497.9 1011.79   1 
   3   6  -2 63841.1 2339.41  -2 
  -3  -6   2 63841.1 2339.41   1 
  -3  -6   1 507.501 1119.63   1 
   3   6  -3 2415.53 1710.77  -2 
  -3  -6   1 2415.53 1710.77   1 
  -3  -6   0 853.266 1180.29   1 
   3   6  -4 1509.98 1761.74  -2 
  -3  -6   0 1509.98 1761.74   1 
  -3  -6  -1 9049.50 1004.74   1 
   3   6  -5 29446.5 2240.09  -2 
  -3  -6  -1 29446.5 2240.09   1 
  -3  -6  -2 1885.00 843.426   1 
   3   6  -6 6766.92 1828.66  -2 
  -3  -6  -2 6766.92 1828.66   1 
  -3  -6  -3 4752.16 830.874   1 
  -3  -6  -4 8575.67 1412.37   1 
  -3  -6  -5 2668.14 1308.57   1 
  -3  -6  -6-58.4060 1238.71   1 
  -3  -7  -2 6252.44 898.263  -2 
   3   7  -7 6252.44 898.263   1 
  -3  -7  -1 8839.22 851.675  -2 
   3   7  -6 8839.22 851.675   1 
  -3  -7   0 2699.02 813.394  -2 
   3   7  -5 2699.02 813.394   1 
  -3  -7   1 15891.6 977.702  -2 
   3   7  -4 15891.6 977.702   1 
  -3  -7   2 1235.28 822.981  -2 
   3   7  -3 1235.28 822.981   1 
  -3  -7   3 1374.74 740.861  -2 
   3   7  -2 1374.74 740.861   1 
  -3  -7   4 16857.8 875.600  -2 
   3   7  -1 16857.8 875.600   1 
   3   7  -5 2120.49 750.934  -2 
  -3  -7   0 2120.49 750.934   1 
   3   7  -6 6155.99 1174.59  -2 
  -3  -7  -1 6155.99 1174.59   1 
   3   7  -7 2752.43 1326.26  -2 
  -3  -7  -2 2752.43 1326.26   1 
  -4   8  -6 5228.12 1064.69  -2 
   4  -8  -2 5228.12 1064.69   1 
  -4   8  -5 6403.99 1086.24  -2 
   4  -8  -1 6403.99 1086.24   1 
  -4   8  -4 4220.52 1099.46  -2 
   4  -8   0 4220.52 1099.46   1 
  -4   8  -3 10961.5 1211.28  -2 
   4  -8   1 10961.5 1211.28   1 
   4  -8   2 1387.15 1212.40  -2 
  -4   8  -2 1387.15 1212.40   1 
   4  -8   1 14406.7 1337.10  -2 
  -4   8  -3 14406.7 1337.10   1 
   4  -8   0 7163.76 1267.99  -2 
  -4   8  -4 7163.76 1267.99   1 
   4  -8  -1 5941.60 1282.39  -2 
  -4   8  -5 5941.60 1282.39   1 
   4  -8  -2 6822.33 2099.72  -2 
  -4   8  -6 6822.33 2099.72   1 
   4  -8  -3 8879.07 2054.09  -2 
  -4   8  -7 8879.07 2054.09   1 
   4  -7  -5 22864.5 1440.34   1 
   4  -7  -4 4189.88 880.907   1 
   4  -7  -3 260.764 838.675   1 
   4  -7  -2 716.037 888.311   1 
   4  -7  -1 5696.97 937.081   1 
  -4   7   0 14484.0 1279.55   1 
  -4   7  -1 8130.67 1242.22   1 
  -4   7  -2 261.398 1141.91   1 
  -4   7  -3 1583.10 1140.61   1 
  -4   7  -4 439.489 1067.57   1 
   4  -7   5 12527.8 789.051   1 
  -4   7  -6 22840.7 1036.84   1 
  -4   7  -7 9071.92 734.359   1 
  -4   7  -8 3927.07 941.608   1 
  -4   7  -9 742.767 897.635   1 
  -4   7 -10 1323.26 1482.26   1 
   4  -6  -7 9476.66 1360.84   1 
   4  -6  -6 2125.70 1288.00   1 
   4  -6  -5 1939.49 870.460   1 
   4  -6  -4 2870.40 830.799   1 
   4  -6  -3 6492.84 889.552   1 
   4  -6  -2 9933.53 1283.23   1 
  -4   6  -5 15774.3 1975.93  -2 
   4  -6  -2 15774.3 1975.93   1 
   4  -6  -1 7604.13 1444.94   1 
  -4   6  -4 8798.79 1264.88  -2 
   4  -6  -1 8798.79 1264.88   1 
   4  -6   0 547.881 1232.56   1 
  -4   6  -3 449.787 1160.19  -2 
   4  -6   0 449.787 1160.19   1 
   4  -6   1 3684.90 1404.22   1 
  -4   6  -2 4741.00 1259.21  -2 
   4  -6   1 4741.00 1259.21   1 
   4  -6   2 3388.98 1461.52   1 
  -4   6  -1 4920.77 1272.33  -2 
   4  -6   2 4920.77 1272.33   1 
  -4   6  -3 450.441 692.594   1 
  -4   6   0 481.859 1219.01  -2 
   4  -6   3 481.859 1219.01   1 
  -4   6  -4 2249.87 735.897   1 
  -4   6   1 7382.99 1308.06  -2 
   4  -6   4 7382.99 1308.06   1 
  -4   6  -5 24715.4 832.456   1 
  -4   6   2 26932.2 1485.82  -2 
   4  -6   5 26932.2 1485.82   1 
  -4   6  -6 8767.85 631.559   1 
   4  -6   7 114.677 564.187   1 
  -4   6  -8 641.384 556.051   1 
  -4   6  -9 1466.84 651.176   1 
  -4   6 -10 1268.44 614.369   1 
  -4   6 -11 7618.74 621.245   1 
  -4   5 -11 14371.2 1966.37  -2 
   4  -5  -9 14371.2 1966.37   1 
  -4   5 -10 6190.74 1233.84  -2 
   4  -5  -8 6190.74 1233.84   1 
  -4   5  -9 8161.65 1326.00  -2 
   4  -5  -7 8161.65 1326.00   1 
  -4   5  -8 6406.52 1385.21  -2 
   4  -5  -6 6406.52 1385.21   1 
  -4   5  -7 11384.4 1099.59  -2 
   4  -5  -5 11384.4 1099.59   1 
  -4   5  -6 4665.94 1056.89  -2 
   4  -5  -4 4665.94 1056.89   1 
  -4   5  -5 2713.38 800.501  -2 
   4  -5  -3 2713.38 800.501   1 
  -4   5  -4 6.05763 750.477  -2 
   4  -5  -2 6.05763 750.477   1 
  -4   5  -3 27572.6 1245.52  -2 
   4  -5  -1 27572.6 1245.52   1 
  -4   5  -2 22525.0 1168.34  -2 
   4  -5   0 22525.0 1168.34   1 
  -4   5  -1 10841.8 1023.80  -2 
   4  -5   1 10841.8 1023.80   1 
  -4   5   0 21636.5 919.954  -2 
   4  -5   2 21636.5 919.954   1 
  -4   5   1 23528.8 931.317  -2 
   4  -5   3 23528.8 931.317   1 
   4  -5  -2 244.173 667.027  -2 
  -4   5  -4 244.173 667.027   1 
  -4   5   3 2022.11 704.479  -2 
   4  -5   5 2022.11 704.479   1 
   4  -5  -4 4870.59 813.142  -2 
  -4   5  -6 4870.59 813.142   1 
  -4   5   5 9851.15 868.702  -2 
   4  -5   7 9851.15 868.702   1 
   4  -5  -6 13153.3 1052.99  -2 
  -4   5  -8 13153.3 1052.99   1 
  -4   5   7 16121.9 1029.02  -2 
   4  -5   9 16121.9 1029.02   1 
  -4   5 -10 8534.92 1820.82   1 
  -4   5   8 10741.6 1008.52  -2 
   4  -5  10 10741.6 1008.52   1 
  -4   5 -11 12052.7 1047.06   1 
  -4   5   9 18982.7 1315.03  -2 
   4  -5  11 18982.7 1315.03   1 
  -4   5 -12 2582.91 975.741   1 
  -4   5  10 11244.3 1106.58  -2 
   4  -5  12 11244.3 1106.58   1 
   4  -4 -11 283.617 1239.74   1 
   4  -4 -10 4947.61 1386.71   1 
   4  -4  -9 21177.1 1118.91   1 
   4  -4  -8 3995.14 994.319   1 
   4  -4  -7 302.001 965.898   1 
   4  -4  -6 8083.67 1064.92   1 
   4  -4  -5 8417.90 706.823   1 
   4  -4  -4 31592.6 800.656   1 
   4  -4  -3 52947.3 885.992   1 
   4  -4  -2 24944.4 739.654   1 
   4  -4  -1 5486.63 578.997   1 
   4  -4   0 7175.95 594.853   1 
   4  -4   1 40734.5 807.424   1 
   4  -4   2 121.637 456.741   1 
   4  -4   3 7612.29 480.033   1 
  -4   4  -4 44995.6 756.416   1 
  -4   4  -5 608.068 494.285   1 
   4  -4   6 3491.26 676.570   1 
  -4   4  -7 22271.8 934.002   1 
  -4   4  -8-21.1528 697.626   1 
   4  -4   9 2007.27 678.132   1 
   4  -4  10 13992.2 794.818   1 
  -4   4 -11 1383.93 663.116   1 
  -4   4 -12 10049.8 698.346   1 
  -4   4 -13 533.422 589.806   1 
   4  -3 -12 796.592 1098.49   1 
  -4   3 -13 2368.57 1395.30  -2 
   4  -3 -12 2368.57 1395.30   1 
  -4   3 -12 7356.96 1115.42  -2 
   4  -3 -11 7356.96 1115.42   1 
  -4   3 -11 1230.79 1225.32  -2 
   4  -3 -10 1230.79 1225.32   1 
  -4   3 -10 1626.42 950.291  -2 
   4  -3  -9 1626.42 950.291   1 
  -4   3  -9 15250.9 1096.95  -2 
   4  -3  -8 15250.9 1096.95   1 
  -4   3  -8 9042.94 855.953  -2 
   4  -3  -7 9042.94 855.953   1 
  -4   3  -7 10287.8 840.443  -2 
   4  -3  -6 10287.8 840.443   1 
  -4   3  -6 22421.5 1082.82  -2 
   4  -3  -5 22421.5 1082.82   1 
  -4   3  -5 8702.00 784.107  -2 
   4  -3  -4 8702.00 784.107   1 
  -4   3  -4 12656.4 642.901  -2 
   4  -3  -3 12656.4 642.901   1 
  -4   3  -3 17623.5 645.880  -2 
   4  -3  -2 17623.5 645.880   1 
  -4   3  -2 77362.7 964.581  -2 
   4  -3  -1 77362.7 964.581   1 
   4  -3   1 4385.74 535.384  -2 
  -4   3   0 4385.74 535.384   1 
   4  -3   0 8185.91 613.528  -2 
  -4   3  -1 8185.91 613.528   1 
  -4   3   1 126542. 1168.35  -2 
   4  -3   2 126542. 1168.35   1 
  -4   3   2 20378.8 707.555  -2 
   4  -3   3 20378.8 707.555   1 
   4  -3  -3 25268.6 842.885  -2 
  -4   3  -4 25268.6 842.885   1 
   4  -3  -4 15318.7 888.161  -2 
  -4   3  -5 15318.7 888.161   1 
  -4   3   5 23589.0 1004.19  -2 
   4  -3   6 23589.0 1004.19   1 
   4  -3  -6 8991.72 926.825  -2 
  -4   3  -7 8991.72 926.825   1 
   4  -3  -7 13410.1 995.835  -2 
  -4   3  -8 13410.1 995.835   1 
   4  -3  -8 23783.7 1070.56  -2 
  -4   3  -9 23783.7 1070.56   1 
   4  -3  -9 1490.90 859.183  -2 
  -4   3 -10 1490.90 859.183   1 
  -4   3  10 4973.31 940.037  -2 
   4  -3  11 4973.31 940.037   1 
   4  -3 -11 12757.7 912.796  -2 
  -4   3 -12 12757.7 912.796   1 
  -4   3  12 1448.44 756.151  -2 
   4  -3  13 1448.44 756.151   1 
   4  -2 -13 216.313 689.184   1 
   4  -2 -12 3011.70 686.398   1 
   4  -2 -11 775.122 778.734   1 
   4  -2 -10 455.948 805.408   1 
   4  -2  -9 230.016 577.592   1 
   4  -2  -8 21393.7 713.325   1 
   4  -2  -7 19632.3 704.733   1 
   4  -2  -6 14253.6 635.905   1 
   4  -2  -5 13915.3 609.360   1 
   4  -2  -4 2083.57 401.642   1 
   4  -2  -3 15036.7 451.031   1 
   4  -2  -2 2388.48 457.256   1 
  -4   2  -2 25154.0 857.433  -2 
   4  -2  -2 25154.0 857.433   1 
   4  -2  -1 987.620 471.953   1 
  -4   2  -1 1230.48 572.753  -2 
   4  -2  -1 1230.48 572.753   1 
  -4   2   0 37933.8 1111.58   1 
  -4   2   0 70994.9 1015.77  -2 
   4  -2   0 70994.9 1015.77   1 
  -4   2  -1 16.8416 488.151   1 
  -4   2   1 862.728 663.010  -2 
   4  -2   1 862.728 663.010   1 
  -4   2  -2 41034.9 820.451   1 
  -4   2   2 45412.4 943.027  -2 
   4  -2   2 45412.4 943.027   1 
   4  -2   3 437144. 2042.86   1 
  -4   2   3 434179. 2200.68  -2 
   4  -2   3 434179. 2200.68   1 
  -4   2  -4 12759.8 497.555   1 
   4  -2   5 20960.7 655.028   1 
   4  -2   6 11870.0 701.328   1 
  -4   2  -7 129.318 605.343   1 
   4  -2   8 572.317 674.179   1 
  -4   2  -9 1207.18 699.704   1 
  -4   2 -10 1201.25 707.390   1 
   4  -2  11 2760.96 704.190   1 
  -4   2 -12 2306.96 654.162   1 
   4  -2  13 23462.1 705.906   1 
   4  -1 -13 270.284 587.652   1 
   4  -1 -12 361.421 594.201   1 
   4  -1 -11 863.464 759.975   1 
   4  -1 -10 8505.50 715.747   1 
   4  -1  -9 402.186 679.418   1 
   4  -1  -8 307.142 501.966   1 
   4  -1  -7 16893.5 651.259   1 
   4  -1  -6 10096.7 507.619   1 
   4  -1  -5 28984.8 566.373   1 
   4  -1  -4 36871.2 537.126   1 
   4  -1  -3 3303.52 327.638   1 
   4  -1  -2 25573.5 446.364   1 
  -4   1  -2 39302.6 1531.08  -2 
   4  -1  -2 39302.6 1531.08   1 
   4  -1  -1 57245.7 864.874   1 
  -4   1  -1 68233.4 833.536  -2 
   4  -1  -1 68233.4 833.536   1 
  -4   1   0 47542.1 1195.99   1 
  -4   1   0 89142.4 1028.54  -2 
   4  -1   0 89142.4 1028.54   1 
  -4   1  -1 7561.96 521.860   1 
  -4   1   1 48108.3 861.579  -2 
   4  -1   1 48108.3 861.579   1 
  -4   1  -2 32197.0 737.533   1 
  -4   1   2 54606.4 947.603  -2 
   4  -1   2 54606.4 947.603   1 
  -4   1  -3 16257.2 508.441   1 
  -4   1   3 21043.0 1160.05  -2 
   4  -1   3 21043.0 1160.05   1 
   4  -1   4 328.839 436.271   1 
   4  -1   5 19635.0 697.735   1 
  -4   1  -6 4405.33 672.607   1 
   4  -1   7 8942.91 717.931   1 
  -4   1  -8 18288.1 760.151   1 
  -4   1  -9 5754.38 739.166   1 
  -4   1 -10 785.225 696.412   1 
  -4   1 -11 7192.53 741.746   1 
   4  -1  12 422.717 608.702   1 
  -4   1 -13 3675.98 1121.23   1 
   4   0 -13 2501.81 1060.80   1 
  -4   0 -12 2237.08 793.228  -2 
   4   0 -13 2237.08 793.228   1 
  -4   0 -11 4546.70 749.576  -2 
   4   0 -12 4546.70 749.576   1 
  -4   0 -10 2255.80 805.584  -2 
   4   0 -11 2255.80 805.584   1 
  -4   0  -9 3976.93 802.846  -2 
   4   0 -10 3976.93 802.846   1 
  -4   0  -8 1995.98 719.629  -2 
   4   0  -9 1995.98 719.629   1 
  -4   0  -7 4256.49 649.330  -2 
   4   0  -8 4256.49 649.330   1 
  -4   0  -6 5213.78 628.770  -2 
   4   0  -7 5213.78 628.770   1 
  -4   0  -5 33701.6 776.712  -2 
   4   0  -6 33701.6 776.712   1 
  -4   0  -4 8728.21 579.434  -2 
   4   0  -5 8728.21 579.434   1 
  -4   0  -3 29823.9 612.654  -2 
   4   0  -4 29823.9 612.654   1 
  -4   0  -2 33608.6 605.472  -2 
   4   0  -3 33608.6 605.472   1 
  -4   0  -1 22501.6 525.270  -2 
   4   0  -2 22501.6 525.270   1 
  -4   0   0 53710.8 649.019  -2 
   4   0  -1 53710.8 649.019   1 
   4   0  -1 45210.8 692.985  -2 
  -4   0   0 45210.8 692.985   1 
   4   0  -2 15254.0 575.200  -2 
  -4   0  -1 15254.0 575.200   1 
   4   0  -3 25096.9 596.628  -2 
  -4   0  -2 25096.9 596.628   1 
   4   0  -4 28264.0 672.538  -2 
  -4   0  -3 28264.0 672.538   1 
   4   0  -5 14367.3 649.929  -2 
  -4   0  -4 14367.3 649.929   1 
  -4   0   6 38073.4 898.022  -2 
   4   0   5 38073.4 898.022   1 
   4   0  -7 5301.18 731.261  -2 
  -4   0  -6 5301.18 731.261   1 
   4   0  -8 3365.20 774.777  -2 
  -4   0  -7 3365.20 774.777   1 
   4   0  -9 2423.69 888.274  -2 
  -4   0  -8 2423.69 888.274   1 
   4   0 -10 6963.55 897.883  -2 
  -4   0  -9 6963.55 897.883   1 
   4   0  10 3972.86 1325.77   1 
   4   0 -11 3790.06 1064.33  -2 
  -4   0 -10 3790.06 1064.33   1 
   4   0 -12 4359.83 1041.19  -2 
  -4   0 -11 4359.83 1041.19   1 
  -4   0 -12 219.949 1251.70   1 
   4   0 -13 1631.69 1587.73  -2 
  -4   0 -12 1631.69 1587.73   1 
   4   1 -13 159.095 534.461   1 
   4   1 -12 1056.19 544.696   1 
   4   1 -11 5065.68 516.090   1 
   4   1 -10 6442.16 503.829   1 
   4   1  -9 462.387 437.000   1 
   4   1  -8 1422.45 503.386   1 
   4   1  -7 1099.52 438.493   1 
   4   1  -6 401.092 418.390   1 
   4   1  -5 6080.70 464.871   1 
  -4  -1   4 30737.1 558.788   1 
  -4  -1   3 18471.1 434.785   1 
   4   1  -2 39188.6 505.574   1 
   4   1  -1 27302.5 478.828   1 
   4   1   0 108.362 335.481   1 
  -4  -1  -1 4303.32 423.444   1 
  -4  -1  -2 6656.26 396.541   1 
  -4  -1  -3 1621.70 436.639   1 
  -4  -1  -4 61335.5 877.412   1 
  -4  -1  -5 15158.9 682.928   1 
  -4  -1  -6 5638.28 643.721   1 
  -4  -1  -7 18633.2 887.061   1 
  -4  -1  -8 2431.37 737.522   1 
  -4  -1  -9 117.898 735.802   1 
  -4  -1 -10 237.761 1037.34   1 
  -4  -1 -11 1762.17 1025.96   1 
  -4  -1 -12 383.027 1844.24   1 
   4   2 -13 1166.23 519.882   1 
   4   2 -12 72.2259 524.546   1 
  -4  -2 -10 7233.19 1174.43  -2 
   4   2 -12 7233.19 1174.43   1 
   4   2 -11 994.401 815.258   1 
  -4  -2  -9 12376.9 773.827  -2 
   4   2 -11 12376.9 773.827   1 
   4   2 -10 9456.56 1365.94   1 
  -4  -2  -8 30096.7 813.954  -2 
   4   2 -10 30096.7 813.954   1 
  -4  -2  -7 26166.7 762.794  -2 
   4   2  -9 26166.7 762.794   1 
  -4  -2  -6 1076.89 629.608  -2 
   4   2  -8 1076.89 629.608   1 
  -4  -2  -5 2348.63 571.327  -2 
   4   2  -7 2348.63 571.327   1 
  -4  -2  -4 12101.4 582.622  -2 
   4   2  -6 12101.4 582.622   1 
   4   2   3 2438.72 506.586  -2 
  -4  -2   5 2438.72 506.586   1 
   4   2   2 21594.1 574.712  -2 
  -4  -2   4 21594.1 574.712   1 
   4   2   1 42165.2 713.372  -2 
  -4  -2   3 42165.2 713.372   1 
   4   2   0 19715.0 640.610  -2 
  -4  -2   2 19715.0 640.610   1 
   4   2  -1 50.1574 550.109  -2 
  -4  -2   1 50.1574 550.109   1 
   4   2  -2 28379.5 757.951  -2 
  -4  -2   0 28379.5 757.951   1 
   4   2  -3 51879.2 890.333  -2 
  -4  -2  -1 51879.2 890.333   1 
   4   2  -4 28865.6 879.461  -2 
  -4  -2  -2 28865.6 879.461   1 
   4   2  -5 1044.66 887.790  -2 
  -4  -2  -3 1044.66 887.790   1 
   4   2  -6 6747.61 984.162  -2 
  -4  -2  -4 6747.61 984.162   1 
   4   2  -7 1083.54 996.199  -2 
  -4  -2  -5 1083.54 996.199   1 
   4   2  -8 608.528 1311.94  -2 
  -4  -2  -6 608.528 1311.94   1 
   4   2  -9 12055.8 1433.92  -2 
  -4  -2  -7 12055.8 1433.92   1 
   4   2 -10 14255.4 1476.68  -2 
  -4  -2  -8 14255.4 1476.68   1 
  -4  -2  -9 10433.4 1884.87   1 
   4   2 -11 11506.3 1808.22  -2 
  -4  -2  -9 11506.3 1808.22   1 
  -4  -2 -10 5494.98 1259.67   1 
   4   2 -12 7628.67 2505.17  -2 
  -4  -2 -10 7628.67 2505.17   1 
   4   2 -13 4044.37 2338.77  -2 
  -4  -2 -11 4044.37 2338.77   1 
   4   3 -13 340.259 718.372   1 
   4   3 -12 1357.28 406.095   1 
   4   3 -11 5101.07 435.226   1 
   4   3 -10 2564.49 434.928   1 
   4   3  -9 778.157 459.083   1 
   4   3  -8 9062.94 613.831   1 
   4   3  -7 10773.7 525.116   1 
  -4  -3   6 710.661 424.991   1 
  -4  -3  -3 9847.83 1398.20  -2 
   4   3  -6 9847.83 1398.20   1 
  -4  -3   5 37816.2 723.837   1 
  -4  -3  -2 56333.2 1141.34  -2 
   4   3  -5 56333.2 1141.34   1 
   4   3  -4 96.0131 671.333   1 
   4   3   1 17669.7 687.872  -2 
  -4  -3   4 17669.7 687.872   1 
  -4  -3   3 111.870 1094.72   1 
   4   3   0 8423.73 682.554  -2 
  -4  -3   3 8423.73 682.554   1 
  -4  -3   2 12532.4 1723.29   1 
   4   3  -1 29660.4 789.559  -2 
  -4  -3   2 29660.4 789.559   1 
  -4  -3   1 4956.80 1721.78   1 
   4   3  -2 24828.2 738.882  -2 
  -4  -3   1 24828.2 738.882   1 
  -4  -3   0 5737.19 1625.08   1 
   4   3  -3 12405.7 738.054  -2 
  -4  -3   0 12405.7 738.054   1 
  -4  -3  -1 20700.0 1159.55   1 
   4   3  -4 22759.4 923.329  -2 
  -4  -3  -1 22759.4 923.329   1 
  -4  -3  -2 17451.1 855.804   1 
  -4  -3   5 48363.0 1391.89  -2 
   4   3   2 48363.0 1391.89   1 
  -4  -3  -3 10340.6 834.658   1 
  -4  -3   6 13848.8 1160.48  -2 
   4   3   3 13848.8 1160.48   1 
  -4  -3  -4 111.930 571.898   1 
  -4  -3  -5 12544.8 979.622   1 
  -4  -3  -6 11206.9 1007.77   1 
  -4  -3  -7 4222.54 1023.46   1 
  -4  -3  -8 920.826 1021.68   1 
  -4  -3  -9 3323.42 707.681   1 
   4   3  10 766.702 789.849   1 
   4   4 -12 4213.66 498.472   1 
   4   4 -11 397.191 434.811   1 
   4   4 -10 157.769 460.474   1 
   4   4  -9 1606.02 426.966   1 
   4   4  -8 6530.55 637.679   1 
   4   4  -7 30298.7 746.841   1 
   4   4  -6 309.604 624.840   1 
   4   4  -5 4594.17 531.671   1 
  -4  -4   4 13975.9 729.442   1 
  -4  -4  -1 16854.9 1739.98  -2 
   4   4  -4 16854.9 1739.98   1 
  -4  -4   3 1845.66 577.864   1 
  -4  -4   0 7078.54 1454.57  -2 
   4   4  -3 7078.54 1454.57   1 
  -4  -4   2 112.359 587.237   1 
  -4  -4   1 332.626 1325.12  -2 
   4   4  -2 332.626 1325.12   1 
  -4  -4   1 526.913 939.394   1 
   4   4  -2 856.710 924.058  -2 
  -4  -4   1 856.710 924.058   1 
  -4  -4   0 6566.86 857.677   1 
   4   4  -3 8964.00 978.411  -2 
  -4  -4   0 8964.00 978.411   1 
  -4  -4  -1 1659.48 826.570   1 
   4   4  -4 9769.11 983.283  -2 
  -4  -4  -1 9769.11 983.283   1 
  -4  -4  -2 7720.53 598.551   1 
  -4  -4  -3 30065.9 759.620   1 
  -4  -4  -4 6209.34 684.150   1 
  -4  -4  -5 1817.25 657.461   1 
  -4  -4  -6 18890.4 828.857   1 
  -4  -4  -7 18725.3 815.066   1 
  -4  -4  -8 6417.15 863.935   1 
  -4  -5  -6 527.856 595.512  -2 
   4   5 -10 527.856 595.512   1 
  -4  -5  -5 13677.7 762.716  -2 
   4   5  -9 13677.7 762.716   1 
  -4  -5  -4 17050.7 738.770  -2 
   4   5  -8 17050.7 738.770   1 
  -4  -5  -3 14201.5 1065.33  -2 
   4   5  -7 14201.5 1065.33   1 
  -4  -5  -2 18396.0 1136.79  -2 
   4   5  -6 18396.0 1136.79   1 
  -4  -5  -1 1702.84 934.295  -2 
   4   5  -5 1702.84 934.295   1 
  -4  -5   0 266.094 811.106  -2 
   4   5  -4 266.094 811.106   1 
   4   5  -1 511.214 982.301  -2 
  -4  -5   3 511.214 982.301   1 
   4   5  -2 237.395 774.430  -2 
  -4  -5   2 237.395 774.430   1 
   4   5  -3 973.039 867.089  -2 
  -4  -5   1 973.039 867.089   1 
   4   5  -4 165.541 882.014  -2 
  -4  -5   0 165.541 882.014   1 
   4   5  -5 1511.66 829.766  -2 
  -4  -5  -1 1511.66 829.766   1 
   4   5  -6 12471.8 1046.37  -2 
  -4  -5  -2 12471.8 1046.37   1 
   4   5  -7 12853.9 1064.41  -2 
  -4  -5  -3 12853.9 1064.41   1 
   4   5  -8 29848.7 1253.55  -2 
  -4  -5  -4 29848.7 1253.55   1 
   4   5  -9 22798.3 1318.80  -2 
  -4  -5  -5 22798.3 1318.80   1 
   4   5 -10 1087.08 1810.14  -2 
  -4  -5  -6 1087.08 1810.14   1 
   4   6  -8 1714.17 521.309   1 
   4   6  -7 918.719 462.295   1 
   4   6  -6 47.3322 653.094   1 
   4   6  -5-83.8165 646.824   1 
  -4  -6   4 193.355 929.696   1 
  -4  -6   1 10594.3 1456.42  -2 
   4   6  -4 10594.3 1456.42   1 
   4   6  -3 6820.04 643.105   1 
  -4  -6   2 9992.44 857.070   1 
  -4  -6   3 19070.5 1520.62  -2 
   4   6  -2 19070.5 1520.62   1 
  -4  -6   1 9318.18 740.808   1 
  -4  -6   0 494.162 675.963   1 
  -4  -6  -1 363.006 848.649   1 
  -4  -6  -2 510.909 1072.13   1 
  -5   8  -5 8630.51 1512.97  -2 
   5  -8  -1 8630.51 1512.97   1 
  -5   8  -4 7157.36 1556.59  -2 
   5  -8   0 7157.36 1556.59   1 
  -5   8  -3 3023.12 1537.64  -2 
   5  -8   1 3023.12 1537.64   1 
  -5   8  -2 3514.04 1612.63  -2 
   5  -8   2 3514.04 1612.63   1 
  -5   8  -1 3470.41 1534.45  -2 
   5  -8   3 3470.41 1534.45   1 
  -5   8   0 5573.89 1585.23  -2 
   5  -8   4 5573.89 1585.23   1 
  -5   8   1 10823.4 1615.23  -2 
   5  -8   5 10823.4 1615.23   1 
  -5   7  -8 5709.47 1520.50  -2 
   5  -7  -5 5709.47 1520.50   1 
  -5   7  -7 21286.8 1658.50  -2 
   5  -7  -4 21286.8 1658.50   1 
  -5   7  -6 16475.6 1741.48  -2 
   5  -7  -3 16475.6 1741.48   1 
  -5   7  -5 11389.9 1753.00  -2 
   5  -7  -2 11389.9 1753.00   1 
  -5   7  -4 486.227 1107.94  -2 
   5  -7  -1 486.227 1107.94   1 
  -5   7  -3 5257.07 1126.96  -2 
   5  -7   0 5257.07 1126.96   1 
  -5   7  -2 12068.8 959.502  -2 
   5  -7   1 12068.8 959.502   1 
  -5   7  -1 8837.29 1041.87  -2 
   5  -7   2 8837.29 1041.87   1 
  -5   7   0 7122.45 956.901  -2 
   5  -7   3 7122.45 956.901   1 
  -5   7   1 359.709 1093.75  -2 
   5  -7   4 359.709 1093.75   1 
  -5   7   2 8840.65 1143.89  -2 
   5  -7   5 8840.65 1143.89   1 
  -5   7   3 24681.3 1232.65  -2 
   5  -7   6 24681.3 1232.65   1 
  -5   7   4 14849.7 1132.78  -2 
   5  -7   7 14849.7 1132.78   1 
   5  -7  -5 5909.68 2019.42  -2 
  -5   7  -8 5909.68 2019.42   1 
   5  -6  -7 3112.66 1095.57   1 
   5  -6  -6 177.029 940.219   1 
   5  -6  -5 186.895 984.275   1 
   5  -6  -4 281.996 1035.31   1 
   5  -6  -3 2032.46 1086.20   1 
   5  -6  -2 383.803 813.423   1 
   5  -6  -1 3058.34 946.649   1 
  -5   6  -3 8779.17 1183.96  -2 
   5  -6  -1 8779.17 1183.96   1 
   5  -6   0 5253.99 902.218   1 
  -5   6  -2 23113.5 1448.38  -2 
   5  -6   0 23113.5 1448.38   1 
   5  -6   1 4695.05 1306.43   1 
  -5   6  -1 6245.73 1220.85  -2 
   5  -6   1 6245.73 1220.85   1 
  -5   6  -2 32149.6 1512.24   1 
  -5   6   0 30954.5 1473.59  -2 
   5  -6   2 30954.5 1473.59   1 
  -5   6  -3 9716.95 1278.75   1 
  -5   6   1 10930.0 1294.88  -2 
   5  -6   3 10930.0 1294.88   1 
   5  -6   4 1396.22 713.669   1 
   5  -6   5 3972.24 876.488   1 
  -5   6  -6 444.325 678.258   1 
  -5   6  -7 5613.42 717.590   1 
  -5   6  -8 5269.42 681.114   1 
   5  -6   9 8042.26 647.484   1 
  -5   6 -10 1005.39 561.671   1 
   5  -5  -9 1291.29 1365.74   1 
  -5   5 -10 11611.0 1160.67  -2 
   5  -5  -8 11611.0 1160.67   1 
  -5   5  -9 7311.02 1233.63  -2 
   5  -5  -7 7311.02 1233.63   1 
  -5   5  -8 3325.98 1277.06  -2 
   5  -5  -6 3325.98 1277.06   1 
  -5   5  -7 12730.8 1457.69  -2 
   5  -5  -5 12730.8 1457.69   1 
  -5   5  -6 2642.73 1106.08  -2 
   5  -5  -4 2642.73 1106.08   1 
  -5   5  -5 17666.1 1672.89  -2 
   5  -5  -3 17666.1 1672.89   1 
  -5   5  -4 1355.75 782.641  -2 
   5  -5  -2 1355.75 782.641   1 
  -5   5  -3 4617.81 861.945  -2 
   5  -5  -1 4617.81 861.945   1 
  -5   5  -2 33429.8 1190.37  -2 
   5  -5   0 33429.8 1190.37   1 
  -5   5  -1 703.029 912.402  -2 
   5  -5   1 703.029 912.402   1 
  -5   5   0 29844.0 1234.50  -2 
   5  -5   2 29844.0 1234.50   1 
  -5   5   1 6133.62 942.767  -2 
   5  -5   3 6133.62 942.767   1 
   5  -5  -2 2224.43 1068.90  -2 
  -5   5  -4 2224.43 1068.90   1 
  -5   5   3 14494.6 1112.77  -2 
   5  -5   5 14494.6 1112.77   1 
   5  -5  -4 6635.71 1010.63  -2 
  -5   5  -6 6635.71 1010.63   1 
  -5   5   5 28245.5 1185.35  -2 
   5  -5   7 28245.5 1185.35   1 
  -5   5   6 7003.77 945.000  -2 
   5  -5   8 7003.77 945.000   1 
   5  -5  -7 11892.3 948.465  -2 
  -5   5  -9 11892.3 948.465   1 
  -5   5   8 17363.3 983.232  -2 
   5  -5  10 17363.3 983.232   1 
  -5   5   9 5195.85 808.434  -2 
   5  -5  11 5195.85 808.434   1 
   5  -4 -10 4804.37 1239.96   1 
   5  -4  -9 687.955 1363.51   1 
   5  -4  -8 32835.3 1201.64   1 
   5  -4  -7 32133.5 1268.92   1 
   5  -4  -6 321.461 772.913   1 
   5  -4  -5 9.75650 752.866   1 
   5  -4  -4 2631.38 1023.78   1 
   5  -4  -3 2811.38 1246.85   1 
  -5   4  -4 4402.85 1163.23  -2 
   5  -4  -3 4402.85 1163.23   1 
  -5   4  -3 989.582 891.400  -2 
   5  -4  -2 989.582 891.400   1 
   5  -4  -1 8862.91 1341.14   1 
  -5   4  -2 12468.0 1015.34  -2 
   5  -4  -1 12468.0 1015.34   1 
   5  -4   0 374.291 1118.72   1 
  -5   4  -1 4568.03 923.461  -2 
   5  -4   0 4568.03 923.461   1 
  -5   4   0 6243.84 1116.32  -2 
   5  -4   1 6243.84 1116.32   1 
  -5   4  -2 6935.25 2264.68   1 
  -5   4   1 13458.0 1259.63  -2 
   5  -4   2 13458.0 1259.63   1 
  -5   4  -3 1347.80 2167.44   1 
  -5   4   2 2416.24 1130.71  -2 
   5  -4   3 2416.24 1130.71   1 
  -5   4  -4 14.7297 1132.87   1 
  -5   4   3 1701.00 1122.37  -2 
   5  -4   4 1701.00 1122.37   1 
  -5   4  -5 205.005 1086.84   1 
  -5   4   4 2123.55 1189.56  -2 
   5  -4   5 2123.55 1189.56   1 
  -5   4  -6 774.182 718.993   1 
   5  -4   7 16827.5 904.089   1 
  -5   4  -8 13183.8 852.842   1 
   5  -4   9 688.237 688.546   1 
   5  -4  10 52.4940 692.629   1 
   5  -4  11 16295.5 787.900   1 
   5  -4  12 13083.8 665.065   1 
   5  -3 -11 145.029 1088.40   1 
   5  -3 -10 2255.48 941.572   1 
   5  -3  -9 896.378 988.612   1 
   5  -3  -8 5659.92 656.276   1 
   5  -3  -7 10001.0 689.552   1 
   5  -3  -6 37806.8 874.605   1 
   5  -3  -5 44.5926 592.940   1 
   5  -3  -4 1748.65 590.224   1 
   5  -3  -3 401.460 555.766   1 
   5  -3  -2 6080.03 657.844   1 
  -5   3  -3 22024.7 1807.70  -2 
   5  -3  -2 22024.7 1807.70   1 
  -5   3  -2 1962.81 725.815  -2 
   5  -3  -1 1962.81 725.815   1 
  -5   3  -1 1378.75 851.840  -2 
   5  -3   0 1378.75 851.840   1 
  -5   3   0 1262.92 865.187  -2 
   5  -3   1 1262.92 865.187   1 
  -5   3  -2 4006.17 2069.59   1 
  -5   3   1 3002.82 910.182  -2 
   5  -3   2 3002.82 910.182   1 
  -5   3  -3 35073.5 1308.10   1 
  -5   3   2 42336.4 1532.14  -2 
   5  -3   3 42336.4 1532.14   1 
  -5   3  -4 61086.2 1583.90   1 
  -5   3   3 68601.4 1837.40  -2 
   5  -3   4 68601.4 1837.40   1 
  -5   3  -5 37834.8 1037.45   1 
   5  -3   6 7109.26 739.004   1 
   5  -3   7 113.846 682.848   1 
   5  -3   8 5709.61 701.280   1 
  -5   3  -9 2375.60 715.383   1 
  -5   3 -10 2704.60 688.724   1 
   5  -3  11 1661.39 696.854   1 
   5  -3  12 1179.85 581.284   1 
  -5   2 -12 2011.39 957.977  -2 
   5  -2 -12 2011.39 957.977   1 
  -5   2 -11 3827.51 956.878  -2 
   5  -2 -11 3827.51 956.878   1 
  -5   2 -10 2279.63 824.464  -2 
   5  -2 -10 2279.63 824.464   1 
  -5   2  -9 37919.9 1107.54  -2 
   5  -2  -9 37919.9 1107.54   1 
  -5   2  -8 25641.6 920.695  -2 
   5  -2  -8 25641.6 920.695   1 
  -5   2  -7 953.748 755.475  -2 
   5  -2  -7 953.748 755.475   1 
  -5   2  -6 1451.39 760.031  -2 
   5  -2  -6 1451.39 760.031   1 
  -5   2  -5 20518.9 802.563  -2 
   5  -2  -5 20518.9 802.563   1 
  -5   2  -4 8617.99 699.025  -2 
   5  -2  -4 8617.99 699.025   1 
   5  -2   3 11681.9 723.654  -2 
  -5   2   3 11681.9 723.654   1 
  -5   2  -2 63612.3 973.551  -2 
   5  -2  -2 63612.3 973.551   1 
  -5   2  -1 3723.74 640.296  -2 
   5  -2  -1 3723.74 640.296   1 
  -5   2   0 5007.16 668.311  -2 
   5  -2   0 5007.16 668.311   1 
   5  -2  -1 6195.04 736.115  -2 
  -5   2  -1 6195.04 736.115   1 
  -5   2   2 46244.5 1015.93  -2 
   5  -2   2 46244.5 1015.93   1 
  -5   2   3 17587.8 792.006  -2 
   5  -2   3 17587.8 792.006   1 
  -5   2   4 11694.9 818.958  -2 
   5  -2   4 11694.9 818.958   1 
  -5   2   5 18878.5 907.852  -2 
   5  -2   5 18878.5 907.852   1 
   5  -2  -6 2562.06 787.065  -2 
  -5   2  -6 2562.06 787.065   1 
   5  -2  -7 1371.35 808.204  -2 
  -5   2  -7 1371.35 808.204   1 
   5  -2  -8 22484.7 898.702  -2 
  -5   2  -8 22484.7 898.702   1 
   5  -2  -9 45651.1 1174.67  -2 
  -5   2  -9 45651.1 1174.67   1 
   5  -2 -10 2465.08 920.340  -2 
  -5   2 -10 2465.08 920.340   1 
  -5   2  11 4958.50 913.875  -2 
   5  -2  11 4958.50 913.875   1 
   5  -2 -12 4518.98 1125.03  -2 
  -5   2 -12 4518.98 1125.03   1 
   5  -1 -12 4662.34 577.476   1 
   5  -1 -11 3838.29 623.017   1 
   5  -1 -10 3034.70 626.627   1 
   5  -1  -9 213.231 576.150   1 
   5  -1  -8 830.027 590.152   1 
   5  -1  -7 3538.39 571.970   1 
   5  -1  -6 6992.05 527.275   1 
   5  -1  -5 38524.4 820.638   1 
   5  -1  -4 56956.1 695.077   1 
  -5   1   3 9766.88 521.070   1 
   5  -1  -2 2941.96 463.635   1 
  -5   1   1 2019.45 519.367   1 
  -5   1   0 7037.60 983.665  -2 
   5  -1  -1 7037.60 983.665   1 
   5  -1   0 8024.38 456.984   1 
   5  -1   1 318.040 410.039   1 
   5  -1   2 269.075 457.898   1 
   5  -1   3 3950.68 537.834   1 
   5  -1   4 127.627 525.542   1 
   5  -1   5 259.112 500.979   1 
   5  -1   6 4476.78 535.218   1 
  -5   1  -7 4623.06 560.740   1 
   5  -1   8-51.5111 550.694   1 
  -5   1  -9 14034.6 689.557   1 
   5  -1  10 19067.3 738.001   1 
  -5   1 -11 4181.00 752.309   1 
  -5   1 -12 303.509 1091.38   1 
   5   0 -12 3245.99 616.288   1 
   5   0 -11 5464.48 702.856   1 
  -5   0 -10 7240.57 1695.15  -2 
   5   0 -11 7240.57 1695.15   1 
  -5   0  10 1835.09 638.299   1 
  -5   0  -9 3264.47 954.536  -2 
   5   0 -10 3264.47 954.536   1 
   5   0  -9 238.783 1277.04   1 
  -5   0  -8 4818.34 800.219  -2 
   5   0  -9 4818.34 800.219   1 
  -5   0  -7 3732.55 747.074  -2 
   5   0  -8 3732.55 747.074   1 
  -5   0  -6 3831.55 640.374  -2 
   5   0  -7 3831.55 640.374   1 
  -5   0  -5 11001.8 827.827  -2 
   5   0  -6 11001.8 827.827   1 
  -5   0  -4 1926.50 676.532  -2 
   5   0  -5 1926.50 676.532   1 
  -5   0  -3 4513.70 732.676  -2 
   5   0  -4 4513.70 732.676   1 
  -5   0  -2 71072.6 1054.67  -2 
   5   0  -3 71072.6 1054.67   1 
  -5   0  -1 1466.33 669.917  -2 
   5   0  -2 1466.33 669.917   1 
  -5   0   0 42286.1 948.701  -2 
   5   0  -1 42286.1 948.701   1 
  -5   0   1 36150.2 911.480  -2 
   5   0   0 36150.2 911.480   1 
   5   0  -2 1036.88 695.710  -2 
  -5   0  -1 1036.88 695.710   1 
   5   0  -3 47146.0 920.329  -2 
  -5   0  -2 47146.0 920.329   1 
   5   0  -4 2784.50 651.557  -2 
  -5   0  -3 2784.50 651.557   1 
   5   0  -5 1642.24 721.391  -2 
  -5   0  -4 1642.24 721.391   1 
   5   0  -6 10841.6 837.248  -2 
  -5   0  -5 10841.6 837.248   1 
   5   0  -7 5142.72 814.229  -2 
  -5   0  -6 5142.72 814.229   1 
  -5   0  -7 3045.09 1817.67   1 
   5   0  -8 6912.59 1210.27  -2 
  -5   0  -7 6912.59 1210.27   1 
  -5   0  -8 7385.01 1032.83   1 
  -5   0   9 11303.0 1548.70  -2 
   5   0   8 11303.0 1548.70   1 
  -5   0  -9 1033.86 811.454   1 
  -5   0  10 3696.45 1417.50  -2 
   5   0   9 3696.45 1417.50   1 
  -5   0 -10 38.4330 1174.01   1 
  -5   0  11 2711.11 1371.00  -2 
   5   0  10 2711.11 1371.00   1 
  -5   0 -11 161.523 770.063   1 
   5   1 -12 413.534 556.574   1 
   5   1 -11-24.1277 534.408   1 
   5   1 -10 2461.78 596.937   1 
   5   1  -9 7179.89 489.875   1 
   5   1  -8 31489.8 753.149   1 
   5   1  -7 22112.7 669.806   1 
   5   1  -6 27716.9 687.962   1 
   5   1  -5 17299.4 904.555   1 
  -5  -1  -3 18302.4 1173.50  -2 
   5   1  -5 18302.4 1173.50   1 
  -5  -1   4 1570.54 948.320   1 
  -5  -1  -2 2747.08 879.603  -2 
   5   1  -4 2747.08 879.603   1 
  -5  -1   3 321.693 1157.30   1 
  -5  -1  -1 7483.09 730.487  -2 
   5   1  -3 7483.09 730.487   1 
  -5  -1   2 292.916 1553.54   1 
  -5  -1   0 11810.4 760.975  -2 
   5   1  -2 11810.4 760.975   1 
  -5  -1   1 969.506 1463.37   1 
  -5  -1   1 2680.96 683.997  -2 
   5   1  -1 2680.96 683.997   1 
   5   1  -2 19232.0 763.246  -2 
  -5  -1   0 19232.0 763.246   1 
   5   1  -3 12005.4 813.401  -2 
  -5  -1  -1 12005.4 813.401   1 
   5   1  -4 1238.51 763.737  -2 
  -5  -1  -2 1238.51 763.737   1 
  -5  -1  -3 1342.11 1193.66   1 
   5   1  -5 10782.8 998.327  -2 
  -5  -1  -3 10782.8 998.327   1 
  -5  -1  -4 1036.34 823.984   1 
  -5  -1   6 21090.4 1489.73  -2 
   5   1   4 21090.4 1489.73   1 
  -5  -1  -5 507.331 668.026   1 
  -5  -1  -6 539.135 707.871   1 
   5   1   7 6012.78 837.241   1 
  -5  -1  -8 202.522 740.180   1 
  -5  -1  -9 153.930 733.090   1 
  -5  -1 -10 3931.02 781.218   1 
   5   2 -12 67.5916 502.871   1 
   5   2 -11 356.965 505.929   1 
   5   2 -10 6202.24 497.855   1 
   5   2  -9 3091.74 503.671   1 
   5   2  -8 1198.03 500.045   1 
   5   2  -7 6469.16 466.218   1 
   5   2  -6 6768.28 500.865   1 
  -5  -2   5 162.435 439.334   1 
  -5  -2   4 30432.6 575.009   1 
  -5  -2   3 4147.65 552.308   1 
  -5  -2  -1 34999.9 1282.31  -2 
   5   2  -3 34999.9 1282.31   1 
  -5  -2   2 14521.2 624.615   1 
  -5  -2   0 22726.2 1432.27  -2 
   5   2  -2 22726.2 1432.27   1 
  -5  -2   1 5851.98 641.908   1 
  -5  -2   1 12202.0 1293.60  -2 
   5   2  -1 12202.0 1293.60   1 
  -5  -2   0 6306.43 679.554   1 
  -5  -2   2 19499.4 1349.84  -2 
   5   2   0 19499.4 1349.84   1 
  -5  -2  -1 36680.9 1122.02   1 
  -5  -2   3 54712.1 1795.59  -2 
   5   2   1 54712.1 1795.59   1 
  -5  -2  -2 5915.75 860.870   1 
  -5  -2   4 29492.7 1537.27  -2 
   5   2   2 29492.7 1537.27   1 
  -5  -2  -3 1172.35 617.886   1 
  -5  -2  -4 93.8200 607.922   1 
  -5  -2  -5 4776.76 656.797   1 
  -5  -2  -6 73.8315 682.531   1 
  -5  -2  -7 376.226 691.312   1 
  -5  -2  -8 1710.58 717.479   1 
  -5  -2  -9 1464.82 691.738   1 
   5   3   8 1826.82 946.295  -2 
  -5  -3  11 1826.82 946.295   1 
  -5  -3  -7 1618.76 565.367  -2 
   5   3 -10 1618.76 565.367   1 
  -5  -3  -6 5843.30 643.199  -2 
   5   3  -9 5843.30 643.199   1 
  -5  -3  -5 1141.70 746.040  -2 
   5   3  -8 1141.70 746.040   1 
  -5  -3  -4 20072.3 925.890  -2 
   5   3  -7 20072.3 925.890   1 
   5   3   3 28881.8 824.865  -2 
  -5  -3   6 28881.8 824.865   1 
  -5  -3  -2 2706.70 565.285  -2 
   5   3  -5 2706.70 565.285   1 
  -5  -3  -1 9465.58 642.666  -2 
   5   3  -4 9465.58 642.666   1 
   5   3   0 21131.2 792.275  -2 
  -5  -3   3 21131.2 792.275   1 
   5   3  -1 51914.9 1067.75  -2 
  -5  -3   2 51914.9 1067.75   1 
   5   3  -2 36591.8 977.140  -2 
  -5  -3   1 36591.8 977.140   1 
   5   3  -3 17452.4 917.766  -2 
  -5  -3   0 17452.4 917.766   1 
   5   3  -4 10992.0 827.056  -2 
  -5  -3  -1 10992.0 827.056   1 
   5   3  -5 3535.23 767.980  -2 
  -5  -3  -2 3535.23 767.980   1 
   5   3  -6 34533.6 1039.01  -2 
  -5  -3  -3 34533.6 1039.01   1 
   5   3  -7 19067.0 938.891  -2 
  -5  -3  -4 19067.0 938.891   1 
   5   3  -8 757.450 845.277  -2 
  -5  -3  -5 757.450 845.277   1 
   5   3  -9 6527.67 930.860  -2 
  -5  -3  -6 6527.67 930.860   1 
   5   3 -10 2853.17 889.754  -2 
  -5  -3  -7 2853.17 889.754   1 
   5   3 -11 2777.14 957.116  -2 
  -5  -3  -8 2777.14 957.116   1 
   5   4 -10 521.220 654.978   1 
   5   4  -9 436.014 470.548   1 
   5   4  -8 3496.60 584.549   1 
   5   4  -7 397.135 589.801   1 
   5   4  -6 2345.85 758.572   1 
   5   4  -5 37463.4 748.754   1 
   5   4  -4 15059.3 580.502   1 
  -5  -4   3 3854.07 491.708   1 
   5   4  -2 7666.51 626.422   1 
  -5  -4   2 11856.5 1444.37  -2 
   5   4  -2 11856.5 1444.37   1 
  -5  -4   1-33.7195 559.936   1 
  -5  -4   0 16870.7 696.374   1 
  -5  -4  -1 73.5204 576.341   1 
  -5  -4  -2 10168.1 621.887   1 
  -5  -4  -3 6770.97 611.151   1 
  -5  -4  -4 8961.55 692.780   1 
  -5  -4  -5 930.083 653.822   1 
  -5  -4  -6 1296.64 690.132   1 
  -5  -5  -4 1396.68 801.514  -2 
   5   5  -8 1396.68 801.514   1 
  -5  -5   7 395.311 1397.59   1 
  -5  -5  -3 5067.07 1603.62  -2 
   5   5  -7 5067.07 1603.62   1 
  -5  -5  -2 7893.57 1186.94  -2 
   5   5  -6 7893.57 1186.94   1 
   5   5   1 592.747 1156.06  -2 
  -5  -5   5 592.747 1156.06   1 
  -5  -5   0 18371.3 1322.71  -2 
   5   5  -4 18371.3 1322.71   1 
  -5  -5   1 19984.9 1085.90  -2 
   5   5  -3 19984.9 1085.90   1 
  -5  -5   2 1844.00 967.879  -2 
   5   5  -2 1844.00 967.879   1 
  -5  -5   3 26729.9 1194.66  -2 
   5   5  -1 26729.9 1194.66   1 
   5   5  -4 29870.6 1297.37  -2 
  -5  -5   0 29870.6 1297.37   1 
   5   5  -5 212.317 983.645  -2 
  -5  -5  -1 212.317 983.645   1 
   5   5  -6 10219.0 1164.05  -2 
  -5  -5  -2 10219.0 1164.05   1 
   5   5  -7 7670.04 1171.31  -2 
  -5  -5  -3 7670.04 1171.31   1 
  -6   7  -6 5187.86 1385.32  -2 
   6  -7  -3 5187.86 1385.32   1 
  -6   7  -5 6951.17 1485.67  -2 
   6  -7  -2 6951.17 1485.67   1 
  -6   7  -4 11202.2 1586.72  -2 
   6  -7  -1 11202.2 1586.72   1 
  -6   7  -3 10581.8 1673.56  -2 
   6  -7   0 10581.8 1673.56   1 
  -6   7  -2 5566.09 1709.89  -2 
   6  -7   1 5566.09 1709.89   1 
  -6   7  -1 3919.74 970.680  -2 
   6  -7   2 3919.74 970.680   1 
  -6   7   0 6141.83 996.789  -2 
   6  -7   3 6141.83 996.789   1 
  -6   7   1 7380.06 1003.38  -2 
   6  -7   4 7380.06 1003.38   1 
  -6   7   2 4171.91 1114.93  -2 
   6  -7   5 4171.91 1114.93   1 
   6  -6  -6 132.841 1004.74   1 
   6  -6  -5 91.0094 893.323   1 
   6  -6  -4 3307.46 1106.25   1 
  -6   6  -6 1912.13 2344.57  -2 
   6  -6  -4 1912.13 2344.57   1 
  -6   6  -5 3953.84 1317.40  -2 
   6  -6  -3 3953.84 1317.40   1 
  -6   6  -4 11014.4 1420.69  -2 
   6  -6  -2 11014.4 1420.69   1 
  -6   6  -3 5565.90 942.807  -2 
   6  -6  -1 5565.90 942.807   1 
  -6   6  -2 10752.6 1014.95  -2 
   6  -6   0 10752.6 1014.95   1 
  -6   6  -1 28968.0 1289.19  -2 
   6  -6   1 28968.0 1289.19   1 
  -6   6   0 14113.1 1146.49  -2 
   6  -6   2 14113.1 1146.49   1 
  -6   6   1 9822.43 1041.91  -2 
   6  -6   3 9822.43 1041.91   1 
  -6   6  -4 8457.09 2445.89   1 
  -6   6   2 13931.4 1079.82  -2 
   6  -6   4 13931.4 1079.82   1 
  -6   6  -5 7262.40 2221.74   1 
  -6   6   3 8534.05 1169.09  -2 
   6  -6   5 8534.05 1169.09   1 
  -6   6  -6 941.994 2091.69   1 
  -6   6   4 4553.00 1090.45  -2 
   6  -6   6 4553.00 1090.45   1 
   6  -6   7-110.276 706.298   1 
   6  -6   8 2545.61 758.236   1 
   6  -5  -7 1954.18 826.879   1 
   6  -5  -6 193.813 890.298   1 
   6  -5  -5 3539.29 948.871   1 
   6  -5  -4 2770.81 802.986   1 
   6  -5  -3 10134.1 1125.57   1 
   6  -5  -2 22644.3 968.859   1 
  -6   5  -4 18410.3 2782.31  -2 
   6  -5  -2 18410.3 2782.31   1 
  -6   5  -3 28084.2 1204.03  -2 
   6  -5  -1 28084.2 1204.03   1 
  -6   5  -2 13280.0 1110.98  -2 
   6  -5   0 13280.0 1110.98   1 
  -6   5  -1 8297.47 1067.79  -2 
   6  -5   1 8297.47 1067.79   1 
  -6   5   0 17815.1 1207.07  -2 
   6  -5   2 17815.1 1207.07   1 
  -6   5   1 28634.8 1314.75  -2 
   6  -5   3 28634.8 1314.75   1 
  -6   5  -4 3355.77 2370.22   1 
  -6   5   2 20409.5 1408.00  -2 
   6  -5   4 20409.5 1408.00   1 
  -6   5  -5 8972.44 939.733   1 
   6  -5   6 5536.23 853.246   1 
  -6   5  -7 919.058 666.152   1 
   6  -5   8 2562.61 707.420   1 
  -6   5  -9 5148.87 586.422   1 
  -6   4 -10 1176.23 1563.39  -2 
   6  -4  -9 1176.23 1563.39   1 
  -6   4  -9 3449.56 1819.37  -2 
   6  -4  -8 3449.56 1819.37   1 
  -6   4  -8 1478.54 1124.28  -2 
   6  -4  -7 1478.54 1124.28   1 
  -6   4  -7 10955.6 1039.62  -2 
   6  -4  -6 10955.6 1039.62   1 
  -6   4  -6 4504.97 1007.16  -2 
   6  -4  -5 4504.97 1007.16   1 
  -6   4  -5 9209.16 1091.44  -2 
   6  -4  -4 9209.16 1091.44   1 
  -6   4  -4 10560.4 971.549  -2 
   6  -4  -3 10560.4 971.549   1 
  -6   4  -3 18241.5 1240.96  -2 
   6  -4  -2 18241.5 1240.96   1 
  -6   4  -2 2824.31 1009.88  -2 
   6  -4  -1 2824.31 1009.88   1 
  -6   4  -1 15376.7 1238.86  -2 
   6  -4   0 15376.7 1238.86   1 
  -6   4   0 13335.8 1237.20  -2 
   6  -4   1 13335.8 1237.20   1 
  -6   4   1 4417.18 1093.08  -2 
   6  -4   2 4417.18 1093.08   1 
  -6   4   2 28966.9 1600.17  -2 
   6  -4   3 28966.9 1600.17   1 
  -6   4   3 19621.8 1461.89  -2 
   6  -4   4 19621.8 1461.89   1 
  -6   4   4 13276.8 1112.49  -2 
   6  -4   5 13276.8 1112.49   1 
  -6   4   5 5078.22 1037.33  -2 
   6  -4   6 5078.22 1037.33   1 
  -6   4   6 18642.2 1209.31  -2 
   6  -4   7 18642.2 1209.31   1 
  -6   4   7 1108.24 939.408  -2 
   6  -4   8 1108.24 939.408   1 
  -6   4   8 5768.24 828.392  -2 
   6  -4   9 5768.24 828.392   1 
  -6   4   9 3340.26 844.516  -2 
   6  -4  10 3340.26 844.516   1 
   6  -3 -10 762.167 1139.64   1 
   6  -3  -9 114.598 1282.57   1 
   6  -3  -8 1238.39 867.430   1 
   6  -3  -7 3745.27 666.531   1 
   6  -3  -6 15792.1 791.465   1 
   6  -3  -5 399.861 665.454   1 
   6  -3  -4 3808.37 706.970   1 
   6  -3  -3 1828.35 568.183   1 
   6  -3  -2 3200.78 564.899   1 
   6  -3  -1 14632.2 862.357   1 
  -6   3  -1 19643.9 1306.37  -2 
   6  -3  -1 19643.9 1306.37   1 
   6  -3   0 498.934 1027.29   1 
  -6   3   0 1190.44 1078.80  -2 
   6  -3   0 1190.44 1078.80   1 
  -6   3   1 17543.2 1346.66  -2 
   6  -3   1 17543.2 1346.66   1 
  -6   3   2 5903.26 1175.99  -2 
   6  -3   2 5903.26 1175.99   1 
   6  -3   3 1185.65 730.260   1 
   6  -3   4 103543. 1541.34   1 
  -6   3  -5 64990.3 1356.25   1 
  -6   3  -6 3049.84 764.653   1 
   6  -3   7 533.817 629.308   1 
   6  -3   8 7624.98 689.713   1 
   6  -3   9-21.3295 602.567   1 
   6  -3  10 173.067 592.263   1 
   6  -2 -10 290.331 732.568   1 
   6  -2  -9 5467.24 659.799   1 
   6  -2  -8 3504.29 889.097   1 
  -6   2  -8 7275.84 1123.66  -2 
   6  -2  -8 7275.84 1123.66   1 
  -6   2  -7 4158.98 807.744  -2 
   6  -2  -7 4158.98 807.744   1 
  -6   2  -6 9022.14 824.931  -2 
   6  -2  -6 9022.14 824.931   1 
  -6   2  -5 777.391 790.331  -2 
   6  -2  -5 777.391 790.331   1 
  -6   2  -4 8449.45 796.773  -2 
   6  -2  -4 8449.45 796.773   1 
  -6   2  -3 7508.44 733.806  -2 
   6  -2  -3 7508.44 733.806   1 
  -6   2  -2 5577.91 739.657  -2 
   6  -2  -2 5577.91 739.657   1 
   6  -2   1 16263.2 907.027  -2 
  -6   2   1 16263.2 907.027   1 
  -6   2   0 14419.7 902.726  -2 
   6  -2   0 14419.7 902.726   1 
  -6   2   1 27186.0 1031.67  -2 
   6  -2   1 27186.0 1031.67   1 
  -6   2   2 3990.24 729.625  -2 
   6  -2   2 3990.24 729.625   1 
  -6   2   3 5116.68 759.046  -2 
   6  -2   3 5116.68 759.046   1 
  -6   2   4 11876.3 758.615  -2 
   6  -2   4 11876.3 758.615   1 
  -6   2   5 487.847 745.616  -2 
   6  -2   5 487.847 745.616   1 
  -6   2  -6 4787.28 2109.39   1 
  -6   2   6 17063.8 886.133  -2 
   6  -2   6 17063.8 886.133   1 
  -6   2  -7 7957.87 1062.55   1 
  -6   2   7 10414.4 1187.14  -2 
   6  -2   7 10414.4 1187.14   1 
  -6   2  -8 4514.08 845.274   1 
  -6   2   8 10464.8 1509.01  -2 
   6  -2   8 10464.8 1509.01   1 
  -6   2  -9 5672.45 862.123   1 
  -6   2   9 14151.7 1486.35  -2 
   6  -2   9 14151.7 1486.35   1 
  -6   2 -10 2528.38 772.826   1 
   6  -1 -11 2344.13 771.594   1 
   6  -1 -10 2646.42 606.631   1 
   6  -1  -9-8.18373 526.103   1 
   6  -1  -8 212.511 556.881   1 
   6  -1  -7 151.957 581.610   1 
   6  -1  -6 2162.54 581.901   1 
   6  -1  -5 1552.45 861.853   1 
  -6   1  -4 5140.51 1051.33  -2 
   6  -1  -5 5140.51 1051.33   1 
  -6   1   4 62.2820 1296.22   1 
  -6   1  -3 1155.46 780.466  -2 
   6  -1  -4 1155.46 780.466   1 
  -6   1  -2 710.664 699.192  -2 
   6  -1  -3 710.664 699.192   1 
  -6   1  -1 15662.6 884.309  -2 
   6  -1  -2 15662.6 884.309   1 
  -6   1   0 6337.94 797.307  -2 
   6  -1  -1 6337.94 797.307   1 
  -6   1   1 8887.96 824.953  -2 
   6  -1   0 8887.96 824.953   1 
  -6   1   2 10259.2 851.738  -2 
   6  -1   1 10259.2 851.738   1 
  -6   1  -2 315.712 1979.58   1 
  -6   1   3 874.115 756.472  -2 
   6  -1   2 874.115 756.472   1 
  -6   1   4 2417.06 676.284  -2 
   6  -1   3 2417.06 676.284   1 
  -6   1  -4 1545.37 1780.01   1 
  -6   1   5 5306.55 741.557  -2 
   6  -1   4 5306.55 741.557   1 
  -6   1  -5 23989.6 711.058   1 
   6  -1  -6 14468.3 2688.99  -2 
  -6   1  -5 14468.3 2688.99   1 
  -6   1  -6 4437.20 648.835   1 
  -6   1  -7 8990.22 688.787   1 
  -6   1  -8 497.656 623.492   1 
  -6   1  -9 253.262 880.010   1 
  -6   1 -10 5821.78 1213.78   1 
   6   0 -11 100.016 590.591   1 
   6   0 -10 2395.28 583.521   1 
   6   0  -9 13748.2 584.446   1 
   6   0  -8 5534.59 614.721   1 
   6   0  -7 408.898 546.760   1 
   6   0  -6 1547.74 502.612   1 
   6   0  -5 4563.09 583.847   1 
   6   0  -4 1005.22 594.593   1 
  -6   0   3 13358.5 861.136   1 
  -6   0  -2 17689.6 1371.05  -2 
   6   0  -3 17689.6 1371.05   1 
   6   0  -2 7359.15 854.753   1 
  -6   0  -1 8209.67 1236.17  -2 
   6   0  -2 8209.67 1236.17   1 
   6   0  -1 81.8889 796.455   1 
  -6   0   0 7323.78 1362.71  -2 
   6   0  -1 7323.78 1362.71   1 
  -6   0   0 9039.80 767.828   1 
  -6   0   1 15441.0 1480.36  -2 
   6   0   0 15441.0 1480.36   1 
  -6   0  -1 413.227 877.316   1 
  -6   0   2 5354.39 1318.12  -2 
   6   0   1 5354.39 1318.12   1 
  -6   0  -2 208.657 880.560   1 
  -6   0   3 12053.8 1431.52  -2 
   6   0   2 12053.8 1431.52   1 
  -6   0  -3 1531.68 700.563   1 
  -6   0  -4 199.416 700.526   1 
  -6   0  -5 11633.3 823.326   1 
  -6   0  -6 7595.42 796.812   1 
  -6   0  -7 3887.39 776.700   1 
  -6   0  -8 8751.85 894.336   1 
  -6   0  -9 4371.90 838.125   1 
  -6  -1  -8 2660.01 706.464  -2 
   6   1 -10 2660.01 706.464   1 
  -6  -1  -7 6091.40 799.800  -2 
   6   1  -9 6091.40 799.800   1 
  -6  -1  -6 30577.0 883.084  -2 
   6   1  -8 30577.0 883.084   1 
  -6  -1  -5 9493.13 768.106  -2 
   6   1  -7 9493.13 768.106   1 
  -6  -1  -4 675.002 675.256  -2 
   6   1  -6 675.002 675.256   1 
  -6  -1  -3 9379.87 722.322  -2 
   6   1  -5 9379.87 722.322   1 
   6   1   2 26366.3 888.403  -2 
  -6  -1   4 26366.3 888.403   1 
   6   1   1 1223.51 769.440  -2 
  -6  -1   3 1223.51 769.440   1 
   6   1   0 6605.80 770.379  -2 
  -6  -1   2 6605.80 770.379   1 
   6   1  -1 244.690 679.706  -2 
  -6  -1   1 244.690 679.706   1 
   6   1  -2 11199.4 977.338  -2 
  -6  -1   0 11199.4 977.338   1 
   6   1  -3 1865.27 848.716  -2 
  -6  -1  -1 1865.27 848.716   1 
   6   1  -4 34914.3 1236.88  -2 
  -6  -1  -2 34914.3 1236.88   1 
   6   1  -5 11556.6 1015.47  -2 
  -6  -1  -3 11556.6 1015.47   1 
   6   1  -6 398.931 856.805  -2 
  -6  -1  -4 398.931 856.805   1 
   6   1  -7 8627.91 998.118  -2 
  -6  -1  -5 8627.91 998.118   1 
   6   1  -8 22366.6 1147.41  -2 
  -6  -1  -6 22366.6 1147.41   1 
   6   1  -9 6006.20 1027.00  -2 
  -6  -1  -7 6006.20 1027.00   1 
   6   1 -10 2110.74 993.221  -2 
  -6  -1  -8 2110.74 993.221   1 
   6   2 -10 976.443 507.518   1 
   6   2  -9 780.694 543.120   1 
   6   2  -8 1881.99 494.218   1 
   6   2  -7 4500.83 533.041   1 
   6   2  -6 8880.97 502.951   1 
   6   2  -5 6586.95 534.675   1 
  -6  -2   4 16474.8 600.987   1 
  -6  -2   3 7091.62 514.068   1 
  -6  -2   2 1949.57 621.304   1 
  -6  -2   1 8987.92 1351.10  -2 
   6   2  -2 8987.92 1351.10   1 
  -6  -2   1 9167.36 730.221   1 
  -6  -2   2 14466.0 1432.51  -2 
   6   2  -1 14466.0 1432.51   1 
  -6  -2   0 5043.55 780.912   1 
  -6  -2   3 12627.6 1408.47  -2 
   6   2   0 12627.6 1408.47   1 
  -6  -2  -1 7008.71 831.875   1 
  -6  -2   4 22974.1 1540.49  -2 
   6   2   1 22974.1 1540.49   1 
  -6  -2  -2 2560.72 625.488   1 
  -6  -2  -3 4418.42 660.588   1 
  -6  -2  -4 2899.10 665.485   1 
  -6  -2  -5 1970.14 662.247   1 
  -6  -2  -6 3451.37 733.600   1 
   6   2   7 10771.1 825.816   1 
  -6  -3   9 135.882 841.338   1 
   6   3  -8 2241.68 680.541   1 
  -6  -3  -5 2841.40 1031.42  -2 
   6   3  -8 2841.40 1031.42   1 
  -6  -3  -4 11693.5 1033.39  -2 
   6   3  -7 11693.5 1033.39   1 
  -6  -3  -3 23870.4 1177.08  -2 
   6   3  -6 23870.4 1177.08   1 
   6   3   2 11110.8 799.323  -2 
  -6  -3   5 11110.8 799.323   1 
   6   3   1 1376.99 703.685  -2 
  -6  -3   4 1376.99 703.685   1 
   6   3   0 352.428 716.937  -2 
  -6  -3   3 352.428 716.937   1 
   6   3  -1 17305.8 793.800  -2 
  -6  -3   2 17305.8 793.800   1 
   6   3  -2 10936.6 823.714  -2 
  -6  -3   1 10936.6 823.714   1 
   6   3  -3 406.720 750.796  -2 
  -6  -3   0 406.720 750.796   1 
   6   3  -4 2025.59 778.777  -2 
  -6  -3  -1 2025.59 778.777   1 
   6   3  -5 7392.23 807.336  -2 
  -6  -3  -2 7392.23 807.336   1 
   6   3  -6 19155.5 884.287  -2 
  -6  -3  -3 19155.5 884.287   1 
   6   3  -7 13173.0 859.271  -2 
  -6  -3  -4 13173.0 859.271   1 
  -6  -3  -5 178.326 1468.52   1 
   6   3  -8 1836.36 998.456  -2 
  -6  -3  -5 1836.36 998.456   1 
  -6  -3  -6 5957.96 1113.12   1 
  -6  -4  -2 679.000 1026.86  -2 
   6   4  -6 679.000 1026.86   1 
  -6  -4   5 8810.13 1642.84   1 
  -6  -4  -1 15983.4 1129.25  -2 
   6   4  -5 15983.4 1129.25   1 
   6   4   0 4490.07 2055.36  -2 
  -6  -4   4 4490.07 2055.36   1 
   6   4  -1 2630.50 900.163  -2 
  -6  -4   3 2630.50 900.163   1 
   6   4  -2 5332.78 920.914  -2 
  -6  -4   2 5332.78 920.914   1 
   6   4  -3 1633.37 777.438  -2 
  -6  -4   1 1633.37 777.438   1 
  -6  -4   0 627.592 1605.99   1 
   6   4  -4 6771.97 798.238  -2 
  -6  -4   0 6771.97 798.238   1 
  -6  -4  -1 333.413 1667.97   1 
   6   4  -5 16981.8 854.717  -2 
  -6  -4  -1 16981.8 854.717   1 
  -6  -4  -2 202.775 1005.69   1 
   6   4  -6 1231.22 1277.68  -2 
  -6  -4  -2 1231.22 1277.68   1 
  -6  -4  -3 75.1339 1115.92   1 
   6   4  -7 1064.00 1788.67  -2 
  -6  -4  -3 1064.00 1788.67   1 
  -7   6  -4 4095.66 1286.58  -2 
   7  -6  -2 4095.66 1286.58   1 
  -7   6  -3 5689.61 1053.08  -2 
   7  -6  -1 5689.61 1053.08   1 
  -7   6  -2 2452.20 1417.58  -2 
   7  -6   0 2452.20 1417.58   1 
  -7   6  -1 9176.39 929.101  -2 
   7  -6   1 9176.39 929.101   1 
  -7   6   0 4018.27 874.759  -2 
   7  -6   2 4018.27 874.759   1 
  -7   6   1 4511.29 906.164  -2 
   7  -6   3 4511.29 906.164   1 
  -7   6   2 3363.37 863.534  -2 
   7  -6   4 3363.37 863.534   1 
  -7   6   3 426.125 990.585  -2 
   7  -6   5 426.125 990.585   1 
   7  -5  -5 6354.23 913.020   1 
   7  -5  -4 331.641 730.889   1 
   7  -5  -3 4005.55 754.899   1 
   7  -5  -2 7664.85 921.817   1 
  -7   5  -3 7987.52 2425.96  -2 
   7  -5  -2 7987.52 2425.96   1 
  -7   5  -2 3905.21 871.098  -2 
   7  -5  -1 3905.21 871.098   1 
  -7   5  -1 6345.36 998.672  -2 
   7  -5   0 6345.36 998.672   1 
  -7   5  -1 2266.63 1335.41   1 
  -7   5   0 6866.00 1156.39  -2 
   7  -5   1 6866.00 1156.39   1 
  -7   5  -2 321.113 1286.51   1 
  -7   5   1 2540.12 1093.98  -2 
   7  -5   2 2540.12 1093.98   1 
  -7   5  -3 1625.96 1250.88   1 
  -7   5   2 8812.15 1152.10  -2 
   7  -5   3 8812.15 1152.10   1 
   7  -5   4 1937.63 652.946   1 
   7  -5   5 700.651 641.175   1 
   7  -5   6 125.881 630.868   1 
   7  -5   7 525.174 733.066   1 
   7  -4  -7 3200.87 1359.96   1 
  -7   4  -7 580.829 1836.25  -2 
   7  -4  -6 580.829 1836.25   1 
  -7   4  -6 26995.4 1039.04  -2 
   7  -4  -5 26995.4 1039.04   1 
  -7   4  -5 33887.0 1128.20  -2 
   7  -4  -4 33887.0 1128.20   1 
  -7   4  -4 3088.62 937.914  -2 
   7  -4  -3 3088.62 937.914   1 
  -7   4  -3 119.909 1232.71  -2 
   7  -4  -2 119.909 1232.71   1 
  -7   4  -2 9077.75 981.211  -2 
   7  -4  -1 9077.75 981.211   1 
  -7   4  -1 734.805 968.334  -2 
   7  -4   0 734.805 968.334   1 
  -7   4   0 472.601 932.940  -2 
   7  -4   1 472.601 932.940   1 
  -7   4   1 6942.31 1027.29  -2 
   7  -4   2 6942.31 1027.29   1 
  -7   4   2 198.654 937.709  -2 
   7  -4   3 198.654 937.709   1 
  -7   4   3 6613.56 1006.48  -2 
   7  -4   4 6613.56 1006.48   1 
  -7   4   4 43962.7 1308.87  -2 
   7  -4   5 43962.7 1308.87   1 
  -7   4   5 34041.7 1168.07  -2 
   7  -4   6 34041.7 1168.07   1 
  -7   4  -7 1292.61 1276.73   1 
  -7   4   6 2328.26 1113.70  -2 
   7  -4   7 2328.26 1113.70   1 
   7  -3  -7 13057.7 937.949   1 
   7  -3  -6 2572.32 677.550   1 
   7  -3  -5 1393.93 1061.86   1 
  -7   3  -5 3512.52 1134.40  -2 
   7  -3  -5 3512.52 1134.40   1 
  -7   3  -4 7012.84 937.336  -2 
   7  -3  -4 7012.84 937.336   1 
  -7   3  -3 19136.6 1043.87  -2 
   7  -3  -3 19136.6 1043.87   1 
  -7   3  -2 2890.28 1480.30  -2 
   7  -3  -2 2890.28 1480.30   1 
  -7   3  -1 10726.9 1093.51  -2 
   7  -3  -1 10726.9 1093.51   1 
  -7   3   0 29727.2 1307.68  -2 
   7  -3   0 29727.2 1307.68   1 
  -7   3   1 6245.71 1042.67  -2 
   7  -3   1 6245.71 1042.67   1 
  -7   3   2 6076.66 1034.44  -2 
   7  -3   2 6076.66 1034.44   1 
  -7   3   3 20144.2 1164.77  -2 
   7  -3   3 20144.2 1164.77   1 
  -7   3   4 6974.69 1039.97  -2 
   7  -3   4 6974.69 1039.97   1 
  -7   3   5 5927.15 1052.85  -2 
   7  -3   5 5927.15 1052.85   1 
   7  -3   6 6.45105 656.079   1 
   7  -3   7 169.617 783.968   1 
   7  -2  -8 642.870 671.709   1 
   7  -2  -7 1441.41 576.224   1 
   7  -2  -6 1735.46 596.775   1 
   7  -2  -5 3737.59 732.908   1 
   7  -2  -4 7289.95 669.038   1 
   7  -2  -3 18717.9 916.892   1 
  -7   2  -3 24880.3 1473.63  -2 
   7  -2  -3 24880.3 1473.63   1 
   7  -2  -2 13567.0 969.636   1 
  -7   2  -2 17679.7 1416.11  -2 
   7  -2  -2 17679.7 1416.11   1 
  -7   2   1 158.371 1277.14   1 
  -7   2  -1 5963.20 1010.93  -2 
   7  -2  -1 5963.20 1010.93   1 
  -7   2   0 1430.16 1279.85   1 
  -7   2   0 1901.75 986.968  -2 
   7  -2   0 1901.75 986.968   1 
  -7   2  -1 7903.44 1370.47   1 
  -7   2   1 11423.8 1068.48  -2 
   7  -2   1 11423.8 1068.48   1 
  -7   2  -2 5591.31 1335.29   1 
  -7   2   2 17119.9 1118.75  -2 
   7  -2   2 17119.9 1118.75   1 
  -7   2  -3 3746.53 1408.53   1 
  -7   2   3 18605.7 1130.97  -2 
   7  -2   3 18605.7 1130.97   1 
   7  -2   4 233.343 695.567   1 
   7  -2   5 62.7741 864.088   1 
  -7   2  -6 812.466 1386.81   1 
  -7   2  -7 1771.44 1476.26   1 
  -7   1  -7 4845.85 687.440  -2 
   7  -1  -8 4845.85 687.440   1 
  -7   1  -6 1733.45 766.409  -2 
   7  -1  -7 1733.45 766.409   1 
  -7   1  -5 1742.90 755.075  -2 
   7  -1  -6 1742.90 755.075   1 
  -7   1  -4 4020.17 773.796  -2 
   7  -1  -5 4020.17 773.796   1 
  -7   1  -3 2137.54 774.669  -2 
   7  -1  -4 2137.54 774.669   1 
  -7   1  -2 2479.97 838.246  -2 
   7  -1  -3 2479.97 838.246   1 
  -7   1  -1 28262.1 1099.54  -2 
   7  -1  -2 28262.1 1099.54   1 
  -7   1   0 13934.3 980.871  -2 
   7  -1  -1 13934.3 980.871   1 
  -7   1   1 15186.3 1076.84  -2 
   7  -1   0 15186.3 1076.84   1 
  -7   1   2 36879.4 1283.51  -2 
   7  -1   1 36879.4 1283.51   1 
  -7   1   3 3386.14 971.556  -2 
   7  -1   2 3386.14 971.556   1 
  -7   1   4 4440.06 1171.80  -2 
   7  -1   3 4440.06 1171.80   1 
   7  -1  -5 8887.85 1152.72  -2 
  -7   1  -4 8887.85 1152.72   1 
   7  -1  -6 1914.19 1013.62  -2 
  -7   1  -5 1914.19 1013.62   1 
   7  -1  -7 2648.62 1049.98  -2 
  -7   1  -6 2648.62 1049.98   1 
   7  -1  -8 5733.53 1906.57  -2 
  -7   1  -7 5733.53 1906.57   1 
   7   0  -8 2515.11 489.222   1 
   7   0  -7 9952.61 570.272   1 
   7   0  -6 12913.9 620.782   1 
   7   0  -5 3307.65 535.068   1 
   7   0  -4 3871.05 556.688   1 
   7   0  -3 872.893 725.306   1 
  -7   0  -1 3222.55 1290.49  -2 
   7   0  -3 3222.55 1290.49   1 
  -7   0   2 241.569 776.680   1 
  -7   0   0 266.867 1328.44  -2 
   7   0  -2 266.867 1328.44   1 
  -7   0   1 27.9184 790.210   1 
  -7   0   1 596.815 1316.80  -2 
   7   0  -1 596.815 1316.80   1 
  -7   0   0 227.686 813.894   1 
  -7   0   2 350.629 1344.52  -2 
   7   0   0 350.629 1344.52   1 
  -7   0  -1 3939.02 1289.42   1 
  -7   0   3 6881.22 1463.23  -2 
   7   0   1 6881.22 1463.23   1 
   7   0   2 7896.59 824.443   1 
  -7   0  -3 2296.00 756.835   1 
   7   0   4 1187.26 761.051   1 
  -7   0  -5 5612.99 791.209   1 
  -7   0  -6 1914.98 768.754   1 
  -7   0  -7 141.512 2014.89   1 
   7   1  -8 2352.72 626.963   1 
  -7  -1   7 131.665 764.595   1 
  -7  -1  -5 73.3536 1488.17  -2 
   7   1  -7 73.3536 1488.17   1 
  -7  -1  -4 2554.61 721.058  -2 
   7   1  -6 2554.61 721.058   1 
  -7  -1   5 3294.47 1281.82   1 
  -7  -1  -3 8988.73 686.059  -2 
   7   1  -5 8988.73 686.059   1 
  -7  -1  -2 17830.0 754.555  -2 
   7   1  -4 17830.0 754.555   1 
  -7  -1   3 1086.40 2232.01   1 
  -7  -1  -1 4993.72 723.979  -2 
   7   1  -3 4993.72 723.979   1 
   7   1   0 9452.55 822.318  -2 
  -7  -1   2 9452.55 822.318   1 
   7   1  -1 4495.95 872.015  -2 
  -7  -1   1 4495.95 872.015   1 
   7   1  -2 6347.83 909.032  -2 
  -7  -1   0 6347.83 909.032   1 
   7   1  -3 3535.45 865.171  -2 
  -7  -1  -1 3535.45 865.171   1 
   7   1  -4 18033.6 955.142  -2 
  -7  -1  -2 18033.6 955.142   1 
   7   1  -5 13268.0 924.431  -2 
  -7  -1  -3 13268.0 924.431   1 
  -7  -1  -4 1793.22 1867.43   1 
   7   1  -6 4214.06 946.237  -2 
  -7  -1  -4 4214.06 946.237   1 
  -7  -1  -5 174.888 1160.15   1 
   7   1  -7 350.632 1034.75  -2 
  -7  -1  -5 350.632 1034.75   1 
   7   2  -7 152.954 1056.39   1 
   7   2   4 5815.21 1328.16  -2 
  -7  -2   7 5815.21 1328.16   1 
   7   2  -6 629.087 1095.74   1 
   7   2   3 3769.90 1422.08  -2 
  -7  -2   6 3769.90 1422.08   1 
  -7  -2  -2 11199.1 689.756  -2 
   7   2  -5 11199.1 689.756   1 
  -7  -2  -1 1197.73 737.998  -2 
   7   2  -4 1197.73 737.998   1 
  -7  -2   3 1414.97 1924.29   1 
  -7  -2   0 5322.61 788.635  -2 
   7   2  -3 5322.61 788.635   1 
   7   2  -1 11579.1 878.715  -2 
  -7  -2   2 11579.1 878.715   1 
   7   2  -2 17746.3 1023.79  -2 
  -7  -2   1 17746.3 1023.79   1 
   7   2  -3 4963.82 803.162  -2 
  -7  -2   0 4963.82 803.162   1 
  -7  -2  -1-22.4070 1776.40   1 
   7   2  -4 886.099 823.144  -2 
  -7  -2  -1 886.099 823.144   1 
  -7  -2  -2 1056.94 1731.87   1 
   7   2  -5 14424.0 929.061  -2 
  -7  -2  -2 14424.0 929.061   1 
  -7  -2  -3 628.328 1872.11   1 
   7   2  -6 3816.72 878.141  -2 
  -7  -2  -3 3816.72 878.141   1 
  -7  -2  -4 2748.45 1880.02   1 
  -7  -2   7 10932.7 1319.00  -2 
   7   2   4 10932.7 1319.00   1 
   7   3  -4 2811.11 1578.14   1 
  -7  -3   3 10671.8 1045.52   1 
  -7  -3   2 300.885 836.996   1 
  -7  -3   1 94.1716 835.645   1 
  -7  -3   2 394.535 1252.25  -2 
   7   3  -1 394.535 1252.25   1 
  -7  -3   0 231.987 911.030   1 
  -7  -3  -1 2455.66 1775.26   1 
   8  -4  -2 118.113 1042.76   1 
  -8   4  -3 929.009 2177.20  -2 
   8  -4  -2 929.009 2177.20   1 
   8  -4  -1 652.488 1072.65   1 
  -8   4  -2-93.8825 2174.45  -2 
   8  -4  -1-93.8825 2174.45   1 
   8  -4   0 189.038 1053.89   1 
  -8   4  -1 1366.66 2316.92  -2 
   8  -4   0 1366.66 2316.92   1 
   8  -4   1 2933.24 1112.00   1 
  -8   4   0 1249.48 2335.24  -2 
   8  -4   1 1249.48 2335.24   1 
  -8   4   1 150.997 2301.07  -2 
   8  -4   2 150.997 2301.07   1 
  -8   3  -4 5484.83 1376.91  -2 
   8  -3  -4 5484.83 1376.91   1 
  -8   3  -3 3280.13 1062.76  -2 
   8  -3  -3 3280.13 1062.76   1 
  -8   3  -2 10311.5 1144.48  -2 
   8  -3  -2 10311.5 1144.48   1 
  -8   3  -1 8345.88 1156.70  -2 
   8  -3  -1 8345.88 1156.70   1 
  -8   3   0 2378.96 1069.03  -2 
   8  -3   0 2378.96 1069.03   1 
  -8   3   1 6314.53 1112.21  -2 
   8  -3   1 6314.53 1112.21   1 
  -8   3   2 6918.80 1254.82  -2 
   8  -3   2 6918.80 1254.82   1 
   8  -3  -3 3751.92 1677.93  -2 
  -8   3  -3 3751.92 1677.93   1 
   8  -3  -4 5549.28 1732.44  -2 
  -8   3  -4 5549.28 1732.44   1 
   8  -2  -5-67.3859 936.657   1 
   8  -2  -4 492.054 676.076   1 
   8  -2  -3 439.125 842.813   1 
   8  -2  -2 5192.21 911.670   1 
  -8   2  -1 3511.76 2799.58  -2 
   8  -2  -2 3511.76 2799.58   1 
   8  -2  -1 2343.14 897.602   1 
  -8   2   0 4618.74 1514.82  -2 
   8  -2  -1 4618.74 1514.82   1 
   8  -2   0 5822.83 927.615   1 
  -8   2   1 3499.90 2969.77  -2 
   8  -2   0 3499.90 2969.77   1 
   8  -2   1 1683.63 925.195   1 
  -8   2   2 3671.09 3001.20  -2 
   8  -2   1 3671.09 3001.20   1 
  -8   2  -2 324.522 1223.01   1 
  -8   2  -3 461.671 1227.71   1 
  -8   2  -4 60.8101 1300.38   1 
  -8   1   5 1772.98 1169.06   1 
  -8   1  -3 7408.41 917.227  -2 
   8  -1  -4 7408.41 917.227   1 
  -8   1  -2 5984.47 800.281  -2 
   8  -1  -3 5984.47 800.281   1 
  -8   1  -1 2937.72 736.903  -2 
   8  -1  -2 2937.72 736.903   1 
  -8   1   0 15515.6 817.759  -2 
   8  -1  -1 15515.6 817.759   1 
  -8   1   1 9445.88 1025.64  -2 
   8  -1   0 9445.88 1025.64   1 
  -8   1  -1 2.99247 2106.40   1 
  -8   1   2 1957.02 1010.68  -2 
   8  -1   1 1957.02 1010.68   1 
  -8   1  -2 1567.92 2061.63   1 
  -8   1   3 10036.9 1206.55  -2 
   8  -1   2 10036.9 1206.55   1 
  -8   1  -3 579.415 1957.52   1 
   8  -1  -4 5950.74 1689.44  -2 
  -8   1  -3 5950.74 1689.44   1 
   8   0   2 8.73213 1229.41  -2 
  -8   0   4 8.73213 1229.41   1 
  -8   0  -1 15866.6 991.383  -2 
   8   0  -3 15866.6 991.383   1 
  -8   0   0 1236.83 794.191  -2 
   8   0  -2 1236.83 794.191   1 
  -8   0   1 93.7431 900.234  -2 
   8   0  -1 93.7431 900.234   1 
  -8   0   2 1465.71 919.875  -2 
   8   0   0 1465.71 919.875   1 
  -8   0   3 12421.9 1123.73  -2 
   8   0   1 12421.9 1123.73   1 
   8   0  -4 275.474 1674.38  -2 
  -8   0  -2 275.474 1674.38   1 
   0  -1  15 651.067 580.493   2 
   0   1 -14 2602.69 807.740   2 
   0   1 -13 9028.95 678.841   2 
   0   1 -12 2075.24 558.100   2 
   0   1 -11 1734.66 558.722   2 
   0   1 -10 2620.95 541.137   2 
   0   1  -9 1311.70 498.558   2 
   0   1  -8 17218.3 565.179   2 
   0   1  -7 14278.9 381.283   2 
   0   1  -6 28.5638 217.677   2 
   0   1  -5 18231.7 295.426   2 
   0  -1   4 4215.67 143.292   2 
   0  -1   3 31449.4 189.392   2 
   0  -1   2 70640.6 207.505   2 
   0   1  -1 13757.4 101.351   2 
   0  -1   0 8062.15 155.572   2 
   0  -1  -1 85095.9 498.207   2 
   0  -1  -2 62986.7 504.153   2 
   0   1   3 6774.84 329.046   2 
   0   1   4 156703. 1320.32   2 
   0   1   5 85342.3 1074.99   2 
   0  -1  -6 113.800 330.274   2 
   0  -1  -7 2392.24 379.088   2 
   0  -1  -8 9758.75 476.560   2 
   0  -1  -9 196.990 474.688   2 
   0  -1 -10 382.360 477.443   2 
   0  -1 -11 12476.5 745.524   2 
   0  -1 -12 218.106 608.308   2 
   0  -1 -13 186.085 547.584   2 
   0  -1 -14 753.059 489.557   2 
   0   1  15 26.9711 735.077   2 
   0   2 -15 5622.38 821.364   2 
   0   2 -14 172.537 818.758   2 
   0   2 -13-106.919 916.516   2 
   0   2 -12 35.8472 683.319   2 
   0   2 -11 3750.11 658.727   2 
   0   2 -10 1531.21 589.172   2 
   0   2  -9 15274.6 705.202   2 
   0   2  -8 37.3809 505.810   2 
   0   2  -7 1341.27 545.800   2 
   0   2  -6 4293.38 1565.63   2 
   0   2  -5 17326.6 1650.97   2 
   0  -2   4 58660.8 886.745   2 
   0  -2   3 12652.6 107.785   2 
   0  -2   2 275.125 123.554   2 
   0   2  -1 152868. 480.557   2 
   0  -2   0 24226.6 357.580   2 
   0  -2  -1 18076.1 368.803   2 
   0   2   2 93636.7 1096.17   2 
   0   2   3 3247.31 452.794   2 
   0   2   4 11572.1 621.668   2 
   0   2   5 45723.1 641.771   2 
   0  -2  -6 85796.2 692.566   2 
   0  -2  -7 5304.61 407.833   2 
   0  -2  -8 5269.94 454.843   2 
   0  -2  -9 2474.85 511.018   2 
   0  -2 -10 185.733 508.583   2 
   0  -2 -11 6596.77 606.009   2 
   0  -2 -12 2087.48 596.390   2 
   0  -2 -13 427.373 489.652   2 
   0   2  14 182.380 510.575   2 
   0   3 -15 40.6450 819.907   2 
   0   3 -14 3698.22 868.648   2 
   0   3 -13 540.014 875.139   2 
   0   3 -12 176.945 729.999   2 
   0   3 -11 4484.06 774.829   2 
   0   3 -10 390.568 703.461   2 
   0   3  -9 2658.13 693.095   2 
   0   3  -8 1609.32 623.640   2 
   0   3  -7 162.112 576.624   2 
   0   3  -6 4697.64 677.085   2 
   0   3  -5 15980.8 1584.71   2 
   0   3  -4 54686.8 1069.11   2 
   0   3  -3 1860.53 257.709   2 
   0  -3   2 2810.57 264.817   2 
   0   3  -1 966.323 313.758   2 
   0   3   0 6989.35 493.677   2 
   0   3   1 119767. 1362.47   2 
   0   3   2 47501.3 995.438   2 
   0   3   3 105199. 1181.25   2 
   0   3   4 107038. 745.366   2 
   0  -3  -5 114.324 405.234   2 
   0  -3  -6 1595.31 442.703   2 
   0  -3  -7-49.8788 488.598   2 
   0  -3  -8 3238.61 557.593   2 
   0  -3  -9 1094.04 552.191   2 
   0  -3 -10 1160.88 495.795   2 
   0  -3 -11 29.2157 478.312   2 
   0   3  12 3526.00 522.991   2 
   0  -3 -13 763.656 534.628   2 
   0   4 -14 1298.21 870.757   2 
   0   4 -13 13767.9 1008.04   2 
   0   4 -12 18040.8 1091.21   2 
   0   4 -11 7757.50 1032.22   2 
   0   4 -10 2178.08 931.898   2 
   0   4  -9 507.310 856.688   2 
   0   4  -8 96.9112 797.997   2 
   0   4  -7 13.5345 663.789   2 
   0   4  -6 2502.02 682.739   2 
   0   4  -5 81.3698 955.578   2 
   0   4  -4 165.916 726.928   2 
   0   4  -3 7818.34 420.891   2 
   0   4  -2 24654.3 506.604   2 
   0   4  -1 757.137 390.055   2 
   0   4   0 31.8859 365.566   2 
   0   4   1 677.813 391.194   2 
   0   4   2 2898.76 415.551   2 
   0   4   3 5974.06 461.188   2 
   0   4   4 4820.02 437.055   2 
   0   4   5 20027.0 604.377   2 
   0   4   6 12111.1 532.779   2 
   0  -4  -7 28835.1 644.330   2 
   0   4   8 10321.7 571.538   2 
   0   4   9 9441.46 536.061   2 
   0  -4 -10 8743.10 472.257   2 
   0  -4 -11 974.067 518.927   2 
   0  -4 -12 385.863 678.204   2 
   0   6 -11 5001.51 1750.83   2 
   0   6 -10 13843.4 1162.89   2 
   0   6  -9 837.693 971.948   2 
   0   6  -8 366.713 1087.26   2 
   0   6  -7 12142.7 1204.25   2 
   0   6  -6 11468.5 1225.65   2 
   0   6  -5 153.710 1127.61   2 
   0   6  -4 14.2075 647.195   2 
   0   6  -3 2744.76 645.843   2 
   0   6  -2 128.895 605.947   2 
   0   6  -1 8924.45 668.733   2 
   0   6   0 22627.8 676.666   2 
   0   6   1 2621.40 521.227   2 
   0  -6  -2 14609.6 641.981   2 
   0   6   3 2865.66 499.942   2 
   0  -6  -4 14167.1 667.555   2 
   0  -6  -5 3238.70 547.258   2 
   0  -6  -6 4183.06 550.819   2 
   0  -6  -7 846.026 484.576   2 
   0  -6  -8 428.722 502.046   2 
   0  -6  -9 348.132 519.127   2 
   0   7 -10 2555.01 1192.46   2 
   0   7  -9 28026.7 1482.59   2 
   0   7  -8 4403.57 925.692   2 
   0   7  -7 836.140 859.905   2 
   0   7  -6 2360.79 870.059   2 
   0   7  -5 3989.48 906.732   2 
   0   7  -4 1944.90 740.132   2 
   0   7  -3 2356.15 606.410   2 
   0   7  -2 1766.68 589.310   2 
   0   7  -1 3148.51 608.404   2 
   0   7   0-65.9476 807.983   2 
   0   7   1 26211.5 913.747   2 
   0   7   2 3387.52 573.312   2 
   0   7   3 1454.39 643.445   2 
   0  -7  -4 8157.28 609.462   2 
   0  -7  -5 3770.85 579.573   2 
   0   7   6 510.014 509.024   2 
   0   7   7 147.811 690.113   2 
  -1   9  -2 660.778 911.703   2 
  -1   9  -3 998.809 578.230   2 
  -1   9  -4 6676.41 645.154   2 
  -1   8   5 1842.54 629.681   2 
   1  -8  -4 295.897 475.110   2 
  -1   8   3 744.465 517.532   2 
  -1   8   2 94.6271 529.288   2 
  -1   8   1 15027.4 569.194   2 
  -1   8   0 15603.8 591.143   2 
  -1   8  -1 2812.70 512.269   2 
  -1   8  -2 3682.37 533.436   2 
  -1   8  -3 63.6998 530.553   2 
  -1   8  -4 1100.96 709.618   2 
  -1   8  -5 23885.1 988.419   2 
  -1   8  -6 1993.90 752.162   2 
  -1   8  -7 52.4423 734.664   2 
  -1   8  -8 3253.37 798.057   2 
   1  -6  -9-66.1464 632.969   2 
   1  -6  -8 3762.86 746.294   2 
   1  -6  -7 2924.92 516.712   2 
   1  -6  -6 6582.96 569.508   2 
   1  -6  -5 4734.75 586.804   2 
   1  -6  -4 2068.35 692.430   2 
  -1   6   3 7449.07 597.006   2 
  -1   6   2 1039.33 524.348   2 
  -1   6   1 3374.39 521.542   2 
  -1   6   0 557.196 545.023   2 
  -1   6  -1 3060.00 589.940   2 
  -1   6  -2 32639.0 823.701   2 
  -1   6  -3 20757.9 728.506   2 
  -1   6  -4 8406.84 664.147   2 
  -1   6  -5 23087.4 802.561   2 
  -1   6  -6 12504.4 874.752   2 
  -1   6  -7 2357.79 801.881   2 
  -1   6  -8 811.255 928.397   2 
  -1   6  -9 403.975 1299.66   2 
   1  -5 -11 702.713 878.225   2 
   1  -5 -10-23.7854 571.489   2 
   1  -5  -9 86.3502 591.921   2 
   1  -5  -8 5976.76 510.680   2 
  -1   5   7 14819.2 569.917   2 
   1  -5  -6 18157.5 571.410   2 
   1  -5  -5 4565.06 528.258   2 
  -1   5   4 2413.89 553.089   2 
   1  -5  -3 4698.02 587.511   2 
  -1   5   2 57.0380 616.553   2 
  -1   5   1 5349.66 647.097   2 
  -1   5   0 1350.57 895.856   2 
  -1   5  -1 146.133 1775.19   2 
  -1   5  -4 20616.0 1023.53   2 
  -1   5  -5 6001.32 1422.67   2 
  -1   5  -6 3822.67 1446.48   2 
  -1   5  -7 1170.66 1419.42   2 
  -1   5  -8 9805.46 1221.03   2 
  -1   5  -9 10739.8 1167.88   2 
  -1   5 -10 30.1408 2014.06   2 
  -1   4  12 1776.27 558.865   2 
  -1   4  11 8625.60 624.901   2 
   1  -4 -10 2628.98 544.523   2 
   1  -4  -9 2526.35 490.028   2 
  -1   4   8 59.3451 450.011   2 
  -1   4   7 21.3095 447.591   2 
   1  -4  -6 2341.76 457.214   2 
   1  -4  -5 239.904 414.229   2 
   1  -4  -4 10776.2 410.183   2 
  -1   4   3 561.738 434.344   2 
  -1   4   2 134.217 524.113   2 
  -1   4   1 7967.34 552.152   2 
  -1   4   0 2016.99 551.892   2 
  -1   4  -1 17319.9 550.523   2 
  -1   4  -2 4525.20 427.868   2 
  -1   4  -4 6674.99 852.390   2 
  -1   4  -5 639.113 1315.06   2 
  -1   4  -6 512.156 826.697   2 
  -1   4  -7 6542.46 766.263   2 
  -1   4  -8 1626.36 746.553   2 
  -1   4  -9 5781.21 794.673   2 
  -1   4 -10 6154.44 835.088   2 
  -1   4 -11 3327.07 825.776   2 
  -1   4 -12 8947.21 859.477   2 
  -1   4 -13 3568.22 1008.87   2 
  -1   4 -14 5430.19 1049.30   2 
   1  -3 -13 754.721 538.604   2 
   1  -3 -12 4236.85 647.589   2 
   1  -3 -11 2024.22 541.928   2 
   1  -3 -10 824.894 460.466   2 
   1  -3  -9 2824.89 586.400   2 
   1  -3  -8 115.047 511.514   2 
   1  -3  -7 4175.87 481.853   2 
   1  -3  -6 60961.3 668.231   2 
   1  -3  -5 50.2968 381.980   2 
   1  -3  -4 1592.41 341.975   2 
  -1   3   3 52573.5 1065.86   2 
  -1   3   2 1548.77 454.672   2 
  -1   3   1 30437.0 732.239   2 
  -1   3   0 55876.4 842.192   2 
  -1   3  -1 3235.67 235.990   2 
  -1   3  -2 1407.35 174.765   2 
  -1   3  -3 7086.91 549.796   2 
  -1   3  -4 3334.80 521.831   2 
  -1   3  -6 4137.28 808.188   2 
  -1   3  -7 41340.8 807.263   2 
  -1   3  -8 11068.1 836.183   2 
  -1   3  -9 96.2740 710.873   2 
  -1   3 -10-39.6700 750.907   2 
  -1   3 -11 169.850 765.759   2 
  -1   3 -12 481.132 756.967   2 
  -1   3 -13 13.1560 715.468   2 
  -1   3 -14 5180.34 1004.17   2 
  -1   3 -15 305.335 852.925   2 
  -1   1  15 1369.41 692.355   2 
   1  -1 -14 431.880 502.271   2 
  -1   1  13 1383.73 556.976   2 
   1  -1 -12 40.2862 595.590   2 
   1  -1 -11 10898.3 719.480   2 
   1  -1 -10 23787.6 718.638   2 
   1  -1  -9 64415.3 746.976   2 
   1  -1  -8 16652.8 447.888   2 
   1  -1  -7 1124.95 330.027   2 
   1  -1  -6 5412.50 369.403   2 
  -1   1   5 15068.1 736.950   2 
  -1   1   4 18036.6 530.635   2 
  -1   1   3 774.959 232.531   2 
   1  -1  -2 36192.6 409.117   2 
   1  -1  -1 2870.99 161.871   2 
   1  -1   0 13379.4 188.347   2 
   1  -1   1 138262. 486.157   2 
  -1   1  -2 6770.46 101.708   2 
   1  -1   3 21504.0 218.288   2 
   1  -1   4 703.780 172.475   2 
   1  -1   5 2125.71 242.179   2 
   1  -1   6 7544.42 214.272   2 
  -1   1  -7 586.899 440.143   2 
  -1   1  -8 1623.29 495.484   2 
  -1   1  -9 1059.05 506.862   2 
  -1   1 -10 14420.1 670.586   2 
  -1   1 -11 363.982 573.176   2 
  -1   1 -12 3444.19 583.411   2 
  -1   1 -13 29937.1 733.152   2 
  -1   1 -14 140.556 864.802   2 
  -1   1 -15-5.14128 816.397   2 
   1   0 -15 139.748 534.352   2 
  -1   0  14 462.682 580.835   2 
   1   0 -13 1034.50 697.045   2 
   1   0 -12 13456.7 714.602   2 
   1   0 -11 28496.7 849.806   2 
   1   0 -10 100.156 568.908   2 
   1   0  -9 3286.20 462.961   2 
   1   0  -8 21361.6 448.128   2 
   1   0  -7 73.2312 319.585   2 
  -1   0   6 415.350 373.828   2 
   1   0  -5 84912.6 713.127   2 
   1   0  -4 98034.4 624.391   2 
   1   0  -3 1492.62 160.193   2 
   1   0  -2 51276.2 406.602   2 
   1   0  -1 4457.90 127.492   2 
   1   0   0 119757. 615.547   2 
  -1   0  -1 76440.1 396.333   2 
   1   0   2 2249.85 159.561   2 
   1   0   3 36299.8 441.636   2 
  -1   0  -4 8885.46 416.474   2 
   1   0   5 2005.05 352.658   2 
  -1   0  -6 1785.19 386.682   2 
  -1   0  -7 8742.71 377.860   2 
  -1   0  -8 1046.17 468.786   2 
  -1   0  -9 3083.23 510.725   2 
  -1   0 -10 17951.3 639.376   2 
  -1   0 -11 20507.4 733.091   2 
  -1   0 -12 89.0716 546.064   2 
  -1   0 -13 5576.94 641.100   2 
  -1   0 -14 1219.21 542.235   2 
  -1   0 -15 752.702 833.888   2 
  -1  -1  15 554.898 608.485   2 
  -1  -1  14 2018.14 606.830   2 
   1   1 -13 650.891 789.694   2 
   1   1 -12 565.813 714.909   2 
   1   1 -11 1123.98 718.748   2 
   1   1 -10 2311.71 499.812   2 
   1   1  -9 2540.98 476.251   2 
   1   1  -8 11288.3 467.297   2 
   1   1  -7 66524.3 605.572   2 
   1   1  -6 30671.6 584.867   2 
   1   1  -5 178.788 195.792   2 
  -1  -1   4 75320.9 622.060   2 
   1   1  -3 114578. 612.879   2 
   1   1  -2 695.212 111.753   2 
   1   1  -1 11647.2 240.550   2 
  -1  -1   0 372.198 103.851   2 
   1   1   1 1799.88 152.777   2 
   1   1   2 25634.5 371.732   2 
   1   1   3 25210.3 435.246   2 
  -1  -1  -4 7619.46 420.458   2 
  -1  -1  -5 16334.5 524.797   2 
  -1  -1  -6 2283.88 324.758   2 
   1   1   7 38127.0 580.834   2 
  -1  -1  -8 1507.04 452.682   2 
  -1  -1  -9 6789.99 505.218   2 
  -1  -1 -10 85.2965 461.473   2 
  -1  -1 -11 315.910 492.311   2 
  -1  -1 -12 13712.5 727.769   2 
  -1  -1 -13 825.675 559.673   2 
  -1  -1 -14 2523.99 512.103   2 
   1   2 -15 1762.37 731.510   2 
   1   2 -14 1498.96 810.327   2 
   1   2 -13 1478.18 835.228   2 
   1   2 -12 451.881 803.692   2 
   1   2 -11 2138.85 844.915   2 
   1   2 -10 4159.67 759.022   2 
   1   2  -9 65.8948 558.863   2 
   1   2  -8 330.262 547.469   2 
   1   2  -7 3088.76 519.093   2 
   1   2  -6 74631.8 661.534   2 
   1   2  -5 21714.6 285.930   2 
   1   2  -4 30222.5 353.983   2 
  -1  -2   3 69926.8 431.471   2 
  -1  -2   2 2532.11 102.607   2 
   1   2  -1 52914.6 499.359   2 
  -1  -2   0 26312.7 486.071   2 
  -1  -2  -1 12659.0 464.062   2 
   1   2   2 119693. 795.451   2 
  -1  -2  -3 1332.20 441.379   2 
  -1  -2  -4 16495.6 494.776   2 
  -1  -2  -5 21751.5 517.661   2 
  -1  -2  -6 598.457 367.639   2 
   1   2   7 12903.5 474.657   2 
  -1  -2  -8 3309.69 481.563   2 
  -1  -2  -9 1482.22 469.109   2 
  -1  -2 -10 2510.58 468.941   2 
  -1  -2 -11 105.539 495.701   2 
  -1  -2 -12 253.411 487.101   2 
  -1  -2 -13 1476.28 581.911   2 
  -1  -2 -14 4047.02 564.388   2 
  -1  -3 -12 129.538 1933.69   2 
  -1  -3 -13 246.638 1771.82   2 
   1   4 -14 283.116 812.417   2 
   1   4 -13 6060.87 879.889   2 
   1   4 -12 797.372 822.283   2 
   1   4 -11 47.8257 828.022   2 
   1   4 -10 271.463 862.738   2 
   1   4  -9 3242.16 837.624   2 
   1   4  -8 268.697 718.413   2 
   1   4  -7 15857.4 696.918   2 
   1   4  -6 184.382 530.568   2 
   1   4  -5 2202.65 524.420   2 
   1   4  -4 539.175 507.331   2 
   1   4  -3-11.1060 395.030   2 
   1   4  -2 171496. 853.526   2 
   1   4  -1 46509.9 512.880   2 
   1   4   0 4745.00 417.700   2 
   1   4   1 8558.59 454.464   2 
   1   4   2 343.686 385.520   2 
  -1  -4  -3 2897.82 506.624   2 
  -1  -4  -4 11121.8 636.480   2 
  -1  -4  -5 16923.2 659.975   2 
  -1  -4  -6 2611.63 559.182   2 
  -1  -4  -7 2341.58 548.882   2 
  -1  -4  -8 28828.9 762.688   2 
  -1  -4  -9 3775.58 529.345   2 
  -1  -4 -10 1265.23 463.592   2 
  -1  -4 -11 6.66634 411.265   2 
  -1  -4 -12 25.0430 638.575   2 
   1   5 -13 315.605 1635.28   2 
   1   5 -12 839.340 1629.11   2 
   1   5 -11 509.313 1699.16   2 
   1   5 -10 3601.75 1803.32   2 
   1   5  -9 6467.76 1814.99   2 
   1   5  -8 2447.39 1645.65   2 
   1   5  -7 2786.95 1216.31   2 
   1   5  -6 171.390 682.798   2 
   1   5  -5 9020.01 1013.98   2 
   1   5  -4 14229.6 1366.07   2 
   1   5  -3 10692.3 1091.71   2 
   1   5  -2 17777.8 894.626   2 
   1   5  -1 17766.4 979.221   2 
   1   5   0 28589.0 816.546   2 
   1   5   1 716.423 472.047   2 
   1   5   2 1663.44 661.256   2 
  -1  -5  -3 30106.9 909.900   2 
  -1  -5  -4 945.302 542.945   2 
  -1  -5  -5 371.090 548.936   2 
  -1  -5  -6 10333.5 621.032   2 
  -1  -5  -7 419.137 468.253   2 
  -1  -5  -8 140.120 460.269   2 
  -1  -5  -9 7073.90 483.357   2 
  -1  -5 -10 816.958 428.064   2 
   1   6 -12 148.979 1521.50   2 
   1   6 -11 4808.94 1026.31   2 
   1   6 -10-100.155 1417.14   2 
   1   6   6 910.407 1050.85   2 
   1   6   7 2379.63 1133.22   2 
   1   7 -10 1597.63 1127.93   2 
   1   7  -9 107.961 1064.28   2 
   1   7  -8 40.9463 876.178   2 
   1   7  -7 1054.78 868.943   2 
   1   7  -6 2345.53 916.128   2 
   1   7  -5 1375.86 744.610   2 
   1   7  -4 7010.60 834.717   2 
   1   7  -3 9595.21 827.770   2 
   1   7  -2 8595.25 570.928   2 
   1   7  -1 2355.38 603.965   2 
   1   7   0 3756.29 520.125   2 
   1   7   1 5588.04 539.958   2 
  -1  -7  -2 26693.7 745.201   2 
  -1  -7  -3 759.169 536.389   2 
  -1  -7  -4 358.068 539.576   2 
  -1  -7  -5 555.537 505.413   2 
  -1  -7  -6 112.065 543.773   2 
  -2   8   5 155.891 678.218   2 
   2  -8  -4 807.479 526.346   2 
   2  -8  -3 16466.7 666.244   2 
   2  -8  -2 144.477 490.361   2 
  -2   8   1 389.125 553.067   2 
  -2   8   0 26836.3 663.285   2 
  -2   8  -1 19033.4 631.595   2 
  -2   8  -2 997.359 494.587   2 
  -2   8  -3 5073.34 752.975   2 
  -2   8  -4 183.043 708.400   2 
  -2   8  -5 7585.19 777.866   2 
  -2   8  -6 2103.52 734.343   2 
  -2   8  -7 511.126 750.789   2 
  -2   8  -8 1171.23 1158.77   2 
   2  -7  -7 1891.74 568.078   2 
   2  -7  -6 504.933 723.783   2 
   2  -7  -5 127.708 600.440   2 
   2  -7  -4 7194.32 700.512   2 
  -2   7   3 2004.80 1039.39   2 
  -2   7   2 20844.2 1032.10   2 
  -2   7   1 22.5861 1390.91   2 
  -2   7   0 4039.61 1430.76   2 
  -2   7  -1 15594.7 1354.31   2 
  -2   7  -2 12646.3 1339.96   2 
  -2   7  -3 5890.07 917.809   2 
  -2   7  -4 499.940 1378.55   2 
  -2   7  -5 3888.62 809.578   2 
  -2   7  -6 2557.10 747.105   2 
  -2   7  -7 2003.40 804.160   2 
  -2   7  -8 16385.8 986.675   2 
   2  -6  -9 1150.96 851.918   2 
   2  -6  -8 771.648 653.275   2 
   2  -6  -7 19540.1 1062.82   2 
  -2   6   6 14069.7 813.841   2 
   2  -6  -5 3861.25 735.070   2 
  -2   6   4 717.710 1080.98   2 
  -2   6   3 10167.3 945.638   2 
  -2   6  -6 5486.26 1135.02   2 
  -2   6  -7 5001.91 879.509   2 
  -2   6  -8 275.959 1274.85   2 
   2  -5 -11 39.2846 887.957   2 
   2  -5 -10 86.6944 597.789   2 
  -2   5   9-17.7739 639.799   2 
  -2   5   8 9485.41 689.314   2 
  -2   5   7 1207.40 666.588   2 
  -2   5   6 2349.86 533.497   2 
  -2   5   5 13217.0 628.569   2 
  -2   5   4 1767.38 624.311   2 
  -2   5   3 23738.6 624.991   2 
  -2   5   2 4662.85 453.272   2 
  -2   5   1 3722.76 424.205   2 
  -2   5   0 1011.77 397.832   2 
  -2   5  -1 2308.13 493.481   2 
  -2   5  -2 8483.59 563.421   2 
  -2   5  -3 15169.1 613.083   2 
  -2   5  -4 34061.0 886.253   2 
  -2   5  -5 11550.5 859.067   2 
  -2   5  -6 467.915 675.308   2 
  -2   5  -7 458.949 736.768   2 
  -2   5  -8 2762.02 938.978   2 
   2  -3 -13 16.7840 543.874   2 
   2  -3 -12 25.6577 545.180   2 
  -2   3  11 10146.4 679.170   2 
   2  -3 -10 5733.18 642.026   2 
  -2   3   9 716.302 610.835   2 
  -2   3   8 24.3288 509.615   2 
  -2   3   7 582.210 486.148   2 
   2  -3  -6 5790.82 407.850   2 
   2  -3  -5 15288.1 434.456   2 
   2  -3  -4 78191.9 650.576   2 
  -2   3   3 908.148 388.284   2 
  -2   3   2 27521.0 943.585   2 
  -2   3   1 12694.1 630.751   2 
  -2   3   0 15875.5 564.154   2 
  -2   3  -1 2276.44 290.028   2 
  -2   3  -2 17837.4 341.762   2 
  -2   3  -3 55743.2 514.664   2 
  -2   3  -4 83.7189 637.556   2 
  -2   3  -5 19073.7 536.285   2 
  -2   3  -6 13447.3 649.792   2 
  -2   3  -7 521.015 694.123   2 
  -2   3  -8 15136.8 802.747   2 
  -2   3  -9 3625.02 687.261   2 
  -2   3 -10 3266.49 709.083   2 
  -2   3 -11 7994.18 963.771   2 
  -2   3 -12 996.657 849.023   2 
  -2   3 -13 372.066 782.700   2 
  -2   3 -14 175.454 695.476   2 
   2  -2 -14 1702.92 618.096   2 
   2  -2 -13 1068.91 589.522   2 
   2  -2 -12 4653.08 638.709   2 
   2  -2 -11 239.073 597.470   2 
   2  -2 -10 4697.23 647.886   2 
  -2   2   9 18537.2 642.946   2 
   2  -2  -8 2110.74 559.259   2 
   2  -2  -7 11506.4 480.884   2 
   2  -2  -6 8022.47 448.889   2 
  -2   2   5 8069.84 377.351   2 
  -2   2   4 4974.49 633.533   2 
  -2   2   3 11368.4 636.405   2 
  -2   2   2 6981.07 490.009   2 
  -2   2   1 41588.0 765.337   2 
  -2   2   0 67579.7 807.711   2 
   2  -2   1 50143.2 490.839   2 
  -2   2  -2 83045.3 538.571   2 
  -2   2  -3 23458.4 306.988   2 
  -2   2  -4 28799.5 317.151   2 
  -2   2  -5 320.362 224.063   2 
  -2   2  -6 9954.72 709.095   2 
  -2   2  -7 12636.8 650.341   2 
  -2   2  -8 13593.2 615.358   2 
  -2   2  -9 10158.4 617.810   2 
  -2   2 -10 7772.06 728.119   2 
  -2   2 -11 2858.05 693.234   2 
  -2   2 -12 102.059 820.836   2 
  -2   2 -13 1120.26 779.923   2 
  -2   2 -14 6594.98 722.642   2 
  -2   2 -15 2175.45 819.554   2 
   2  -1 -14 1829.91 692.883   2 
   2  -1 -13 2647.11 570.493   2 
  -2   1  12 3865.34 563.918   2 
  -2   1  11 789.624 543.900   2 
   2  -1 -10 4455.14 648.479   2 
   2  -1  -9 21976.5 649.737   2 
   2  -1  -8 6798.74 447.368   2 
   2  -1  -7 17527.3 465.113   2 
   2  -1  -6 4476.95 346.782   2 
  -2   1   5 1309.21 470.654   2 
  -2   1   4 677.042 368.729   2 
  -2   1   3 90958.2 1127.38   2 
  -2   1   0 3923.32 355.889   2 
   2  -1   1 547205. 1823.49   2 
  -2   1  -2 571200. 1500.00   2 
   2  -1   3 37328.8 507.728   2 
  -2   1  -4 90.5141 336.775   2 
   2  -1   5 20812.7 724.508   2 
  -2   1  -6 2102.10 488.245   2 
  -2   1  -7 9306.85 468.502   2 
  -2   1  -8 7832.16 458.973   2 
  -2   1  -9 270.935 496.383   2 
  -2   1 -10 131.429 606.606   2 
  -2   1 -11 11370.6 693.959   2 
  -2   1 -12 11377.7 696.036   2 
  -2   1 -13 902.800 563.985   2 
  -2   1 -14 432.842 896.253   2 
  -2   1 -15 134.064 778.530   2 
   2   0 -15 460.929 1688.63   2 
   2   0 -14 53.6458 570.795   2 
  -2   0  13 4709.32 656.933   2 
  -2   0  12 9197.66 650.457   2 
   2   0 -11 6577.46 682.631   2 
   2   0 -10 1088.65 600.688   2 
   2   0  -9 1641.39 568.800   2 
   2   0  -8 24847.2 565.518   2 
   2   0  -7 13031.5 394.244   2 
   2   0  -6 36368.2 478.350   2 
  -2   0   5 10646.3 473.177   2 
   2   0  -4 7417.58 343.069   2 
  -2   0   3 35478.0 672.861   2 
  -2   0   2 1457.70 357.889   2 
   2   0  -1 36059.2 448.538   2 
   2   0   0 2541.98 310.173   2 
  -2   0  -1 168808. 922.786   2 
  -2   0  -2 923.641 205.312   2 
  -2   0  -3 2265.33 315.129   2 
   2   0   4 2031.75 507.191   2 
  -2   0  -5 12960.3 514.693   2 
  -2   0  -6 58973.6 498.640   2 
  -2   0  -7 10368.7 428.399   2 
  -2   0  -8 578.142 419.165   2 
  -2   0  -9 12596.1 623.695   2 
  -2   0 -10 3041.24 505.301   2 
  -2   0 -11 110.313 490.221   2 
  -2   0 -12 13415.5 659.965   2 
  -2   0 -13 4740.30 533.409   2 
  -2   0 -14 212.996 571.899   2 
  -2  -1 -12 495.585 2660.06   2 
  -2  -1 -13 307.829 2444.39   2 
   2   2 -15 407.323 724.376   2 
   2   2 -14-52.0162 765.901   2 
   2   2 -13 529.459 763.028   2 
   2   2 -12 3745.93 721.472   2 
   2   2 -11 2753.52 734.436   2 
   2   2 -10 1747.66 615.121   2 
   2   2  -9 9164.29 650.313   2 
   2   2  -8 415.348 517.853   2 
   2   2  -7 5897.00 519.696   2 
   2   2  -6 15526.1 432.470   2 
   2   2  -5 8503.30 298.057   2 
   2   2  -4 39091.4 526.061   2 
   2   2  -3 43685.6 858.008   2 
   2   2  -2 2725.43 409.857   2 
  -2  -2   1 1723.41 149.471   2 
   2   2   0 556.463 399.035   2 
   2   2   1 10395.8 674.670   2 
   2   2   2 5999.48 506.925   2 
  -2  -2  -3 65619.7 621.836   2 
  -2  -2  -4 7805.33 364.684   2 
  -2  -2  -5 29054.9 524.713   2 
  -2  -2  -6 2281.00 398.559   2 
  -2  -2  -7 4003.61 453.586   2 
  -2  -2  -8 280.280 436.147   2 
  -2  -2  -9 934.035 477.993   2 
  -2  -2 -10 0.94160 450.592   2 
  -2  -2 -11 1849.95 480.850   2 
  -2  -2 -12 10.1688 415.921   2 
  -2  -2 -13 1934.62 605.456   2 
   2   3 -14 213.017 1655.98   2 
   2   3 -13 1649.36 855.497   2 
   2   3 -12 11932.2 1019.24   2 
   2   3 -11 23140.5 972.231   2 
   2   3 -10 12588.5 761.036   2 
   2   3  -9 3868.23 643.798   2 
   2   3  -8 605.745 567.815   2 
   2   3  -7 9906.11 638.014   2 
   2   3  -6 487.772 494.460   2 
   2   3  -5 4207.30 395.722   2 
   2   3  -4 4410.96 382.930   2 
   2   3  -3 799.046 343.966   2 
   2   3  -2 9632.25 517.635   2 
   2   3  -1 16327.1 459.015   2 
   2   3   0 18647.9 499.502   2 
   2   3   1 2957.52 353.283   2 
   2   3   2 3466.07 346.825   2 
   2   3   3 156.804 344.785   2 
   2   3   4 1453.53 493.011   2 
  -2  -3  -5 1528.12 538.396   2 
  -2  -3  -6 2669.83 580.090   2 
  -2  -3  -7 3140.44 499.562   2 
  -2  -3  -8 12948.1 569.450   2 
  -2  -3  -9 9828.25 577.778   2 
  -2  -3 -10 2682.27 481.414   2 
  -2  -3 -11 6571.03 490.478   2 
  -2  -3 -12 89.2355 420.220   2 
   2   4 -14 217.881 1558.31   2 
   2   4 -13 2130.46 1656.24   2 
   2   4 -12 1109.45 1785.22   2 
   2   4   6 7122.41 1731.96   2 
  -2  -4  -9 4626.75 1161.54   2 
  -2  -4 -10 2587.66 609.407   2 
  -2  -4 -11-49.9600 373.994   2 
   2   5 -13 191.122 1473.33   2 
   2   5 -12 98.4873 1573.44   2 
   2   5 -11 484.819 1639.12   2 
   2   5 -10 264.197 1608.81   2 
   2   5  -9 10195.9 1729.48   2 
   2   5  -8 8636.30 1039.22   2 
   2   5  -7 2704.54 779.500   2 
   2   5  -6 5254.87 740.500   2 
   2   5  -5 21900.6 838.101   2 
   2   5  -4 1117.66 713.497   2 
   2   5  -3 1040.93 674.761   2 
   2   5  -2 6726.46 729.929   2 
   2   5  -1 8325.80 701.926   2 
   2   5   0 5438.41 651.565   2 
   2   5   1 30319.1 677.135   2 
  -2  -5  -2 6321.07 642.697   2 
  -2  -5  -3 21081.1 945.986   2 
  -2  -5  -4 477.778 670.958   2 
  -2  -5  -5 17258.3 695.583   2 
  -2  -5  -6 5922.09 571.954   2 
  -2  -5  -7 1043.18 518.334   2 
  -2  -5  -8-70.7230 452.782   2 
  -2  -5  -9 291.017 415.027   2 
   2   7  -9 515.938 1001.92   2 
   2   7  -8 36.6085 1005.44   2 
   2   7  -7 182.993 852.170   2 
   2   7  -6 131.906 732.523   2 
   2   7  -5 1129.65 738.408   2 
   2   7  -4 7146.90 817.585   2 
   2   7  -3 18065.3 907.587   2 
   2   7  -2 10138.6 790.048   2 
   2   7  -1 2166.55 699.975   2 
   2   7   0 3845.34 731.140   2 
   2   7   1 124.339 640.824   2 
  -2  -7  -2 560.200 517.540   2 
  -2  -7  -3 3948.00 557.641   2 
  -2  -7  -4 1321.81 508.732   2 
  -2  -7  -5 303.809 549.208   2 
   2   8  -5 126.056 705.448   2 
   2   8  -4 1546.70 723.064   2 
   2   8  -3 1507.05 773.900   2 
   2   8  -2 266.533 752.304   2 
   2   8  -1 152.032 708.579   2 
   2   8   0 665.316 861.908   2 
  -3   9  -3 164.020 825.923   2 
  -3   8  -7 1680.33 1055.37   2 
   3  -7  -7 435.508 758.206   2 
   3  -7  -6 11382.6 675.301   2 
   3  -7  -5 212.892 631.297   2 
   3  -7  -4 2088.07 667.668   2 
  -3   7   3 10588.7 754.322   2 
   3  -7  -2 756.901 586.869   2 
  -3   7   1 801.789 632.521   2 
  -3   7   0 1240.80 641.198   2 
  -3   7  -1 1458.38 539.441   2 
  -3   7  -2-136.487 539.659   2 
  -3   7  -3 10217.8 898.739   2 
  -3   7  -4 18427.3 964.834   2 
  -3   7  -5 219.536 697.431   2 
  -3   7  -6 3426.85 761.918   2 
  -3   7  -7 3607.73 925.484   2 
  -3   7  -8 2583.95 1175.39   2 
   3  -5 -11 1558.47 937.537   2 
  -3   5  10 3153.98 668.536   2 
  -3   5   9 1702.72 661.393   2 
  -3   5   8 1510.06 717.318   2 
  -3   5   7 1455.77 722.483   2 
   3  -5  -6 10.1761 621.726   2 
  -3   5   5 5583.00 625.630   2 
  -3   5   4 87.6850 564.766   2 
  -3   5   3 6464.20 559.262   2 
  -3   5   2 17561.7 637.780   2 
  -3   5   1 783.105 481.792   2 
  -3   5   0 32090.4 733.444   2 
  -3   5  -1 16158.7 602.638   2 
  -3   5  -2 8751.41 567.818   2 
  -3   5  -3 5656.74 632.797   2 
  -3   5  -4 854.551 550.563   2 
  -3   5  -5 769.026 687.403   2 
  -3   5  -6 134.922 777.485   2 
  -3   5  -7 2219.12 790.860   2 
  -3   5  -8 1326.75 766.995   2 
  -3   5  -9-3.99838 981.070   2 
  -3   5 -10 604.606 953.887   2 
  -3   5 -11 479.947 1419.46   2 
  -3   4  12 92.7173 597.196   2 
   3  -4 -11 69.4841 592.038   2 
   3  -4 -10 4207.02 639.377   2 
   3  -4  -9 2495.25 663.215   2 
   3  -4  -8-57.1277 696.503   2 
   3  -4  -7 2879.71 713.632   2 
   3  -4  -6 335.798 665.897   2 
  -3   4   5 33209.1 922.436   2 
  -3   4   4 13599.9 642.238   2 
  -3   4   3 113.414 412.581   2 
  -3   4   2 40035.1 616.481   2 
  -3   4   1 28191.7 534.352   2 
  -3   4   0 11575.4 452.844   2 
  -3   4  -1 43407.6 581.095   2 
  -3   4  -2 10201.5 460.470   2 
  -3   4  -3 189.297 619.373   2 
  -3   4  -4 1220.57 470.230   2 
  -3   4  -5 1716.73 525.370   2 
  -3   4  -6 11998.0 776.116   2 
  -3   4  -7 7131.58 770.477   2 
  -3   4  -8 2864.65 750.836   2 
  -3   4  -9 11024.0 852.503   2 
  -3   4 -10 618.565 749.994   2 
  -3   4 -11 776.813 743.844   2 
  -3   4 -12 148.312 856.321   2 
  -3   4 -13 832.030 811.171   2 
   3  -3 -13 633.748 659.747   2 
   3  -3 -12 706.578 601.891   2 
   3  -3 -11 23.6147 569.531   2 
   3  -3 -10 114.187 607.607   2 
   3  -3  -9 29973.5 843.529   2 
   3  -3  -8 8966.50 951.249   2 
   3  -3  -7 478.780 1785.58   2 
  -3   3  -7 728.301 1045.11   2 
  -3   3 -10 3928.23 877.094   2 
  -3   3 -11 5230.49 933.436   2 
  -3   3 -12 285.196 839.412   2 
  -3   3 -13 1813.00 753.351   2 
  -3   3 -14 647.560 686.627   2 
  -3   2  13-1.25345 599.849   2 
   3  -2 -12 396.766 641.401   2 
   3  -2 -11 3439.66 633.178   2 
  -3   2  10 14303.9 739.110   2 
   3  -2  -9 220.589 573.659   2 
   3  -2  -8 40874.9 825.714   2 
  -3   2   7 9235.79 595.340   2 
   3  -2  -6 52.5021 449.675   2 
   3  -2  -5 16960.5 526.550   2 
  -3   2   4 3633.00 386.147   2 
  -3   2   3 8494.90 409.527   2 
  -3   2   2 2354.32 336.090   2 
  -3   2   1 21770.7 683.351   2 
  -3   2   0 1740.08 493.252   2 
   3  -2   1 24084.8 705.934   2 
  -3   2  -2 58600.5 764.781   2 
  -3   2  -3 119738. 704.684   2 
  -3   2  -4 30934.6 420.755   2 
  -3   2  -5 3991.43 349.094   2 
  -3   2  -6 2411.35 491.682   2 
  -3   2  -7 806.475 515.583   2 
  -3   2  -8 2215.72 513.871   2 
  -3   2  -9 607.677 525.402   2 
  -3   2 -10 39.0733 768.131   2 
  -3   2 -11 3360.69 777.644   2 
  -3   2 -12 339.010 793.361   2 
  -3   2 -13 232.946 702.300   2 
  -3   2 -14 2828.66 674.736   2 
   3  -1 -14 386.289 1876.39   2 
  -3   1 -13 930.164 1429.54   2 
  -3   1 -14 3771.66 909.150   2 
   3   0 -14 556.432 869.844   2 
   3   0 -13 1837.47 611.186   2 
   3   0 -12 8189.74 635.343   2 
   3   0 -11 16.0716 575.666   2 
  -3   0  10-15.6892 547.233   2 
  -3   0   9 220.922 505.865   2 
  -3   0   8 72.0492 457.741   2 
  -3   0   7 4860.49 411.022   2 
  -3   0   6 14687.6 453.379   2 
   3   0  -5 64231.0 613.186   2 
   3   0  -4 7262.77 382.125   2 
   3   0  -3 336.177 433.632   2 
   3   0  -2 24622.3 784.991   2 
   3   0  -1 765.770 372.133   2 
   3   0   0 1843.65 406.422   2 
  -3   0  -1 3019.82 317.299   2 
  -3   0  -2 10912.2 414.714   2 
  -3   0  -3 3504.42 354.273   2 
  -3   0  -4 14473.4 386.666   2 
  -3   0  -5 37417.4 551.373   2 
   3   0   6 268.797 352.986   2 
  -3   0  -7 4141.93 438.579   2 
  -3   0  -8 25730.9 563.602   2 
  -3   0  -9 12729.2 556.579   2 
  -3   0 -10 3184.56 658.932   2 
  -3   0 -11 145.220 543.166   2 
  -3   0 -12 118.805 497.306   2 
  -3   0 -13 1945.05 563.586   2 
  -3   0 -14 1689.04 1168.58   2 
   3   1 -14 793.117 1765.25   2 
   3   1 -13 11142.9 744.766   2 
   3   1 -12 5402.81 784.073   2 
   3   1 -11 1429.95 638.555   2 
   3   1 -10 1277.40 607.611   2 
   3   1  -9 11473.0 696.190   2 
   3   1  -8 48.9936 537.013   2 
   3   1  -7 87.2111 429.719   2 
   3   1  -6 1283.89 362.919   2 
   3   1  -5 32564.8 480.965   2 
   3   1  -4 8582.53 336.966   2 
   3   1  -3 2360.54 355.931   2 
   3   1  -2 14268.9 503.152   2 
   3   1  -1 721.383 404.424   2 
  -3  -1   0 487.613 272.384   2 
  -3  -1  -1 28832.4 469.733   2 
  -3  -1  -2 3029.54 311.106   2 
  -3  -1  -3 7280.79 426.582   2 
  -3  -1  -4 32371.2 482.586   2 
  -3  -1  -5 1040.98 356.049   2 
  -3  -1  -6 28304.0 508.308   2 
  -3  -1  -7 14367.6 494.603   2 
  -3  -1  -8 1674.54 425.435   2 
  -3  -1  -9 9637.31 524.582   2 
  -3  -1 -10 189.224 470.331   2 
  -3  -1 -11 342.652 455.915   2 
  -3  -1 -12 208.113 463.429   2 
  -3  -1 -13 96.0958 596.557   2 
   3   2 -14 373.452 1689.70   2 
   3   2 -13-24.5604 1748.28   2 
  -3  -2 -11 2866.24 900.292   2 
  -3  -2 -12 2846.88 873.050   2 
   3   3 -14 1337.08 1582.47   2 
   3   3 -13 80.3205 1691.46   2 
   3   3 -12 2825.87 1142.99   2 
   3   3 -11 8003.77 1169.44   2 
   3   3 -10-24.7024 1096.40   2 
   3   3  -9 6921.02 1075.41   2 
   3   3  -8 63.0686 884.102   2 
   3   3  -7 1350.44 855.573   2 
   3   3  -6 8931.35 690.253   2 
   3   3  -5 216.477 586.694   2 
   3   3  -4 421.501 443.456   2 
   3   3  -3 1086.89 368.955   2 
   3   3  -2 90.6382 338.604   2 
   3   3  -1 19089.1 426.450   2 
   3   3   0 40018.7 524.869   2 
   3   3   1 597.706 332.645   2 
  -3  -3  -2 11328.4 383.502   2 
  -3  -3  -3 5507.01 402.701   2 
  -3  -3  -4 403.916 411.452   2 
  -3  -3  -5 883.932 539.837   2 
  -3  -3  -6 12605.2 673.423   2 
  -3  -3  -7 972.439 472.875   2 
  -3  -3  -8 260.107 457.439   2 
  -3  -3  -9 11152.4 542.562   2 
  -3  -3 -10 17072.1 530.187   2 
  -3  -3 -11 3215.74 430.995   2 
  -3  -4  13 253.294 927.105   2 
  -3  -4  -9 1521.80 820.943   2 
  -3  -4 -10 3775.26 597.536   2 
   3   5 -12 349.087 1369.01   2 
   3   5 -11 309.051 1443.50   2 
   3   5 -10 15374.7 1787.41   2 
   3   5  -9 1243.62 969.438   2 
   3   5  -8 162.189 914.978   2 
   3   5  -7 13053.0 855.777   2 
   3   5  -6 9975.22 913.961   2 
   3   5  -5 5862.42 1049.72   2 
   3   5  -4 1915.57 1867.39   2 
   3   5  -3 3826.42 1812.49   2 
   3   5  -2 6418.29 1942.29   2 
   3   5  -1 15569.5 1099.01   2 
   3   5   0 250.946 799.459   2 
   3   5   1 2.80512 644.239   2 
   3   5   2 7580.75 802.383   2 
  -3  -5  -3 1575.98 603.777   2 
  -3  -5  -4 94.6760 652.687   2 
  -3  -5  -5 7425.23 574.555   2 
  -3  -5  -6 3830.43 537.455   2 
  -3  -5  -7 1283.33 464.633   2 
  -3  -5  -8 734.613 414.307   2 
   3   6 -10 644.059 1327.14   2 
   3   6  -9 510.431 1271.90   2 
   3   6  -8 6456.71 934.109   2 
   3   6  -7 311.799 717.830   2 
   3   6  -6 2174.81 816.829   2 
   3   6  -5 10905.8 998.341   2 
   3   6  -4-169.671 1188.60   2 
   3   6  -3 243.522 1137.24   2 
   3   6  -2 12174.5 930.316   2 
   3   6  -1 446.430 784.880   2 
   3   6   0 723.723 1040.85   2 
   3   6   1 5258.07 813.600   2 
   3   6   2 1014.64 720.480   2 
  -3  -6  -3 2969.33 467.077   2 
  -3  -6  -4 3590.90 479.950   2 
  -3  -6  -5 1435.06 472.749   2 
  -3  -6  -6 26.3841 420.310   2 
   4  -7  -6 205.204 853.668   2 
   4  -7  -5 17696.4 1084.36   2 
   4  -7  -4 2923.13 709.317   2 
   4  -7  -3 112.702 691.860   2 
   4  -7  -2 934.129 688.806   2 
   4  -7  -1 4098.52 1005.28   2 
   4  -7   0 9017.72 1050.13   2 
   4  -7   1 3923.81 994.433   2 
   4  -7   2 248.235 982.173   2 
  -4   7  -3 995.427 1025.86   2 
  -4   7  -4 84.2556 873.372   2 
  -4   7  -5 5634.55 936.159   2 
  -4   7  -6 10229.9 954.094   2 
  -4   7  -7 4083.45 862.593   2 
  -4   7  -8 1701.96 1207.99   2 
   4  -6  -9 653.225 908.681   2 
  -4   6   8 741.952 592.261   2 
  -4   6   7 6866.01 675.395   2 
   4  -6  -6 1327.86 662.341   2 
   4  -6  -5 1409.11 587.985   2 
   4  -6  -4 2630.17 601.488   2 
  -4   6   3 5504.34 571.437   2 
   4  -6  -2 8113.13 714.625   2 
   4  -6  -1 5553.38 784.579   2 
   4  -6   0 529.221 724.337   2 
  -4   6  -1 2209.21 1217.39   2 
  -4   6  -2 1878.58 1182.63   2 
  -4   6  -3 40.3177 1095.77   2 
  -4   6  -4 1113.73 1065.69   2 
  -4   6  -5 10281.7 1151.15   2 
  -4   6  -6 4534.63 840.631   2 
  -4   6  -7 215.312 846.916   2 
  -4   6  -8 765.932 1237.32   2 
  -4   6  -9 746.023 1180.79   2 
  -4   6 -10 213.192 1170.60   2 
   4  -5 -10 9207.08 1030.26   2 
   4  -5  -9 7556.29 979.201   2 
   4  -5  -8 1094.16 1868.99   2 
  -4   4  11 290.847 616.872   2 
  -4   4  10 3192.33 682.386   2 
  -4   4   9 13720.8 766.644   2 
  -4   4   8 3168.42 694.850   2 
   4  -4  -7 315.006 691.867   2 
  -4   4   6 8640.54 815.980   2 
  -4   4   5 7411.88 763.356   2 
  -4   4   4 26333.6 759.180   2 
  -4   4   3 40906.9 729.501   2 
  -4   4   2 18125.0 582.929   2 
  -4   4   1 3578.91 434.191   2 
  -4   4   0 4642.42 592.602   2 
  -4   4  -1 24177.9 675.066   2 
  -4   4  -2 14.6070 530.081   2 
  -4   4  -3 3822.68 599.300   2 
  -4   4  -4 21011.2 753.788   2 
  -4   4  -5 251.067 533.531   2 
  -4   4  -6 1417.81 700.784   2 
  -4   4  -7 9784.96 1089.09   2 
  -4   4  -8 50.2152 912.068   2 
  -4   4  -9 1004.67 885.317   2 
  -4   4 -10 5027.05 897.565   2 
  -4   4 -11 664.373 1201.81   2 
  -4   4 -12 3787.15 1139.87   2 
  -4   4 -13 103.444 1029.57   2 
  -4   3 -13 127.531 1080.73   2 
   4  -2 -13 95.9526 671.551   2 
   4  -2 -12 2166.89 632.875   2 
   4  -2 -11 686.270 649.039   2 
   4  -2 -10 467.560 660.185   2 
   4  -2  -9 172.699 657.430   2 
   4  -2  -8 15854.0 774.316   2 
   4  -2  -7 17191.2 775.091   2 
  -4   2   6 13386.8 704.356   2 
   4  -2  -5 11301.0 655.493   2 
   4  -2  -4 1387.58 398.582   2 
  -4   2   3 12506.7 666.411   2 
   4  -2  -2 1826.07 779.880   2 
   4  -2  -1 525.359 520.525   2 
   4  -2   0 24373.7 987.038   2 
  -4   2  -1 43.0418 469.800   2 
  -4   2  -2 21587.8 552.191   2 
  -4   2  -3 203492. 1021.47   2 
  -4   2  -4 5736.50 431.496   2 
  -4   2  -5 10037.2 485.173   2 
  -4   2  -6 4843.98 558.056   2 
  -4   2  -7 63.3289 536.528   2 
  -4   2  -8 213.715 550.965   2 
  -4   2  -9 424.741 527.619   2 
  -4   2 -10 410.061 618.842   2 
  -4   2 -11 929.105 760.420   2 
  -4   2 -12 728.177 652.878   2 
  -4   2 -13 8499.24 743.872   2 
   4  -1 -13 167.074 602.413   2 
   4  -1 -12 263.865 621.463   2 
   4  -1 -11 604.709 682.266   2 
   4  -1 -10 6823.19 733.675   2 
   4  -1  -9 375.542 659.831   2 
   4  -1  -8 196.130 624.075   2 
   4  -1  -7 12044.4 717.415   2 
  -4   1   6 7447.07 658.708   2 
   4  -1  -5 21583.2 679.135   2 
   4  -1  -4 26375.0 592.356   2 
   4  -1  -3 1996.95 397.217   2 
   4  -1  -2 16782.8 614.432   2 
   4  -1  -1 39285.3 811.101   2 
   4  -1   0 30216.8 1017.90   2 
  -4   1  -1 5275.06 512.416   2 
  -4   1  -2 18611.0 423.289   2 
  -4   1  -3 8829.97 373.669   2 
  -4   1  -4 139.623 356.075   2 
  -4   1  -5 9635.51 460.968   2 
  -4   1  -6 1900.75 439.939   2 
  -4   1  -7 4000.85 531.874   2 
  -4   1  -8 8971.42 535.137   2 
  -4   1  -9 2321.32 610.887   2 
  -4   1 -10 344.551 578.116   2 
  -4   1 -11 2573.01 731.642   2 
  -4   1 -12 288.879 545.964   2 
  -4   1 -13 1674.26 645.596   2 
   4   0 -13 1903.03 1213.25   2 
  -4   0  11 461.083 1220.67   2 
  -4   0 -12 403.123 1006.31   2 
   4   1 -13 203.059 1064.62   2 
   4   1 -12 610.506 1082.88   2 
   4   1 -11 2339.35 941.492   2 
   4   1 -10 3578.80 851.619   2 
   4   1  -9 347.641 750.996   2 
   4   1  -8 1020.18 721.804   2 
   4   1  -7 684.528 584.474   2 
   4   1  -6-3.60657 594.435   2 
   4   1  -5 2645.81 515.211   2 
   4   1  -4 14657.2 525.970   2 
   4   1  -3 10962.2 436.785   2 
  -4  -1   2 22526.5 497.608   2 
  -4  -1   1 16317.1 418.380   2 
  -4  -1   0 11.5661 308.503   2 
  -4  -1  -1 2973.56 359.065   2 
   4   1   2 4769.55 414.884   2 
   4   1   3 1275.75 384.942   2 
  -4  -1  -4 49264.5 704.892   2 
  -4  -1  -5 11503.3 534.796   2 
  -4  -1  -6 3325.76 447.774   2 
  -4  -1  -7 12930.0 522.171   2 
  -4  -1  -8 1195.80 420.831   2 
  -4  -1  -9 36.4072 481.070   2 
  -4  -1 -10 43.5217 566.139   2 
  -4  -1 -11 1196.69 563.471   2 
  -4  -1 -12 118.504 537.272   2 
   4   2 -13 260.671 1361.33   2 
   4   2 -12 211.571 1317.37   2 
   4   2 -11 487.319 1913.55   2 
  -4  -2  -8 1640.42 1189.56   2 
  -4  -2  -9 5768.72 876.411   2 
  -4  -2 -10 3664.25 586.762   2 
  -4  -2 -11 1533.59 515.127   2 
  -4  -3  13 281.878 821.699   2 
   4   3 -12 999.096 653.636   2 
   4   3 -11 1961.29 1051.43   2 
   4   3 -10 1171.29 1053.88   2 
   4   3  -9 240.214 952.938   2 
   4   3  -8 3314.19 945.177   2 
   4   3  -7 5668.71 610.506   2 
   4   3  -6 38.4757 767.298   2 
   4   3  -5 19593.6 882.490   2 
   4   3  -4 27.0731 887.557   2 
   4   3  -3 364.563 1784.30   2 
   4   3  -2 7930.65 1798.21   2 
   4   3  -1 3535.96 1626.94   2 
   4   3   0 5115.30 1687.81   2 
   4   3   1 12498.2 771.503   2 
   4   3   2 14514.9 607.036   2 
  -4  -3  -3 7984.95 484.678   2 
  -4  -3  -4 60.4302 472.698   2 
  -4  -3  -5 11102.6 665.695   2 
  -4  -3  -6 8784.24 628.259   2 
  -4  -3  -7 3555.87 469.665   2 
  -4  -3  -8 595.502 431.000   2 
  -4  -3  -9 1860.83 434.264   2 
  -4  -3 -10 431.399 585.264   2 
   4   4 -12 1415.68 1496.41   2 
   4   4 -11 405.515 675.723   2 
   4   4 -10 177.943 664.943   2 
   4   4  -9 1076.93 665.134   2 
   4   4  -8 3958.75 671.253   2 
   4   4  -7 18344.5 698.294   2 
   4   4  -6 298.358 558.251   2 
   4   4  -5 2538.53 548.705   2 
   4   4  -4 9003.55 891.993   2 
   4   4  -3 1072.16 757.907   2 
   4   4  -2-89.5496 712.124   2 
   4   4  -1 270.761 583.486   2 
   4   4   0 4661.21 589.054   2 
   4   4   1 1179.34 567.563   2 
  -4  -4  -2 5048.95 537.139   2 
  -4  -4  -3 18540.9 801.904   2 
  -4  -4  -4 3082.84 592.536   2 
  -4  -4  -5 1193.46 555.440   2 
  -4  -4  -6 11144.5 508.246   2 
  -4  -4  -7 12622.3 568.879   2 
  -4  -4  -8 4418.66 505.029   2 
   4   6  -7 634.745 1354.75   2 
   4   6  -6 194.167 869.498   2 
   4   6  -5 135.022 824.583   2 
   4   6  -4 317.879 668.983   2 
   4   6  -3 3301.37 796.814   2 
  -4  -6   2 8026.60 665.098   2 
   4   6  -1 5272.68 1021.38   2 
  -4  -6   0 504.378 680.740   2 
  -4  -6  -1 145.596 650.898   2 
  -4  -6  -2 386.395 467.869   2 
  -4  -6  -3 154.069 473.610   2 
   5  -6  -7 2766.84 596.497   2 
   5  -6  -6 93.8149 626.937   2 
   5  -6  -5 103.693 655.038   2 
   5  -6  -4 298.725 700.306   2 
  -5   6   3 1435.82 800.973   2 
  -5   6   2 207.496 800.552   2 
   5  -6  -1 1791.43 1017.56   2 
   5  -6   0 4355.11 1056.26   2 
   5  -6   1 2728.06 1060.75   2 
  -5   6  -2 14909.5 1055.65   2 
  -5   6  -3 5931.71 899.374   2 
  -5   6  -4 682.233 624.002   2 
  -5   6  -5 2122.97 794.793   2 
  -5   6  -6 298.658 1062.91   2 
  -5   6  -7 1948.56 1014.45   2 
  -5   6  -8 1931.89 931.434   2 
  -5   6  -9 3120.48 1115.22   2 
  -5   5 -11 1037.34 1221.13   2 
  -5   4  10 3795.00 668.892   2 
  -5   4   9 527.382 660.499   2 
  -5   4   8 23902.2 897.753   2 
  -5   4   7 26873.9 984.196   2 
  -5   4   6 321.107 727.757   2 
  -5   4   5-74.4049 702.539   2 
   5  -4  -4 2158.51 1172.27   2 
   5  -4  -3 2942.60 1127.99   2 
   5  -4  -2 278.240 1165.63   2 
   5  -4  -1 4341.51 1994.99   2 
  -5   4  -1 3795.64 1054.32   2 
  -5   4  -2 5200.45 1040.06   2 
  -5   4  -4 52.7072 1246.63   2 
  -5   4  -5 3.95466 993.761   2 
  -5   4  -6 242.866 749.919   2 
  -5   4  -7 6271.01 822.662   2 
  -5   4  -8 4906.56 1004.44   2 
  -5   4  -9 357.397 850.790   2 
  -5   4 -10 5.64088 785.130   2 
  -5   4 -11 6000.45 1285.64   2 
  -5   3  11 195.918 590.665   2 
  -5   3  10 3167.95 743.772   2 
   5  -3  -9 1404.92 624.405   2 
   5  -3  -8 5453.58 762.015   2 
  -5   3   7 9784.31 764.764   2 
   5  -3  -6 36650.3 982.043   2 
  -5   3   5 23.5705 669.606   2 
  -5   3   4 1185.44 665.624   2 
   5  -3  -3 115.294 978.780   2 
   5  -3  -2 3545.52 1115.01   2 
   5  -3  -1-370.695 1918.11   2 
  -5   3  -3 20063.6 802.596   2 
  -5   3  -4 34641.3 828.573   2 
  -5   3  -5 16986.5 727.780   2 
  -5   3  -6 2463.49 629.333   2 
  -5   3  -7 173.248 593.939   2 
  -5   3  -8 2057.91 611.276   2 
  -5   3  -9 991.346 615.371   2 
  -5   3 -10 643.873 956.670   2 
  -5   3 -11 427.831 846.512   2 
  -5   3 -12 679.534 1015.46   2 
   5  -1 -12 3538.71 819.789   2 
   5  -1 -11 2431.96 735.928   2 
   5  -1 -10 2032.86 579.983   2 
   5  -1  -9 41.4141 561.379   2 
   5  -1  -8 364.208 514.467   2 
   5  -1  -7 2254.01 511.231   2 
  -5   1   6 4810.29 529.627   2 
  -5   1   5 22048.3 694.185   2 
  -5   1   4 35516.0 746.294   2 
  -5   1   3 5144.93 509.503   2 
  -5   1   2 1591.35 434.357   2 
  -5   1   1 1334.23 401.329   2 
  -5   1   0 4331.32 510.905   2 
  -5   1  -1 142.059 397.234   2 
  -5   1  -2 99.2412 421.431   2 
  -5   1  -3 1913.95 465.613   2 
  -5   1  -4 85.8186 494.504   2 
  -5   1  -5 219.500 461.442   2 
  -5   1  -6 2174.63 560.123   2 
  -5   1  -7 1782.67 585.394   2 
  -5   1  -8-4.58517 558.871   2 
  -5   1  -9 5298.74 626.060   2 
  -5   1 -10 6046.17 790.211   2 
  -5   1 -11 1664.66 567.065   2 
  -5   1 -12 213.039 944.155   2 
   5   0 -12 1270.12 744.532   2 
   5   0 -11 2690.15 1291.62   2 
   5   0 -10 1201.09 855.548   2 
   5   0  -9 691.445 970.135   2 
   5   0  -8 231.190 1927.62   2 
  -5   0  -8 1467.28 1292.00   2 
  -5   0  -9 732.929 614.504   2 
  -5   0 -10 120.742 643.059   2 
  -5   0 -11 48.6940 582.300   2 
   5   1 -12 276.453 706.543   2 
   5   1 -11 161.187 710.917   2 
   5   1 -10 1329.96 710.221   2 
  -5  -1   9 4009.51 770.232   2 
   5   1  -8 19939.2 815.440   2 
   5   1  -7 13453.6 772.788   2 
   5   1  -6 13774.3 976.980   2 
   5   1  -5 9827.12 1257.19   2 
   5   1  -1 645.465 1492.73   2 
   5   1   0 9950.63 1585.14   2 
   5   1   1 4909.99 1156.99   2 
   5   1   2 120.193 953.034   2 
  -5  -1  -3 841.427 758.603   2 
  -5  -1  -4 777.524 491.170   2 
  -5  -1  -5 419.509 522.241   2 
  -5  -1  -6 72.2176 565.488   2 
  -5  -1  -7 4042.36 480.735   2 
  -5  -1  -8 172.285 577.364   2 
  -5  -1  -9 46.4007 563.875   2 
  -5  -1 -10 1433.60 574.721   2 
   5   2 -12 132.334 700.527   2 
   5   2 -11 454.586 671.108   2 
   5   2 -10 3511.24 722.650   2 
   5   2  -9 1420.67 665.798   2 
   5   2  -8 775.371 608.507   2 
   5   2  -7 4090.19 651.296   2 
   5   2  -6 3662.38 617.576   2 
   5   2  -5-18.9723 600.462   2 
   5   2  -4 17022.6 980.495   2 
   5   2  -3 2033.06 684.323   2 
   5   2  -2 8252.70 663.279   2 
   5   2  -1 3688.89 613.773   2 
   5   2   0 4133.41 555.592   2 
   5   2   1 25141.4 633.928   2 
   5   2   2 3941.33 450.091   2 
   5   2   3 731.240 449.192   2 
  -5  -2  -4 51.2043 462.700   2 
  -5  -2  -5 3025.67 485.180   2 
  -5  -2  -6 33.4532 506.281   2 
  -5  -2  -7 183.596 484.575   2 
  -5  -2  -8 815.387 462.413   2 
  -5  -2  -9 765.647 483.451   2 
   5   4  -9 329.737 660.071   2 
   5   4  -8 2342.23 637.786   2 
   5   4  -7 345.901 572.741   2 
   5   4  -6 1385.40 568.721   2 
   5   4  -5 20923.4 721.412   2 
   5   4  -4 9168.04 645.288   2 
   5   4  -3 1999.54 582.241   2 
   5   4  -2 4099.90 708.786   2 
   5   4  -1 123.938 467.053   2 
  -5  -4   0 10291.5 560.314   2 
  -5  -4  -1 65.6402 561.144   2 
  -5  -4  -2 5417.03 798.742   2 
  -5  -4  -3 2668.31 586.653   2 
  -5  -4  -4 4071.86 621.865   2 
  -5  -4  -5 680.138 443.654   2 
  -5  -4  -6 1054.88 579.879   2 
   5   5  -6 1069.99 2013.77   2 
  -6   6   6 58.9185 741.531   2 
  -6   6   5-41.7825 715.228   2 
   6  -6  -4 2642.57 1981.45   2 
   6  -6  -3 320.367 2038.16   2 
   6  -6  -2 4901.95 2262.36   2 
  -6   6  -6 1006.16 1138.53   2 
  -6   6  -7 79.1619 845.655   2 
  -6   6  -8 1076.26 1031.84   2 
  -6   5   8 2348.28 789.062   2 
  -6   5   7 1333.31 649.200   2 
  -6   5   6 174.001 695.729   2 
   6  -5  -5 3203.32 701.793   2 
  -6   5   4 2292.94 842.448   2 
  -6   5   3 8901.01 941.892   2 
   6  -5  -2 10117.4 1483.70   2 
  -6   5  -4 2226.91 779.317   2 
  -6   5  -5 3158.05 806.908   2 
  -6   5  -6 2006.09 784.358   2 
  -6   5  -7 398.222 872.430   2 
  -6   5  -8 1177.85 838.622   2 
  -6   5  -9 2337.38 800.434   2 
   6  -3 -10 609.987 946.421   2 
  -6   3   9 34.3386 651.556   2 
  -6   3   8 920.712 624.665   2 
  -6   3   7 2567.24 649.171   2 
  -6   3   6 10244.7 812.483   2 
  -6   3   5 395.784 745.522   2 
  -6   3   4 2721.09 816.508   2 
  -6   3   3 1607.86 785.226   2 
  -6   3   0 392.624 1535.86   2 
  -6   3  -1 3634.53 731.889   2 
  -6   3  -2 1986.12 562.008   2 
  -6   3  -3 463.619 560.012   2 
  -6   3  -4 54483.1 1158.70   2 
  -6   3  -5 31577.9 920.005   2 
  -6   3  -6 1326.03 692.828   2 
  -6   3  -7 213.504 628.670   2 
  -6   3  -8 3304.26 642.929   2 
  -6   3  -9 215.115 793.209   2 
  -6   3 -10 213.906 1109.38   2 
   6  -2 -10 232.290 788.065   2 
   6  -2  -9 3671.46 866.372   2 
   6  -2  -8 3014.55 861.246   2 
   6  -2  -7-157.552 1003.61   2 
   6  -2  -6 316.195 2077.09   2 
  -6   2  -8 1248.69 1062.45   2 
  -6   2  -9 2491.93 604.649   2 
  -6   2 -10 717.406 853.253   2 
   6  -1 -11 1323.76 1204.90   2 
   6  -1 -10 909.855 859.344   2 
   6  -1  -9 105.824 660.125   2 
   6  -1  -8 172.531 606.185   2 
   6  -1  -7 251.011 598.888   2 
  -6   1   6 1831.66 562.237   2 
   6  -1  -5 240.596 1900.23   2 
   6  -1  -3 169.494 1934.01   2 
   6  -1   3 1180.20 1397.70   2 
  -6   1  -4 1512.56 864.084   2 
  -6   1  -5 10756.2 654.442   2 
  -6   1  -6 1918.62 590.629   2 
  -6   1  -7 3925.36 580.401   2 
  -6   1  -8 218.277 525.968   2 
  -6   1  -9 60.8649 491.736   2 
  -6   1 -10 3264.02 664.987   2 
   6   0 -11 185.121 1171.41   2 
   6   0 -10 978.260 776.847   2 
   6   0  -9 6061.37 840.855   2 
   6   0  -8 3208.53 720.429   2 
   6   0  -7 264.510 689.908   2 
   6   0  -6 863.673 679.948   2 
   6   0  -5 2693.25 672.849   2 
   6   0  -4 503.874 626.633   2 
   6   0  -3 7367.40 937.747   2 
   6   0  -2 3424.29 882.457   2 
  -6   0   1-2.26912 789.148   2 
  -6   0   0 5995.36 881.575   2 
   6   0   1 122.452 742.769   2 
  -6   0  -2 96.6555 794.897   2 
  -6   0  -3 880.844 551.527   2 
  -6   0  -4 52.0688 589.756   2 
  -6   0  -5 4908.15 528.814   2 
  -6   0  -6 3748.67 585.464   2 
  -6   0  -7 1515.33 512.665   2 
  -6   0  -8 3668.80 495.863   2 
  -6   0  -9 1630.66 646.337   2 
  -6  -2  10 1009.83 703.628   2 
   6   2  -9 618.522 694.852   2 
   6   2  -8 1384.42 700.444   2 
   6   2  -7 3744.81 647.184   2 
   6   2  -6 5734.49 663.745   2 
   6   2  -5 3851.89 631.933   2 
   6   2  -4 9049.13 871.271   2 
   6   2  -3 3932.53 813.755   2 
   6   2  -2 1088.04 682.484   2 
   6   2  -1 5422.66 657.724   2 
   6   2   0 3417.95 521.684   2 
   6   2   1 4267.21 506.377   2 
   6   2   2 1118.34 490.943   2 
  -6  -2  -3 2751.51 496.374   2 
  -6  -2  -4 1393.01 433.681   2 
  -6  -2  -5 836.345 590.768   2 
  -6  -2  -6 1359.30 485.500   2 
  -6  -2  -7 3639.40 545.017   2 
   6   3  -9 344.111 701.282   2 
   6   3  -8 1327.58 1546.21   2 
  -6  -3  -5 136.228 718.727   2 
   6   3   6 3782.08 880.858   2 
   6   4  -7 1106.12 1467.14   2 
   6   4  -6 184.224 1792.31   2 
   6   4  -5 6829.60 1849.81   2 
   6   4  -4 2281.81 1711.29   2 
   6   4   1 614.246 1587.00   2 
  -7   5   5 5233.91 697.590   2 
  -7   5   4 412.933 663.057   2 
  -7   5   3 3162.35 691.343   2 
   7  -5  -2 4084.27 1257.43   2 
   7  -5  -1 2282.86 1272.87   2 
   7  -5   0 1102.83 1344.66   2 
   7  -5   1 806.900 1409.41   2 
  -7   5  -3 883.334 1283.04   2 
  -7   5  -4 843.805 752.310   2 
  -7   5  -5 358.627 716.194   2 
  -7   5  -6 256.359 863.917   2 
   7  -4  -6 71.1956 1257.58   2 
  -7   3   7 10075.0 872.443   2 
  -7   3   6 1762.15 671.927   2 
  -7   3  -5 2183.69 1058.40   2 
  -7   3  -6-13.6962 788.591   2 
  -7   3  -7 166.443 809.126   2 
  -7   3  -8 140.486 1270.44   2 
   7  -2  -7 1392.13 1422.42   2 
   7  -2  -6 1335.14 1325.02   2 
  -7   2   5 3481.48 846.917   2 
  -7   2   4 5940.23 713.947   2 
   7  -2  -3 14097.9 1547.26   2 
   7  -2  -2 8761.87 1405.96   2 
   7  -2  -1 114.927 1269.91   2 
   7  -2   0 869.639 1312.20   2 
  -7   2  -1 4915.40 918.272   2 
  -7   2  -2 2368.04 824.129   2 
  -7   2  -3 1328.90 830.422   2 
  -7   2  -4 172.721 730.491   2 
  -7   2  -5 33.1121 702.463   2 
  -7   2  -6 330.933 588.156   2 
  -7   2  -7 903.296 593.914   2 
  -7   2  -8 1065.88 881.988   2 
   7   0  -8 1103.19 769.040   2 
   7   0  -7 6026.73 762.249   2 
  -7   0   6 8928.36 776.854   2 
   7   0  -5 2389.40 728.476   2 
  -7   0   4 2549.83 723.036   2 
   7   0  -3 756.874 1311.48   2 
   7   0  -2-37.6839 1302.30   2 
   7   0  -1 103.580 823.836   2 
   7   0   0 140.923 774.220   2 
  -7   0  -1 1956.87 868.917   2 
  -7   0  -2 3766.15 547.220   2 
  -7   0  -3 863.764 517.265   2 
  -7   0  -4 592.241 468.666   2 
  -7   0  -5 1994.81 530.422   2 
  -7   0  -6 900.891 494.694   2 
  -7   0  -7 60.2199 810.805   2 
   7   1  -8 1577.12 890.722   2 
   7   1  -7 205.388 1160.34   2 
   7   1  -6 711.533 1845.83   2 
   7   1   5 68.7348 788.520   2 
  -7  -1  -6 853.286 719.339   2 
   7   2  -6 34.5877 1926.43   2 
   7   2  -5 1610.85 1980.07   2 
   7   2  -4 308.677 1937.59   2 
   7   2   0 696.329 1952.46   2 
  -7  -2  -3 300.446 1086.09   2 
  -7  -2  -4 280.464 1028.10   2 
   7   3  -4 4287.65 953.456   2 
   7   3  -3 5507.88 946.446   2 
   7   3  -2 550.121 883.842   2 
   7   3  -1 52.4064 955.393   2 
   7   3   0 167.608 951.679   2 
  -8   4   1 380.038 1135.91   2 
  -8   4   0 355.880 1109.29   2 
  -8   4  -1 1329.98 1072.65   2 
  -8   4  -2 185.083 1082.30   2 
  -8   4  -3 53.0424 1080.47   2 
   8  -2  -4 637.055 1357.65   2 
   8  -2  -3 299.604 1244.03   2 
   8  -2  -2 2133.53 891.746   2 
  -8   2   1 1595.27 934.379   2 
  -8   2   0 3240.75 913.787   2 
  -8   2  -1 1203.30 801.909   2 
  -8   2  -2 187.608 874.816   2 
  -8   2  -3 181.745 692.758   2 
  -8   2  -4 32.8519 668.753   2 
   8  -1  -4 556.730 2183.69   2 
   8  -1  -3 832.276 2247.89   2 
   8  -1  -2 375.907 2363.09   2 
;
_shelx_hkl_checksum              28201
loop_
_space_group_symop_operation_xyz
'x, y, z'
'-x, -y, -z'
loop_
_atom_site_label
_atom_site_type_symbol
_atom_site_fract_x
_atom_site_fract_y
_atom_site_fract_z
_atom_site_U_iso_or_equiv
_atom_site_adp_type
_atom_site_occupancy
_atom_site_site_symmetry_order
_atom_site_calc_flag
_atom_site_refinement_flags_posn
_atom_site_refinement_flags_adp
_atom_site_refinement_flags_occupancy
Ni1 Ni 0.5000 1.0000 0.5000 0.0151(4) Uani 1 2 d S . P
O1 O 0.1420(5) 0.7998(5) 0.8880(3) 0.0242(9) Uani 1 1 d . . .
O2 O -0.0055(5) 0.5190(5) 0.8166(3) 0.0227(9) Uani 1 1 d . . .
O3 O 0.4833(5) 0.3875(5) 0.1508(3) 0.0223(8) Uani 1 1 d . . .
O4 O 0.2732(5) 0.1835(5) 0.2170(3) 0.0235(9) Uani 1 1 d . . .
O5 O 0.7574(5) 0.9271(5) 0.5454(3) 0.0185(8) Uani 1 1 d D . .
H5A H 0.733(10) 0.827(7) 0.572(5) 0.05(2) Uiso 1 1 d D . .
H5B H 0.842(9) 1.015(8) 0.584(5) 0.06(2) Uiso 1 1 d D . .
O6 O 1.0626(6) 1.1774(5) 0.6510(3) 0.0211(8) Uani 1 1 d D . .
H6A H 1.142(9) 1.152(10) 0.603(5) 0.06(2) Uiso 1 1 d D . .
H6B H 1.072(12) 1.294(6) 0.651(6) 0.07(3) Uiso 1 1 d D . .
N1 N 0.3364(6) 0.8431(5) 0.6025(3) 0.0151(9) Uani 1 1 d . . .
N2 N 0.2802(6) 0.8691(6) 0.7033(3) 0.0166(9) Uani 1 1 d . . .
N3 N 0.1719(6) 0.5659(5) 0.6322(3) 0.0165(9) Uani 1 1 d . . .
N4 N 0.1014(6) 0.6717(6) 0.8136(3) 0.0192(10) Uani 1 1 d . . .
N5 N 0.4182(6) 0.7355(5) 0.4087(3) 0.0156(9) Uani 1 1 d . . .
N6 N 0.4541(6) 0.6520(6) 0.3123(3) 0.0165(9) Uani 1 1 d . . .
N7 N 0.2868(6) 0.4331(5) 0.3998(3) 0.0158(9) Uani 1 1 d . . .
N8 N 0.3763(6) 0.3396(6) 0.2208(3) 0.0192(9) Uani 1 1 d . . .
N9 N 0.3346(7) 1.1983(7) 0.8532(4) 0.0206(10) Uani 1 1 d . . .
H9A H 0.363(10) 1.270(10) 0.806(6) 0.05(2) Uiso 1 1 d . . .
H9B H 0.298(9) 1.110(9) 0.817(5) 0.03(2) Uiso 1 1 d . . .
C1 C 0.1852(7) 0.7018(7) 0.7148(4) 0.0156(10) Uani 1 1 d . . .
C2 C 0.2695(7) 0.6622(7) 0.5646(4) 0.0154(10) Uani 1 1 d . . .
C3 C 0.3194(7) 0.6022(7) 0.4572(4) 0.0159(10) Uani 1 1 d . . .
C4 C 0.3731(7) 0.4758(7) 0.3126(4) 0.0156(10) Uani 1 1 d . . .
C5 C 0.1772(9) 1.2330(8) 0.9248(4) 0.0276(13) Uani 1 1 d . . .
H5E H 0.1613 1.1463 0.9744 0.041 Uiso 1 1 calc R U .
H5C H 0.0521 1.2159 0.8837 0.041 Uiso 1 1 calc R U .
H5D H 0.2146 1.3596 0.9636 0.041 Uiso 1 1 calc R U .
C6 C 0.5252(8) 1.1979(8) 0.9064(4) 0.0285(13) Uani 1 1 d . . .
H6E H 0.5780 1.3187 0.9501 0.043 Uiso 1 1 calc R U .
H6C H 0.6194 1.1722 0.8537 0.043 Uiso 1 1 calc R U .
H6D H 0.5048 1.1024 0.9506 0.043 Uiso 1 1 calc R U .
loop_
_atom_site_aniso_label
_atom_site_aniso_U_11
_atom_site_aniso_U_22
_atom_site_aniso_U_33
_atom_site_aniso_U_23
_atom_site_aniso_U_13
_atom_site_aniso_U_12
Ni1 0.0168(7) 0.0086(6) 0.0212(7) 0.0039(5) 0.0013(5) 0.0047(5)
O1 0.029(2) 0.020(2) 0.0240(19) 0.0010(17) 0.0043(16) 0.0085(16)
O2 0.023(2) 0.0153(19) 0.032(2) 0.0104(16) 0.0049(16) 0.0049(16)
O3 0.025(2) 0.0214(19) 0.0242(18) 0.0060(16) 0.0060(15) 0.0105(16)
O4 0.027(2) 0.0134(19) 0.030(2) 0.0011(16) -0.0006(16) 0.0060(16)
O5 0.0182(19) 0.0116(18) 0.0263(19) 0.0044(16) 0.0003(15) 0.0039(15)
O6 0.022(2) 0.0120(18) 0.030(2) 0.0032(16) 0.0015(16) 0.0053(16)
N1 0.018(2) 0.009(2) 0.019(2) 0.0010(17) 0.0000(17) 0.0059(17)
N2 0.017(2) 0.012(2) 0.022(2) 0.0040(17) 0.0021(17) 0.0061(17)
N3 0.015(2) 0.012(2) 0.026(2) 0.0071(18) 0.0027(17) 0.0062(17)
N4 0.017(2) 0.018(2) 0.026(2) 0.007(2) 0.0046(18) 0.0084(19)
N5 0.018(2) 0.011(2) 0.019(2) 0.0015(18) -0.0010(17) 0.0062(17)
N6 0.018(2) 0.012(2) 0.020(2) 0.0020(17) -0.0012(16) 0.0053(17)
N7 0.015(2) 0.009(2) 0.025(2) 0.0043(17) 0.0016(17) 0.0054(16)
N8 0.018(2) 0.015(2) 0.027(2) 0.0069(19) -0.0001(18) 0.0072(19)
N9 0.030(3) 0.012(2) 0.020(2) 0.002(2) 0.003(2) 0.005(2)
C1 0.014(2) 0.014(2) 0.022(3) 0.007(2) 0.0013(19) 0.008(2)
C2 0.014(2) 0.012(2) 0.021(3) 0.003(2) -0.0016(19) 0.006(2)
C3 0.012(2) 0.014(2) 0.024(3) 0.007(2) 0.0000(19) 0.005(2)
C4 0.015(2) 0.012(2) 0.020(3) 0.001(2) -0.0010(19) 0.006(2)
C5 0.034(3) 0.023(3) 0.030(3) 0.006(2) 0.009(2) 0.013(3)
C6 0.032(3) 0.028(3) 0.029(3) 0.009(3) 0.002(2) 0.011(3)
loop_
_atom_type_symbol
_atom_type_description
_atom_type_scat_dispersion_real
_atom_type_scat_dispersion_imag
_atom_type_scat_source
C C 0.0181 0.0091 'International Tables Vol C Tables 4.2.6.8 and 6.1.1.4'
H H 0.0000 0.0000 'International Tables Vol C Tables 4.2.6.8 and 6.1.1.4'
N N 0.0311 0.0180 'International Tables Vol C Tables 4.2.6.8 and 6.1.1.4'
O O 0.0492 0.0322 'International Tables Vol C Tables 4.2.6.8 and 6.1.1.4'
Ni Ni -3.0029 0.5091 'International Tables Vol C Tables 4.2.6.8 and 6.1.1.4'
loop_
_geom_angle_atom_site_label_1
_geom_angle_atom_site_label_2
_geom_angle_atom_site_label_3
_geom_angle
_geom_angle_site_symmetry_1
_geom_angle_site_symmetry_3
O5 Ni1 O5 180.0 . 2_676
O5 Ni1 N5 93.15(15) . 2_676
O5 Ni1 N5 86.85(15) 2_676 2_676
O5 Ni1 N5 86.85(15) . .
O5 Ni1 N5 93.15(15) 2_676 .
N5 Ni1 N5 180.0 2_676 .
O5 Ni1 N1 89.03(15) . 2_676
O5 Ni1 N1 90.97(15) 2_676 2_676
N5 Ni1 N1 77.08(15) 2_676 2_676
N5 Ni1 N1 102.92(15) . 2_676
O5 Ni1 N1 90.97(15) . .
O5 Ni1 N1 89.03(15) 2_676 .
N5 Ni1 N1 102.92(15) 2_676 .
N5 Ni1 N1 77.08(15) . .
N1 Ni1 N1 180.0(3) 2_676 .
Ni1 O5 H5A 112(5) . .
Ni1 O5 H5B 114(5) . .
H5A O5 H5B 113(7) . .
H6A O6 H6B 101(7) . .
C2 N1 N2 106.0(4) . .
C2 N1 Ni1 115.8(3) . .
N2 N1 Ni1 138.1(3) . .
C1 N2 N1 103.1(4) . .
C2 N3 C1 99.3(4) . .
O1 N4 O2 124.9(4) . .
O1 N4 C1 117.6(4) . .
O2 N4 C1 117.5(4) . .
C3 N5 N6 106.7(4) . .
C3 N5 Ni1 116.0(3) . .
N6 N5 Ni1 137.0(3) . .
C4 N6 N5 102.8(4) . .
C3 N7 C4 99.1(4) . .
O4 N8 O3 124.1(4) . .
O4 N8 C4 118.3(4) . .
O3 N8 C4 117.6(4) . .
C6 N9 C5 114.8(4) . .
C6 N9 H9A 106(5) . .
C5 N9 H9A 117(5) . .
C6 N9 H9B 110(5) . .
C5 N9 H9B 109(5) . .
H9A N9 H9B 98(6) . .
N2 C1 N3 117.2(4) . .
N2 C1 N4 120.0(4) . .
N3 C1 N4 122.8(4) . .
N2 C1 C2 77.0(3) . .
N3 C1 C2 40.2(3) . .
N4 C1 C2 163.0(4) . .
N3 C2 N1 114.4(4) . .
N3 C2 C3 130.4(5) . .
N1 C2 C3 115.2(4) . .
N3 C2 C1 40.5(3) . .
N1 C2 C1 73.9(3) . .
C3 C2 C1 170.8(4) . .
N7 C3 N5 114.1(4) . .
N7 C3 C2 130.0(4) . .
N5 C3 C2 115.8(4) . .
N7 C3 C4 40.6(3) . .
N5 C3 C4 73.5(3) . .
C2 C3 C4 170.6(4) . .
N6 C4 N7 117.3(4) . .
N6 C4 N8 120.0(4) . .
N7 C4 N8 122.7(4) . .
N6 C4 C3 76.9(3) . .
N7 C4 C3 40.4(3) . .
N8 C4 C3 163.0(4) . .
N9 C5 H5E 109.5 . .
N9 C5 H5C 109.5 . .
H5E C5 H5C 109.5 . .
N9 C5 H5D 109.5 . .
H5E C5 H5D 109.5 . .
H5C C5 H5D 109.5 . .
N9 C6 H6E 109.5 . .
N9 C6 H6C 109.5 . .
H6E C6 H6C 109.5 . .
N9 C6 H6D 109.5 . .
H6E C6 H6D 109.5 . .
H6C C6 H6D 109.5 . .
loop_
_geom_bond_atom_site_label_1
_geom_bond_atom_site_label_2
_geom_bond_distance
_geom_bond_site_symmetry_2
Ni1 O5 2.078(4) .
Ni1 O5 2.078(4) 2_676
Ni1 N5 2.097(4) 2_676
Ni1 N5 2.097(4) .
Ni1 N1 2.108(4) 2_676
Ni1 N1 2.108(4) .
O1 N4 1.227(5) .
O2 N4 1.234(5) .
O3 N8 1.233(5) .
O4 N8 1.229(5) .
O5 H5A 0.86(4) .
O5 H5B 0.86(4) .
O6 H6A 0.87(4) .
O6 H6B 0.87(4) .
N1 C2 1.346(6) .
N1 N2 1.365(6) .
N2 C1 1.324(6) .
N3 C2 1.331(6) .
N3 C1 1.341(6) .
N4 C1 1.447(6) .
N5 C3 1.341(6) .
N5 N6 1.357(6) .
N6 C4 1.326(6) .
N7 C3 1.336(6) .
N7 C4 1.343(6) .
N8 C4 1.442(7) .
N9 C6 1.477(7) .
N9 C5 1.486(7) .
N9 H9A 0.88(8) .
N9 H9B 0.74(7) .
C1 C2 2.037(7) .
C2 C3 1.463(7) .
C3 C4 2.038(7) .
C5 H5E 0.9800 .
C5 H5C 0.9800 .
C5 H5D 0.9800 .
C6 H6E 0.9800 .
C6 H6C 0.9800 .
C6 H6D 0.9800 .
loop_
_geom_hbond_atom_site_label_D
_geom_hbond_atom_site_label_H
_geom_hbond_atom_site_label_A
_geom_hbond_distance_DH
_geom_hbond_distance_HA
_geom_hbond_distance_DA
_geom_hbond_angle_DHA
_geom_hbond_site_symmetry_A
O5 H5A N7 0.86(4) 2.03(4) 2.873(5) 164(7) 2_666
O5 H5B O6 0.86(4) 1.83(4) 2.681(5) 167(7) .
O6 H6A O5 0.87(4) 2.09(4) 2.925(5) 160(7) 2_776
N9 H9A O3 0.88(8) 2.53(7) 3.114(6) 124(6) 2_676
N9 H9A N6 0.88(8) 2.08(8) 2.867(6) 148(7) 2_676
N9 H9B N2 0.74(7) 2.12(7) 2.837(6) 164(7) .
C5 H5E O1 0.98 2.64 3.177(7) 114.6 .
O6 H6B O2 0.87(4) 2.65(7) 3.197(5) 122(6) 1_665
O6 H6B N3 0.87(4) 2.07(4) 2.914(5) 164(8) 1_665
loop_
_geom_torsion_atom_site_label_1
_geom_torsion_atom_site_label_2
_geom_torsion_atom_site_label_3
_geom_torsion_atom_site_label_4
_geom_torsion
C2 N1 N2 C1 -0.2(5)
Ni1 N1 N2 C1 -177.1(4)
C3 N5 N6 C4 -0.1(5)
Ni1 N5 N6 C4 172.2(4)
N1 N2 C1 N3 0.0(5)
N1 N2 C1 N4 179.9(4)
N1 N2 C1 C2 0.2(3)
C2 N3 C1 N2 0.2(5)
C2 N3 C1 N4 -179.7(4)
O1 N4 C1 N2 -8.5(7)
O2 N4 C1 N2 171.5(4)
O1 N4 C1 N3 171.4(4)
O2 N4 C1 N3 -8.5(7)
O1 N4 C1 C2 170.8(11)
O2 N4 C1 C2 -9.2(15)
C1 N3 C2 N1 -0.4(5)
C1 N3 C2 C3 178.0(5)
N2 N1 C2 N3 0.4(6)
Ni1 N1 C2 N3 178.1(3)
N2 N1 C2 C3 -178.2(4)
Ni1 N1 C2 C3 -0.5(5)
N2 N1 C2 C1 0.2(3)
Ni1 N1 C2 C1 177.9(3)
C4 N7 C3 N5 -0.3(5)
C4 N7 C3 C2 -178.2(5)
N6 N5 C3 N7 0.3(5)
Ni1 N5 C3 N7 -173.9(3)
N6 N5 C3 C2 178.5(4)
Ni1 N5 C3 C2 4.3(5)
N6 N5 C3 C4 0.1(3)
Ni1 N5 C3 C4 -174.1(3)
N3 C2 C3 N7 -3.0(9)
N1 C2 C3 N7 175.3(5)
N3 C2 C3 N5 179.1(5)
N1 C2 C3 N5 -2.5(6)
N5 N6 C4 N7 -0.1(6)
N5 N6 C4 N8 178.5(4)
N5 N6 C4 C3 0.1(3)
C3 N7 C4 N6 0.3(5)
C3 N7 C4 N8 -178.3(4)
O4 N8 C4 N6 -168.4(4)
O3 N8 C4 N6 11.8(7)
O4 N8 C4 N7 10.2(7)
O3 N8 C4 N7 -169.6(4)
O4 N8 C4 C3 6.5(15)
O3 N8 C4 C3 -173.3(11)
