#------------------------------------------------------------------------------
#$Date: 2019-11-23 14:18:08 +0200 (Sat, 23 Nov 2019) $
#$Revision: 233585 $
#$URL: file:///home/coder/svn-repositories/cod/cif/4/34/91/4349113.cif $
#------------------------------------------------------------------------------
#
# This file is available in the Crystallography Open Database (COD),
# http://www.crystallography.net/
#
# All data on this site have been placed in the public domain by the
# contributors.
#
data_4349113
loop_
_publ_author_name
'Valverde-Mu\~noz, Francisco Javier'
'Seredyuk, Maksym'
'Mu\~noz, M Carmen'
'Znovjyak, Kateryna'
'Fritsky, Igor O.'
'Real, Jos\'e Antonio'
_publ_section_title
;
 Strong Cooperative Spin Crossover in 2D and 3D
 Fe<sup>II</sup>-M<sup>I,II</sup> Hofmann-Like Coordination Polymers Based
 on 2-Fluoropyrazine.
;
_journal_issue                   20
_journal_name_full               'Inorganic chemistry'
_journal_page_first              10654
_journal_page_last               10665
_journal_paper_doi               10.1021/acs.inorgchem.6b01901
_journal_volume                  55
_journal_year                    2016
_chemical_formula_sum            'C12 H6 F2 Fe N8 Pt'
_chemical_formula_weight         551.19
_space_group_crystal_system      orthorhombic
_space_group_IT_number           53
_space_group_name_Hall           '-P 2ac 2'
_space_group_name_H-M_alt        'P m n a'
_atom_sites_solution_hydrogens   geom
_audit_creation_method           SHELXL-2014
_cell_angle_alpha                90
_cell_angle_beta                 90
_cell_angle_gamma                90
_cell_formula_units_Z            2
_cell_length_a                   7.4534(4)
_cell_length_b                   7.1275(4)
_cell_length_c                   15.0455(10)
_cell_measurement_reflns_used    3229
_cell_measurement_temperature    200(1)
_cell_measurement_theta_max      29.9090
_cell_measurement_theta_min      3.9140
_cell_volume                     799.28(8)
_computing_cell_refinement       'CrysAlisPro 2015'
_computing_data_collection       'CrysAlisPro 2015'
_computing_data_reduction        'CrysAlisPro 2015'
_computing_structure_refinement  'SHELXL-2014 (Sheldrick, 2014)'
_computing_structure_solution    'SHELXS-2014 (Sheldrick, 2014)'
_diffrn_ambient_temperature      200(1)
_diffrn_measured_fraction_theta_full 0.999
_diffrn_measured_fraction_theta_max 0.934
_diffrn_measurement_device_type  'SuperNova Sapphire3'
_diffrn_radiation_type           MoK\a
_diffrn_radiation_wavelength     0.71073
_diffrn_reflns_av_R_equivalents  0.0276
_diffrn_reflns_av_unetI/netI     0.0243
_diffrn_reflns_Laue_measured_fraction_full 0.999
_diffrn_reflns_Laue_measured_fraction_max 0.934
_diffrn_reflns_limit_h_max       10
_diffrn_reflns_limit_h_min       -9
_diffrn_reflns_limit_k_max       9
_diffrn_reflns_limit_k_min       -9
_diffrn_reflns_limit_l_max       21
_diffrn_reflns_limit_l_min       -19
_diffrn_reflns_number            6202
_diffrn_reflns_point_group_measured_fraction_full 0.999
_diffrn_reflns_point_group_measured_fraction_max 0.934
_diffrn_reflns_theta_full        25.000
_diffrn_reflns_theta_max         29.944
_diffrn_reflns_theta_min         2.858
_exptl_absorpt_coefficient_mu    9.682
_exptl_absorpt_correction_T_max  1.00000
_exptl_absorpt_correction_T_min  0.48389
_exptl_absorpt_correction_type   multi-scan
_exptl_absorpt_process_details   'CrysAlisPro 1.171.38.41q'
_exptl_crystal_colour            yellow
_exptl_crystal_density_diffrn    2.290
_exptl_crystal_description       prismatic
_exptl_crystal_F_000             512
_exptl_crystal_size_max          0.100
_exptl_crystal_size_mid          0.100
_exptl_crystal_size_min          0.060
_refine_diff_density_max         0.632
_refine_diff_density_min         -0.792
_refine_diff_density_rms         0.140
_refine_ls_extinction_method     none
_refine_ls_goodness_of_fit_ref   1.088
_refine_ls_hydrogen_treatment    constr
_refine_ls_matrix_type           full
_refine_ls_number_parameters     69
_refine_ls_number_reflns         1167
_refine_ls_number_restraints     0
_refine_ls_restrained_S_all      1.088
_refine_ls_R_factor_all          0.0319
_refine_ls_R_factor_gt           0.0242
_refine_ls_shift/su_max          0.036
_refine_ls_shift/su_mean         0.006
_refine_ls_structure_factor_coef Fsqd
_refine_ls_weighting_details
'w=1/[\s^2^(Fo^2^)+(0.0172P)^2^+1.7518P] where P=(Fo^2^+2Fc^2^)/3'
_refine_ls_weighting_scheme      calc
_refine_ls_wR_factor_gt          0.0459
_refine_ls_wR_factor_ref         0.0493
_reflns_Friedel_coverage         0.000
_reflns_number_gt                968
_reflns_number_total             1167
_reflns_threshold_expression     'I > 2\s(I)'
_cod_data_source_file            ic6b01901_si_006.cif
_cod_data_source_block           shelx
_cod_database_code               4349113
_shelx_space_group_comment
;
The symmetry employed for this shelxl refinement is uniquely defined
by the following loop, which should always be used as a source of
symmetry information in preference to the above space-group names.
They are only intended as comments.
;
_shelx_estimated_absorpt_t_min   0.444
_shelx_estimated_absorpt_t_max   0.594
_shelxl_version_number           2014-1
_shelx_res_file
;
TITL ja1415 in Pnc2
CELL  0.71073   7.4534   7.1275  15.0455   90.000   90.000   90.000
ZERR     2.00   0.0004   0.0004   0.0010    0.000    0.000    0.000
LATT   1
SYMM  1/2 - X, - Y, 1/2 + Z
SYMM    X, - Y, - Z
SYMM  1/2 - X,   Y, 1/2 - Z
SFAC  C    H    N    F    FE   PT
UNIT  24   12   16   4    2    2
MERG   2
OMIT    -3.00 180.00
FMAP   2
PLAN   20
ACTA    50.00
BOND
BOND   $H
L.S.   4
size 0.06 0.10 0.10
WGHT    0.017200    1.751800
FVAR       4.01309
PT    6    0.000000    0.000000    0.000000    10.25000    0.00895    0.00883 =
         0.02149   -0.00082    0.00000    0.00000
FE    5    0.500000    0.500000    0.000000    10.25000    0.01018    0.01000 =
         0.02833   -0.00564    0.00000    0.00000
N1    3    0.500000    0.384805   -0.137416    10.50000    0.01693    0.01818 =
         0.02945   -0.00368    0.00000    0.00000
N2    3    0.298177    0.299373    0.033395    11.00000    0.01505    0.01806 =
         0.03432   -0.00276    0.00134   -0.00384
N3    3    0.500000    0.245331   -0.309477    10.50000    0.12894    0.04718 =
         0.02552   -0.00719    0.00000    0.00000
C1    1    0.500000    0.201724   -0.152807    10.50000    0.05162    0.01872 =
         0.03114   -0.00260    0.00000    0.00000
AFIX  43
H1    2    0.500000    0.116413   -0.106037    10.50000   -1.20000
AFIX   0
C2    1    0.500000    0.140924   -0.239386    10.50000    0.09778    0.03023 =
         0.03496   -0.01347    0.00000    0.00000
C3    1    0.500000    0.427668   -0.292900    10.50000    0.09832    0.04648 =
         0.03141    0.00733    0.00000    0.00000
AFIX  43
H3    2    0.500000    0.511018   -0.340457    10.50000   -1.20000
AFIX   0
C4    1    0.500000    0.497868   -0.208301    10.50000    0.05617    0.02605 =
         0.03517    0.00466    0.00000    0.00000
AFIX  43
H4    2    0.500000    0.627139   -0.199904    10.50000   -1.20000
AFIX   0
C5    1    0.188340    0.190350    0.024264    11.00000    0.01243    0.01375 =
         0.02413   -0.00356    0.00090    0.00116
F     4    0.500000   -0.045327   -0.253782    10.50000    0.28319    0.02849 =
         0.05377   -0.02303    0.00000    0.00000
HKLF    4

REM  ja1415 in Pnc2
REM R1 =  0.0242 for     968 Fo > 4sig(Fo)  and  0.0319 for all    1167 data
REM     69 parameters refined using      0 restraints

END

WGHT      0.0156      0.6411

REM Highest difference peak  0.632,  deepest hole -0.792,  1-sigma level  0.140
Q1    1   0.0000 -0.1190  0.0614  10.50000  0.05    0.63
Q2    1   0.0000 -0.0023  0.0962  10.50000  0.05    0.50
Q3    1   0.3938  0.0024 -0.2464  11.00000  0.05    0.50
Q4    1   0.0000  0.1128  0.0579  10.50000  0.05    0.49
Q5    1   0.1111  0.0008  0.0619  11.00000  0.05    0.47
Q6    1   0.5000  0.1853 -0.1992  10.50000  0.05    0.46
Q7    1   0.4003  0.1347 -0.3490  11.00000  0.05    0.41
Q8    1   0.5000  0.3228 -0.3003  10.50000  0.05    0.41
Q9    1   0.3426  0.0722  0.0338  11.00000  0.05    0.39
Q10   1   0.5000  0.6337 -0.4407  10.50000  0.05    0.39
Q11   1   0.3426  0.0798 -0.0367  11.00000  0.05    0.36
Q12   1   0.3743  0.4660 -0.1101  11.00000  0.05    0.35
Q13   1   0.2198  0.2759  0.0826  11.00000  0.05    0.34
Q14   1   0.3274  0.0091 -0.0840  11.00000  0.05    0.34
Q15   1   0.4366  0.4946 -0.3602  11.00000  0.05    0.34
Q16   1   0.3356  0.1839  0.0039  11.00000  0.05    0.33
Q17   1   0.1968  0.3800  0.1003  11.00000  0.05    0.33
Q18   1   0.4483  0.2235 -0.2706  11.00000  0.05    0.33
Q19   1   0.3835  0.6473 -0.3426  11.00000  0.05    0.33
Q20   1   0.3780  0.3768 -0.3965  11.00000  0.05    0.33
;
_shelx_res_checksum              89672
_shelx_hkl_file
;
   9   0   0 1084.19 621.165   2
   8   0   0 106579. 5370.40   2
   7   0   0 828.191 549.220   2
   6   0   0 367093. 9360.81   2
   5   0   0 331.639 250.721   2
   4   0   0 703102. 13173.9   2
   4   0   0 713617. 11832.3   5
   3   0   0 226.383 205.712   2
   3   0   0 1.28504 67.6346   5
   3   0   0 264.121 155.923   1
   2   0   0 980726. 14720.8   5
   2   0   0 962309. 14990.4   1
  -2   0   0 961403. 14777.1   5
  -2   0   0 999999. 15160.3   1
  -3   0   0 8.74954 97.0008   1
  -3   0   0 95.9736 109.376   5
  -4   0   0 700345. 12391.1   1
  -4   0   0 687700. 11734.3   5
  -5   0   0 150.080 143.909   5
  -5   0   0 311.230 205.374   1
  -6   0   0 344493. 7541.47   5
  -6   0   0 361096. 8348.35   1
  -7   0   0 696.391 354.816   5
  -7   0   0 579.474 380.102   1
  -8   0   0 106176. 4590.82   1
   9   0   1 25728.1 2774.40   2
   9   0  -1 28165.1 2940.82   2
   8   0  -1 686.927 580.171   2
   8   0   1 76.4807 351.449   2
   7   0  -1 60435.3 3647.26   2
   7   0   1 58070.9 3523.21   2
   6   0   1 366.888 460.781   2
   6   0  -1 743.385 465.970   2
   5   0   1 52054.9 1984.86   5
   5   0  -1 60693.4 2993.77   2
   5   0   1 58891.7 2896.03   2
   4   0   1 118.965 117.674   5
   4   0   1 408.764 322.888   2
   3   0   1 87996.3 2847.10   2
   3   0   1 91590.1 2561.31   1
   3   0   1 89609.3 2187.20   5
   3   0  -1 92618.7 2582.87   1
   3   0  -1 88258.1 2420.94   5
   2   0   1-31.5021 68.5674   1
   2   0   1 70.9533 119.736   2
   2   0  -1-17.1061 79.1345   5
   2   0  -1 54.3718 77.1465   1
   2   0   1-6.21953 59.5758   5
   1   0   1 95437.4 2039.31   2
   1   0  -1 98556.8 1856.93   3
   1   0   1 97237.5 2005.13   1
   1   0  -1 94718.2 2013.91   5
   1   0  -1 98429.2 2040.72   1
  -1   0  -1 95805.3 2045.63   2
  -1   0   1 97967.1 2021.61   5
  -1   0   1 99019.1 1891.64   3
  -1   0  -1 96043.6 2010.00   1
  -2   0  -1 27.5908 59.4566   5
  -2   0   1 4.30062 75.3641   1
  -2   0  -1 63.1042 102.899   1
  -2   0   1-0.18929 65.1294   5
  -3   0  -1 91605.4 2611.00   1
  -3   0  -1 86610.2 2158.90   5
  -3   0   1 87086.9 2437.02   5
  -3   0   1 89887.4 2646.95   1
  -4   0   1 267.632 202.965   5
  -4   0  -1-64.9821 139.302   1
  -4   0   1 116.821 124.982   1
  -4   0  -1 44.8411 127.112   5
  -5   0   1 57387.6 2540.57   1
  -5   0  -1 55141.8 2042.74   5
  -5   0   1 57177.3 2322.05   5
  -5   0  -1 56847.4 2519.73   1
  -6   0  -1 375.146 299.637   5
  -6   0  -1 151.741 244.030   1
  -6   0   1 139.746 391.700   1
  -6   0   1 344.002 307.136   5
  -7   0   1 57928.2 2519.51   3
  -7   0  -1 56086.3 2547.55   5
  -7   0   1 59022.5 2882.29   5
  -7   0  -1 57470.7 3051.80   1
  -8   0  -1 142.135 224.386   1
  10   0   2 91890.1 5776.06   2
   9   0  -2 100.005 381.564   2
   9   0   2 742.397 551.862   2
   8   0  -2 78474.4 4632.50   2
   8   0   2 75169.9 4449.34   2
   7   0  -2-56.7197 262.369   2
   7   0   2-70.1767 335.061   2
   6   0  -2 222583. 6940.61   2
   6   0   2 212129. 6678.59   2
   5   0  -2-108.034 263.017   2
   5   0   2 81.1277 243.929   2
   4   0   2 236470. 5966.02   2
   3   0   2 1.56018 76.8401   1
   3   0  -2 13.7822 94.6461   1
   3   0   2 14.1616 119.976   2
   3   0  -2-69.6772 107.111   5
   2   0   2 26544.0 1130.79   1
   2   0  -2 27719.8 1195.68   1
   2   0  -2 27326.6 1165.78   5
   2   0   2 26985.7 1216.17   2
   1   0  -2 66.4585 67.9083   3
   1   0  -2 244.836 139.913   5
   1   0   2 14.4211 69.9373   2
   1   0   2 41.4750 33.8676   4
  -1   0  -2 34.2125 45.7660   4
  -1   0   2 23.1930 112.169   5
  -1   0  -2-3.61305 72.6576   1
  -1   0  -2 60.6755 80.4094   2
  -2   0   2 26588.0 1176.68   5
  -2   0  -2 29137.9 1237.31   2
  -2   0  -2 28525.5 875.744   4
  -2   0   2 27826.6 1048.02   3
  -2   0  -2 25894.6 1143.55   1
  -2   0  -2 28037.9 897.468   5
  -3   0  -2-73.7359 94.3230   1
  -3   0   2 122.797 117.176   5
  -3   0   2-59.9781 84.4579   3
  -3   0  -2-4.04156 67.2941   5
  -4   0   2 219319. 5250.12   5
  -4   0  -2 236282. 4592.28   5
  -4   0   2 241509. 4942.92   3
  -4   0  -2 226885. 5434.93   1
  -5   0  -2 64.9268 180.197   1
  -5   0  -2-22.0425 92.5997   5
  -5   0   2 280.118 191.460   3
  -5   0   2-60.7763 112.128   5
  -6   0  -2 212486. 6034.72   1
  -6   0   2 213407. 5831.44   5
  -6   0   2 212666. 5229.97   3
  -6   0  -2 212167. 4946.92   5
  -7   0   2-13.0632 153.195   3
  -7   0  -2 555.407 389.153   1
  -7   0   2 72.1636 208.666   5
  -8   0  -2 80706.4 4017.04   1
  10   0   3 1112.60 733.273   2
   9   0  -3 35558.8 3393.41   2
   9   0   3 39149.1 3418.38   2
   8   0  -3-333.824 522.056   2
   8   0   3 396.309 340.055   2
   7   0  -3 76238.9 4227.59   2
   7   0   3 81247.8 4193.67   2
   6   0  -3 391.351 404.227   2
   6   0   3 467.415 441.056   2
   5   0   3 109105. 4105.57   2
   4   0   3 352.778 262.809   2
   3   0   3 166099. 4197.25   2
   3   0  -3 158722. 4071.21   1
   2   0  -3 58.9242 100.290   3
   2   0   3 92.3813 117.595   1
   2   0   3 29.9053 68.7046   4
   2   0  -3-53.0109 111.615   5
   2   0   3-11.5231 84.6442   2
   1   0   3 216287. 4089.54   2
   1   0   3 213691. 3928.00   4
   1   0  -3 218288. 4608.06   5
   0   0  -3 178.834 125.204   5
   0   0   3-46.4391 168.905   4
  -1   0  -3 217112. 4084.40   2
  -1   0   3 207253. 4500.32   5
  -1   0  -3 216418. 4027.44   4
  -2   0  -3 202.789 148.333   1
  -2   0  -3 92.6648 98.3869   2
  -2   0   3-6.99917 105.276   5
  -2   0  -3 25.2758 48.8282   4
  -3   0  -3 171117. 3333.62   5
  -3   0  -3 170375. 3302.67   4
  -3   0   3 163085. 4197.07   5
  -3   0   3 159205. 3732.97   3
  -3   0  -3 167277. 4152.96   1
  -4   0  -3 90.6386 84.7946   4
  -4   0   3 428.652 291.450   5
  -4   0   3 215.370 187.770   3
  -4   0  -3 2.81049 136.570   1
  -4   0  -3 15.8413 65.3844   5
  -5   0   3 107153. 3705.58   5
  -5   0  -3 106987. 2842.82   4
  -5   0  -3 105296. 3713.22   1
  -5   0   3 102052. 3200.32   3
  -5   0  -3 104436. 2777.36   5
  -6   0  -3 134.872 161.344   5
  -6   0   3-55.1494 189.437   3
  -6   0  -3 241.102 354.554   1
  -6   0   3 673.769 403.144   5
  -7   0   3 78162.8 3129.34   3
  -7   0  -3 81016.3 3767.38   1
  -7   0   3 81069.7 3775.19   5
  -8   0  -3 292.870 350.148   1
  10   0   4 80335.3 5388.66   2
   9   0   4 1396.61 744.407   2
   9   0  -4-122.283 313.171   2
   8   0   4 68659.4 4213.24   2
   8   0  -4 79650.5 4769.34   2
   7   0   4-31.9277 250.353   2
   7   0  -4-252.713 368.737   2
   6   0   4 193528. 6290.64   2
   5   0   4 58.6986 200.081   2
   4   0   4 321829. 7340.06   2
   3   0  -4 46.1932 101.880   1
   3   0   4 168.636 187.381   2
   3   0  -4 46.5677 130.934   3
   2   0   4 313725. 6264.63   2
   2   0   4 327195. 5535.83   4
   2   0  -4 320114. 6162.31   3
   1   0   4-4.06183 77.2387   4
   1   0  -4 159.057 210.688   5
   0   0   4 902515. 15661.3   4
   0   0  -4 980706. 15366.7   5
  -1   0  -4-9.35168 68.5924   4
  -1   0   4 31.9046 164.080   5
  -1   0  -4 254.852 144.304   2
  -2   0   4 319024. 6676.43   5
  -2   0  -4 311676. 6155.16   2
  -2   0  -4 316648. 6420.46   1
  -2   0  -4 326339. 5676.92   4
  -3   0   4 28.2835 156.005   5
  -3   0  -4-0.83891 94.1194   5
  -3   0  -4-26.9402 76.5739   4
  -3   0  -4 94.2791 202.689   1
  -4   0  -4 317973. 7147.23   1
  -4   0   4 314094. 6563.23   3
  -4   0   4 315713. 7246.58   5
  -4   0  -4 329455. 5821.39   5
  -4   0  -4 310006. 5766.82   4
  -5   0  -4-59.7359 106.287   5
  -5   0  -4 27.8324 83.4779   4
  -5   0   4 53.2231 203.354   3
  -5   0  -4 39.7533 203.113   1
  -5   0   4 136.723 178.123   5
  -6   0  -4 212017. 6230.67   1
  -6   0  -4 211713. 4630.04   5
  -6   0   4 210874. 6321.16   5
  -6   0   4 211950. 5468.29   3
  -7   0   4 312.459 206.823   3
  -7   0   4-158.084 244.201   5
  -7   0  -4 654.219 363.442   1
  -8   0   4 72525.4 4050.18   5
  -8   0  -4 81045.7 4115.42   1
  10   0   5 208.126 339.966   2
   9   0   5 27775.3 2872.00   2
   9   0  -5 27583.3 3072.88   2
   8   0   5 551.138 464.979   2
   8   0  -5-320.179 400.909   2
   7   0  -5 58048.1 3821.40   2
   7   0   5 49567.2 3258.56   2
   6   0   5 492.599 395.828   2
   5   0   5 81403.2 3497.85   2
   4   0   5 129.197 182.374   2
   3   0   5 116170. 2661.40   4
   3   0   5 121071. 3576.98   2
   2   0  -5 100.569 159.230   3
   2   0   5 127.251 137.496   4
   2   0   5-34.1849 144.081   2
   1   0   5 206008. 4667.49   4
   1   0  -5 204688. 5206.39   5
   0   0   5 254.615 264.618   4
   0   0  -5-12.6534 137.684   5
  -1   0  -5 208169. 5009.36   4
  -1   0   5 203747. 5139.47   5
  -1   0  -5 199667. 4423.32   2
  -2   0  -5 179.131 132.354   2
  -2   0  -5 36.9511 115.643   4
  -2   0  -5 18.9739 152.430   1
  -3   0   5 119714. 3896.03   5
  -3   0  -5 116308. 3688.70   1
  -3   0  -5 121664. 2901.61   4
  -4   0   5 186.800 282.432   5
  -4   0  -5 138.834 109.137   5
  -4   0  -5 281.314 249.126   1
  -4   0  -5 168.275 133.728   4
  -5   0  -5 78899.7 2321.50   4
  -5   0  -5 85557.3 3474.59   1
  -5   0  -5 85331.6 2372.11   5
  -5   0   5 80076.9 3543.81   5
  -6   0  -5 885.266 444.078   1
  -6   0  -5 256.645 257.781   5
  -6   0   5 202.150 380.051   5
  -7   0  -5 55521.1 3206.93   1
  -7   0   5 57182.8 3430.10   5
  -8   0   5 618.885 587.294   5
  -8   0  -5 588.898 384.595   1
  10   0   6 64585.9 4798.93   2
   9   0  -6 226.292 393.209   2
   9   0   6 502.299 388.780   2
   8   0  -6 96316.6 5519.54   2
   8   0   6 91871.3 4922.42   2
   7   0  -6-48.6793 325.871   2
   7   0   6-116.807 236.701   2
   6   0   6 202432. 6515.21   2
   5   0   6 106.086 246.377   2
   4   0   6 283177. 6908.31   2
   3   0   6 101.533 114.605   4
   3   0   6 56.1408 160.580   2
   2   0   6 284955. 6099.65   2
   2   0   6 290777. 5709.39   4
   1   0   6-168.120 115.790   4
   0   0   6 498422. 10547.1   4
  -1   0  -6 50.1460 136.837   2
  -1   0  -6 139.494 200.126   4
  -2   0  -6 265953. 5937.89   4
  -2   0  -6 267288. 6366.46   1
  -2   0  -6 281989. 5915.76   2
  -3   0  -6 104.860 146.345   4
  -3   0  -6 207.412 208.100   1
  -3   0   6 124.597 294.695   5
  -4   0  -6 286762. 5702.39   5
  -4   0   6 284304. 7417.77   5
  -4   0  -6 287517. 5687.22   4
  -4   0  -6 281397. 7032.33   1
  -5   0   6-196.267 175.622   5
  -5   0  -6-49.8596 91.4262   5
  -5   0  -6-38.7593 105.521   4
  -6   0   6 208208. 6817.10   5
  -6   0  -6 209393. 6486.39   1
  -7   0   6 1241.75 597.030   5
  -7   0  -6-210.647 212.402   1
  -8   0   6 83389.3 4687.64   5
  -8   0  -6 89859.2 4528.37   1
  -9   0   6 1216.31 712.095   4
   9   0  -7 18562.5 2638.61   2
   9   0   7 24230.1 2681.06   2
   8   0  -7 727.590 537.257   2
   8   0   7 245.835 390.378   2
   7   0   7 38777.4 2892.39   2
   6   0   7 699.619 415.065   2
   5   0   7 51954.9 2835.12   2
   4   0   7 651.713 380.815   2
   3   0   7 36614.1 1523.93   4
   3   0   7 38895.3 1999.03   2
   2   0   7-46.9057 122.711   4
   1   0   7 49625.3 2376.63   4
   0   0   7 763.206 386.564   4
  -1   0   7 52143.0 2961.15   4
  -1   0  -7 52510.1 2208.13   2
  -2   0  -7-230.192 167.745   4
  -2   0  -7 235.888 241.667   1
  -2   0  -7 16.5311 110.161   2
  -3   0  -7 41554.5 1870.79   4
  -3   0  -7 42327.8 2310.42   1
  -3   0   7 42282.4 2467.19   5
  -4   0  -7 359.093 205.604   4
  -4   0   7 308.736 336.473   5
  -4   0  -7 551.754 345.311   1
  -5   0   7 53019.2 3131.16   5
  -5   0  -7 51791.9 1902.44   5
  -5   0  -7 53666.2 2920.17   1
  -6   0   7 915.263 470.964   5
  -6   0  -7 771.003 415.425   1
  -7   0  -7 33208.1 2607.25   1
  -7   0   7 35103.8 2884.69   5
  -8   0  -7-1.18618 243.965   1
  -9   0   7 20129.9 2989.73   4
   8   0  -8 87398.9 5578.00   2
   8   0   8 79681.7 4625.11   2
   7   0   8 183.214 290.018   2
   6   0   8 147885. 5539.60   2
   5   0   8 599.961 357.184   2
   4   0   8 217383. 4683.60   4
   4   0   8 217119. 6010.77   2
   3   0   8 34.9849 95.4774   4
   3   0   8-137.693 187.476   2
   2   0   8 287211. 6522.82   4
   1   0   8-60.0452 145.053   4
   0   0   8 374550. 9200.96   4
  -1   0  -8 12.0386 91.1796   2
  -1   0   8 356.436 333.445   4
  -2   0  -8 272620. 7055.64   1
  -2   0   8 270223. 8200.49   4
  -2   0  -8 278431. 6390.80   2
  -3   0  -8-27.1951 105.531   4
  -3   0   8 280.536 266.204   5
  -3   0  -8 109.789 203.593   1
  -4   0  -8 213836. 6323.12   1
  -4   0   8 205961. 6610.71   5
  -4   0  -8 197834. 5017.02   4
  -5   0   8 257.984 328.262   5
  -5   0  -8 87.5879 192.181   1
  -5   0  -8 93.4082 122.393   5
  -6   0   8 154856. 6185.93   5
  -6   0  -8 146983. 5644.44   1
  -7   0  -8-751.013 442.691   1
  -7   0   8-78.7577 474.329   5
  -8   0   8 75839.7 5584.74   4
  -8   0  -8 87363.3 4670.86   1
  -9   0   8 173.160 374.144   4
   8   0   9 74.7663 243.731   2
   8   0  -9 355.825 554.418   2
   7   0   9 33677.8 2757.58   2
   6   0   9 1088.92 534.462   2
   5   0   9 59212.9 3112.85   2
   4   0   9 79.4950 136.242   4
   4   0   9 111.655 193.471   2
   3   0   9 56027.7 2312.57   4
   2   0   9 152.673 203.436   4
   1   0   9 79246.0 3493.60   4
   0   0   9 277.957 298.482   4
  -1   0  -9 72787.6 2958.95   2
  -1   0   9 89129.4 4222.61   4
  -2   0   9-520.643 395.253   4
  -3   0   9 49253.5 3467.66   4
  -3   0  -9 52930.6 2895.26   1
  -4   0  -9-217.002 280.436   1
  -4   0   9-65.2200 275.567   5
  -5   0  -9 60898.0 2340.44   5
  -5   0   9 57309.8 3586.85   5
  -5   0  -9 62040.6 3472.59   1
  -6   0  -9 3.18460 313.117   1
  -6   0   9-169.083 450.212   5
  -7   0  -9 36692.4 2903.06   1
  -7   0   9 27445.8 3215.68   4
  -8   0  -9-3.98989 217.033   1
  -8   0   9 893.453 668.318   4
  -9   0   9 17187.1 2847.09   4
   8   0 -10 68737.2 5246.57   2
   7   0  10 608.299 356.987   2
   6   0  10 98666.1 4499.83   2
   5   0  10-135.618 280.592   2
   4   0  10 141380. 3879.66   4
   3   0  10 28.6865 175.093   4
   2   0  10 177489. 5394.12   4
   1   0  10 94.2201 187.733   4
   0   0  10 171054. 5963.15   4
  -1   0  10 214.705 294.713   4
  -2   0  10 191058. 7068.39   4
  -3   0  10-81.2721 262.577   4
  -3   0 -10-17.9952 235.515   1
  -4   0  10 126985. 6279.56   4
  -4   0 -10 144751. 5512.40   1
  -5   0  10 569.369 453.799   4
  -5   0 -10 81.2153 235.450   1
  -6   0  10 86399.0 5716.15   4
  -6   0 -10 109041. 5076.35   1
  -7   0  10 823.904 726.515   4
  -7   0 -10-14.0412 237.037   1
  -8   0 -10 69454.3 4401.52   1
  -8   0  10 61542.9 5285.36   4
  -9   0  10 1584.21 884.146   4
   8   0 -11-370.021 510.323   2
   6   0  11 695.286 454.793   2
   5   0  11 68367.8 3501.84   2
   4   0  11 106.969 195.110   4
   3   0  11 71923.3 3088.36   4
   2   0  11-145.612 290.934   4
   1   0  11 108425. 4504.43   4
   0   0  11 392.453 339.015   4
  -1   0  11 98874.9 4775.85   4
  -2   0  11 26.5109 219.430   4
  -3   0  11 63666.0 4222.25   4
  -3   0 -11 64613.9 3609.62   1
  -4   0 -11 328.983 387.851   1
  -4   0  11 242.318 317.733   4
  -5   0  11 60954.2 4595.83   4
  -5   0 -11 71261.0 4103.07   1
  -6   0 -11-164.518 398.217   1
  -6   0  11 288.423 554.630   4
  -7   0  11 36602.3 3921.30   4
  -7   0 -11 29526.8 2809.08   1
  -8   0  11 98.5656 568.842   4
  -8   0 -11 193.009 341.328   1
   4   0  12 98425.9 3572.07   4
   3   0  12 326.999 297.050   4
   2   0  12 152906. 5428.10   4
   1   0  12 86.0370 260.126   4
   0   0  12 118989. 5126.84   4
  -1   0  12-56.7367 315.206   4
  -2   0  12 162288. 6758.57   4
  -3   0 -12-124.874 367.160   1
  -3   0  12-411.337 424.455   4
  -4   0 -12 95722.9 4822.01   1
  -4   0  12 88501.8 5441.54   4
  -5   0  12 608.677 577.564   4
  -5   0 -12 339.400 403.412   1
  -6   0 -12 74305.7 4524.46   1
  -6   0  12 66559.5 5209.70   4
  -7   0  12-681.538 630.857   4
  -7   0 -12 549.850 497.125   1
  -8   0  12 50946.3 4948.80   4
  -8   0 -12 54264.8 4172.73   1
   3   0  13 21965.8 1889.88   4
   2   0  13-40.8597 176.341   4
   1   0  13 29665.5 2416.97   4
   0   0  13 296.126 353.814   4
  -1   0  13 29838.8 2690.70   4
  -2   0  13 104.827 485.860   4
  -3   0  13 22304.6 2598.91   4
  -3   0 -13 20097.7 2176.83   1
  -4   0  13 813.564 583.684   4
  -4   0 -13-212.884 296.886   1
  -5   0  13 26357.9 3146.90   4
  -5   0 -13 29051.5 2855.71   1
  -6   0 -13 142.131 403.267   1
  -6   0  13 38.6156 456.373   4
  -7   0  13 21091.5 3125.19   4
  -7   0 -13 15227.9 2211.88   1
  -8   0 -13 586.125 387.187   1
   3   0  14 328.434 166.227   4
   2   0  14 141614. 5613.70   4
   1   0  14-86.9262 388.107   4
   0   0  14 84415.3 4495.33   4
  -1   0  14 448.141 373.853   4
  -2   0  14 141114. 6568.87   4
  -2   0 -14 145789. 6186.61   1
  -3   0 -14 100.206 360.336   1
  -3   0  14 19.5216 415.897   4
  -4   0 -14 91186.3 5144.18   1
  -4   0  14 89271.5 5697.11   4
  -5   0 -14 631.742 496.913   1
  -5   0  14-54.5421 360.435   4
  -6   0 -14 59332.2 4425.58   1
  -6   0  14 57394.0 4985.00   4
  -7   0 -14 219.083 538.042   1
   3   0  15 30074.7 2457.73   4
   2   0  15 170.887 363.158   4
   1   0  15 33111.3 2708.53   4
   0   0  15 914.265 558.690   4
  -1   0  15 34811.6 3028.93   4
  -2   0  15 497.923 459.683   4
  -2   0 -15 571.044 569.406   1
  -3   0 -15 29717.5 2864.06   1
  -3   0  15 29257.7 3090.77   4
  -4   0 -15-919.140 573.007   1
  -4   0  15 73.7222 378.632   4
  -5   0  15 25125.4 3162.82   4
  -5   0 -15 24847.2 2830.29   1
  -6   0  15-2.29368 723.730   4
  -6   0 -15 513.422 499.839   1
   2   0  16 100867. 4903.56   4
   1   0  16-19.3979 234.331   4
   0   0  16 61410.6 3985.87   4
  -1   0  16-760.858 506.814   4
  -2   0 -16 96365.8 5337.60   1
  -2   0  16 89366.8 5310.55   4
  -3   0 -16-241.787 448.448   1
  -3   0  16 466.803 469.914   4
  -4   0 -16 51393.7 4112.21   1
  -4   0  16 51694.6 4437.39   4
  -5   0 -16-155.016 758.163   1
  -5   0  16 303.681 614.200   4
  -6   0 -16 32252.1 3503.30   1
   2   0  17 94.5217 260.514   4
   1   0  17 27952.3 2663.01   4
   0   0  17 1058.81 550.190   4
  -1   0  17 25294.6 2744.33   4
  -2   0  17 505.578 609.163   4
  -2   0 -17 311.610 394.938   1
  -3   0 -17 23389.2 2753.34   1
  -3   0  17 30514.0 3276.12   4
  -4   0 -17-427.885 476.917   1
  -4   0  17-575.927 548.232   4
  -5   0 -17 23050.4 2959.55   1
   1   0  18-128.623 274.986   4
   0   0  18 21148.4 2434.80   4
  -1   0  18-57.3307 360.565   4
  -2   0  18 41850.1 3769.90   4
  -2   0 -18 49695.8 4037.52   1
  -3   0  18 196.232 416.445   4
  -3   0 -18-516.387 511.372   1
  -4   0 -18 27691.4 3192.64   1
   1   0  19 14513.9 1969.67   4
   0   0  19 688.227 497.751   4
  -1   0 -19 19041.9 2533.43   1
  -1   0  19 14400.5 2136.74   4
  -2   0  19 1941.81 936.706   4
  -2   0 -19 1205.69 795.877   1
   0   0  20 31977.0 3144.60   4
  -1   0  20-1370.58 711.552   4
   0   0  21 293.376 628.759   4
   9   1   0 1072.43 805.750   2
   9  -1   0 304.234 419.305   2
   8   1   0 37847.4 3223.02   2
   8  -1   0 35150.8 2963.00   2
   7  -1   0 654.207 508.425   2
   7   1   0 411.770 453.259   2
   6  -1   0 57706.2 3154.93   2
   6   1   0 57527.8 3338.33   2
   5   1   0-19.9842 99.2780   1
   5  -1   0 18.9779 87.3210   5
   4   1   0 60838.8 2824.42   2
   4  -1   0 66997.7 1901.02   5
   4   1   0 64625.3 2000.63   1
   3   1   0 10.9531 99.6817   5
   3   1   0-10.9052 51.3957   1
   3  -1   0-58.5590 81.7094   5
   3   1   0-2.32582 124.355   2
   2  -1   0 113469. 2351.17   5
   2  -1   0 110534. 2984.52   1
   2   1   0 111214. 2767.01   5
   2   1   0 114332. 2079.54   1
   2   1   0 116509. 3129.00   2
   1   1   0 159.153 102.771   5
   1   1   0-92.4754 99.1618   2
   1  -1   0 172.732 95.7923   4
   1  -1   0-65.5660 103.658   1
   0   1   0 131481. 2440.82   4
   0  -1   0 129779. 2544.32   5
   0  -1   0 128804. 2449.84   4
  -1   1   0-35.5457 75.2012   1
  -1  -1   0-41.4995 83.4215   2
  -1   1   0 37.8244 43.8661   4
  -2  -1   0 113967. 2123.83   1
  -2   1   0 109626. 3028.29   1
  -2  -1   0 113895. 2762.36   5
  -2   1   0 118051. 2911.63   4
  -2  -1   0 114757. 3063.72   2
  -3  -1   0 71.9366 75.0983   1
  -3  -1   0-49.0753 99.4425   5
  -3   1   0-6.28989 114.785   1
  -4   1   0 63395.2 2288.16   5
  -4   1   0 61025.4 2639.21   1
  -4  -1   0 63963.3 2071.53   1
  -4  -1   0 64179.7 2330.76   5
  -5  -1   0 119.972 271.817   5
  -5   1   0-97.5393 207.650   1
  -5  -1   0 147.726 207.313   1
  -5   1   0 52.9027 124.776   5
  -6  -1   0 58304.4 2596.14   5
  -6  -1   0 55492.0 2459.87   1
  -6   1   0 55843.8 2579.82   5
  -6   1   0 55771.9 2986.19   1
  -7  -1   0 169.251 186.733   5
  -7   1   0 160.055 262.922   1
  -7  -1   0 566.615 338.287   1
  -8   1   0 35409.1 2794.88   1
  10  -1   1 704.417 638.480   2
   9   1  -1 105393. 5919.20   2
   9  -1  -1 94016.6 5456.16   2
   9   1   1 99391.4 5726.29   2
   9  -1   1 99898.4 5530.43   2
   8  -1  -1 799.654 547.681   2
   8   1  -1 172.383 324.276   2
   8  -1   1 1267.49 637.493   2
   8   1   1 1619.82 729.377   2
   7   1   1 160786. 6308.33   2
   7   1  -1 151495. 6161.50   2
   7  -1  -1 154801. 6042.50   2
   7  -1   1 150892. 5886.77   2
   6   1   1 2580.61 711.893   2
   6   1  -1 1298.95 530.588   2
   6  -1   1 1616.56 553.469   2
   5   1  -1 331811. 8435.77   2
   5  -1   1 326612. 7894.19   2
   5  -1   1 327937. 5970.89   5
   5   1   1 331147. 8406.77   2
   5   1  -1 329188. 6522.71   1
   4   1  -1 7724.09 947.669   2
   4   1   1 8843.96 681.470   1
   4   1  -1 8147.52 633.307   1
   4  -1   1 7864.97 500.933   5
   4   1   1 8802.39 1034.47   2
   4  -1  -1 8600.75 687.049   5
   3  -1   1 367249. 5779.13   5
   3   1   1 361890. 7676.24   2
   3   1   1 370912. 6962.53   5
   3  -1  -1 347590. 6492.84   5
   3   1  -1 363425. 6151.03   1
   3   1   1 372722. 6329.03   1
   3   1  -1 361914. 7623.53   2
   2   1   1 61369.1 1902.48   5
   2   1  -1 61173.1 1941.82   5
   2   1  -1 62852.7 1300.34   1
   2  -1  -1 60479.5 2102.43   1
   2   1  -1 60695.9 2121.26   2
   2   1   1 56604.8 2108.36   2
   2  -1   1 60204.9 2029.97   1
   2  -1  -1 64748.7 1938.82   5
   1  -1  -1 614996. 10291.3   4
   1   1  -1 628531. 10066.8   5
   1   1   1 620134. 10416.8   2
   1  -1  -1 630480. 10346.3   1
   1   1  -1 625665. 10119.2   2
   1  -1   1 633096. 10162.5   1
   0   1  -1 44889.3 1179.70   5
   0  -1  -1 45122.2 1219.77   3
   0  -1  -1 45193.3 1260.84   4
   0  -1   1 44103.7 1159.20   5
   0   1  -1 44210.1 1159.33   1
   0  -1   1 42397.7 1131.84   1
   0   1  -1 45167.5 1141.04   2
   0   1   1 45175.5 1224.47   3
   0   1   1 44657.7 1246.37   4
   0  -1   1 43396.8 1098.53   2
  -1  -1   1 616421. 9955.69   5
  -1  -1  -1 633720. 10025.2   5
  -1   1   1 627397. 10019.0   4
  -1   1   1 651824. 10320.4   1
  -1  -1   1 635694. 9999.55   2
  -1   1  -1 641113. 10137.7   1
  -1  -1  -1 609622. 10293.8   2
  -1  -1  -1 671969. 9933.73   4
  -2   1   1 60319.5 2321.68   4
  -2  -1  -1 60887.8 2137.62   2
  -2  -1   1 58896.0 1899.74   5
  -2  -1  -1 59432.0 1824.00   5
  -2  -1  -1 60542.6 1501.40   1
  -2   1  -1 63487.2 1459.27   4
  -2  -1   1 58559.5 2049.90   2
  -2   1   1 63090.0 2164.43   1
  -2   1  -1 61787.6 2072.59   1
  -3  -1  -1 366713. 6862.35   5
  -3  -1  -1 370670. 6428.74   1
  -3   1   1 370662. 7611.47   1
  -3  -1   1 363142. 5860.20   3
  -3  -1   1 362642. 7040.54   5
  -3   1  -1 360564. 7415.05   1
  -4   1  -1 9204.38 968.024   1
  -4  -1   1 9857.12 875.310   5
  -4  -1  -1 8782.01 726.551   1
  -4  -1   1 9381.82 733.929   1
  -4  -1  -1 8288.05 764.722   5
  -4   1   1 8177.67 844.616   5
  -4   1   1 7738.22 920.646   1
  -4   1  -1 8991.56 691.657   5
  -4  -1   1 9145.61 556.244   3
  -5   1  -1 325138. 7894.31   1
  -5  -1  -1 330687. 7040.72   5
  -5  -1   1 331464. 6872.70   1
  -5   1  -1 324067. 6638.40   5
  -5  -1  -1 335802. 6920.82   1
  -5   1   1 317485. 7455.53   5
  -5  -1   1 322464. 7218.19   5
  -5   1   1 333174. 8013.19   1
  -5  -1   1 338339. 6102.42   3
  -6   1   1 1008.07 423.650   1
  -6  -1   1 2071.78 504.337   5
  -6  -1  -1 1344.52 406.575   1
  -6  -1  -1 1054.39 346.662   5
  -6   1  -1 781.198 275.265   5
  -6   1  -1 858.828 401.413   1
  -6   1   1 1593.88 429.353   5
  -6  -1   1 1004.66 264.144   3
  -7   1   1 157114. 4911.19   3
  -7  -1   1 149502. 4919.78   5
  -7  -1  -1 148802. 4812.32   1
  -7   1   1 156311. 5722.63   1
  -7  -1  -1 151532. 4735.40   5
  -7   1  -1 154400. 5699.88   1
  -8   1  -1 843.589 465.542   1
  -8  -1   1 1056.72 420.918   5
  -8   1   1 789.695 387.355   3
  10  -1   2 24846.9 2906.71   2
   9   1   2-87.4826 305.852   2
   9  -1  -2 624.629 635.082   2
   9   1  -2 1265.03 811.246   2
   9  -1   2 1329.73 758.973   2
   8   1  -2 45539.4 3566.09   2
   8  -1   2 45630.0 3326.83   2
   8   1   2 42178.5 3372.15   2
   8  -1  -2 45941.4 3471.51   2
   7   1  -2 735.670 531.223   2
   7  -1   2 1465.22 620.197   2
   7  -1  -2 1202.35 595.713   2
   7   1   2 1985.24 722.537   2
   6   1  -2 89056.0 4218.07   2
   6  -1   2 81175.9 3735.65   2
   6   1   2 85512.8 4114.88   2
   5  -1   2 621.639 358.964   2
   5   1  -2-26.4086 170.570   1
   5   1   2 468.055 356.654   2
   4   1   2 104593. 2907.92   1
   4   1  -2 105072. 3819.66   2
   4   1  -2 108691. 2780.13   1
   4   1   2 109238. 3887.25   2
   4  -1   2 98738.6 3373.63   2
   3   1   2 4335.49 640.784   2
   3   1  -2 4785.15 429.643   1
   3   1  -2 3879.00 604.041   2
   3  -1  -2 3787.75 489.157   5
   2  -1  -2 139340. 3648.64   1
   2  -1  -2 132312. 3598.71   5
   2   1  -2 141019. 3431.54   5
   2   1  -2 140976. 3555.99   2
   2   1   2 144167. 3732.99   2
   2   1  -2 141519. 2505.23   3
   2  -1   2 139789. 3466.28   1
   1   1  -2 3260.27 368.030   5
   1   1  -2 2884.61 331.100   2
   1  -1  -2 2971.36 356.027   3
   1  -1   2 3030.20 362.684   1
   1   1   2 2924.56 321.597   4
   1  -1   2 3217.86 208.667   5
   1  -1  -2 3019.17 466.212   4
   1   1   2 3162.16 424.089   2
   0   1  -2 130253. 2697.36   1
   0   1  -2 135840. 2701.07   5
   0  -1   2 134427. 2676.60   5
   0  -1  -2 132631. 2886.30   3
   0  -1   2 135028. 2697.84   1
   0   1   2 132427. 2892.70   4
   0  -1  -2 135177. 2966.16   4
  -1  -1  -2 2973.57 408.060   2
  -1  -1  -2 2870.14 322.549   4
  -1  -1   2 2753.93 349.368   5
  -1   1  -2 3243.93 385.771   1
  -1   1   2 3149.67 373.611   3
  -1   1   2 2805.87 407.887   4
  -1   1  -2 2816.72 196.486   5
  -2   1  -2 139106. 3504.35   1
  -2   1   2 137161. 3271.81   3
  -2  -1  -2 144228. 3184.16   4
  -2  -1   2 136438. 3362.64   5
  -2  -1  -2 136961. 3610.17   2
  -2  -1  -2 135121. 3214.82   5
  -2   1   2 130263. 4106.58   4
  -2  -1  -2 140573. 2941.13   1
  -3   1   2 3891.31 703.353   4
  -3  -1   2 3611.76 504.537   5
  -3  -1  -2 4004.62 478.946   5
  -3  -1  -2 4404.28 504.888   4
  -3  -1  -2 4033.38 444.401   1
  -3   1  -2 5273.68 670.056   1
  -3   1   2 4276.34 524.789   3
  -4   1   2 101636. 3662.32   1
  -4  -1   2 110177. 3403.89   5
  -4  -1  -2 106015. 2996.92   1
  -4  -1   2 110731. 2503.60   3
  -4   1  -2 105612. 2391.66   5
  -4   1  -2 106613. 3617.24   1
  -4   1   2 104695. 3586.86   5
  -4   1   2 107433. 3250.39   3
  -4  -1  -2 102204. 3031.59   5
  -5   1  -2 940.434 418.867   1
  -5   1   2 627.355 344.419   5
  -5  -1  -2 1116.12 339.209   5
  -5   1   2 727.763 306.867   3
  -5  -1   2 1348.85 411.513   5
  -5   1  -2 426.924 187.505   5
  -5  -1   2 609.049 196.963   3
  -5   1   2 419.338 256.724   1
  -5  -1  -2 761.151 298.497   1
  -6   1  -2 86878.2 3843.68   1
  -6  -1   2 80118.3 3331.84   5
  -6  -1   2 85507.0 2604.79   3
  -6  -1  -2 83371.4 3067.92   5
  -6   1   2 86117.0 3270.64   3
  -6  -1  -2 83833.7 3182.71   1
  -7   1   2 655.300 361.269   3
  -7  -1   2 1594.39 617.840   5
  -7  -1  -2 1587.14 518.110   1
  -7   1  -2 901.177 505.848   1
  -7  -1  -2 1197.09 451.895   5
  -7   1   2 1539.46 722.108   4
  -8  -1   2 44976.3 2847.11   5
  -8   1  -2 47610.6 3284.09   1
  -8   1   2 46838.3 2682.20   3
  10  -1   3 1022.40 604.929   2
   9   1   3 83751.7 5247.24   2
   9   1  -3 91277.9 5612.31   2
   9  -1   3 87468.0 5095.01   2
   9  -1  -3 79169.4 5087.39   2
   8  -1   3 1713.05 756.929   2
   8   1   3 3606.92 1045.58   2
   8   1  -3 1448.36 699.913   2
   8  -1  -3 1565.33 710.704   2
   7   1  -3 133128. 5820.92   2
   7  -1   3 129632. 5286.11   2
   7   1   3 132318. 5688.15   2
   6   1  -3 447.023 379.536   2
   6  -1   3 290.336 329.257   2
   6   1   3 637.832 435.485   2
   5  -1   3 266232. 6769.56   2
   5   1  -3 260725. 5788.20   1
   5   1  -3 274146. 7494.91   2
   5   1   3 268252. 7365.33   2
   4   1  -3 861.492 365.425   2
   4   1  -3 882.032 266.588   1
   4   1   3 617.128 318.532   2
   4  -1   3 759.360 322.108   2
   3   1  -3 296444. 5639.69   1
   3  -1   3 298060. 6010.80   2
   3   1   3 294030. 6782.40   2
   3   1  -3 296910. 6705.32   2
   2  -1  -3 7771.97 803.715   1
   2   1  -3 8782.01 745.441   5
   2  -1   3 9772.05 794.609   1
   2   1  -3 8025.01 500.980   3
   2  -1  -3 9134.19 897.574   5
   2   1   3 8568.77 823.908   2
   2  -1  -3 9647.48 753.120   3
   2  -1   3 9766.86 602.556   2
   2   1   3 8527.79 617.900   4
   1   1   3 482542. 8941.07   2
   1  -1  -3 496309. 8675.32   3
   1  -1   3 497614. 8558.85   1
   1   1   3 507057. 8419.02   4
   1  -1   3 497654. 7831.46   5
   1  -1  -3 515567. 9855.89   4
   1   1  -3 493597. 8571.15   5
   0   1   3 34756.3 1438.05   4
   0  -1  -3 38426.1 1521.36   4
   0  -1   3 35214.2 1230.29   5
   0   1  -3 36483.8 1296.48   1
   0   1  -3 36603.1 1256.97   5
  -1   1  -3 494684. 7807.18   5
  -1  -1  -3 503022. 9084.17   2
  -1   1  -3 492563. 8685.52   1
  -1   1   3 486078. 9482.54   4
  -1  -1   3 503764. 8616.26   5
  -1  -1  -3 508538. 8500.29   4
  -1   1   3 491215. 8701.65   3
  -2  -1   3 9499.14 780.250   5
  -2   1  -3 9404.87 809.950   1
  -2   1   3 8051.40 1021.95   4
  -2  -1  -3 8787.81 809.816   2
  -2  -1  -3 8965.83 658.959   4
  -2   1   3 8631.26 724.468   3
  -3   1  -3 291855. 6498.71   1
  -3   1   3 293207. 6127.08   3
  -3  -1  -3 293487. 5913.09   5
  -3  -1   3 295968. 6325.60   5
  -3   1   3 269343. 7517.84   4
  -3  -1  -3 306054. 5860.84   4
  -3  -1  -3 290047. 5837.58   1
  -4   1   3 381.670 198.113   3
  -4  -1   3 527.101 318.993   5
  -4  -1  -3 595.618 223.124   5
  -4   1  -3 278.958 288.850   1
  -4  -1  -3 506.792 204.656   1
  -4   1  -3 400.235 90.9656   4
  -5   1   3 262964. 6256.62   3
  -5  -1   3 266192. 5288.56   3
  -5   1  -3 262519. 4726.08   5
  -5  -1   3 266843. 6615.25   5
  -5   1  -3 267251. 4699.94   4
  -5  -1  -3 259927. 5864.82   5
  -5  -1  -3 262052. 6162.11   1
  -5   1  -3 263734. 6961.82   1
  -6  -1  -3 229.382 151.152   5
  -6  -1   3 456.930 224.682   5
  -6   1   3 63.1864 173.370   3
  -6   1  -3 842.891 417.341   1
  -6  -1  -3 780.997 326.816   1
  -6  -1   3 360.511 187.794   3
  -7   1  -3 131093. 5284.56   1
  -7  -1  -3 138002. 4227.47   5
  -7   1   3 130090. 6252.91   4
  -7  -1  -3 129653. 4581.86   1
  -7  -1   3 126136. 4775.41   5
  -7   1   3 136479. 4629.93   3
  -8   1  -3 1085.13 586.046   1
  -8  -1   3 2293.29 748.622   5
  -9   1  -3 90960.0 4969.37   1
  10  -1   4 28291.3 3049.06   2
   9  -1   4 1701.64 771.328   2
   9   1  -4 310.514 578.125   2
   9   1   4 773.608 577.865   2
   9  -1  -4 2076.62 841.002   2
   8  -1   4 45749.0 3267.96   2
   8   1   4 42149.3 3392.75   2
   8   1  -4 38160.5 3343.69   2
   8  -1  -4 44178.7 3493.71   2
   7   1  -4 1082.77 604.954   2
   7  -1   4 865.422 574.015   2
   7   1   4-59.2006 249.875   2
   6  -1   4 68174.0 3368.98   2
   6   1  -4 80011.5 4082.91   2
   6   1   4 77852.8 3929.61   2
   5  -1   4 615.302 352.545   2
   5   1  -4 1321.23 607.613   2
   5   1   4 814.462 415.863   2
   4  -1   4 100673. 3327.93   2
   4   1  -4 103814. 3900.17   2
   4   1  -4 103433. 3021.38   1
   4   1   4 100656. 3823.14   2
   3  -1   4 1507.31 304.192   2
   3   1   4 1319.32 421.406   2
   3   1  -4 1377.69 253.055   3
   2   1   4 184959. 4725.38   2
   2   1   4 181229. 4021.81   4
   2  -1   4 192192. 3728.74   2
   2  -1   4 186808. 3107.14   4
   1   1   4 816.684 233.188   4
   1  -1  -4 1051.10 425.210   4
   1   1  -4 869.918 236.208   5
   1  -1   4 1254.42 237.853   5
   1  -1  -4 1331.30 298.965   3
   0  -1   4 241873. 4842.90   5
   0  -1  -4 247191. 5475.90   4
   0   1   4 252984. 5431.00   4
   0   1  -4 249086. 4887.25   5
  -1  -1   4 704.966 224.423   5
  -1   1   4 888.993 338.517   4
  -1   1  -4 1255.84 302.379   1
  -1   1  -4 1329.69 222.566   5
  -1  -1  -4 1103.08 272.631   2
  -1  -1  -4 1259.14 274.947   4
  -2   1  -4 183554. 4602.69   1
  -2  -1  -4 182930. 4686.90   2
  -2   1   4 177605. 5655.73   4
  -2  -1   4 192877. 4555.42   5
  -2   1  -4 192183. 3374.45   5
  -2   1   4 185999. 4464.98   3
  -2  -1  -4 191235. 4159.08   4
  -3  -1  -4 1377.88 323.961   1
  -3   1   4 1657.74 550.727   4
  -3  -1  -4 1165.57 291.358   5
  -3   1   4 1078.01 293.769   3
  -3   1  -4 1445.04 382.629   1
  -3  -1   4 1211.18 369.347   5
  -3  -1  -4 1385.58 291.035   4
  -4  -1   4 102224. 3542.65   5
  -4  -1  -4 100011. 3021.79   5
  -4   1   4 97064.7 4525.62   4
  -4  -1  -4 101547. 3215.84   1
  -4   1   4 99596.7 3311.35   3
  -4   1  -4 101360. 3670.41   1
  -5  -1  -4 607.398 291.540   5
  -5   1  -4 580.939 124.223   4
  -5   1   4 815.501 331.214   3
  -5   1   4 817.731 488.646   4
  -5  -1   4 967.760 439.768   5
  -5  -1  -4 1308.46 403.155   1
  -5   1  -4 771.642 463.797   1
  -6   1   4 72175.4 4381.71   4
  -6  -1   4 68511.4 3296.41   5
  -6  -1  -4 75343.8 3190.52   1
  -6  -1  -4 74669.9 2801.47   5
  -6   1   4 71991.3 3116.84   3
  -6   1  -4 72526.3 3571.64   1
  -7   1   4 274.478 236.316   3
  -7   1  -4 472.902 494.047   1
  -7   1   4 417.163 552.875   4
  -7  -1  -4 278.787 385.510   1
  -7  -1   4 158.409 330.886   5
  -8   1   4 40033.1 3673.49   4
  -8  -1   4 41416.6 2926.28   5
  -8   1  -4 40285.9 3046.13   1
  -9   1  -4 96.0695 360.094   1
  10  -1   5 2591.80 937.888   2
   9  -1  -5 80435.7 5284.18   2
   9   1   5 74140.2 4962.24   2
   9  -1   5 80612.1 4802.33   2
   9   1  -5 77874.0 5332.64   2
   8   1   5 739.285 428.170   2
   8   1  -5 873.180 649.376   2
   8  -1   5 1169.25 542.507   2
   8  -1  -5 715.878 663.043   2
   7  -1   5 134543. 5304.94   2
   7   1  -5 140341. 6137.89   2
   7   1   5 123548. 5627.43   2
   6   1   5 3611.36 875.120   2
   6   1  -5 4567.79 1016.36   2
   6  -1   5 2992.46 679.414   2
   5   1   5 242940. 7036.36   2
   5   1  -5 228237. 7025.23   2
   5  -1   5 237323. 6239.92   2
   4   1   5 5007.04 818.501   2
   4  -1   5 5203.21 694.757   2
   3   1  -5 285919. 5668.76   3
   3   1   5 273796. 6792.61   2
   3  -1   5 283330. 5814.98   2
   3   1   5 287523. 5762.10   4
   2   1   5 3315.66 567.898   2
   2  -1   5 2004.79 290.799   2
   2  -1   5 2394.74 277.737   4
   2   1   5 2631.15 404.890   4
   1  -1   5 413929. 8120.22   4
   1  -1   5 428981. 7831.71   5
   1   1   5 424751. 7993.17   4
   0  -1   5 93859.1 2718.17   5
   0   1  -5 94734.7 2785.41   5
   0   1   5 93448.3 3197.06   4
   0  -1  -5 96993.3 3286.28   4
  -1  -1  -5 419981. 8188.76   4
  -1  -1   5 430729. 8161.41   5
  -1   1  -5 438818. 7674.51   5
  -1  -1  -5 431872. 8770.07   2
  -1   1   5 408807. 9369.38   4
  -1   1  -5 421941. 8263.25   1
  -1   1  -5 427026. 6691.18   2
  -2  -1   5 2626.63 477.762   5
  -2   1  -5 2386.58 310.086   5
  -2   1   5 1995.56 565.197   4
  -2  -1  -5 2317.93 391.696   4
  -2   1  -5 2058.27 435.465   1
  -3  -1   5 286739. 6685.77   5
  -3   1  -5 286910. 6791.08   1
  -3   1   5 281155. 8226.64   4
  -3   1  -5 289793. 4955.79   5
  -3  -1  -5 295655. 6405.47   1
  -3   1   5 283078. 6470.92   3
  -4   1   5 5774.83 768.282   3
  -4   1  -5 4696.64 766.288   1
  -4  -1  -5 5252.42 716.132   1
  -4  -1   5 4874.75 754.137   5
  -4  -1  -5 4383.58 584.684   5
  -4   1   5 5864.27 1141.89   4
  -5  -1   5 233598. 6521.30   5
  -5  -1  -5 244474. 5573.19   5
  -5   1  -5 233626. 6710.52   1
  -5   1   5 241247. 6213.29   3
  -5  -1  -5 239570. 6120.42   1
  -5   1   5 219802. 7925.69   4
  -6  -1   5 2790.67 689.232   5
  -6   1   5 3404.83 706.673   3
  -6  -1  -5 3046.18 530.385   5
  -6   1   5 5716.03 1283.45   4
  -6  -1  -5 2893.01 622.193   1
  -6   1  -5 4452.41 907.258   1
  -7  -1   5 122385. 5056.14   5
  -7   1   5 129483. 4716.01   3
  -7   1  -5 137912. 5537.68   1
  -7   1   5 120724. 6387.25   4
  -7  -1  -5 132051. 4856.56   1
  -8   1   5 1549.78 829.143   4
  -8   1  -5 1722.58 641.133   1
  -8  -1   5 1535.44 582.921   5
  -9   1  -5 82195.2 4826.40   1
   9   1   6 423.400 466.148   2
   9  -1   6 1052.72 579.128   2
   9   1  -6 132.533 361.328   2
   9  -1  -6 1496.78 899.550   2
   8   1   6 30524.9 2920.74   2
   8  -1   6 32267.3 2725.80   2
   7   1  -6 339.196 538.192   2
   7   1   6 394.651 492.515   2
   7  -1   6 706.315 495.566   2
   6   1   6 51409.4 3239.26   2
   6   1  -6 55309.8 3507.92   2
   6  -1   6 52251.9 2901.12   2
   5  -1   6 3608.01 687.215   2
   5   1   6 3213.20 759.032   2
   5   1  -6 3966.25 852.515   2
   4   1   6 58121.2 2950.24   2
   4  -1   6 61853.9 2505.55   2
   3  -1   6 3769.38 494.619   2
   3   1  -6 3017.08 470.109   3
   3  -1   6 3903.34 298.563   4
   3   1   6 3538.03 487.263   4
   3   1   6 4750.43 750.924   2
   2   1   6 50991.0 2000.85   4
   2  -1   6 48502.1 1729.61   4
   2  -1   6 49595.5 1620.96   2
   2   1   6 49395.3 2341.70   2
   1  -1   6 18785.3 1345.50   4
   1   1   6 17955.2 1235.01   4
   0  -1   6 45462.2 1980.29   5
   0   1   6 43757.5 2294.70   4
  -1   1   6 16281.3 1568.83   4
  -1   1  -6 18168.9 767.231   2
  -1  -1  -6 16892.4 1362.23   2
  -1   1  -6 19839.3 1348.03   1
  -1  -1   6 19115.9 1291.13   5
  -1   1  -6 17896.7 1131.95   5
  -2   1   6 57405.5 3235.72   4
  -2   1  -6 49369.2 1549.68   2
  -2  -1   6 49281.3 2266.70   5
  -2   1  -6 48124.1 2281.55   1
  -2   1  -6 51191.9 1843.84   5
  -3   1   6 3974.14 918.649   4
  -3  -1  -6 3504.57 608.203   1
  -3   1  -6 3818.41 409.757   5
  -3  -1   6 3870.98 682.278   5
  -3   1  -6 4635.57 735.089   1
  -4   1  -6 57487.7 1369.35   5
  -4  -1  -6 58219.5 2361.04   5
  -4  -1   6 59387.5 2871.26   5
  -4   1  -6 57689.0 1508.93   5
  -4   1   6 51919.9 3488.40   4
  -4   1  -6 60377.5 2924.18   1
  -4  -1  -6 63706.1 2750.70   1
  -5   1  -6 3603.93 797.462   1
  -5  -1  -6 3751.22 583.593   5
  -5   1   6 3253.04 651.374   3
  -5  -1   6 3543.46 766.460   5
  -5   1   6 4753.26 1081.43   4
  -5  -1  -6 3236.15 650.115   1
  -6  -1  -6 55524.4 2908.03   1
  -6  -1   6 60036.7 3294.39   5
  -6   1   6 54974.9 2864.21   3
  -6   1  -6 52878.8 3170.95   1
  -6   1   6 49840.6 3864.67   4
  -6  -1  -6 56671.1 2401.56   5
  -7  -1   6 401.841 419.735   5
  -7   1  -6 150.251 365.417   1
  -7   1   6 527.343 401.753   3
  -7   1   6-124.896 464.767   4
  -7  -1  -6-279.451 318.756   1
  -8  -1   6 37455.6 2996.07   5
  -8   1  -6 35477.7 2980.10   1
  -8   1   6 35266.8 3624.93   4
  -9   1  -6 1514.51 720.044   1
   9   1   7 75525.7 5005.92   2
   9   1  -7 66699.7 5139.94   2
   8   1   7 1718.91 660.836   2
   8  -1   7 1157.72 598.151   2
   8   1  -7 1544.95 692.821   2
   7  -1   7 116993. 4989.21   2
   7   1   7 116788. 5505.53   2
   7   1  -7 123634. 6034.40   2
   6   1  -7 1511.81 729.444   2
   6   1   7 1655.99 586.437   2
   6  -1   7 440.787 317.301   2
   5   1   7 204832. 6543.93   2
   5  -1   7 202915. 5745.59   2
   4   1   7 194.176 277.085   2
   4  -1   7 83.9459 108.722   2
   3  -1   7 258735. 5652.63   2
   3   1   7 260672. 6812.93   2
   3   1   7 257871. 5754.03   4
   3  -1   7 264676. 4788.58   4
   2   1   7 24273.8 1461.86   4
   2  -1   7 20871.6 1263.22   4
   1  -1   7 363793. 8131.48   4
   1   1   7 360275. 7893.49   4
   0  -1   7 17390.5 1299.91   5
   0   1   7 19309.5 1603.02   4
  -1  -1   7 345012. 7697.86   5
  -1   1  -7 354499. 7796.88   1
  -1   1  -7 351562. 6249.54   2
  -1   1   7 342612. 8916.33   4
  -2  -1   7 22001.6 1589.31   5
  -2   1  -7 22439.6 1313.83   5
  -2   1   7 22009.7 2089.42   4
  -2   1  -7 23972.9 1682.55   1
  -2   1  -7 23479.7 1048.16   2
  -3   1  -7 267486. 5494.01   5
  -3   1   7 250239. 8152.56   4
  -3   1  -7 270223. 6966.66   1
  -3  -1  -7 254747. 6590.62   1
  -3  -1   7 274018. 6937.38   5
  -4   1  -7 239.849 112.017   5
  -4  -1   7 477.524 331.947   5
  -4   1  -7 25.9727 195.054   1
  -4  -1  -7 310.105 251.374   1
  -4   1   7 278.925 252.924   4
  -5  -1   7 198297. 6348.20   5
  -5  -1  -7 201881. 5963.03   1
  -5   1   7 193576. 7725.93   4
  -5  -1  -7 197359. 5076.52   5
  -5   1  -7 197350. 6351.87   1
  -6   1  -7 1124.68 546.472   1
  -6  -1   7 1050.99 500.655   5
  -6   1   7 1919.86 782.074   4
  -6  -1  -7 785.392 290.688   5
  -6  -1  -7 1535.11 542.194   1
  -7  -1   7 118193. 5345.25   5
  -7   1  -7 120965. 5432.62   1
  -7  -1  -7 125800. 4996.56   1
  -7   1   7 119588. 6604.46   4
  -8   1  -7 2686.73 888.673   1
  -8  -1   7 2630.52 844.938   5
  -8   1   7 2527.52 982.951   4
  -9  -1   7 64626.7 4456.69   5
  -9   1  -7 70348.6 4569.22   1
   9   1   8 521.466 622.230   2
   8   1   8 28677.4 2866.71   2
   8   1  -8 27660.8 3090.15   2
   7  -1   8 901.033 502.246   2
   7   1   8 429.938 397.810   2
   7   1  -8 2021.67 937.159   2
   6  -1   8 52223.9 2935.36   2
   6   1  -8 52334.9 3652.27   2
   6   1   8 48733.6 3252.31   2
   5  -1   8 578.270 313.716   2
   5   1   8 106.461 279.774   2
   4   1   8 73424.6 3492.28   2
   4  -1   8 78712.9 2942.60   2
   4   1   8 76876.0 2740.73   4
   3   1   8 2062.54 448.794   4
   3  -1   8 1647.78 302.662   4
   3  -1   8 1941.67 397.217   2
   3   1   8 1807.44 515.374   2
   2  -1   8 107483. 3460.08   4
   2   1   8 117305. 3749.55   4
   1   1   8 3300.53 649.709   4
   1  -1   8 3696.04 678.621   4
   0  -1   8 154777. 4671.33   5
   0  -1   8 150872. 5108.49   4
   0   1   8 146854. 5147.22   4
  -1   1   8 3327.43 813.687   4
  -1   1  -8 3309.14 431.033   2
  -1   1  -8 3196.07 615.725   1
  -1  -1   8 2050.02 505.131   5
  -2  -1   8 110638. 4087.93   5
  -2   1  -8 120448. 4266.25   1
  -2   1  -8 116268. 2916.13   2
  -2   1   8 120024. 5170.38   4
  -3   1  -8 2585.33 458.218   5
  -3   1  -8 1726.54 576.518   1
  -3   1  -8 1806.65 352.014   2
  -3   1   8 2860.70 833.303   4
  -3  -1   8 1916.61 534.519   5
  -3  -1  -8 2449.72 611.353   1
  -4   1  -8 78482.2 3700.79   1
  -4  -1   8 76536.3 3635.22   5
  -4   1  -8 76920.0 2363.09   5
  -4   1   8 75071.2 4479.58   4
  -4  -1  -8 78593.5 3487.81   1
  -5   1  -8 464.564 433.004   1
  -5   1   8 226.520 324.084   4
  -5  -1  -8 77.3403 170.308   1
  -5  -1  -8 478.929 261.781   5
  -5  -1   8 552.556 493.222   5
  -6   1   8 48021.0 3977.79   4
  -6  -1   8 53922.5 3404.60   5
  -6  -1  -8 50439.2 2991.65   1
  -6   1  -8 47330.9 3180.69   1
  -7   1   8 1315.59 821.317   4
  -7   1  -8 1195.16 592.752   1
  -7  -1   8 1681.23 748.099   5
  -7  -1  -8 1569.67 589.277   1
  -8  -1   8 28908.5 2838.47   5
  -8   1  -8 25195.8 2608.52   1
  -8   1   8 26850.4 3257.90   4
  -9   1  -8 205.162 354.776   1
  -9  -1   8 836.457 568.281   5
   9   1   9 53091.1 4199.96   2
   8   1   9 3716.04 1019.06   2
   8   1  -9 4131.69 1287.66   2
   7   1  -9 101645. 5784.13   2
   7   1   9 102308. 5196.81   2
   6  -1   9 287.317 254.925   2
   6   1   9 903.682 557.499   2
   5  -1   9 154899. 4920.21   2
   5   1   9 152996. 5710.38   2
   4  -1   9-39.1662 62.7753   4
   4   1   9 192.919 189.232   4
   4   1   9 85.0443 175.815   2
   4  -1   9-9.04943 136.648   2
   3   1   9 207069. 5458.48   4
   3  -1   9 214843. 4831.32   4
   2  -1   9 8568.49 960.183   4
   2   1   9 11743.0 1193.79   4
   1   1   9 240454. 6815.47   4
   1  -1   9 261187. 6962.18   4
   0  -1   9 14374.4 1541.56   4
   0   1   9 19877.4 1820.09   4
  -1   1  -9 234711. 6656.16   1
  -1   1  -9 246949. 5328.45   2
  -1  -1   9 254695. 6816.34   5
  -1   1   9 254350. 7755.74   4
  -2   1   9 11321.0 1555.44   4
  -2   1  -9 11168.4 807.423   2
  -2   1  -9 11629.9 1301.27   1
  -2  -1   9 10745.0 1278.46   5
  -3   1  -9 199296. 6346.90   1
  -3   1   9 219824. 7711.57   4
  -3   1  -9 186765. 4628.63   2
  -3  -1   9 215903. 6512.41   5
  -3  -1  -9 202761. 6207.93   1
  -4   1   9 201.295 389.920   4
  -4   1  -9 20.6171 270.708   1
  -4  -1   9 0.94478 284.001   5
  -4  -1  -9 687.672 443.554   1
  -5  -1  -9 152533. 5525.03   1
  -5  -1  -9 145008. 4558.63   5
  -5   1   9 150449. 6979.63   4
  -5   1  -9 143634. 5674.72   1
  -5  -1   9 156652. 5964.74   5
  -6   1   9 854.586 688.394   4
  -6  -1  -9 935.582 499.955   1
  -6  -1   9 848.117 516.665   5
  -6   1  -9 745.450 442.166   1
  -7   1  -9 100780. 5190.72   1
  -7   1   9 97522.5 6144.28   4
  -7  -1  -9 103901. 4810.08   1
  -7  -1   9 107577. 5468.50   5
  -8   1  -9 3662.29 1012.40   1
  -8  -1   9 3445.81 1045.77   5
  -8   1   9 3596.78 1241.43   4
  -9  -1   9 55099.8 4338.86   5
  -9   1  -9 59480.8 4353.35   1
  -9   1   9 59234.6 5125.63   4
   8   1  10 24950.8 2717.07   2
   8   1 -10 25659.2 3162.12   2
   7   1 -10 813.228 461.798   2
   7   1  10 963.505 522.535   2
   6   1  10 38224.3 2923.63   2
   5   1  10 72.5340 292.390   2
   5  -1  10 105.090 155.793   2
   4  -1  10 44170.9 1626.49   4
   4   1  10 42759.1 2194.49   4
   3  -1  10 461.039 215.874   4
   3   1  10 278.828 198.228   4
   2  -1  10 33215.6 2072.68   4
   2   1  10 36532.8 2279.28   4
   1  -1  10 1268.84 458.756   4
   1   1  10 1999.31 586.499   4
   0   1  10 35762.6 2616.30   4
   0  -1  10 34461.8 2512.91   4
  -1   1 -10 1655.26 548.462   1
  -1   1 -10 1321.94 321.329   2
  -1  -1  10 1476.90 498.728   5
  -1  -1  10 796.416 359.604   4
  -1   1  10 1421.00 598.736   4
  -2   1  10 34975.5 2854.43   4
  -2   1 -10 35069.7 1583.08   2
  -2  -1  10 32370.8 2367.74   5
  -2   1 -10 31343.1 2315.42   1
  -3   1 -10 703.207 251.631   2
  -3   1 -10 1473.07 589.219   1
  -3  -1  10 408.291 310.884   5
  -3  -1 -10 473.013 391.183   1
  -3   1  10 967.677 781.823   4
  -4  -1 -10 43971.3 2871.61   1
  -4  -1  10 40847.0 2902.16   5
  -4   1  10 40554.9 3408.06   4
  -4   1 -10 46204.9 3060.95   1
  -5   1  10-79.5946 389.055   4
  -5  -1  10 201.920 300.973   5
  -5   1 -10 422.566 391.338   1
  -5  -1 -10 450.176 435.279   1
  -6  -1 -10 39207.6 2879.94   1
  -6   1 -10 35190.3 2967.92   1
  -6   1  10 34134.4 3458.88   4
  -6  -1  10 36468.6 3045.32   5
  -7   1  10 2512.87 970.252   4
  -7  -1 -10 302.364 391.468   1
  -7  -1  10 1081.11 707.062   5
  -7   1 -10 1027.18 601.268   1
  -8   1  10 21491.3 2974.38   4
  -8  -1  10 22117.3 2688.53   5
  -8   1 -10 24617.1 2712.61   1
  -9   1  10 1708.27 938.780   4
  -9   1 -10 1756.80 742.628   1
   8   1 -11 1016.92 486.075   2
   7   1  11 70408.8 4384.82   2
   7   1 -11 80439.3 5370.13   2
   6   1  11 1396.96 628.083   2
   4   1  11 803.914 369.593   4
   3  -1  11 143086. 4370.71   4
   3   1  11 145972. 4873.22   4
   2  -1  11 3287.02 679.739   4
   2   1  11 3180.01 746.096   4
   1   1  11 142020. 5449.29   4
   1  -1  11 161073. 5542.78   4
   0   1  11 8676.40 1306.23   4
   0  -1  11 7501.52 1238.88   4
  -1   1 -11 142333. 5330.94   1
  -1  -1  11 141301. 5920.18   4
  -1   1 -11 143687. 4081.40   2
  -2   1 -11 4046.86 560.705   2
  -2   1 -11 3742.38 874.361   1
  -2  -1  11 2210.81 612.615   5
  -2   1  11 4805.80 1083.04   4
  -2  -1  11 4135.35 984.606   4
  -3   1 -11 145886. 5722.36   1
  -3  -1 -11 149641. 5675.81   1
  -3   1  11 143938. 6450.00   4
  -3  -1  11 139307. 5652.84   5
  -4   1  11 1495.65 701.391   4
  -4   1 -11 186.000 453.038   1
  -4  -1  11 172.107 446.971   5
  -4  -1 -11 410.019 389.949   1
  -5   1 -11 99463.7 5028.32   1
  -5  -1  11 99780.3 5123.42   5
  -5   1  11 104258. 5893.18   4
  -5  -1 -11 96920.3 4776.98   1
  -6   1  11 1765.28 872.341   4
  -6  -1 -11 1850.31 734.314   1
  -6  -1  11 938.042 458.751   5
  -6   1 -11 644.966 489.206   1
  -7   1 -11 68480.7 4508.54   1
  -7  -1  11 78640.1 4970.77   5
  -7  -1 -11 78010.9 4491.23   1
  -7   1  11 62644.5 5024.52   4
  -8   1 -11 2040.75 901.291   1
  -8   1  11 3002.51 1134.04   4
  -8  -1  11 1144.37 703.128   4
   7   1 -12 56.6390 522.066   2
   4   1  12 62258.3 3018.05   4
   3  -1  12 4383.38 743.091   4
   3   1  12 4280.49 824.245   4
   2  -1  12 79023.4 3639.19   4
   2   1  12 78299.5 3841.53   4
   1   1  12 3406.02 851.501   4
   1  -1  12 4508.90 898.806   4
   0  -1  12 101191. 4798.69   4
   0   1  12 111343. 5057.09   4
  -1  -1  12 3107.00 851.152   4
  -1   1  12 4481.75 1048.70   4
  -1   1 -12 3591.69 866.179   1
  -2  -1  12 76924.2 4688.98   4
  -2   1  12 81112.5 4580.39   4
  -2   1 -12 79382.8 4133.28   1
  -3   1 -12 3702.50 911.997   1
  -3  -1  12 5017.56 1184.83   4
  -3  -1  12 4851.82 1056.13   5
  -3  -1 -12 3253.13 871.344   1
  -3   1  12 3649.56 1010.73   4
  -4   1 -12 66237.3 4043.48   1
  -4  -1 -12 55338.8 3592.36   1
  -4  -1  12 66871.7 4107.90   5
  -4   1  12 62210.5 4421.26   4
  -5   1  12 871.660 615.539   4
  -5   1 -12 703.903 535.893   1
  -5  -1  12-233.058 569.357   5
  -5  -1 -12-84.3663 244.339   1
  -6  -1  12 40084.0 3473.10   5
  -6  -1 -12 41168.0 3273.54   1
  -6   1  12 37971.5 3771.55   4
  -6   1 -12 34193.8 3125.72   1
  -7   1 -12 1797.96 768.432   1
  -7  -1 -12 1025.63 587.858   1
  -7  -1  12 1805.73 882.149   4
  -7   1  12-93.5525 636.606   4
  -8   1  12 23213.4 3198.23   4
  -8   1 -12 26661.1 3002.21   1
   7   1 -13 62856.7 5003.36   2
   4   1  13 601.922 369.253   4
   3  -1  13 103538. 4121.66   4
   3   1  13 110355. 4637.75   4
   2  -1  13 1158.67 527.375   4
   2   1  13 720.133 393.063   4
   1  -1  13 125743. 5097.81   4
   1   1  13 113350. 5133.14   4
   0  -1  13 5113.44 1077.19   4
   0   1  13 6291.26 1198.47   4
  -1   1 -13 114668. 5127.36   1
  -1  -1  13 111289. 5517.08   4
  -1   1  13 116443. 5495.11   4
  -2   1 -13 1039.10 538.345   1
  -2  -1  13 196.271 311.039   4
  -2   1  13 576.187 539.658   4
  -3   1 -13 116039. 5481.81   1
  -3  -1 -13 117111. 5425.48   1
  -3   1  13 109518. 5754.90   4
  -3  -1  13 109368. 6060.43   4
  -4  -1 -13 317.568 469.314   1
  -4   1 -13 232.337 334.289   1
  -4  -1  13 873.169 599.313   4
  -4   1  13-301.234 389.279   4
  -5  -1 -13 65104.1 4261.35   1
  -5   1  13 70561.9 5059.80   4
  -5   1 -13 72129.7 4603.55   1
  -5  -1  13 75015.0 5502.56   4
  -6   1  13 1413.38 889.644   4
  -6  -1 -13 1994.06 807.308   1
  -6  -1  13 937.508 942.743   4
  -6   1 -13 561.964 526.224   1
  -7   1 -13 61421.0 4560.14   1
  -7   1  13 58122.8 4954.72   4
  -7  -1  13 54305.9 5159.30   4
  -7  -1 -13 61511.8 4350.49   1
   7   1 -14 1344.39 616.787   2
   4   1  14 19251.2 1834.36   4
   3   1  14-113.251 287.607   4
   2   1  14 20842.7 2113.81   4
   2  -1  14 23108.2 2055.90   4
   1  -1  14 2129.86 674.160   4
   1   1  14 1689.96 646.967   4
   0  -1  14 21023.5 2176.52   4
   0   1  14 19663.4 2161.64   4
  -1  -1  14 2230.59 777.822   4
  -1   1 -14 1768.43 709.069   1
  -1   1  14 1794.65 757.116   4
  -2  -1  14 20678.7 2512.22   4
  -2   1 -14 21612.9 2293.99   1
  -2   1  14 22191.6 2481.23   4
  -3   1  14 364.700 406.764   4
  -3   1 -14-345.969 481.266   1
  -3  -1 -14-110.343 280.879   1
  -3  -1  14 362.744 560.385   4
  -4  -1 -14 24042.3 2518.85   1
  -4   1  14 23187.1 2735.06   4
  -4   1 -14 22222.3 2527.81   1
  -4  -1  14 22530.5 2901.95   4
  -5   1  14 350.050 366.587   4
  -5  -1 -14 1752.16 759.198   1
  -5   1 -14 658.468 562.202   1
  -5  -1  14 1016.15 596.144   4
  -6   1  14 17174.2 2586.51   4
  -6  -1 -14 18254.0 2401.34   1
  -6  -1  14 18386.1 2901.49   4
  -6   1 -14 20584.9 2615.00   1
  -7  -1 -14-765.162 576.955   1
  -7   1 -14 890.590 609.853   1
   7   1 -15 44099.2 4289.97   2
   3   1  15 83909.9 4395.86   4
   2   1  15 892.960 480.250   4
   2  -1  15 663.959 415.025   4
   1   1  15 92218.5 4839.75   4
   1  -1  15 91202.8 4554.87   4
   0   1  15 307.888 468.578   4
   0  -1  15 550.046 460.715   4
  -1  -1  15 84272.5 4965.31   4
  -1   1  15 87266.2 4943.68   4
  -1   1 -15 86781.7 4770.70   1
  -2  -1  15-158.393 299.994   4
  -2   1  15 867.496 613.854   4
  -2   1 -15 1437.12 703.880   1
  -3   1  15 87189.8 5328.09   4
  -3   1 -15 94036.7 5302.63   1
  -3  -1  15 94586.2 5867.16   4
  -3  -1 -15 95332.6 5213.65   1
  -4  -1 -15-49.5125 313.091   1
  -4   1  15 812.478 579.642   4
  -4   1 -15-39.2325 483.317   1
  -4  -1  15 354.917 337.312   4
  -5  -1  15 52124.6 4823.04   4
  -5   1  15 58369.1 4677.74   4
  -5  -1 -15 53211.0 4131.60   1
  -5   1 -15 55669.4 4370.30   1
  -6   1  15 1009.26 683.961   4
  -6  -1  15 1130.09 688.915   4
  -6  -1 -15 474.600 469.488   1
  -6   1 -15-391.771 487.751   1
  -7  -1 -15 44227.3 4004.18   1
   3   1  16 242.114 424.858   4
   2  -1  16 32450.3 2598.82   4
   2   1  16 30145.1 2736.32   4
   1   1  16-149.752 477.569   4
   1  -1  16 826.023 530.652   4
   0   1  16 33361.4 2958.41   4
   0  -1  16 33565.3 2894.33   4
  -1  -1  16 541.762 545.768   4
  -1   1 -16 16.6830 421.750   1
  -1   1  16-296.762 370.166   4
  -2   1 -16 34085.2 3143.81   1
  -2  -1  16 30745.0 3188.71   4
  -2   1  16 31133.7 3090.45   4
  -3  -1 -16 645.929 684.434   1
  -3   1  16-45.6455 311.884   4
  -3  -1  16 1760.82 964.123   4
  -3   1 -16 308.358 441.429   1
  -4   1 -16 23074.5 2801.17   1
  -4  -1  16 26840.3 3307.10   4
  -4   1  16 23371.2 2897.36   4
  -4  -1 -16 20391.8 2549.81   1
  -5   1  16 1169.99 858.625   4
  -5   1 -16 84.1084 450.630   1
  -5  -1 -16 1516.60 775.058   1
  -5  -1  16-797.194 692.636   4
  -6  -1 -16 14761.8 2352.26   1
   2   1  17 504.091 395.943   4
   1  -1  17 50135.1 3495.75   4
   1   1  17 52618.9 3779.58   4
   0  -1  17-67.5960 437.488   4
   0   1  17 104.868 278.122   4
  -1   1 -17 60057.9 4230.75   1
  -1  -1  17 57048.2 4177.50   4
  -1   1  17 53364.2 4015.09   4
  -2  -1  17 406.878 608.249   4
  -2   1  17 952.663 669.729   4
  -2   1 -17 412.379 428.593   1
  -3   1 -17 50845.3 4165.14   1
  -3  -1  17 49198.8 4359.90   4
  -3   1  17 45984.6 3982.91   4
  -3  -1 -17 54173.9 4130.49   1
  -4  -1  17-753.067 677.419   4
  -4   1  17 76.8414 424.294   4
  -4   1 -17 15.1680 559.344   1
  -4  -1 -17-771.143 574.198   1
  -5  -1 -17 34712.3 3563.59   1
   2   1  18 21840.6 2453.16   4
   1   1  18 7.20477 416.955   4
   1  -1  18 500.726 374.172   4
   0   1 -18 21428.0 2528.29   1
   0   1  18 19098.8 2364.92   4
   0  -1  18 16890.7 2195.60   4
  -1  -1  18 2259.24 992.645   4
  -1   1 -18 1061.63 685.385   1
  -1   1  18-789.874 541.799   4
  -2  -1  18 23146.0 2863.52   4
  -2   1 -18 19924.6 2561.67   1
  -2   1  18 19111.3 2556.29   4
  -3  -1  18 562.449 592.263   4
  -3  -1 -18 1324.51 644.395   1
  -3   1  18 322.258 591.068   4
  -3   1 -18 282.917 414.063   1
  -4  -1 -18 23396.6 2880.11   1
   1   1  19 31909.2 3049.85   4
   0  -1  19 1407.90 743.739   4
   0   1  19 150.717 373.929   4
   0   1 -19 479.920 583.902   1
  -1   1  19 32517.1 3234.71   4
  -1   1 -19 37405.4 3582.36   1
  -1  -1  19 41715.3 3693.97   4
  -2  -1  19 679.076 564.696   4
  -2   1 -19 652.025 578.749   1
  -2  -1 -19 395.465 568.089   1
  -2   1  19 992.126 606.460   4
   1   1  20-104.570 497.774   4
   0  -1  20 12868.6 1979.74   4
   0   1  20 10852.0 1848.23   4
  -1  -1  20 705.220 547.905   4
  -1   1  20-1132.35 657.955   4
   9   2   0 1183.86 720.984   2
   9  -2   0 1250.46 711.400   2
   8   2   0 151155. 6898.16   2
   8  -2   0 161333. 6610.34   2
   7   2   0-50.4062 298.681   2
   7  -2   0 314.809 188.949   2
   6   2   0 174999. 6389.86   2
   5   2   0-32.2061 184.970   2
   5  -2   0 132.397 90.2289   5
   4   2   0 292759. 7595.03   2
   4  -2   0 301892. 5477.16   5
   3   2   0-20.9525 139.568   2
   3  -2   0 50.1072 99.5664   5
   2  -2   0 734359. 12317.6   4
   2   2   0 744430. 13182.5   2
   1   2   0-33.2006 113.854   2
   1  -2   0-137.255 86.9185   4
   1   2   0 56.5013 77.2456   3
   1   2   0 116.843 152.679   5
   1  -2   0 49.0130 101.649   1
   0  -2   0 309920. 6184.43   2
   0  -2   0 311243. 5723.67   1
   0  -2   0 316210. 5676.76   4
   0   2   0 302555. 5766.98   1
   0  -2   0 316785. 5877.79   5
   0   2   0 311266. 5655.09   4
  -1   2   0-23.1228 52.1990   4
  -1  -2   0 83.4345 95.5985   4
  -1  -2   0 23.0485 90.6000   5
  -1  -2   0 56.2881 44.9489   1
  -1   2   0 98.0078 129.080   1
  -1  -2   0-46.7865 136.921   2
  -2   2   0 732054. 11990.7   4
  -2   2   0 763102. 13312.1   1
  -2  -2   0 751926. 12838.9   5
  -3  -2   0 66.7776 108.485   5
  -3   2   0-18.4065 77.8544   4
  -3   2   0-58.9526 161.818   1
  -4   2   0 298162. 6124.50   4
  -4  -2   0 294560. 6737.45   5
  -4  -2   0 296300. 5174.42   1
  -4   2   0 311275. 7528.54   1
  -5  -2   0 34.2553 53.0840   3
  -5   2   0-165.143 186.408   1
  -5  -2   0 149.233 243.650   5
  -5  -2   0 96.4596 97.8611   1
  -5   2   0 329.702 195.594   4
  -6   2   0 173756. 6097.06   1
  -6  -2   0 171307. 5254.43   5
  -6   2   0 171510. 5034.34   4
  -7  -2   0-701.431 348.111   5
  -7   2   0-28.9203 311.258   1
  -8  -2   0 163940. 5693.79   5
  -8   2   0 156634. 6587.50   1
  10  -2   1-253.853 397.187   2
   9  -2  -1 39539.6 3467.72   2
   9  -2   1 44363.0 3562.86   2
   9   2   1 32067.7 3325.86   2
   9   2  -1 36565.6 3564.62   2
   8   2   1 1771.52 966.767   2
   8   2  -1 1590.28 858.980   2
   8  -2  -1 1196.77 721.269   2
   8  -2   1 1290.63 707.574   2
   7   2   1 50115.8 3513.74   2
   7   2  -1 44140.8 3313.83   2
   7  -2   1 45420.8 3031.02   2
   6   2   1 970.886 601.730   2
   6   2  -1 105.418 220.353   2
   5  -2   1 87651.5 1996.10   5
   5  -2  -1 83143.3 2575.18   5
   5   2  -1 89021.5 2135.47   1
   5   2   1 89046.0 4022.23   2
   5   2  -1 86717.7 3973.73   2
   4   2   1 447.494 269.827   2
   4  -2  -1 500.904 212.526   5
   4  -2   1 190.990 83.7051   5
   4   2  -1 328.718 330.828   2
   3  -2  -1 95545.9 3011.98   5
   3  -2   1 103041. 2244.65   5
   3   2   1 98501.3 3615.92   2
   3   2  -1 100851. 3536.24   2
   2  -2   1 2398.51 307.181   4
   2   2   1 2527.08 499.234   2
   2  -2  -1 2421.38 455.404   4
   2   2  -1 2022.89 416.097   2
   1   2  -1 140708. 3565.66   2
   1   2   1 131588. 3747.39   2
   1   2  -1 142785. 3464.35   5
   1  -2   1 139574. 2952.55   5
   1  -2  -1 140021. 3593.24   1
   1   2  -1 142255. 2666.11   1
   1   2   1 138766. 2929.10   3
   1  -2   1 141636. 3484.46   1
   1  -2  -1 137859. 3297.87   4
   1  -2   1 140664. 2894.01   4
   0  -2   1 3327.57 371.275   1
   0  -2   1 2483.00 313.449   4
   0   2  -1 2927.85 393.096   5
   0  -2  -1 2687.36 356.610   4
   0   2   1 2779.67 344.266   3
   0  -2  -1 2883.29 384.787   1
   0   2   1 2575.10 339.875   4
   0  -2   1 3030.86 369.877   5
   0   2  -1 2682.49 328.894   1
   0  -2   1 2748.55 361.802   2
  -1  -2  -1 142047. 3759.97   2
  -1   2   1 133682. 3610.34   1
  -1  -2  -1 146682. 3388.58   4
  -1  -2   1 141395. 2601.38   1
  -1  -2   1 137083. 3359.97   5
  -1   2  -1 140474. 3503.79   1
  -1   2   1 138706. 3192.23   4
  -1  -2   1 143274. 3471.11   2
  -1  -2  -1 139699. 2847.89   3
  -1  -2  -1 135092. 3488.36   5
  -1   2  -1 142664. 2857.52   4
  -2   2   1 2233.32 343.309   4
  -2  -2  -1 2395.02 238.871   3
  -2   2   1 2051.58 440.080   1
  -2   2  -1 2146.12 445.998   1
  -2  -2  -1 2289.13 407.449   5
  -2  -2   1 2453.67 408.019   5
  -2   2  -1 2461.83 251.400   4
  -3   2  -1 96105.4 3424.89   1
  -3   2   1 105766. 3671.56   1
  -3   2   1 100094. 3026.96   4
  -3  -2   1 100214. 3194.80   5
  -3   2  -1 103540. 2253.54   4
  -3  -2  -1 98201.0 3110.61   5
  -3  -2  -1 100894. 2121.90   1
  -4   2   1 123.147 139.213   4
  -4  -2  -1 320.832 125.883   1
  -4   2  -1 436.034 171.700   4
  -4  -2  -1 327.011 228.790   5
  -4   2   1 595.568 311.772   1
  -4   2  -1 447.789 322.452   1
  -4  -2   1 491.771 318.983   5
  -5   2  -1 91031.9 3878.32   1
  -5  -2  -1 88661.5 3304.78   5
  -5   2   1 92039.3 3982.00   1
  -5   2   1 82620.6 3467.15   4
  -5  -2   1 92215.8 3452.21   5
  -5   2  -1 89826.6 2643.51   4
  -5  -2  -1 87683.1 2501.45   1
  -6   2   1 7.71452 240.431   1
  -6   2   1 382.121 244.650   4
  -6  -2  -1 302.895 287.635   5
  -6   2  -1 208.654 214.545   4
  -6  -2  -1 571.575 235.172   1
  -6   2  -1 118.978 310.373   1
  -6  -2   1 689.949 377.274   5
  -7   2   1 48954.8 3304.86   1
  -7  -2  -1 47692.3 2668.43   5
  -7  -2   1 49064.2 2810.25   5
  -7   2  -1 44644.2 3126.87   1
  -8  -2  -1 619.423 520.077   5
  -8   2  -1 918.566 615.316   1
  -8   2   1 226.376 325.380   3
  -8  -2   1 177.003 373.088   5
  -9   2  -1 42608.4 3523.89   1
  10  -2   2 48329.8 4037.69   2
   9   2   2-48.3285 599.528   2
   9   2  -2 246.564 400.499   2
   9  -2   2 434.159 565.732   2
   9  -2  -2 985.306 591.762   2
   8   2   2 151382. 6903.44   2
   8  -2   2 149806. 6210.24   2
   8  -2  -2 142805. 6390.20   2
   8   2  -2 144678. 6723.70   2
   7   2   2 203.515 263.259   2
   7   2  -2 648.978 402.122   2
   7  -2   2 313.388 336.509   2
   6   2   2 166050. 6252.40   2
   6  -2   2 162179. 5446.68   2
   6   2  -2 154262. 5986.64   2
   5   2   2-200.745 274.621   2
   5   2  -2 135.603 79.4490   1
   5   2  -2 100.360 195.316   2
   4   2   2 263197. 7087.84   2
   4   2  -2 254479. 4255.76   1
   4   2  -2 251758. 6798.42   2
   3   2   2 2377.81 539.858   2
   3   2  -2 2667.84 557.277   2
   3  -2  -2 2349.06 472.546   5
   2  -2   2 528245. 8059.97   5
   2   2  -2 524292. 9762.16   2
   2   2   2 505296. 10233.7   2
   2  -2  -2 530423. 10457.5   4
   2  -2   2 517758. 8185.28   4
   1  -2  -2 316.660 171.040   4
   1  -2   2 343.916 148.026   1
   1   2   2 387.607 173.813   4
   1  -2   2 570.065 138.072   4
   1  -2   2 443.578 132.514   5
   1  -2  -2 487.654 201.316   1
   1   2  -2 474.205 183.986   5
   1   2  -2 345.919 175.372   2
   1   2  -2 142.280 75.5634   1
   1   2   2 161.579 130.538   2
   0  -2  -2 157925. 3539.07   3
   0   2  -2 155714. 3451.87   2
   0   2   2 157356. 3636.24   4
   0   2  -2 156904. 3498.92   5
   0  -2   2 153849. 3430.34   5
   0  -2   2 159715. 3273.88   2
   0   2   2 161878. 3591.36   3
   0  -2   2 159226. 3398.90   1
   0   2  -2 151240. 3395.73   1
   0  -2  -2 157484. 3689.71   4
  -1  -2  -2 501.458 219.895   2
  -1   2  -2 397.748 121.680   5
  -1   2   2 553.647 213.608   4
  -1  -2   2 539.403 119.031   1
  -1  -2  -2 266.027 161.661   4
  -1  -2   2 435.240 171.815   5
  -1  -2   2 462.202 172.114   2
  -1   2   2 541.653 200.923   3
  -1  -2  -2 397.877 126.580   3
  -1   2  -2 474.703 208.299   1
  -2   2   2 532513. 9555.99   3
  -2  -2  -2 510964. 9612.42   5
  -2   2  -2 505789. 9799.61   1
  -2   2   2 520444. 9493.03   4
  -2  -2   2 525241. 9564.99   5
  -3   2   2 3118.60 568.430   4
  -3  -2  -2 2587.66 467.717   5
  -3  -2   2 2738.88 505.640   5
  -3   2  -2 2186.97 176.090   4
  -3   2  -2 2385.17 528.168   1
  -3   2   2 2853.72 585.542   1
  -3  -2  -2 2290.78 302.545   1
  -4  -2  -2 259402. 6059.73   5
  -4   2   2 258857. 6963.13   1
  -4   2   2 272680. 6852.70   4
  -4  -2   2 259075. 6290.47   5
  -4   2  -2 258661. 4344.49   4
  -4  -2  -2 256662. 5083.36   1
  -4   2  -2 256555. 6768.93   1
  -5   2  -2 346.347 122.465   4
  -5   2   2 616.786 356.929   1
  -5  -2  -2 19.3575 128.637   1
  -5  -2  -2 439.687 248.974   5
  -5  -2   2 270.922 170.293   5
  -5   2  -2 73.3332 202.834   1
  -5   2   2 473.667 290.218   3
  -6  -2   2 159603. 5169.01   5
  -6  -2  -2 154046. 4176.46   1
  -6   2   2 156195. 5028.10   3
  -6   2  -2 162041. 5817.88   1
  -6  -2  -2 162384. 4938.55   5
  -6   2   2 157502. 5842.41   4
  -7   2   2 106.253 237.570   4
  -7   2  -2 802.738 445.437   1
  -7  -2  -2 680.332 298.165   5
  -7   2   2 865.702 447.001   3
  -7  -2   2 581.953 340.223   5
  -8   2   2 144992. 5387.21   3
  -8  -2   2 143685. 5527.92   5
  -8   2  -2 145405. 6312.22   1
  -9   2  -2-259.095 373.688   1
  10  -2   3 1559.83 731.219   2
   9  -2   3 36554.9 3199.49   2
   9   2   3 38134.8 3644.89   2
   9  -2  -3 36418.2 3395.42   2
   9   2  -3 35884.0 3565.97   2
   8   2  -3 1056.44 806.985   2
   8  -2   3 693.093 505.567   2
   8   2   3 1147.88 728.534   2
   7  -2   3 48945.3 3076.81   2
   7   2  -3 46711.4 3431.74   2
   7   2   3 49183.5 3530.31   2
   6   2  -3 129.137 207.734   2
   6  -2   3 485.360 373.264   2
   6   2   3 723.536 528.087   2
   5  -2   3 82146.6 3276.79   2
   5   2  -3 80392.9 2108.21   1
   5   2  -3 82324.5 3873.61   2
   4   2   3 127.674 184.493   2
   4   2  -3 167.582 101.560   1
   4   2  -3 29.7996 290.424   2
   3   2  -3 110284. 2273.82   1
   3   2   3 112609. 4026.22   2
   3   2  -3 111354. 3752.93   2
   2   2   3 589.464 318.148   2
   2  -2   3 418.205 85.2812   4
   2   2  -3 593.651 232.470   2
   2   2  -3 507.590 133.278   1
   2   2   3 819.434 276.649   4
   2  -2   3 458.453 102.446   5
   1  -2   3 147730. 3670.31   1
   1   2  -3 145413. 3040.73   1
   1   2   3 142149. 3564.05   4
   1   2  -3 142592. 3423.00   2
   1  -2  -3 139663. 3920.85   4
   1  -2   3 142524. 2994.72   5
   0  -2  -3 422.226 181.278   4
   0   2   3 262.208 170.610   4
   0  -2   3 466.506 109.130   2
   0   2  -3 493.863 174.879   5
   0   2   3 576.111 245.816   3
   0   2  -3 611.941 172.728   1
   0  -2   3 505.032 171.877   5
   0  -2  -3 606.124 206.928   3
   0  -2   3 119.529 103.884   1
   0   2  -3 409.346 145.629   2
  -1   2   3 143488. 3711.21   3
  -1  -2  -3 145945. 3476.53   3
  -1   2  -3 144505. 3044.15   5
  -1   2   3 141979. 3757.38   4
  -1   2  -3 141132. 3676.33   1
  -1  -2   3 142237. 3595.22   5
  -1  -2   3 141981. 3277.07   2
  -2   2   3 573.265 237.180   4
  -2   2  -3 869.327 313.095   1
  -2   2   3 378.578 182.646   3
  -2  -2   3 282.835 184.614   5
  -3  -2  -3 106292. 3413.03   5
  -3  -2   3 110700. 3532.29   5
  -3   2  -3 107021. 3709.46   1
  -3   2   3 111547. 3500.54   3
  -3  -2  -3 108164. 2785.43   1
  -3   2   3 115852. 4026.74   4
  -4   2   3 565.614 385.983   4
  -4  -2  -3 355.996 186.734   1
  -4  -2   3 304.973 237.650   5
  -4   2   3 87.4221 188.255   3
  -4  -2  -3 266.746 222.569   5
  -4   2  -3 536.404 433.469   1
  -5   2   3 83690.7 4147.80   4
  -5  -2  -3 81807.8 3164.59   5
  -5   2  -3 80575.6 3705.89   1
  -5  -2   3 84695.1 3425.48   5
  -5  -2  -3 83143.5 2720.97   1
  -5   2   3 80061.2 3296.71   3
  -6  -2  -3 527.765 307.556   1
  -6  -2   3 584.316 341.269   5
  -6  -2  -3 406.159 258.713   5
  -6   2   3 718.362 363.264   3
  -6   2   3 734.271 432.094   4
  -6   2  -3 632.229 507.894   1
  -7   2  -3 47872.9 3262.78   1
  -7   2   3 42428.9 3248.23   4
  -7   2   3 44453.9 2699.26   3
  -7  -2  -3 43417.7 2503.02   5
  -7  -2   3 47105.5 2897.35   5
  -8   2  -3 254.647 388.831   1
  -8   2   3 505.027 312.688   3
  -9   2  -3 37309.5 3317.80   1
   9   2   4 578.429 430.461   2
   9  -2   4 900.976 573.921   2
   9  -2  -4 515.999 554.253   2
   9   2  -4 938.162 755.653   2
   8   2  -4 138077. 6713.52   2
   8   2   4 139521. 6649.79   2
   8  -2   4 128417. 5635.69   2
   7   2   4 632.766 494.382   2
   7   2  -4 601.682 407.755   2
   7  -2   4 552.550 323.293   2
   6   2  -4 161418. 6235.01   2
   6   2   4 168596. 6443.58   2
   6  -2   4 172689. 5496.64   2
   5   2  -4 1857.64 302.130   1
   5   2  -4 1160.28 442.872   2
   5   2   4 1217.96 511.410   2
   5  -2   4 1325.13 378.280   2
   4   2  -4 298571. 5479.40   1
   4  -2   4 291378. 6355.82   2
   4   2   4 279477. 7742.33   2
   4   2  -4 281755. 7459.54   2
   3   2  -4 8082.18 508.171   3
   3   2  -4 7875.39 928.335   2
   3   2   4 7934.13 1020.52   2
   3  -2   4 7422.85 631.598   2
   2   2  -4 600955. 11034.0   2
   2   2   4 611535. 11958.3   2
   2  -2   4 610092. 9176.59   4
   2  -2   4 621569. 9492.86   5
   2   2   4 609207. 10816.7   4
   1   2  -4 6.86430 79.2376   2
   1   2  -4 322.893 138.660   1
   1  -2   4 59.4426 58.3293   5
   1   2   4 86.2156 152.228   4
   0   2  -4 415716. 6784.83   2
   0   2  -4 420972. 7566.07   5
   0  -2   4 418745. 7519.97   5
   0  -2   4 413926. 7544.38   1
   0   2   4 408594. 8023.28   4
   0   2  -4 395158. 7566.83   1
  -1   2  -4 102.949 53.0882   5
  -1   2   4 166.987 124.104   4
  -1  -2  -4 132.483 132.402   3
  -1   2   4 16.1143 92.9174   3
  -1  -2   4 442.812 219.437   5
  -1   2  -4 145.297 132.393   1
  -2   2  -4 596642. 11436.7   1
  -2   2   4 614048. 11317.4   3
  -2   2  -4 612845. 9534.94   5
  -2  -2   4 612148. 11214.6   5
  -2   2   4 609875. 12051.6   4
  -3   2  -4 7754.96 954.404   1
  -3  -2  -4 7643.75 858.108   5
  -3   2   4 7897.90 1065.85   4
  -3   2   4 8246.54 900.945   3
  -3  -2   4 8257.91 914.868   5
  -4   2   4 290317. 6996.46   3
  -4  -2  -4 288730. 6725.26   5
  -4  -2   4 300279. 7136.07   5
  -4   2  -4 295445. 7500.02   1
  -4  -2  -4 300947. 6225.64   1
  -5   2   4 2026.67 674.253   4
  -5   2  -4 1206.86 482.457   1
  -5   2   4 826.896 387.077   3
  -5  -2  -4 1309.84 387.922   5
  -5  -2   4 1937.59 570.892   5
  -5  -2  -4 951.109 296.953   1
  -6   2  -4 166873. 6065.12   1
  -6   2   4 168293. 5387.26   3
  -6  -2   4 160408. 5513.25   5
  -6  -2  -4 169027. 5022.24   5
  -6   2   4 149206. 6431.08   4
  -6  -2  -4 161871. 4679.70   1
  -7   2   4 1246.92 630.814   4
  -7  -2   4 909.294 460.188   5
  -7   2   4 146.052 223.532   3
  -7   2  -4 1356.61 574.692   1
  -7  -2  -4 297.211 208.125   5
  -8  -2   4 137963. 5656.40   5
  -8   2  -4 146465. 6429.07   1
  -8   2   4 135778. 5342.22   3
  -9   2  -4 1424.63 677.339   1
   9   2  -5 34127.5 3564.09   2
   9   2   5 38351.6 3679.39   2
   9  -2  -5 34558.5 3475.01   2
   8  -2   5 324.505 286.712   2
   8   2  -5 1083.47 713.232   2
   8   2   5-135.534 634.086   2
   7   2  -5 41212.4 3308.09   2
   7   2   5 40195.8 3251.42   2
   7  -2   5 43397.6 2821.13   2
   6  -2   5 310.795 264.002   2
   6   2  -5 636.548 508.734   2
   6   2   5-65.7118 295.777   2
   5   2   5 59589.6 3424.36   2
   5   2  -5 56169.0 3214.47   2
   5  -2   5 57407.5 2588.88   2
   4   2   5 1199.77 478.309   2
   4  -2   5 1756.16 397.419   2
   4   2  -5 1947.55 354.822   1
   4   2  -5 2768.46 659.713   2
   3  -2   5 78979.6 2247.69   2
   3   2  -5 74957.3 3071.16   2
   3   2   5 78569.7 3466.68   2
   3   2   5 74695.3 2692.27   4
   2  -2   5 214.091 88.6750   2
   2   2   5 154.278 157.828   4
   2   2   5 890.432 411.042   2
   2  -2   5 78.5812 114.508   5
   2   2  -5 448.655 251.670   2
   1  -2   5 78399.5 2226.92   5
   1   2  -5 77151.6 2283.48   2
   1   2  -5 76295.7 2397.98   1
   1   2   5 78129.3 2715.75   4
   0   2  -5 1347.32 191.780   2
   0   2   5 916.266 312.141   4
   0  -2   5 1711.92 350.624   5
   0   2  -5 847.757 241.619   5
   0   2  -5 2113.10 400.992   1
  -1   2  -5 79346.4 2262.16   5
  -1  -2   5 83540.6 2740.94   5
  -1   2  -5 76219.8 2777.90   1
  -1   2   5 75893.3 3077.91   4
  -2  -2   5 409.904 224.276   5
  -2   2   5 356.321 363.735   4
  -2   2   5 371.508 267.813   3
  -2   2  -5 281.151 139.553   5
  -2   2  -5 143.715 251.028   1
  -3   2   5 73116.9 2994.84   3
  -3  -2   5 78238.7 3064.40   5
  -3   2   5 73417.5 3655.50   4
  -3   2  -5 79485.5 3265.80   1
  -4   2   5 1518.51 629.816   4
  -4  -2   5 2547.18 591.364   5
  -4   2   5 2044.58 510.111   3
  -4  -2  -5 1896.47 481.175   5
  -4  -2  -5 2793.43 522.535   1
  -4   2  -5 2580.25 648.939   1
  -5  -2  -5 62249.9 2575.28   1
  -5  -2   5 58117.3 3016.63   5
  -5  -2  -5 58424.7 2668.18   5
  -5   2  -5 55737.2 3158.62   1
  -5   2   5 63965.1 3024.15   3
  -5   2   5 54723.9 3679.75   4
  -6   2   5 600.260 672.736   4
  -6   2  -5 739.617 530.572   1
  -6  -2  -5 505.101 325.270   1
  -6   2   5 375.743 334.746   3
  -6  -2  -5 50.2163 165.643   5
  -6  -2   5 424.446 371.777   5
  -7   2   5 44177.6 2800.96   3
  -7  -2   5 46764.3 3029.38   5
  -7   2   5 36716.5 3317.03   4
  -7   2  -5 42487.7 3178.51   1
  -7  -2  -5 44014.1 2480.83   5
  -8   2  -5 953.353 685.106   1
  -8   2   5 1109.55 628.413   3
  -8  -2   5 589.145 692.774   5
  -9  -2   5 32593.3 2923.51   5
  -9   2  -5 34869.8 3277.29   1
   9   2   6-219.469 400.339   2
   9   2  -6 1687.59 916.990   2
   8   2   6 98229.1 5648.16   2
   8  -2   6 101093. 4806.33   2
   8   2  -6 103278. 5930.50   2
   7   2   6 181.219 317.836   2
   7  -2   6 384.263 324.779   2
   7   2  -6-180.136 446.893   2
   6   2   6 129775. 5687.66   2
   6  -2   6 134354. 4651.29   2
   6   2  -6 135927. 5819.49   2
   5   2   6 8187.70 1254.36   2
   5   2  -6 7156.59 1136.21   2
   5  -2   6 8370.74 939.823   2
   4   2   6 202120. 6418.92   2
   4  -2   6 204714. 4826.32   2
   4   2  -6 200672. 4319.25   3
   4   2  -6 200168. 6123.74   2
   3   2   6-27.0447 112.746   4
   3   2  -6 410.313 309.974   2
   3  -2   6 360.748 151.344   2
   3   2   6 575.011 351.047   2
   2   2  -6 264216. 6045.45   2
   2  -2   6 271287. 5567.90   4
   2   2   6 269455. 6115.88   4
   2  -2   6 260642. 5404.64   5
   1   2   6 15636.4 1234.77   4
   1  -2   6 15161.8 981.635   5
   1   2  -6 16433.5 970.899   2
   1   2  -6 13878.7 1048.30   1
   0   2  -6 170133. 4384.40   1
   0  -2   6 165650. 4164.51   5
   0   2  -6 165716. 3113.66   2
   0   2   6 162287. 4789.56   4
  -1   2  -6 13475.2 1155.17   1
  -1  -2   6 14201.4 1132.54   5
  -1   2   6 15686.8 1449.53   4
  -1   2  -6 13325.7 919.370   5
  -2   2  -6 269609. 6649.53   1
  -2   2  -6 270427. 5121.72   5
  -2  -2   6 278383. 6551.61   5
  -2   2   6 259600. 7493.07   4
  -3   2   6 555.383 465.066   4
  -3   2   6-11.7739 139.735   3
  -3  -2   6 333.038 317.625   5
  -3   2  -6 148.851 60.2706   5
  -3   2  -6 246.276 248.516   1
  -4  -2  -6 199990. 5304.79   1
  -4   2   6 202343. 5817.54   3
  -4   2   6 193754. 7054.73   4
  -4  -2   6 202709. 5919.65   5
  -4  -2  -6 192801. 5447.22   5
  -4   2  -6 201608. 6182.74   1
  -5   2   6 8855.97 1485.98   4
  -5  -2  -6 8971.20 1024.32   5
  -5   2  -6 6928.29 1119.95   1
  -5  -2   6 8018.60 1118.34   5
  -5   2   6 7496.16 1051.37   3
  -5  -2  -6 7685.78 940.440   1
  -6  -2  -6 131141. 4405.92   5
  -6  -2   6 131512. 5170.27   5
  -6   2   6 142241. 5124.63   3
  -6   2  -6 130468. 5484.56   1
  -6   2   6 128953. 6292.00   4
  -6  -2  -6 132207. 4479.68   1
  -7   2  -6 392.247 530.929   1
  -7   2   6 1027.60 598.164   4
  -7  -2   6 351.436 412.652   5
  -7   2   6 64.7542 332.048   3
  -8  -2   6 99891.8 5022.49   5
  -8   2   6 105173. 4816.01   3
  -8   2   6 91369.6 5644.59   4
  -8   2  -6 111478. 5683.73   1
  -9  -2   6-69.1474 263.997   5
  -9   2  -6 539.870 468.810   1
   9   2   7 29992.2 3272.12   2
   8   2   7 977.939 545.571   2
   8   2  -7 790.260 614.661   2
   7   2   7 49442.8 3674.72   2
   7  -2   7 44702.5 2824.33   2
   7   2  -7 48083.1 3725.29   2
   6   2   7 453.009 326.322   2
   6   2  -7 437.882 540.527   2
   6  -2   7 347.004 252.056   2
   5  -2   7 61286.4 2662.22   2
   5   2   7 67538.7 3764.29   2
   5   2  -7 70470.4 3781.80   2
   4   2  -7 345.514 184.951   3
   4   2  -7 222.926 244.274   2
   4  -2   7 474.308 223.109   2
   4   2   7 190.863 306.308   2
   3   2   7 110903. 3617.24   4
   3   2   7 117301. 4563.79   2
   3  -2   7 105712. 2103.34   4
   3   2  -7 107526. 3918.77   2
   3  -2   7 111291. 2694.98   2
   2  -2   7 82.3671 156.837   4
   2   2   7 29.3782 133.812   4
   2   2  -7 151.517 155.346   2
   1   2   7 121234. 3977.08   4
   1  -2   7 114501. 3395.20   5
   1   2  -7 120444. 3147.79   2
   0   2   7 429.811 319.963   4
   0  -2   7 1460.27 356.591   5
   0   2  -7 719.012 299.407   1
   0   2  -7 902.683 167.945   2
  -1   2   7 117418. 4510.20   4
  -1  -2   7 118218. 3763.69   5
  -1   2  -7 115245. 3914.23   1
  -2   2   7 408.769 413.912   4
  -2   2  -7-43.0805 149.599   1
  -2   2  -7 141.122 128.144   5
  -2  -2   7 154.401 190.597   5
  -3   2  -7 109048. 2490.83   5
  -3  -2   7 118777. 4157.73   5
  -3   2  -7 110610. 4201.43   1
  -4   2   7-72.9073 221.087   4
  -4   2  -7 1173.14 508.032   1
  -4  -2   7 728.571 419.675   5
  -4   2   7 706.314 430.133   3
  -4  -2  -7 478.624 291.576   1
  -5  -2  -7 65516.6 3008.36   1
  -5   2   7 59584.3 3147.18   3
  -5  -2  -7 58412.5 2841.80   5
  -5  -2   7 68459.3 3493.00   5
  -5   2   7 68988.4 4364.30   4
  -5   2  -7 62441.3 3504.20   1
  -6   2   7 400.076 340.900   4
  -6   2  -7 1401.19 661.673   1
  -6  -2  -7 150.383 204.911   5
  -6   2   7 501.510 423.422   3
  -6  -2   7 452.255 482.383   5
  -6  -2  -7 207.423 230.646   1
  -7   2   7 47653.8 3070.93   3
  -7  -2   7 45760.0 3225.19   5
  -7   2  -7 44427.3 3376.27   1
  -7   2   7 44424.6 3828.85   4
  -8   2   7 648.944 320.609   4
  -8   2  -7 852.439 639.806   1
  -8  -2   7 1868.57 711.642   5
  -9  -2   7 25575.7 2732.94   5
  -9   2  -7 27841.0 3014.38   1
   9   2   8 154.071 414.752   2
   8   2   8 78621.1 5030.82   2
   8   2  -8 81460.2 5450.25   2
   7   2   8 794.668 305.740   2
   7   2  -8 906.865 511.551   2
   6   2   8 124833. 5673.76   2
   6  -2   8 120609. 4356.91   2
   6   2  -8 121857. 5734.07   2
   5  -2   8 1612.58 421.986   2
   5   2  -8 1069.82 590.335   2
   5   2   8 1418.15 550.594   2
   4   2   8 180224. 6373.13   2
   4  -2   8 192775. 4580.27   2
   4   2   8 179925. 5155.00   4
   3   2   8 9388.86 1034.43   4
   3   2  -8 8679.57 1085.15   2
   3  -2   8 8509.21 596.205   4
   2  -2   8 287694. 6579.14   4
   2   2   8 286841. 6952.52   4
   2   2  -8 280353. 6641.96   2
   1   2   8 358.531 278.617   4
   1  -2   8 392.419 219.525   5
   0   2   8 305292. 8037.43   4
   0   2  -8 306520. 7339.74   1
   0   2  -8 315682. 5522.92   2
   0  -2   8 311640. 7126.17   5
  -1   2  -8 0.64985 205.528   1
  -1   2   8 307.605 232.409   4
  -1  -2   8 422.297 271.897   5
  -2   2  -8 286613. 7405.21   1
  -2   2  -8 272236. 5899.43   5
  -2  -2   8 286095. 7147.03   5
  -3   2   8 9220.83 1437.90   4
  -3   2  -8 7732.10 1095.35   1
  -3   2  -8 8430.29 663.285   5
  -3  -2   8 8251.28 1070.13   5
  -4  -2   8 190661. 6142.52   5
  -4  -2  -8 189577. 5779.69   1
  -4   2   8 186773. 7263.46   4
  -4   2  -8 199244. 6458.92   1
  -5   2   8 2929.90 984.696   4
  -5   2  -8 3032.81 790.847   1
  -5  -2  -8 1204.65 420.990   5
  -5  -2   8 1303.39 566.252   5
  -5  -2  -8 1471.84 482.749   1
  -6  -2  -8 119224. 4597.11   1
  -6  -2  -8 115865. 4242.66   5
  -6   2   8 114061. 6143.72   4
  -6   2  -8 122722. 5527.21   1
  -6  -2   8 118381. 5224.60   5
  -7   2   8 2152.04 991.642   4
  -7   2  -8 1757.46 762.992   1
  -7  -2   8 1093.39 452.007   5
  -8   2   8 84028.6 5651.04   4
  -8   2  -8 80539.1 4985.30   1
  -8  -2   8 84458.5 4916.96   5
  -9  -2   8 1566.89 717.454   5
  -9   2  -8 365.710 441.080   1
   9   2   9 19863.4 2715.98   2
   8   2  -9 847.111 763.194   2
   8   2   9 28.4437 407.147   2
   7   2   9 36594.6 3223.83   2
   7   2  -9 42345.2 3695.11   2
   6   2  -9 666.580 519.909   2
   6   2   9 434.686 507.132   2
   5   2   9 34731.9 2768.67   2
   5   2  -9 38319.3 2935.57   2
   4   2  -9 444.632 442.630   2
   4   2   9 12.4204 199.734   4
   4   2   9 616.255 492.142   2
   4  -2   9 37.3521 83.4044   2
   3  -2   9 64534.4 2177.92   4
   3   2  -9 69868.2 3298.17   2
   3   2   9 72465.2 3092.11   4
   2  -2   9 247.355 248.643   4
   2   2   9 234.716 236.002   4
   1   2   9 63608.5 3164.38   4
   1  -2   9 60027.3 2989.41   4
   1  -2   9 65154.0 2829.64   5
   0   2   9 594.029 447.157   4
   0   2  -9 400.121 295.366   1
   0  -2   9 454.242 307.450   5
  -1   2   9 66009.0 3660.79   4
  -1   2  -9 64391.5 3150.22   1
  -1  -2   9 61435.8 2947.84   5
  -2   2   9 454.133 470.722   4
  -2   2  -9 748.821 472.335   1
  -2  -2   9 756.835 443.054   5
  -3   2  -9 72085.8 3623.12   1
  -3   2  -9 63288.4 2256.99   5
  -3  -2   9 68712.6 3391.88   5
  -3   2   9 67090.7 4081.39   4
  -4   2   9-248.532 449.628   4
  -4  -2  -9 270.737 297.456   1
  -4  -2   9 456.600 442.092   5
  -4   2  -9 181.204 368.579   1
  -5  -2  -9 38508.8 2563.14   1
  -5  -2  -9 39873.4 2471.91   5
  -5  -2   9 41275.4 2915.12   5
  -5   2   9 33256.9 3162.04   4
  -5   2  -9 39205.0 2929.53   1
  -6   2   9 162.239 452.554   4
  -6  -2  -9 540.314 451.594   1
  -6  -2  -9 1162.31 421.604   5
  -6  -2   9 51.0765 281.954   5
  -7  -2   9 34623.7 3009.47   5
  -7   2  -9 39366.8 3310.08   1
  -7   2   9 34771.7 3507.63   4
  -8   2   9-71.6042 533.226   4
  -8  -2   9 277.521 605.516   5
  -8   2  -9 787.245 616.162   1
  -9  -2   9 20108.6 2633.95   5
  -9   2  -9 19836.9 2609.06   1
   8   2  10 67148.2 4769.24   2
   8   2 -10 83161.0 5787.96   2
   7   2 -10 1756.49 815.807   2
   7   2  10 1438.35 713.347   2
   6   2  10 106620. 5413.92   2
   6   2 -10 120652. 6000.01   2
   5   2 -10 2316.64 737.978   2
   5   2  10 1567.69 691.529   2
   4   2 -10 158993. 5923.75   2
   4   2  10 160651. 5063.14   4
   3  -2  10 2706.90 466.173   4
   3   2  10 2400.26 586.360   4
   2  -2  10 175960. 5242.14   4
   2   2  10 171603. 5608.04   4
   1   2  10 644.669 557.628   4
   1  -2  10 232.310 291.018   4
   0   2 -10 200440. 6151.81   1
   0   2  10 193974. 6657.98   4
  -1   2  10-52.0500 260.079   4
  -1   2 -10 757.673 440.596   1
  -1  -2  10 966.709 444.228   5
  -2  -2  10 176843. 5808.37   5
  -2   2 -10 171106. 5969.95   1
  -2   2  10 168633. 6688.87   4
  -3   2  10 2380.27 813.611   4
  -3   2 -10 3350.21 812.214   1
  -3  -2  10 2962.68 757.670   5
  -4  -2  10 150330. 5835.05   5
  -4  -2 -10 158871. 5763.90   1
  -4   2  10 166577. 7102.32   4
  -4   2 -10 157796. 6142.53   1
  -5   2  10 1293.14 707.290   4
  -5  -2 -10 1714.61 570.644   5
  -5   2 -10 1112.23 610.631   1
  -5  -2  10 2777.87 836.258   5
  -5  -2 -10 1582.33 625.556   1
  -6  -2 -10 113385. 4979.73   1
  -6  -2  10 113686. 5499.29   5
  -6   2  10 110836. 6218.64   4
  -6   2 -10 116729. 5727.75   1
  -7   2  10 941.996 643.399   4
  -7  -2  10 957.958 598.498   5
  -7   2 -10 514.637 321.212   1
  -8  -2  10 62882.7 4504.14   5
  -8   2 -10 62101.0 4544.50   1
  -8   2  10 56723.5 4776.44   4
   8   2 -11 1492.04 814.538   2
   8   2  11 637.447 411.066   2
   7   2  11 26896.9 2849.74   2
   7   2 -11 35368.1 3521.11   2
   6   2 -11 315.797 403.533   2
   6   2  11 62.9832 313.628   2
   5   2 -11 31554.0 2830.52   2
   4   2  11 531.138 314.348   4
   4   2 -11 453.617 356.302   2
   3   2  11 50153.8 2850.40   4
   3  -2  11 47283.0 2259.14   4
   2  -2  11 1034.45 380.137   4
   2   2  11-13.3804 206.218   4
   1  -2  11 38295.1 2584.09   4
   1   2  11 38323.6 2727.39   4
   0   2 -11 344.696 363.559   1
   0   2  11 652.371 449.533   4
   0  -2  11 380.856 303.774   5
   0  -2  11 252.303 215.839   4
  -1   2 -11 33985.4 2516.09   1
  -1  -2  11 41801.6 2670.24   5
  -1   2  11 38973.1 3007.16   4
  -2   2  11 504.948 401.655   4
  -2  -2  11 177.884 240.554   5
  -2   2 -11 325.140 411.221   1
  -3   2 -11 49230.4 3305.95   1
  -3  -2  11 53760.6 3321.30   5
  -3   2  11 51117.9 3725.58   4
  -4   2  11 220.364 541.028   4
  -4   2 -11 43.1873 273.603   1
  -4  -2  11 1052.58 557.951   5
  -4  -2 -11 1024.63 478.125   1
  -5  -2 -11 32732.6 2654.88   1
  -5  -2  11 31583.7 2793.76   5
  -5   2  11 27405.5 2991.07   4
  -5   2 -11 31112.6 2813.84   1
  -6   2  11 1198.60 750.099   4
  -6   2 -11 875.953 639.737   1
  -6  -2  11 1908.59 863.955   5
  -6  -2 -11 493.797 375.047   1
  -7  -2  11 32150.0 3135.33   5
  -7   2  11 31208.7 3444.20   4
  -7   2 -11 37431.9 3426.26   1
  -8   2  11 85.0760 524.624   4
  -8   2 -11 567.408 506.160   1
  -8  -2  11 1247.64 703.212   5
   7   2 -12 525.339 533.390   2
   7   2  12 962.928 719.787   2
   6   2 -12 73982.5 4941.37   2
   5   2 -12 1393.57 644.803   2
   5   2  12 516.148 306.864   4
   4   2 -12 100051. 4889.24   2
   4   2  12 98575.2 4203.88   4
   3   2  12 904.590 463.174   4
   2  -2  12 101161. 4081.80   4
   2   2  12 96497.7 4483.21   4
   1  -2  12 46.7439 199.784   4
   1   2  12 254.436 285.213   4
   0   2 -12 146991. 5589.52   1
   0  -2  12 153838. 6111.94   4
   0   2  12 143998. 6043.31   4
  -1   2  12 517.698 382.158   4
  -1   2 -12 1221.94 688.479   1
  -1  -2  12 432.962 330.010   5
  -2   2 -12 99922.9 4807.92   1
  -2  -2  12 96373.9 4605.05   5
  -2   2  12 105397. 5344.01   4
  -3   2  12 864.776 533.277   4
  -3   2 -12 1659.99 674.540   1
  -3  -2  12 1080.11 504.252   5
  -4   2 -12 100743. 5180.40   1
  -4  -2  12 94646.5 4944.38   5
  -4  -2 -12 94804.3 4788.35   1
  -4   2  12 101056. 5654.32   4
  -5   2  12 1216.42 757.006   4
  -5  -2  12 881.453 327.423   5
  -5  -2 -12 2375.58 750.931   1
  -5   2 -12 1594.49 668.131   1
  -6  -2 -12 75180.6 4448.86   1
  -6   2  12 77340.3 5322.53   4
  -6  -2  12 73159.4 4779.45   5
  -6   2 -12 84328.6 5135.16   1
  -7   2  12-268.628 735.491   4
  -7   2 -12 517.800 595.358   1
  -7  -2  12-44.6815 323.531   5
  -8   2  12 40149.2 4127.48   4
   7   2 -13 27451.1 3294.48   2
   6   2 -13 375.676 426.315   2
   5   2 -13 30604.5 2942.31   2
   4   2  13 1888.73 665.646   4
   4   2 -13 1294.89 575.518   2
   3   2  13 55376.1 3372.04   4
   2  -2  13 1806.71 549.975   4
   2   2  13 2236.10 766.180   4
   1  -2  13 66181.9 3635.66   4
   1   2  13 50838.3 3469.16   4
   0  -2  13 912.272 484.503   4
   0   2 -13-134.351 242.549   1
   0   2  13 435.919 564.614   4
  -1   2 -13 53984.2 3490.38   1
  -1  -2  13 58308.5 4032.37   4
  -1   2  13 59302.7 3943.90   4
  -2   2  13 1657.17 765.528   4
  -2  -2  13 1093.46 562.645   5
  -2   2 -13 1278.49 547.964   1
  -3   2 -13 55936.9 3876.32   1
  -3  -2  13 57306.5 3809.68   5
  -3   2  13 62311.3 4318.24   4
  -4   2  13 1396.29 738.455   4
  -4   2 -13 816.580 432.551   1
  -4  -2  13 284.566 347.919   5
  -4  -2 -13 795.189 412.502   1
  -5  -2 -13 29706.3 2793.75   1
  -5  -2  13 29893.1 2972.07   5
  -5   2  13 33787.6 3373.07   4
  -5   2 -13 34930.6 3240.13   1
  -6   2  13 811.598 691.759   4
  -6  -2 -13 408.424 413.259   1
  -6  -2  13 209.549 435.381   5
  -6   2 -13 1332.11 702.385   1
  -7  -2  13 27651.1 3138.04   5
  -7   2  13 27962.8 3335.25   4
  -7   2 -13 26870.7 3093.26   1
   7   2 -14 691.738 612.991   2
   6   2 -14 66369.6 4899.95   2
   5   2 -14 1027.45 524.892   2
   4   2  14 86583.3 4337.17   4
   4   2 -14 96239.8 4979.76   2
   3   2  14 300.073 266.714   4
   2  -2  14 84626.5 3968.19   4
   2   2  14 76236.4 4321.81   4
   1  -2  14 1088.73 531.415   4
   1   2  14 1011.79 612.504   4
   0   2 -14 133189. 5707.99   1
   0   2  14 124384. 5888.41   4
   0  -2  14 129903. 5908.22   4
  -1   2  14 344.009 484.326   4
  -1   2 -14 152.688 334.741   1
  -1  -2  14 343.708 367.473   4
  -2   2 -14 78303.7 4578.76   1
  -2  -2  14 84329.1 5264.18   4
  -2   2  14 83037.2 4939.57   4
  -3   2  14 152.044 540.862   4
  -3   2 -14-445.061 531.839   1
  -3  -2  14-211.784 584.059   5
  -4   2 -14 83735.7 5128.86   1
  -4  -2 -14 87146.3 4947.07   1
  -4  -2  14 90868.7 5239.82   5
  -4   2  14 84518.9 5367.53   4
  -5   2  14 1177.36 777.808   4
  -5  -2 -14 1735.39 740.207   1
  -5  -2  14 885.912 639.632   5
  -5   2 -14 508.180 259.196   1
  -6  -2 -14 65644.5 4567.13   1
  -6  -2  14 73079.7 5073.15   5
  -6   2  14 61718.0 4905.63   4
  -6   2 -14 60165.5 4692.06   1
   7   2 -15 21287.7 2975.02   2
   6   2 -15-369.370 456.221   2
   5   2 -15 19401.7 2422.54   2
   4   2  15 280.457 299.418   4
   3   2  15 20346.5 2214.00   4
   2   2  15-219.345 490.678   4
   1   2 -15 26495.6 2462.30   1
   1  -2  15 22567.2 2209.86   4
   1   2  15 21677.2 2381.54   4
   0  -2  15-146.504 453.921   4
   0   2  15 509.987 409.910   4
  -1   2 -15 22465.9 2442.50   1
  -1  -2  15 24360.6 2755.06   4
  -1   2  15 22760.5 2541.18   4
  -2   2 -15 62.0192 349.801   1
  -2   2  15-273.514 387.065   4
  -2  -2  15 749.309 551.640   4
  -3   2 -15 22372.6 2593.37   1
  -3   2  15 26079.6 2871.59   4
  -3  -2  15 19964.0 2730.69   4
  -4   2  15-703.463 550.628   4
  -4   2 -15-575.657 506.564   1
  -4  -2 -15 235.596 363.010   1
  -5   2  15 16794.2 2453.82   4
  -5  -2 -15 15449.0 2173.28   1
  -5  -2  15 16594.7 2384.60   5
  -5   2 -15 17360.7 2474.38   1
  -5  -2  15 18198.2 2854.39   4
  -6   2  15 868.960 643.816   4
  -6  -2 -15-119.836 298.994   1
  -6   2 -15-6.01506 325.745   1
   3   2  16 95.9636 372.285   4
   2   2  16 48355.7 3617.78   4
   1  -2  16 206.426 393.107   4
   1   2  16-89.3651 418.791   4
   1   2 -16-188.266 322.109   1
   0   2  16 75841.7 4758.33   4
   0  -2  16 86396.8 4924.39   4
   0   2 -16 86390.5 4892.41   1
  -1  -2  16 44.1467 279.835   4
  -1   2  16 263.450 404.931   4
  -1   2 -16-82.1634 307.247   1
  -2   2 -16 50458.3 3938.69   1
  -2  -2  16 44699.9 4044.07   4
  -2   2  16 54494.0 4153.57   4
  -3   2  16 596.575 625.304   4
  -3   2 -16 686.647 589.420   1
  -3  -2  16 205.875 602.066   4
  -4   2 -16 49700.3 4234.24   1
  -4   2  16 51975.6 4335.16   4
  -4  -2 -16 59834.3 4288.90   1
  -4  -2  16 47581.9 4613.88   4
  -5   2 -16 130.642 402.539   1
  -5   2  16 735.329 566.695   4
  -5  -2 -16-576.939 492.763   1
  -6  -2 -16 37302.0 3657.74   1
   3   2  17 18528.0 2260.78   4
   2   2  17-306.763 379.464   4
   1   2 -17 24793.1 2602.43   1
   1  -2  17 28209.1 2602.73   4
   1   2  17 23713.6 2602.70   4
   0  -2  17 772.107 485.492   4
   0   2  17 414.855 468.863   4
   0   2 -17-264.498 276.316   1
  -1  -2  17 20212.6 2592.32   4
  -1   2 -17 24420.7 2732.37   1
  -1   2  17 25942.1 2834.15   4
  -2  -2  17-423.168 490.840   4
  -2   2  17 546.616 497.959   4
  -2   2 -17 772.190 650.218   1
  -3  -2  17 17790.4 2741.18   4
  -3   2  17 18815.0 2528.99   4
  -3   2 -17 18411.7 2541.61   1
  -4   2  17-314.627 436.941   4
  -4   2 -17-814.120 608.675   1
  -4  -2 -17-1009.79 625.606   1
  -4  -2  17 444.859 382.952   4
  -5  -2 -17 17249.9 2429.57   1
   2   2 -18 38066.2 3254.64   1
   2   2  18 33219.5 3146.98   4
   1   2 -18-200.907 336.451   1
   1   2  18-763.287 530.016   4
   0   2 -18 62234.9 4390.85   1
   0  -2  18 60862.2 4228.54   4
   0   2  18 53367.5 4141.22   4
  -1   2  18 411.772 457.357   4
  -1   2 -18 1505.66 859.857   1
  -2  -2  18 35908.6 3713.96   4
  -2   2 -18 39218.7 3687.86   1
  -2   2  18 33162.4 3372.13   4
  -3  -2  18 69.0298 402.877   4
  -3   2  18 1066.97 771.985   4
  -3   2 -18 468.962 634.552   1
  -3  -2 -18-1184.64 668.360   1
   2   2  19 1353.91 696.404   4
   2   2 -19 120.830 316.799   1
   1   2  19 19228.4 2427.63   4
   1   2 -19 20718.9 2528.25   1
   0  -2  19-140.250 302.958   4
   0   2  19 507.739 631.683   4
   0   2 -19 804.403 692.896   1
  -1  -2  19 19677.9 2567.81   4
  -1   2  19 19082.9 2530.18   4
  -1   2 -19 23929.3 2866.09   1
  -2  -2  19-199.988 437.601   4
   1   2  20 457.249 452.803   4
   0   2  20 35033.1 3425.22   4
  -1  -2  20 411.553 475.410   4
   9   3   0 284.060 574.362   2
   9  -3   0 2299.54 917.415   2
   8   3   0 36665.0 3436.44   2
   8  -3   0 43711.5 3313.47   2
   7   3   0 393.681 633.123   2
   6   3   0 47823.1 3351.06   2
   5  -3   0 285.938 153.661   5
   5   3   0 1634.19 659.156   2
   4   3   0 80020.0 3736.50   2
   4  -3   0 72617.5 2525.26   5
   3  -3   0 230.082 281.770   4
   3   3   0-32.9434 266.864   2
   2  -3   0 63759.3 2273.28   4
   2   3   0 68518.2 1770.53   3
   2   3   0 67993.8 2962.40   2
   1  -3   0-14.3529 92.6440   4
   1   3   0 70.8223 82.5455   3
   1   3   0 211.345 185.192   2
   0  -3   0 92576.4 2727.78   1
   0   3   0 87074.0 2784.97   1
   0  -3   0 87875.4 2827.97   5
   0  -3   0 96073.2 3188.98   2
  -1   3   0 257.230 147.211   4
  -1  -3   0 162.636 205.399   5
  -1   3   0-7.29361 141.679   1
  -1  -3   0 83.8200 97.4959   1
  -2  -3   0 66917.6 1553.98   1
  -2   3   0 66930.8 2818.80   1
  -2  -3   0 66275.6 2637.18   5
  -2   3   0 65938.6 2064.36   4
  -3   3   0 297.600 179.122   4
  -3  -3   0-1.61764 177.269   5
  -3   3   0 16.8680 225.190   1
  -4   3   0 78732.0 3590.17   1
  -4  -3   0 81611.7 3266.33   5
  -4   3   0 74402.7 2367.10   4
  -5   3   0 150.930 121.993   4
  -5  -3   0 583.699 375.317   5
  -5   3   0 164.330 228.785   1
  -6   3   0 44877.4 3128.73   1
  -6  -3   0 44570.3 2659.73   5
  -7  -3   0 1002.67 520.058   5
  -7   3   0 456.208 528.064   1
  -8   3   0 40472.7 3417.45   1
  -8  -3   0 46647.7 3061.36   5
  -9   3   0 324.232 321.195   3
   9  -3  -1 78010.9 4945.94   2
   9   3   1 79693.9 5490.92   2
   9   3  -1 84731.2 5652.15   2
   9  -3   1 84152.6 4973.43   2
   8   3   1 956.700 913.571   2
   8   3  -1 1230.84 648.254   2
   8  -3   1 297.598 395.076   2
   7   3   1 176085. 7291.73   2
   7   3  -1 167958. 7116.36   2
   6   3   1 688.203 576.659   2
   6   3  -1 466.139 463.200   2
   5   3   1 154218. 5908.25   2
   5   3  -1 152631. 5748.68   2
   4   3   1 315.975 281.321   2
   4   3  -1 568.912 332.398   2
   4  -3  -1 121.309 195.592   5
   4  -3   1 274.374 152.005   5
   3   3   1 488365. 10760.1   2
   3   3  -1 487739. 10554.7   2
   3  -3   1 482478. 9422.22   4
   2   3   1 1025.74 394.799   2
   2   3  -1 607.719 275.920   2
   2  -3   1 902.089 237.201   4
   2   3  -1 1219.77 182.634   3
   2  -3   1 810.500 204.163   5
   1  -3   1 340487. 6584.94   5
   1   3   1 332662. 7758.63   2
   1   3   1 337304. 6357.59   3
   1   3  -1 346366. 6279.04   1
   1  -3   1 350469. 6490.92   4
   1   3  -1 336013. 7455.45   2
   0  -3   1 268.336 158.211   2
   0   3   1 396.139 193.228   4
   0  -3   1 430.912 192.986   5
   0  -3   1 383.795 169.918   1
   0  -3  -1 464.854 215.742   1
   0   3  -1 456.933 209.472   1
   0   3   1 264.836 148.897   3
  -1   3   1 334922. 6622.06   4
  -1  -3   1 336215. 7001.71   5
  -1   3   1 340829. 7404.44   1
  -1  -3  -1 342483. 7254.61   5
  -1  -3  -1 335095. 6411.60   1
  -1  -3   1 349124. 6067.97   1
  -1   3  -1 338784. 7159.26   1
  -2   3   1 1305.66 294.687   4
  -2   3  -1 1199.47 230.985   4
  -2  -3  -1 1786.80 260.912   1
  -2  -3   1 1660.33 404.893   5
  -2   3   1 1616.13 464.942   1
  -2  -3   1 1279.88 148.233   1
  -2   3  -1 1199.33 382.633   1
  -2  -3  -1 1544.46 403.292   5
  -3  -3  -1 468015. 7352.71   1
  -3  -3  -1 476330. 9731.54   5
  -3   3  -1 457253. 10196.8   1
  -3  -3   1 484976. 9750.44   5
  -3   3   1 468998. 10431.4   1
  -3   3   1 464336. 8790.22   4
  -3   3  -1 483871. 8031.40   4
  -4   3   1 54.5641 132.708   4
  -4   3  -1 405.188 148.765   4
  -4  -3   1-125.724 174.181   5
  -4   3   1 92.4261 230.725   1
  -4  -3  -1 22.8187 210.275   5
  -4   3  -1 420.528 333.803   1
  -5  -3  -1 141680. 4762.79   5
  -5   3  -1 147291. 5436.86   1
  -5  -3   1 143078. 4859.49   5
  -5  -3  -1 139774. 2609.95   1
  -5   3   1 144166. 4025.66   4
  -5   3  -1 148040. 3297.56   4
  -5   3   1 143878. 5503.34   1
  -6   3   1 680.577 304.019   4
  -6   3   1-212.211 206.070   1
  -6  -3  -1 470.861 385.535   5
  -6  -3   1 578.564 335.743   5
  -6   3  -1-71.2242 364.953   1
  -7  -3   1 171717. 6046.13   5
  -7  -3  -1 175815. 5991.19   5
  -7   3   1 180305. 7070.18   1
  -7   3  -1 179901. 7007.91   1
  -8  -3   1-72.5944 241.529   5
  -8   3  -1-121.668 504.025   1
  -8   3   1-250.064 292.620   3
  -8  -3  -1 459.055 334.594   5
  -9   3   1 82127.1 4453.52   3
  -9   3  -1 88241.8 5442.91   1
   9   3   2 1209.32 716.109   2
   9   3  -2 1194.41 938.342   2
   9  -3   2 584.016 503.460   2
   9  -3  -2 627.786 485.561   2
   8   3   2 50504.4 4072.32   2
   8   3  -2 49913.0 4012.57   2
   8  -3   2 52575.8 3548.15   2
   7   3   2-174.038 311.896   2
   7   3  -2 13.9598 251.559   2
   6   3   2 61040.6 3873.38   2
   6   3  -2 60520.2 3753.41   2
   5   3   2 1032.77 584.007   2
   5   3  -2 637.746 416.966   2
   4  -3   2 109601. 2147.65   5
   4  -3   2 114860. 2125.45   5
   4   3   2 123969. 4872.18   2
   4   3  -2 124298. 4633.60   2
   3  -3   2 329.916 191.563   4
   3   3   2 499.588 344.634   2
   3   3  -2 429.742 354.634   2
   3  -3   2 426.305 132.439   5
   2  -3   2 132849. 3009.53   5
   2   3  -2 130591. 2540.57   1
   2   3   2 128112. 4482.97   2
   2   3  -2 127554. 4115.35   2
   2  -3   2 128534. 3033.26   4
   1   3  -2 3100.93 532.214   2
   1  -3   2 2555.35 359.312   4
   1   3   2 2725.56 471.649   4
   1   3   2 3170.55 444.230   3
   1  -3   2 2742.16 394.604   5
   1   3  -2 2819.24 364.204   1
   0  -3   2 151622. 3805.19   2
   0  -3   2 154213. 3844.86   5
   0  -3  -2 152701. 4083.25   1
   0   3   2 143414. 3791.57   3
   0   3  -2 153058. 3805.99   1
   0   3   2 154025. 3930.35   4
   0  -3   2 156139. 3722.02   1
  -1  -3   2 3077.07 494.033   2
  -1   3   2 3301.52 496.558   4
  -1   3   2 3231.95 511.126   3
  -1  -3   2 2650.06 328.209   1
  -1  -3   2 3332.46 535.194   5
  -1   3  -2 2507.61 465.061   1
  -2  -3   2 128438. 3878.96   5
  -2   3   2 125018. 3822.79   3
  -2  -3  -2 130634. 4019.07   5
  -2  -3  -2 131486. 3016.15   3
  -2   3   2 124138. 3540.39   4
  -2   3  -2 124484. 4020.98   1
  -3   3   2 324.319 260.523   4
  -3  -3  -2 477.678 151.369   3
  -3  -3   2 821.563 367.040   5
  -3  -3  -2 443.205 274.041   5
  -3   3   2 1042.12 486.106   1
  -3   3  -2 634.897 327.943   1
  -4   3   2 119530. 3716.58   4
  -4   3   2 116942. 4652.09   1
  -4  -3  -2 118147. 4079.33   5
  -4  -3  -2 116963. 2547.29   3
  -4   3  -2 112566. 2339.09   4
  -4  -3   2 103340. 3920.27   5
  -4   3  -2 118097. 4541.18   1
  -4  -3  -2 122141. 2626.05   1
  -5  -3  -2 436.785 141.332   1
  -5   3   2 1586.48 458.413   4
  -5   3  -2 654.030 127.453   4
  -5   3   2 841.263 385.559   3
  -5   3   2 561.620 370.117   1
  -5  -3  -2 822.033 394.830   5
  -5  -3   2 329.666 305.002   5
  -5   3  -2 1125.89 570.155   1
  -6  -3  -2 61842.7 3138.81   5
  -6   3   2 56222.1 3109.24   3
  -6  -3   2 65304.7 3329.32   5
  -6   3  -2 62676.3 3709.72   1
  -6   3   2 59788.9 2831.41   4
  -7  -3  -2 588.584 341.528   5
  -7  -3   2 620.538 557.562   5
  -7   3   2 395.609 371.543   3
  -7   3  -2 859.927 641.735   1
  -8  -3   2 47186.3 3197.40   5
  -8   3  -2 49380.8 3770.83   1
  -8  -3  -2 48991.5 3068.65   5
  -8   3   2 42620.8 3014.42   3
  -9   3  -2 234.884 509.676   1
  -9   3   2 791.882 525.233   3
   9   3   3 81154.9 5596.97   2
   9   3  -3 87530.5 5797.28   2
   9  -3   3 79451.1 4746.56   2
   9  -3  -3 76894.9 5054.97   2
   8   3   3 565.328 696.371   2
   8  -3   3 540.708 369.348   2
   8   3  -3 1546.02 835.345   2
   7   3   3 152521. 6875.07   2
   7   3  -3 164388. 6956.85   2
   7  -3   3 159889. 5854.54   2
   6   3   3 775.417 556.835   2
   6   3  -3 523.310 445.664   2
   6  -3   3 11.7347 226.111   2
   5   3   3 136196. 5642.38   2
   5   3  -3 140465. 5449.72   2
   4   3   3 21.3969 264.038   2
   4   3  -3 290.118 242.341   2
   3  -3   3 382730. 6235.74   5
   3   3   3 388636. 9400.68   2
   3   3  -3 388385. 8801.39   2
   3  -3   3 379186. 6820.85   4
   2   3  -3-71.6161 131.926   2
   2   3  -3 65.8377 66.3093   1
   2  -3   3 10.2829 77.7124   4
   2  -3   3-7.30964 73.6066   5
   2   3   3 176.063 299.504   2
   1  -3   3 282460. 5453.71   2
   1   3  -3 281831. 6216.70   2
   1  -3   3 275600. 5520.37   5
   1   3  -3 281567. 5417.23   1
   1   3   3 265768. 6088.70   4
   1  -3   3 277591. 5345.45   4
   0  -3   3 14523.2 981.440   1
   0   3   3 13787.7 1064.92   3
   0  -3   3 16918.7 1090.08   5
   0  -3   3 16662.6 962.476   2
   0   3  -3 16843.1 1092.35   1
   0   3   3 16685.9 1170.10   4
  -1  -3   3 276400. 5285.12   1
  -1  -3   3 275981. 6118.55   5
  -1   3  -3 271410. 5644.02   5
  -1   3   3 275636. 6240.25   3
  -1  -3  -3 274073. 5752.57   3
  -1  -3   3 280828. 5824.32   2
  -1   3  -3 277954. 6304.93   1
  -1   3   3 278902. 6164.88   4
  -2   3   3 132.851 213.684   4
  -2   3  -3 97.7180 264.427   1
  -2  -3   3 132.994 150.117   5
  -2  -3  -3 3.43064 70.3361   3
  -2   3   3 153.088 192.935   3
  -2  -3  -3-83.0270 183.020   5
  -3   3   3 393320. 8620.22   3
  -3  -3  -3 395012. 8655.97   5
  -3   3  -3 400666. 9061.58   1
  -3  -3  -3 383762. 7170.83   3
  -3   3   3 385135. 8375.32   4
  -4   3   3 465.576 354.827   4
  -4  -3   3 649.240 329.590   5
  -4  -3  -3 435.641 142.529   1
  -4  -3  -3 517.102 349.991   5
  -4   3   3 846.517 386.113   3
  -4  -3  -3 508.859 140.607   3
  -4   3  -3 746.835 386.598   1
  -5  -3  -3 135770. 4626.94   5
  -5   3   3 139407. 4834.42   3
  -5  -3   3 135374. 4823.42   5
  -5   3  -3 130770. 5187.02   1
  -5   3   3 136520. 4740.01   4
  -5  -3  -3 135485. 3355.36   1
  -6   3   3 222.897 369.837   4
  -6  -3   3 191.626 330.353   5
  -6   3   3 421.435 412.858   3
  -6  -3  -3 558.596 348.231   5
  -6   3  -3 758.842 496.076   1
  -7  -3   3 151410. 5754.63   5
  -7   3  -3 158858. 6598.42   1
  -7  -3  -3 152507. 5439.10   5
  -7   3   3 156760. 5746.48   3
  -8  -3  -3 653.706 369.792   5
  -8   3  -3 321.293 469.977   1
  -8  -3   3 1590.48 602.378   5
  -8   3   3 351.780 383.635   3
  -9   3   3 71689.5 4196.79   3
  -9   3  -3 81130.5 5262.88   1
  -9  -3   3 73790.1 4352.52   5
   9   3   4 115.603 362.956   2
   8   3   4 38152.8 3583.97   2
   8   3  -4 36055.5 3422.94   2
   8  -3   4 37605.0 2880.62   2
   7   3   4 1346.87 833.365   2
   7   3  -4 1375.82 749.001   2
   7  -3   4 353.130 390.928   2
   6   3   4 35954.1 3011.05   2
   6   3  -4 38614.8 3015.09   2
   6  -3   4 40815.8 2455.67   2
   5   3   4 305.515 344.726   2
   5   3  -4-109.966 244.578   2
   5  -3   4 468.914 275.107   2
   4   3   4 70370.2 3702.47   2
   4   3  -4 71867.7 3473.70   2
   3  -3   4 818.950 159.997   4
   3   3  -4 874.945 413.891   2
   3  -3   4 822.794 139.140   5
   3   3  -4 826.182 140.949   1
   3   3   4 1559.79 579.812   2
   2  -3   4 84877.0 2218.89   5
   2   3   4 77394.3 3606.99   2
   2   3  -4 82338.4 3083.75   2
   2  -3   4 83754.6 2101.40   4
   2   3  -4 82711.8 2152.00   1
   2   3   4 82880.6 2985.70   4
   1  -3   4 120.206 88.0987   2
   1   3  -4 409.080 214.723   2
   1   3   4-106.957 241.711   4
   1  -3   4 139.755 137.205   5
   1   3  -4 165.516 122.113   1
   0   3   4 96682.8 3231.79   3
   0  -3   4 98837.6 2971.42   5
   0  -3   4 97764.9 2451.50   2
   0   3  -4 98785.5 3023.51   1
   0   3   4 100484. 3299.85   4
  -1   3  -4 25.9107 129.392   5
  -1   3   4 325.219 249.593   4
  -1  -3   4 178.257 133.392   2
  -1   3  -4 366.909 259.777   1
  -1   3   4 478.355 298.913   3
  -1  -3   4 83.8668 183.274   5
  -2  -3   4 84042.5 3107.68   5
  -2   3   4 83265.3 3183.91   3
  -2   3  -4 82482.4 3256.27   1
  -2   3   4 83403.8 3197.11   4
  -3   3   4 964.705 422.579   4
  -3   3   4 925.877 447.895   3
  -3   3  -4 1634.45 531.256   1
  -3  -3  -4 679.161 237.234   3
  -3  -3  -4 1792.66 513.555   5
  -3  -3   4 969.944 339.987   5
  -4  -3  -4 71955.7 2373.91   1
  -4  -3  -4 70562.9 3139.98   5
  -4   3   4 68696.2 3155.45   3
  -4  -3   4 73098.3 3254.93   5
  -4   3  -4 70403.8 3483.68   1
  -4   3   4 67537.4 3230.72   4
  -5   3   4 511.626 415.032   4
  -5   3   4 74.8116 294.359   3
  -5  -3  -4 687.262 398.157   5
  -5  -3   4 434.089 370.610   5
  -5  -3  -4 352.121 167.592   1
  -5   3  -4-125.480 225.265   1
  -6   3   4 40761.5 2678.09   3
  -6  -3  -4 37389.1 2426.88   5
  -6  -3   4 38433.4 2630.61   5
  -6   3  -4 42497.0 3083.48   1
  -6   3   4 45368.5 2957.36   4
  -7   3   4 189.474 370.837   3
  -7  -3  -4 1300.18 532.019   5
  -7  -3   4 1176.58 593.987   5
  -7   3  -4 578.185 624.440   1
  -7   3   4 1066.33 559.278   4
  -8  -3   4 40064.1 3050.82   5
  -8   3   4 34836.7 2749.08   3
  -8   3  -4 39201.5 3396.47   1
  -9   3  -4 586.136 563.488   1
  -9  -3   4 1263.16 593.174   5
   9   3   5 79080.9 5591.08   2
   8   3   5 2125.35 871.257   2
   8   3  -5 1568.84 695.767   2
   7   3   5 141645. 6708.93   2
   7   3  -5 146400. 6654.77   2
   7  -3   5 144309. 5316.94   2
   6   3  -5 512.272 429.652   2
   6  -3   5 67.2088 264.335   2
   5   3   5 165024. 6365.20   2
   5   3  -5 158891. 5974.43   2
   5  -3   5 155050. 4554.35   2
   4   3   5-63.1198 221.999   2
   4   3  -5 4.18946 169.387   2
   4  -3   5 106.680 124.053   2
   4   3  -5 89.4132 69.4933   1
   4   3  -5 138.721 71.4640   1
   3   3  -5 362372. 6396.22   1
   3  -3   5 365847. 6088.76   5
   3   3   5 384245. 9574.22   2
   3   3  -5 368112. 8566.90   2
   2   3  -5 5349.38 534.578   1
   2   3  -5 4833.63 689.106   2
   2   3   5 6448.22 803.287   4
   2  -3   5 4859.77 484.014   5
   2  -3   5 4753.91 426.022   4
   1   3  -5 349489. 6796.18   1
   1  -3   5 342622. 6676.46   5
   1   3  -5 332849. 6968.35   2
   1  -3   5 336958. 5407.16   2
   1   3   5 340088. 7510.25   4
   0   3   5 2483.41 526.322   4
   0  -3   5 2121.73 275.964   2
   0   3  -5 2577.42 471.712   1
   0  -3   5 1194.97 292.982   5
   0   3  -5 2032.78 337.916   2
  -1   3  -5 335697. 6689.98   5
  -1   3   5 335858. 7661.49   3
  -1  -3   5 343640. 7348.60   5
  -1   3   5 345363. 7806.83   4
  -1   3  -5 333482. 7522.50   1
  -2   3   5 5103.86 827.160   4
  -2   3  -5 5332.53 814.819   1
  -2   3  -5 5428.72 542.023   5
  -2   3   5 5235.17 791.613   3
  -2  -3   5 5124.91 749.424   5
  -3   3   5 376098. 9011.94   4
  -3   3   5 380955. 8705.25   3
  -3  -3   5 374518. 8529.03   5
  -3   3  -5 372950. 8894.35   1
  -4   3   5 708.531 446.781   4
  -4  -3  -5 172.796 146.413   1
  -4   3  -5 80.7415 194.765   1
  -4   3   5-302.864 262.305   3
  -4  -3  -5 572.809 331.850   5
  -4  -3   5-382.181 338.757   5
  -5  -3  -5 157983. 4328.97   1
  -5   3   5 156430. 5477.42   3
  -5  -3  -5 160775. 5244.88   5
  -5  -3   5 159962. 5500.96   5
  -5   3  -5 159030. 5927.68   1
  -5   3   5 162209. 6030.08   4
  -6   3   5 334.447 368.707   4
  -6   3   5 723.586 409.305   3
  -6  -3  -5 188.412 213.268   5
  -6  -3   5 270.952 415.171   5
  -6   3  -5 637.810 415.919   1
  -7   3   5 139835. 5624.99   3
  -7  -3   5 142638. 5772.34   5
  -7   3  -5 141913. 6343.07   1
  -7   3   5 138994. 6026.24   4
  -7  -3  -5 141025. 5184.11   5
  -8   3   5 704.301 411.908   3
  -8  -3   5 1068.62 584.829   5
  -8   3  -5 2376.17 872.451   1
  -9   3  -5 73966.5 5071.80   1
  -9  -3   5 74723.9 4606.17   5
   8   3   6 38461.3 3634.57   2
   8   3  -6 34356.9 3446.65   2
   7   3   6 1883.66 929.664   2
   7   3  -6 622.093 482.117   2
   6   3   6 49182.2 3595.82   2
   6   3  -6 42440.7 3270.99   2
   6  -3   6 46675.6 2515.95   2
   5   3   6 198.126 441.625   2
   5   3  -6 323.674 417.001   2
   5  -3   6 94.5900 140.101   2
   4   3  -6 71082.2 2056.44   1
   4   3   6 71425.4 3893.75   2
   4   3  -6 73004.7 3580.88   2
   4  -3   6 70943.8 2379.30   2
   3   3  -6 1288.26 457.058   2
   3  -3   6 1145.01 209.015   2
   3   3   6 1704.21 477.906   4
   3   3  -6 1611.35 295.814   1
   3  -3   6 1043.03 203.530   5
   3   3   6 1878.37 638.386   2
   2   3  -6 83816.5 2601.47   1
   2   3  -6 82327.3 3075.57   2
   2  -3   6 82950.8 2421.69   5
   2   3   6 84515.1 3226.98   4
   1   3  -6 717.226 251.248   2
   1   3   6 559.719 224.081   4
   1   3  -6 487.657 202.284   1
   1  -3   6 649.359 224.559   5
   0   3  -6 67290.9 2634.16   1
   0   3   6 62423.5 2835.85   4
   0   3  -6 63470.4 1918.43   2
   0  -3   6 68593.6 2535.67   5
  -1   3   6 308.361 255.018   4
  -1  -3   6 527.165 292.191   5
  -1   3  -6 256.690 230.635   1
  -2   3  -6 82018.1 2413.35   5
  -2   3   6 83564.7 3449.20   3
  -2  -3   6 81930.2 3246.11   5
  -2   3   6 84951.9 3738.96   4
  -2   3  -6 80889.2 3409.93   1
  -3   3   6 848.298 474.929   4
  -3   3   6 1104.62 404.409   3
  -3   3  -6 1261.72 479.938   1
  -3  -3   6 1398.87 508.267   5
  -4  -3   6 70399.1 3362.99   5
  -4   3   6 72318.0 3462.03   3
  -4  -3  -6 73425.6 3372.84   5
  -4   3  -6 69398.4 3597.82   1
  -4   3   6 66010.3 3728.98   4
  -4  -3  -6 76523.4 2961.04   1
  -5   3   6 659.208 623.777   4
  -5   3  -6 877.529 522.532   1
  -5   3   6 211.484 374.797   3
  -5  -3  -6-50.2349 275.825   5
  -5  -3  -6 346.965 283.044   1
  -5  -3   6 221.109 341.036   5
  -6   3   6 43259.4 2897.07   3
  -6  -3  -6 45355.1 2705.07   5
  -6   3   6 40689.2 3203.04   4
  -6   3  -6 46962.2 3313.94   1
  -6  -3   6 43939.4 2974.80   5
  -7   3   6 1379.48 628.247   4
  -7   3   6 1112.61 657.678   3
  -7  -3  -6 468.364 357.718   5
  -7  -3   6 1018.32 600.623   5
  -7   3  -6 2377.47 992.439   1
  -8  -3   6 39415.6 3150.64   5
  -8   3  -6 35379.1 3322.95   1
  -8   3   6 37553.5 2974.23   3
  -9  -3   6 772.644 517.113   5
  -9   3  -6 1992.38 834.800   1
   8   3   7 3501.18 1121.24   2
   8   3  -7 480.492 622.248   2
   7   3   7 105667. 5766.47   2
   7   3  -7 90915.0 5397.68   2
   6   3  -7-157.776 235.199   2
   6   3   7 35.9610 375.978   2
   5   3   7 130634. 5776.78   2
   5  -3   7 129419. 3834.67   2
   5   3  -7 131258. 5550.56   2
   4  -3   7 96.1254 113.025   2
   4   3  -7 232.663 153.293   1
   4   3  -7 218.044 282.994   2
   4   3   7 523.472 492.372   2
   3   3  -7 212987. 4882.49   1
   3  -3   7 208765. 3688.90   2
   3  -3   7 214020. 4066.81   4
   3   3  -7 213899. 6105.74   2
   3  -3   7 204960. 3591.50   4
   3   3   7 206695. 5806.74   4
   2   3  -7 4882.63 639.977   1
   2   3   7 5412.33 821.533   4
   2   3  -7 5073.82 723.919   2
   2  -3   7 5963.16 636.984   5
   1   3  -7 211674. 5232.15   1
   1   3  -7 202829. 4743.06   2
   1  -3   7 208063. 4975.01   5
   1   3   7 195573. 5681.85   4
   0   3   7 3541.09 713.366   4
   0   3  -7 3038.53 568.286   1
   0   3  -7 2844.56 331.382   2
   0  -3   7 3606.73 598.740   5
  -1   3  -7 204337. 5706.22   1
  -1  -3   7 208900. 5525.05   5
  -1   3   7 202278. 6221.54   4
  -2   3   7 5070.35 978.382   4
  -2   3  -7 5405.93 593.159   5
  -2  -3   7 4996.03 795.159   5
  -2   3  -7 5754.12 900.455   1
  -3   3  -7 207985. 4189.16   5
  -3   3   7 215065. 6354.30   3
  -3  -3   7 219063. 6259.56   5
  -3   3   7 207462. 7026.90   4
  -3   3  -7 212429. 6524.93   1
  -4   3   7 244.119 405.816   4
  -4  -3   7-33.7024 200.241   5
  -4  -3  -7 129.860 153.291   1
  -4   3  -7-9.61236 316.393   1
  -4  -3  -7 61.8665 207.305   5
  -4   3   7-297.959 272.134   3
  -5  -3  -7 129658. 4340.37   1
  -5  -3  -7 132662. 4850.86   5
  -5  -3   7 123414. 5045.86   5
  -5   3   7 132273. 5145.23   3
  -5   3  -7 121006. 5344.34   1
  -5   3   7 118603. 5697.62   4
  -6   3   7-132.138 369.080   4
  -6   3  -7-167.270 302.259   1
  -6   3   7 79.6434 381.398   3
  -6  -3  -7-521.149 321.134   5
  -6  -3   7 389.735 410.628   5
  -7   3   7 98334.7 4812.02   3
  -7  -3  -7 102394. 4375.58   5
  -7   3  -7 105404. 5554.54   1
  -7   3   7 95202.2 5474.79   4
  -7  -3   7 107249. 5158.89   5
  -8   3   7 1442.03 638.235   3
  -8  -3   7 1459.61 730.844   5
  -8   3  -7 340.937 453.045   1
  -9  -3   7 59798.8 4300.08   5
  -9   3  -7 63904.0 4849.77   1
   8   3   8 39703.9 3718.93   2
   8   3  -8 32343.9 3497.95   2
   7   3  -8 1532.35 784.755   2
   7   3   8 1422.50 694.231   2
   6   3   8 40623.3 3372.98   2
   6   3  -8 43045.9 3412.39   2
   5   3  -8 1086.36 518.884   2
   5   3   8-136.901 286.008   2
   4   3   8 67096.0 3954.62   2
   4   3  -8 62414.9 3445.78   2
   3  -3   8 71.7358 70.8016   4
   3   3   8 86.6175 209.948   4
   3   3  -8 205.727 290.964   2
   3   3  -8 68.5041 132.089   1
   2  -3   8 95591.9 3076.59   5
   2   3  -8 92341.9 3285.56   1
   2   3  -8 93194.3 3413.75   2
   2   3   8 94013.8 3722.90   4
   1   3  -8 122.351 149.769   1
   1   3   8 31.4144 162.276   4
   1   3  -8 134.271 189.171   2
   1  -3   8 209.701 190.633   5
   0   3  -8 80281.0 3298.12   1
   0  -3   8 84674.8 3131.29   5
   0   3  -8 77976.4 1948.63   2
   0   3   8 87344.1 3772.80   4
  -1   3   8 78.5016 183.131   4
  -1   3  -8 263.131 274.376   1
  -1  -3   8-17.1733 162.493   5
  -2  -3   8 95315.5 3759.73   5
  -2   3   8 88927.1 4359.24   4
  -2   3  -8 93718.7 3948.90   1
  -3  -3   8 49.0220 290.028   5
  -3   3  -8 243.983 284.824   1
  -4  -3   8 70021.9 3515.57   5
  -4   3   8 57311.0 3839.10   4
  -4   3  -8 61372.9 3565.29   1
  -5   3   8 674.734 479.647   4
  -5  -3  -8 110.752 375.662   1
  -5   3  -8 587.305 555.008   1
  -5   3   8 586.156 463.505   3
  -5  -3  -8 769.738 463.700   5
  -5  -3   8 815.976 519.204   5
  -6  -3  -8 41732.5 2504.22   1
  -6   3   8 41551.6 2986.71   3
  -6  -3  -8 37423.4 2559.35   5
  -6  -3   8 36987.0 2880.71   5
  -6   3  -8 39344.9 3195.68   1
  -6   3   8 38484.3 3415.63   4
  -7   3   8 1042.11 610.345   4
  -7   3  -8 944.227 612.537   1
  -7   3   8 149.360 425.414   3
  -7  -3   8 1006.73 668.652   5
  -8  -3   8 32131.7 3007.60   5
  -8   3  -8 33036.5 3319.76   1
   8   3  -9 2039.03 912.981   2
   8   3   9 556.129 508.931   2
   7   3   9 78652.6 5076.30   2
   7   3  -9 81979.3 5326.58   2
   6   3  -9 1662.27 782.636   2
   6   3   9 1055.95 622.574   2
   5   3   9 127565. 5962.86   2
   5   3  -9 133546. 5807.42   2
   4   3   9 669.678 372.302   4
   4   3  -9 532.816 368.473   2
   3  -3   9 181459. 4254.18   4
   3   3  -9 176235. 5684.18   2
   3   3  -9 168667. 5011.05   1
   3   3   9 177748. 5569.24   4
   2   3  -9 968.023 341.513   1
   2   3   9 1186.59 498.918   4
   2   3  -9 1021.27 341.425   2
   2  -3   9 996.634 335.900   5
   1   3  -9 226734. 6134.31   1
   1  -3   9 220053. 5767.84   5
   1   3  -9 224370. 5094.70   2
   1   3   9 214930. 6596.03   4
   0   3   9 3914.31 804.221   4
   0   3  -9 2781.89 281.728   2
   0  -3   9 4004.26 713.525   5
   0   3  -9 3632.80 709.419   1
  -1   3  -9 216679. 6456.89   1
  -1  -3   9 224735. 6203.13   5
  -1   3   9 212111. 7104.97   4
  -2   3  -9 1104.16 435.925   1
  -2   3   9 1631.46 633.480   4
  -2  -3   9 788.801 464.266   5
  -3  -3   9 177744. 5888.83   5
  -3   3  -9 180832. 6251.75   1
  -4   3   9 525.579 408.868   4
  -4   3  -9 551.388 416.042   1
  -4  -3   9 985.282 443.778   5
  -5  -3  -9 127918. 4892.01   1
  -5  -3  -9 128624. 5108.35   5
  -5   3   9 120237. 6108.72   4
  -5   3  -9 130675. 5824.51   1
  -5  -3   9 129169. 5434.75   5
  -6   3   9-115.922 324.118   4
  -6   3  -9 648.558 597.637   1
  -6  -3  -9 504.018 333.202   5
  -6  -3  -9 585.185 354.444   1
  -6  -3   9 796.098 582.139   5
  -7  -3   9 80738.4 4715.05   5
  -7   3  -9 76509.8 4932.90   1
  -7   3   9 76645.7 5179.68   4
  -8   3   9 162.802 333.033   4
  -8  -3   9 268.197 346.828   5
  -8   3  -9-12.5015 464.617   1
   8   3  10 26444.7 3110.32   2
   8   3 -10 27765.9 3411.03   2
   7   3 -10 2225.62 898.678   2
   7   3  10 498.120 546.935   2
   6   3  10 31030.5 3047.86   2
   6   3 -10 35074.0 3226.38   2
   5   3 -10 666.396 504.435   2
   4   3 -10 43937.3 3009.20   2
   4   3  10 42960.6 2649.48   4
   3   3  10 755.396 462.086   4
   3   3 -10 436.034 315.108   2
   3   3 -10-54.2486 217.574   1
   2   3 -10 55883.2 2887.61   1
   2  -3  10 61450.3 2926.48   4
   2   3 -10 60138.2 2781.07   2
   2   3  10 58120.6 3180.37   4
   1   3  10-129.063 340.079   4
   1   3 -10 468.670 247.875   2
   1   3 -10 52.9320 248.614   1
   1  -3  10 227.946 237.054   5
   0   3 -10 39852.0 2522.23   1
   0  -3  10 40341.3 2355.39   5
   0   3  10 43795.5 2940.33   4
  -1   3  10-215.152 293.898   4
  -1   3 -10 377.383 387.050   1
  -1  -3  10 118.927 191.994   5
  -2   3 -10 55366.1 3256.61   1
  -2  -3  10 54921.7 3036.24   5
  -2   3  10 52754.0 3590.83   4
  -3  -3  10 571.169 487.891   5
  -3   3 -10-129.340 270.028   1
  -4   3  10 41180.2 3436.66   4
  -4   3 -10 46181.0 3268.76   1
  -4  -3  10 37975.0 2828.38   5
  -5   3  10 234.149 501.992   4
  -5  -3 -10 132.994 370.854   1
  -5   3 -10-107.841 272.505   1
  -5  -3 -10 751.675 494.783   5
  -5  -3  10 304.470 471.531   5
  -6  -3 -10 31572.4 2495.43   1
  -6  -3 -10 28401.1 2370.54   5
  -6  -3  10 30929.4 2803.04   5
  -6   3  10 30302.2 3192.65   4
  -6   3 -10 36069.6 3237.79   1
  -7   3  10 369.756 442.936   4
  -7   3 -10 741.568 729.115   1
  -7  -3  10-11.8494 373.702   5
  -8   3 -10 22295.0 2841.97   1
  -8   3  10 24105.8 3013.46   4
  -8  -3  10 26837.0 2929.59   5
   8   3  11 915.693 725.437   2
   7   3  11 61668.3 4641.64   2
   7   3 -11 61528.3 4804.42   2
   6   3 -11 463.480 617.694   2
   5   3 -11 108339. 5470.70   2
   4   3  11 161.843 172.837   4
   4   3 -11 204.508 316.887   2
   3   3 -11 101608. 4194.72   1
   3   3 -11 107708. 4491.47   2
   3   3  11 111956. 4660.53   4
   2  -3  11 469.622 307.746   4
   2   3  11 16.5632 222.004   4
   2   3 -11 535.278 271.242   2
   2   3 -11-9.06415 172.794   1
   1   3 -11 136716. 5131.35   1
   1  -3  11 148745. 5013.13   5
   1   3 -11 139937. 3896.73   2
   1   3  11 141017. 5633.09   4
   0   3 -11 4251.11 872.386   1
   0   3  11 5855.62 1143.58   4
   0  -3  11 5223.90 889.924   5
  -1   3 -11 144762. 5580.67   1
  -1  -3  11 149211. 5297.98   5
  -2   3  11 542.828 478.828   4
  -2   3 -11 59.0380 204.877   1
  -2  -3  11 284.417 349.995   5
  -3   3  11 111864. 5741.69   4
  -3  -3  11 112295. 4928.48   5
  -3   3 -11 117749. 5322.02   1
  -4   3  11 501.197 546.161   4
  -4  -3  11-183.395 392.924   5
  -4   3 -11-158.574 400.046   1
  -5  -3 -11 108839. 4990.74   1
  -5  -3 -11 109049. 4991.53   5
  -5  -3  11 107841. 5333.96   5
  -5   3  11 114313. 6213.81   4
  -5   3 -11 117530. 5866.48   1
  -6   3  11-691.199 570.217   4
  -6   3 -11 2002.53 925.131   1
  -6  -3 -11 1146.69 543.408   5
  -6  -3 -11 906.062 537.039   1
  -6  -3  11 563.984 395.493   5
  -7  -3  11 61434.7 4409.37   5
  -7   3 -11 59175.9 4538.91   1
  -7   3  11 61925.9 4847.39   4
  -8   3  11 1618.37 829.329   4
   7   3 -12 803.195 840.860   2
   6   3 -12 26829.1 2943.42   2
   5   3 -12 90.9961 268.898   2
   4   3 -12 33988.7 2783.16   2
   4   3  12 32017.6 2486.56   4
   3   3 -12 267.831 332.605   1
   3   3  12 406.399 384.644   4
   3   3 -12-215.770 238.984   2
   2   3 -12 46979.9 2946.30   1
   2  -3  12 52071.4 2878.50   4
   2   3 -12 54086.0 2739.85   2
   2   3  12 50215.7 3284.74   4
   1   3  12 197.013 349.818   4
   1   3 -12 294.768 276.174   1
   1  -3  12 742.607 373.373   5
   1  -3  12 147.692 241.716   4
   0   3 -12 43992.7 2977.45   1
   0  -3  12 45289.3 2870.23   5
   0   3  12 43355.6 3277.22   4
  -1   3  12-194.986 337.358   4
  -1   3 -12 4.40419 239.211   1
  -1  -3  12 190.222 295.112   5
  -2   3 -12 51213.0 3460.96   1
  -2  -3  12 50817.9 3243.27   5
  -2   3  12 54357.4 3888.14   4
  -3   3 -12-368.847 513.897   1
  -3   3  12 184.168 363.876   4
  -3  -3  12-862.482 482.196   5
  -4  -3  12 34468.7 2902.54   5
  -4   3  12 34062.5 3270.81   4
  -4   3 -12 34378.9 3029.10   1
  -5   3  12 611.217 741.378   4
  -5   3 -12 1180.27 774.968   1
  -5  -3  12 494.720 494.419   5
  -5  -3 -12 326.636 422.337   1
  -6  -3 -12 25610.8 2516.06   1
  -6  -3  12 29928.6 2984.24   5
  -6   3  12 29813.3 3266.52   4
  -6   3 -12 26025.6 2938.16   1
  -7   3 -12 637.511 499.824   1
  -7  -3  12-162.714 453.769   5
   7   3 -13 45679.2 4317.03   2
   6   3 -13 650.394 528.982   2
   5   3 -13 88755.1 5144.66   2
   5   3  13 89471.6 4418.73   4
   4   3  13 414.410 361.667   4
   4   3 -13-105.017 255.750   2
   3   3 -13 82003.5 4080.56   1
   3   3 -13 85796.2 4126.21   2
   3   3  13 79443.1 4293.65   4
   2  -3  13 2393.27 655.148   4
   2   3  13 3494.07 924.140   4
   2   3 -13 1924.07 650.888   1
   1   3 -13 117166. 5134.96   1
   1  -3  13 126266. 5410.70   4
   1   3  13 109094. 5406.38   4
   0   3  13-44.7428 394.795   4
   0   3 -13 476.932 536.015   1
   0  -3  13 779.334 466.176   5
  -1   3 -13 124705. 5642.99   1
  -1  -3  13 135617. 5568.77   5
  -1   3  13 119110. 5962.65   4
  -2   3  13 2231.05 863.561   4
  -2   3 -13 2646.73 839.966   1
  -2  -3  13 2621.38 747.934   5
  -3   3 -13 84664.2 4877.83   1
  -3  -3  13 79645.7 4514.23   5
  -3   3  13 79874.5 5028.65   4
  -4   3  13 191.778 352.698   4
  -4  -3  13 683.873 500.390   5
  -4   3 -13 1123.11 552.655   1
  -5  -3 -13 88596.0 4875.80   1
  -5  -3  13 90941.6 5245.32   5
  -5   3  13 87963.4 5635.39   4
  -5   3 -13 84478.0 5335.50   1
  -6   3  13 142.775 375.878   4
  -6   3 -13 106.691 516.185   1
  -6  -3  13 33.6438 336.649   5
  -6  -3 -13-723.052 483.855   1
  -7   3  13 43600.2 4194.04   4
   7   3 -14-936.405 667.384   2
   6   3 -14 21751.6 2765.34   2
   4   3  14 20809.2 2196.67   4
   3   3  14 45.1632 266.755   4
   3   3 -14 95.2194 251.311   1
   2   3 -14 35311.6 2774.20   1
   2   3  14 31031.2 2805.60   4
   1  -3  14 240.642 335.040   4
   1   3  14 352.588 379.098   4
   1   3 -14-443.238 365.975   1
   0   3 -14 23531.3 2365.33   1
   0  -3  14 22881.6 2506.51   4
   0   3  14 26329.9 2726.26   4
  -1   3  14 1064.36 696.781   4
  -1  -3  14 956.177 554.319   5
  -1   3 -14 561.143 569.548   1
  -2   3 -14 28290.7 2806.45   1
  -2  -3  14 33998.3 2922.70   5
  -2   3  14 34535.5 3267.51   4
  -3   3  14-335.746 607.948   4
  -3   3 -14 655.658 623.608   1
  -3  -3  14-81.6158 335.482   5
  -4  -3 -14 27112.7 2638.53   1
  -4  -3  14 23767.9 2617.98   5
  -4   3  14 22797.3 2770.71   4
  -4   3 -14 20808.8 2580.58   1
  -5   3  14 828.362 649.574   4
  -5   3 -14 912.812 659.086   1
  -5  -3  14 507.691 375.376   5
  -5  -3 -14 324.759 317.713   1
  -6   3 -14 22902.8 2932.69   1
  -6  -3  14 24686.4 2904.90   5
  -6  -3 -14 19099.8 2385.70   1
  -6   3  14 25411.7 3132.27   4
   4   3  15 960.876 535.596   4
   3   3 -15 48407.2 3325.08   1
   3   3  15 37526.1 3167.73   4
   2   3  15 377.750 462.452   4
   2   3 -15 683.074 561.515   1
   1   3 -15 70538.0 4208.47   1
   1  -3  15 66992.2 4019.22   4
   1   3  15 62452.9 4284.34   4
   0   3  15 834.577 569.585   4
   0   3 -15 2754.86 869.561   1
   0  -3  15 1840.71 739.921   4
  -1   3 -15 61809.1 4243.83   1
  -1  -3  15 68607.6 4777.42   4
  -1   3  15 71158.8 4751.14   4
  -2   3  15 1257.44 888.176   4
  -2   3 -15 472.037 535.859   1
  -2  -3  15 1365.87 718.647   5
  -3   3 -15 44124.9 3769.52   1
  -3  -3  15 46349.8 3702.42   5
  -3   3  15 44712.6 3869.50   4
  -4   3  15-1316.93 729.736   4
  -4  -3 -15 466.009 394.848   1
  -4  -3  15-1704.19 777.922   5
  -4   3 -15 792.356 608.004   1
  -5  -3 -15 65055.0 4423.32   1
  -5  -3  15 61001.5 4600.26   5
  -5   3  15 59015.1 4727.88   4
  -5   3 -15 57935.7 4682.80   1
   4   3  16 20389.9 2378.48   4
   3   3  16-127.589 322.327   4
   3   3 -16-362.479 366.343   1
   2   3 -16 30847.1 2806.04   1
   2   3  16 28020.0 2884.94   4
   1   3  16 813.681 407.363   4
   1   3 -16 233.311 329.904   1
   0   3 -16 29384.9 2902.55   1
   0  -3  16 30717.6 3022.80   4
   0   3  16 30491.9 3063.03   4
  -1   3  16 224.922 355.243   4
  -1   3 -16 182.799 505.706   1
  -1  -3  16-126.407 378.432   4
  -2   3 -16 30536.6 3166.10   1
  -2  -3  16 29599.7 3336.15   4
  -2   3  16 28439.4 3111.04   4
  -3   3  16-39.6170 469.805   4
  -3   3 -16-612.465 533.101   1
  -3  -3  16 50.9644 372.050   5
  -3  -3  16-1589.93 868.546   4
  -4  -3 -16 21491.3 2514.37   1
  -4  -3  16 22776.1 2804.34   5
  -4   3  16 25480.2 3024.66   4
  -4   3 -16 21281.9 2795.77   1
  -5  -3 -16 822.153 551.677   1
   3   3 -17 31644.9 2894.14   1
   3   3  17 26840.0 2864.50   4
   2   3  17-9.68035 254.997   4
   2   3 -17-658.209 463.070   1
   1   3 -17 59506.5 4118.10   1
   1   3  17 53583.1 4169.72   4
   0   3 -17 436.381 434.651   1
   0   3  17 522.180 507.722   4
  -1   3 -17 51979.0 4138.07   1
  -1  -3  17 56929.8 4553.17   4
  -1   3  17 53633.0 4271.29   4
  -2   3  17 111.988 455.652   4
  -2   3 -17-213.388 614.794   1
  -2  -3  17-318.840 506.507   4
  -3   3 -17 34189.8 3578.19   1
  -3  -3  17 29532.3 3605.75   4
  -3   3  17 35305.4 3564.49   4
  -4  -3 -17 138.316 323.090   1
  -4  -3  17 594.655 620.838   4
  -5  -3 -17 37985.4 3551.82   1
   3   3  18 1590.91 722.640   4
   2   3  18 10590.0 1827.66   4
   2   3 -18 14856.6 2073.51   1
   1   3  18 203.559 353.479   4
   1   3 -18 1023.79 674.957   1
   0   3 -18 20801.3 2611.33   1
   0   3  18 19899.0 2579.04   4
  -1  -3  18-718.490 589.951   4
  -1   3  18 856.271 563.785   4
  -1   3 -18-233.551 444.871   1
  -2  -3  18 16225.7 2589.11   4
  -2   3  18 17627.8 2520.77   4
  -2   3 -18 18029.1 2546.55   1
  -3  -3  18-770.675 686.469   4
   2   3  19-1043.30 640.119   4
   2   3 -19 301.901 376.714   1
   1   3 -19 41359.6 3653.60   1
   1   3  19 41326.2 3769.53   4
   0   3  19 313.066 399.289   4
   0   3 -19 156.720 378.137   1
  -1  -3  19 35147.8 3615.84   4
  -2  -3  19 387.700 503.011   4
   9  -4   0 367.942 505.393   2
   8   4   0 82693.2 5504.67   2
   7   4   0 135.420 339.273   2
   6   4   0 158240. 6750.76   2
   5   4   0 873.963 583.256   2
   4   4   0 230813. 7410.33   2
   3   4   0-10.7268 231.370   2
   2   4   0 277952. 5527.86   3
   2   4   0 286491. 7699.29   2
   1   4   0 32.7043 104.155   3
   1  -4   0 5.25394 156.287   5
   0  -4   0 419198. 8583.58   5
   0   4   0 397700. 8433.16   1
  -1  -4   0 101.161 91.4898   1
  -1   4   0 156.055 145.747   4
  -1  -4   0-200.947 196.793   5
  -1   4   0 428.935 259.872   1
  -2  -4   0 294894. 7087.17   5
  -2   4   0 291369. 7442.11   1
  -2  -4   0 284425. 5331.13   1
  -2   4   0 285157. 6002.29   4
  -3   4   0 13.2674 141.721   4
  -3  -4   0 13.4776 202.245   5
  -3   4   0 72.8302 304.871   1
  -4  -4   0 232125. 6669.82   5
  -4   4   0 239322. 7372.24   1
  -4   4   0 236489. 5209.68   4
  -5   4   0 77.4227 179.852   4
  -5   4   0 71.5165 305.424   1
  -5  -4   0-138.281 242.148   5
  -6  -4   0 155490. 5697.05   5
  -6   4   0 151564. 6446.40   1
  -7   4   0 270.043 361.878   1
  -7  -4   0-225.278 288.034   5
  -8  -4   0 86105.8 4524.21   5
  -8   4   0 85750.9 5339.01   1
  -9   4   0 214.951 342.105   3
   9  -4   1 27748.5 2829.41   2
   9  -4  -1 26345.2 2856.90   2
   8   4   1 207.906 456.868   2
   8   4  -1 216.390 386.540   2
   8  -4   1 585.536 416.480   2
   7   4   1 50357.1 3979.03   2
   7   4  -1 52826.2 4034.43   2
   6   4   1-132.342 240.499   2
   6   4  -1 384.901 521.912   2
   5   4   1 68124.9 4068.90   2
   5   4  -1 60781.1 3771.88   2
   4   4   1 4651.22 1013.82   2
   4   4  -1 3626.73 881.417   2
   4  -4   1 3429.52 443.398   5
   4  -4   1 3049.19 683.246   4
   3  -4   1 107215. 3049.24   5
   3   4   1 117667. 4775.01   2
   3   4  -1 102923. 4383.33   2
   2   4   1 11807.9 862.333   3
   2  -4   1 10619.0 911.471   5
   2   4  -1 11534.7 756.909   3
   2   4   1 14657.9 1550.48   2
   2   4  -1 12250.5 1343.38   2
   1  -4   1 118165. 3479.96   5
   1   4   1 112160. 3245.34   3
   1   4  -1 117417. 3346.73   1
   1   4  -1 110000. 4149.92   2
   0  -4   1 25120.8 1561.73   5
   0   4   1 25456.3 1497.94   3
   0  -4  -1 25322.0 1675.33   5
   0   4  -1 28800.6 1632.41   1
   0   4   1 26496.3 1564.04   4
  -1  -4  -1 112800. 3904.45   5
  -1  -4  -1 114715. 3298.81   1
  -1  -4   1 117943. 3801.44   5
  -1   4  -1 118078. 3929.22   1
  -1  -4   1 115879. 3074.14   1
  -1   4   1 113531. 3424.16   4
  -2  -4   1 12048.9 1188.37   5
  -2   4  -1 12253.7 1265.55   1
  -2   4   1 10692.7 1235.00   1
  -2  -4  -1 11688.3 804.461   1
  -2   4   1 10634.6 931.698   4
  -2  -4  -1 13027.1 1259.67   5
  -2  -4   1 12075.4 675.710   1
  -3  -4  -1 107066. 4034.43   5
  -3  -4   1 107197. 3997.14   5
  -3   4   1 108167. 4429.38   1
  -3   4  -1 112602. 4422.09   1
  -3  -4  -1 108181. 2329.42   1
  -3   4   1 114526. 3383.65   4
  -3   4  -1 104364. 2883.39   4
  -4   4   1 3860.54 591.851   4
  -4   4  -1 3113.01 428.880   4
  -4   4   1 4382.60 957.805   1
  -4  -4  -1 2945.79 636.049   5
  -4  -4   1 3410.58 717.869   5
  -4   4  -1 2807.30 744.916   1
  -5  -4   1 61085.0 3253.32   5
  -5  -4  -1 62064.4 3258.63   5
  -5   4   1 63561.1 3803.05   1
  -5   4  -1 67110.8 3800.84   1
  -5   4   1 65134.6 2514.53   4
  -5   4  -1 62090.6 1970.70   4
  -6   4   1 1015.39 547.334   1
  -6  -4  -1 859.378 524.969   5
  -6   4  -1 885.442 592.629   1
  -6  -4   1 515.541 456.466   5
  -7   4   1 55313.7 3441.59   3
  -7  -4  -1 49785.0 3227.21   5
  -7   4   1 51145.4 3845.45   1
  -7  -4   1 48419.1 3218.48   5
  -7   4  -1 53684.7 3905.32   1
  -8   4  -1 84.0282 567.638   1
  -8   4   1 382.068 386.383   3
  -8  -4  -1 292.641 472.612   5
  -8  -4   1 1365.70 713.349   5
  -9  -4   1 26438.4 2603.86   5
  -9   4  -1 32702.6 3481.62   1
  -9   4   1 31555.4 2876.51   3
   8   4   2 83249.9 5542.68   2
   8   4  -2 83451.1 5486.76   2
   8  -4   2 84461.4 4577.93   2
   7   4   2-251.302 379.143   2
   7   4  -2 326.563 492.496   2
   6   4   2 150286. 6628.92   2
   6   4  -2 147265. 6492.83   2
   5   4   2 2158.40 753.825   2
   5   4  -2 2849.04 825.508   2
   4  -4   2 213161. 4220.90   5
   4   4   2 226556. 7382.61   2
   4   4  -2 217891. 7037.82   2
   3   4  -2 204.023 247.126   2
   3  -4   2 528.913 218.510   4
   3   4  -2 285.963 88.1273   3
   3  -4   2 427.153 199.032   5
   3   4   2 471.966 339.115   2
   2   4  -2 233993. 6607.06   2
   2  -4   2 245170. 5303.91   5
   2   4   2 236688. 7153.78   2
   1   4   2 2191.17 491.940   4
   1   4   2 1996.03 405.850   3
   1  -4   2 2000.84 408.134   5
   1   4  -2 2351.37 403.644   1
   1   4  -2 1491.09 442.339   2
   0  -4   2 305388. 6726.96   5
   0   4   2 304520. 6732.03   3
   0   4  -2 300394. 6701.31   1
   0   4   2 303376. 6781.48   4
  -1  -4   2 2467.26 376.571   1
  -1   4   2 1937.19 415.785   4
  -1  -4  -2 1952.78 529.992   5
  -1   4   2 3129.35 582.642   3
  -1   4  -2 2941.80 581.793   1
  -1  -4   2 2291.64 508.399   5
  -2  -4   2 246478. 4477.39   1
  -2  -4  -2 235302. 5180.32   1
  -2  -4  -2 237907. 6426.71   5
  -2   4   2 234882. 6160.32   3
  -2  -4   2 237723. 6205.76   5
  -2   4  -2 233851. 6440.72   1
  -2   4   2 231602. 5672.95   4
  -3   4   2 669.451 309.445   4
  -3  -4  -2 226.692 116.187   1
  -3   4   2 789.552 358.824   3
  -3  -4  -2 504.205 286.132   5
  -3  -4   2 1246.54 457.973   5
  -3   4  -2-25.9340 217.256   1
  -4  -4  -2 217688. 3880.99   1
  -4  -4  -2 225516. 6477.49   5
  -4  -4   2 212916. 6377.38   5
  -4   4   2 221109. 6426.32   3
  -4  -4  -2 217687. 4024.85   1
  -4   4  -2 211257. 6892.81   1
  -4   4   2 220104. 5537.34   4
  -5   4   2 2458.42 505.992   4
  -5   4   2 2340.15 666.314   3
  -5  -4  -2 1883.45 567.298   5
  -5  -4   2 2871.24 727.139   5
  -5   4  -2 1377.72 537.136   1
  -6  -4  -2 157902. 5680.75   5
  -6   4   2 139820. 5480.77   3
  -6  -4   2 154230. 5725.80   5
  -6   4  -2 149959. 6337.17   1
  -6   4   2 142359. 4434.02   4
  -7   4   2-45.9667 260.067   3
  -7  -4  -2 47.8275 386.086   5
  -7   4  -2 392.035 344.657   1
  -7  -4   2 86.8630 346.399   5
  -8  -4  -2 84695.1 4431.51   5
  -8  -4   2 84205.7 4565.11   5
  -8   4  -2 83148.4 5256.91   1
  -8   4   2 81297.4 4522.02   3
  -9   4  -2 198.211 400.277   1
  -9  -4   2 434.846 411.455   5
   8   4   3 1927.91 953.288   2
   8   4  -3 1194.39 714.210   2
   7   4   3 42052.5 3702.67   2
   7   4  -3 38798.6 3478.06   2
   7  -4   3 39213.4 2756.80   2
   6   4   3 1028.92 732.640   2
   6   4  -3 20.2848 354.754   2
   5   4   3 49023.5 3472.00   2
   5   4  -3 50068.0 3367.41   2
   4   4   3 645.926 473.268   2
   4   4  -3 811.169 546.980   2
   4  -4   3 276.001 110.446   5
   3   4  -3 67742.0 1613.37   3
   3  -4   3 67605.9 2074.94   5
   3   4   3 68149.2 3719.36   2
   3   4  -3 67521.5 3408.50   2
   3  -4   3 69459.0 2320.61   4
   2   4  -3 6509.09 949.876   2
   2  -4   3 6383.07 650.380   5
   2   4  -3 6266.88 550.123   1
   2   4   3 6554.19 1110.65   2
   1   4   3 57192.0 2406.52   3
   1  -4   3 59460.0 2300.82   5
   1   4  -3 61371.9 2832.37   2
   1  -4   3 63292.2 2351.62   2
   1   4  -3 57020.4 2185.44   1
   1   4   3 63295.3 2696.61   4
   0  -4   3 5352.05 669.842   2
   0   4   3 4442.77 684.518   4
   0   4   3 5449.26 727.556   3
   0  -4   3 5400.08 689.861   5
   0   4  -3 4583.82 653.841   1
  -1  -4   3 61370.7 2092.80   1
  -1   4   3 58634.3 2646.17   3
  -1  -4   3 61566.7 2654.51   5
  -1   4  -3 59893.7 2706.57   1
  -1   4   3 55021.9 2476.59   4
  -2   4   3 5011.39 719.961   4
  -2   4   3 7254.00 942.010   3
  -2  -4  -3 6080.94 910.209   5
  -2  -4   3 6084.97 863.311   5
  -2   4  -3 6823.24 985.880   1
  -3  -4  -3 70718.3 3288.89   5
  -3  -4   3 66141.6 3092.50   5
  -3   4   3 68198.1 3157.65   3
  -3  -4  -3 68870.9 2258.23   3
  -3   4  -3 73996.6 3514.71   1
  -3   4   3 73554.8 2962.72   4
  -4   4   3 135.918 262.684   4
  -4   4   3 109.456 269.721   3
  -4  -4  -3 317.470 135.485   1
  -4  -4  -3 648.979 378.398   5
  -4  -4   3 412.795 357.908   5
  -4   4  -3 192.790 377.761   1
  -5  -4  -3 51587.0 2970.56   5
  -5   4   3 47645.3 2916.22   3
  -5   4  -3 47961.8 3236.28   1
  -5  -4   3 43988.1 2807.56   5
  -5   4   3 49746.2 2534.33   4
  -6   4   3 353.949 341.191   4
  -6   4   3 710.006 573.358   3
  -6  -4  -3 118.843 277.304   5
  -6   4  -3-20.3882 494.187   1
  -6  -4   3 867.953 602.751   5
  -7   4   3 39863.8 2967.05   3
  -7  -4  -3 42344.6 2927.25   5
  -7   4  -3 44857.2 3566.80   1
  -7  -4   3 40093.5 2970.78   5
  -8  -4  -3 548.295 579.779   5
  -8   4   3 565.011 432.317   3
  -8   4  -3 907.915 652.256   1
  -8  -4   3 985.188 594.966   5
  -9   4   3 25685.7 2635.23   3
  -9  -4   3 28072.2 2770.28   5
  -9   4  -3 21553.7 2828.48   1
   8   4   4 96132.1 6099.23   2
   8   4  -4 88323.3 5717.47   2
   7   4   4 2217.88 868.914   2
   7   4  -4 1502.31 790.072   2
   6   4   4 153795. 6865.26   2
   6   4  -4 147654. 6504.81   2
   6  -4   4 151199. 5085.15   2
   5   4   4 2198.63 840.247   2
   5   4  -4 3300.25 879.281   2
   4  -4   4 205911. 3514.90   5
   4   4  -4 218015. 6971.00   2
   3   4  -4 4987.28 918.211   2
   3   4  -4 4674.04 330.841   1
   3  -4   4 4805.34 511.229   4
   3  -4   4 5834.31 521.690   5
   3   4   4 4678.11 960.117   2
   2  -4   4 279867. 5831.23   5
   2   4  -4 296087. 7425.91   2
   2   4  -4 288698. 5613.98   1
   2  -4   4 283293. 5774.59   4
   2   4   4 281907. 6966.15   4
   1  -4   4 1317.70 295.597   2
   1   4  -4 1271.94 324.565   1
   1   4   4 1060.70 367.001   4
   1  -4   4 815.009 264.359   5
   1   4  -4 890.907 311.669   2
   0   4   4 360866. 8062.15   3
   0  -4   4 368076. 7761.52   5
   0   4  -4 361982. 7770.74   1
   0  -4   4 361470. 7132.93   2
   0   4   4 363026. 8115.67   4
  -1   4  -4 1213.74 387.646   1
  -1   4   4 936.385 346.627   4
  -1   4   4 1087.50 375.751   3
  -1  -4   4 1299.14 397.561   5
  -2  -4  -4 279719. 7384.04   5
  -2   4   4 282346. 7199.82   3
  -2  -4   4 288295. 7112.15   5
  -2   4  -4 286654. 7437.34   1
  -2   4   4 284517. 6970.54   4
  -3   4  -4 4205.16 846.897   1
  -3   4   4 3737.25 690.957   4
  -3   4   4 4795.20 849.482   3
  -3  -4   4 4590.50 795.978   5
  -3  -4  -4 5286.08 905.389   5
  -4  -4  -4 227276. 6699.78   5
  -4   4   4 224751. 6728.94   3
  -4  -4  -4 225944. 4950.85   1
  -4  -4   4 223671. 6638.63   5
  -4   4  -4 230377. 7227.67   1
  -4   4   4 216853. 6202.46   4
  -5   4   4 2528.86 600.042   4
  -5  -4   4 1724.80 548.758   5
  -5   4  -4 1570.41 650.398   1
  -5  -4  -4 2498.52 641.284   5
  -6  -4  -4 148900. 5590.60   5
  -6   4   4 154077. 5889.29   3
  -6  -4   4 156324. 5933.70   5
  -6   4  -4 153784. 6529.25   1
  -6   4   4 157918. 5413.39   4
  -7   4   4 2373.64 812.796   3
  -7  -4  -4 1523.06 585.108   5
  -7  -4   4 1875.01 629.771   5
  -7   4  -4 1017.89 704.465   1
  -8   4   4 85773.0 4731.88   3
  -8  -4   4 86918.7 4819.03   5
  -8  -4  -4 92148.8 4594.77   5
  -8   4  -4 88943.6 5500.69   1
  -9   4   4-240.665 338.989   3
  -9  -4   4 61.7236 247.883   5
   8   4   5 1077.28 912.420   2
   8   4  -5 1062.05 686.043   2
   7   4   5 37954.6 3505.73   2
   7   4  -5 35250.7 3314.32   2
   6   4   5 1202.94 716.168   2
   6   4  -5 1199.83 636.711   2
   5   4   5 48020.3 3519.00   2
   5   4  -5 50249.8 3397.09   2
   5  -4   5 47266.6 2280.91   2
   4   4  -5 407.578 539.692   2
   4   4   5 543.622 410.852   2
   3  -4   5 70557.5 2054.18   5
   3   4   5 72883.6 4029.86   2
   3   4  -5 73229.2 3495.24   2
   3   4  -5 66147.3 1858.36   1
   3  -4   5 70775.8 2037.75   4
   2   4  -5 276.097 303.085   2
   2  -4   5-6.64398 95.0070   4
   2   4   5 335.912 342.115   4
   2   4  -5-22.2124 110.895   1
   2  -4   5 588.572 225.320   5
   2  -4   5 224.434 148.223   2
   1  -4   5 80871.3 2777.88   5
   1   4  -5 77454.5 3071.39   2
   1  -4   5 82618.3 2227.08   2
   1   4  -5 80638.9 2795.62   1
   1   4   5 77449.8 3222.37   4
   0   4   5 2310.45 556.866   4
   0  -4   5 2337.24 372.877   2
   0   4  -5 2517.98 517.580   1
   0  -4   5 2699.08 534.544   5
  -1   4   5 84083.9 3431.51   3
  -1  -4   5 81826.3 3179.16   5
  -1   4  -5 73330.3 3184.28   1
  -1   4   5 78483.0 3289.25   4
  -2   4   5 259.882 269.731   4
  -2   4  -5 265.279 299.666   1
  -2   4   5 60.6284 321.055   3
  -2  -4   5 477.400 303.879   5
  -3  -4  -5 70516.5 3429.36   5
  -3   4   5 71304.7 3413.16   3
  -3  -4   5 70554.0 3306.65   5
  -3   4  -5 67977.6 3491.29   1
  -3   4   5 75481.2 3389.95   4
  -4   4  -5 138.572 326.414   1
  -4   4   5 689.803 452.197   4
  -4   4   5 331.929 306.707   3
  -4  -4  -5 289.589 325.440   5
  -4  -4   5-243.172 224.096   5
  -5  -4  -5 45431.7 2869.22   5
  -5   4   5 48096.0 3060.63   3
  -5  -4   5 52390.1 3149.69   5
  -5   4  -5 43355.8 3153.03   1
  -5   4   5 52309.2 3032.31   4
  -6   4   5 2479.56 721.719   4
  -6   4   5 1978.78 716.696   3
  -6  -4  -5 1260.83 481.707   5
  -6  -4   5 1551.12 668.393   5
  -6   4  -5 1061.11 734.053   1
  -7   4   5 37511.1 2953.10   3
  -7  -4  -5 35921.5 2708.31   5
  -7  -4   5 37017.1 2946.14   5
  -7   4  -5 40710.3 3470.78   1
  -8   4   5 834.218 539.325   3
  -8  -4   5 730.148 438.494   5
  -8   4  -5 1455.55 843.158   1
  -9   4   5 23843.2 2590.82   3
  -9  -4   5 21821.6 2507.64   5
   8   4   6 74218.4 5359.08   2
   8   4  -6 79862.6 5532.22   2
   7   4   6 1869.48 845.717   2
   7   4  -6 4808.05 1318.23   2
   6   4   6 135946. 6582.49   2
   6   4  -6 131059. 6230.25   2
   5   4  -6 1372.70 599.053   2
   5   4   6 2479.11 867.752   2
   4   4   6 182233. 7093.73   2
   4   4  -6 180392. 6401.85   2
   4  -4   6 187901. 4297.82   2
   3  -4   6 13426.9 843.409   5
   3   4  -6 12878.0 1439.29   2
   3   4  -6 13040.0 839.902   1
   3   4   6 12791.3 1342.41   4
   2  -4   6 233553. 5174.82   5
   2   4  -6 237493. 6359.13   2
   2  -4   6 224398. 4024.13   2
   2   4  -6 233129. 5204.16   1
   2   4   6 232264. 6363.19   4
   1   4  -6 408.229 260.524   2
   1   4   6 253.967 292.343   4
   1  -4   6 169.287 80.1963   2
   1   4  -6 235.189 204.609   1
   1  -4   6 22.7098 124.505   5
   0  -4   6 266752. 6346.69   5
   0   4  -6 257192. 6454.34   1
   0  -4   6 262623. 5069.56   2
   0   4   6 265760. 6938.99   4
  -1   4   6 321.714 305.413   4
  -1   4  -6-52.1159 153.000   1
  -1   4   6 317.784 308.888   3
  -1  -4   6 81.2688 211.309   5
  -2   4   6 232533. 6679.18   3
  -2  -4   6 229835. 6376.32   5
  -2   4  -6 230236. 6716.06   1
  -2   4   6 235862. 6765.76   4
  -3   4  -6 11818.2 1426.77   1
  -3   4   6 13446.6 1483.74   3
  -3  -4   6 13795.6 1443.81   5
  -3  -4  -6 13004.5 1449.16   5
  -3   4   6 12463.8 1426.44   4
  -4  -4  -6 186703. 6225.09   5
  -4  -4   6 184965. 6139.46   5
  -4   4   6 193440. 6369.70   3
  -4   4  -6 192712. 6722.69   1
  -4   4   6 187178. 6351.35   4
  -5   4  -6 2645.85 789.264   1
  -5   4   6 2735.19 734.499   4
  -5   4   6 3938.38 912.276   3
  -5  -4  -6 3165.55 798.409   5
  -5  -4   6 2411.95 724.406   5
  -6   4   6 127544. 5505.68   3
  -6  -4  -6 123207. 5083.15   5
  -6  -4   6 128342. 5483.64   5
  -6   4  -6 120777. 5859.89   1
  -6   4   6 119831. 5329.37   4
  -7   4   6 3327.63 841.295   4
  -7   4   6 3712.37 1000.18   3
  -7  -4  -6 3416.51 846.974   5
  -7  -4   6 1614.66 702.770   5
  -7   4  -6 3208.50 1136.19   1
  -8   4   6 70606.2 4421.30   3
  -8  -4   6 69911.6 4434.15   5
  -8   4  -6 75104.5 5111.84   1
  -9   4   6-658.622 468.943   3
   8   4  -7 1954.25 890.560   2
   8   4   7 415.598 572.941   2
   7   4   7 43268.4 3877.67   2
   7   4  -7 44629.5 3849.21   2
   6   4  -7 1207.50 711.965   2
   6   4   7 279.650 572.536   2
   5   4   7 58961.0 4098.53   2
   5   4  -7 61724.5 3879.78   2
   4   4  -7 459.763 355.644   2
   4   4   7-121.460 403.512   2
   3  -4   7 72139.1 2267.58   5
   3   4  -7 69100.0 3448.71   2
   3   4  -7 69324.3 2341.97   1
   3   4   7 65268.8 3217.50   4
   2   4  -7 2018.26 544.989   2
   2   4   7 1835.61 522.177   4
   2  -4   7 1651.05 396.821   5
   2   4  -7 2058.73 439.639   1
   1  -4   7 73267.1 2803.89   5
   1   4  -7 74395.2 2898.41   2
   1   4   7 75730.3 3426.48   4
   1   4  -7 77997.5 3025.10   1
   0   4   7 1332.90 474.395   4
   0  -4   7 484.781 218.523   5
   0   4  -7 964.394 411.648   1
  -1  -4   7 79270.3 3280.24   5
  -1   4   7 79355.0 3690.40   4
  -1   4  -7 78463.6 3476.90   1
  -2   4   7 1437.51 537.459   4
  -2   4   7 2471.52 668.220   3
  -2   4  -7 2500.21 647.265   1
  -2  -4   7 1703.96 528.562   5
  -3   4   7 72818.9 3676.40   3
  -3  -4   7 73224.9 3513.61   5
  -3   4  -7 71078.7 3727.36   1
  -3   4   7 72493.5 3782.12   4
  -4   4   7 464.677 432.243   4
  -4   4  -7 435.407 394.731   1
  -4   4   7 30.6923 333.015   3
  -4  -4  -7 714.451 518.474   5
  -4  -4   7-194.565 201.201   5
  -5  -4  -7 57802.3 2720.49   1
  -5  -4  -7 60283.1 3457.67   5
  -5   4   7 55049.2 3472.32   3
  -5  -4   7 61480.3 3562.64   5
  -5   4  -7 64775.9 3965.67   1
  -5   4   7 63056.9 3847.58   4
  -6   4  -7-255.748 314.881   1
  -6   4   7 767.033 511.922   4
  -6   4   7 533.890 508.906   3
  -6  -4  -7 601.365 495.679   5
  -6  -4   7 532.869 440.102   5
  -7   4   7 37455.3 3100.16   3
  -7  -4  -7 40138.0 2904.20   5
  -7  -4   7 40545.2 3226.98   5
  -7   4  -7 40476.8 3568.75   1
  -7   4   7 44212.7 3404.27   4
  -8   4   7-547.639 464.850   3
  -8  -4   7 1675.88 820.783   5
  -8   4  -7 1619.94 874.711   1
   8   4   8 58187.6 4808.60   2
   8   4  -8 61890.6 4992.18   2
   7   4  -8 1240.31 685.244   2
   7   4   8 593.115 437.143   2
   6   4   8 83779.7 5285.23   2
   6   4  -8 95266.2 5379.09   2
   5   4  -8 6475.10 1262.26   2
   5   4   8 8093.13 1528.78   2
   4   4  -8 121899. 5185.70   2
   3   4  -8 2453.21 461.981   1
   3   4  -8 2126.87 589.025   2
   3   4   8 2520.89 636.596   4
   3  -4   8 2161.08 401.312   5
   2   4  -8 137088. 4170.29   1
   2  -4   8 148409. 4092.81   5
   2   4  -8 135845. 4572.22   2
   2   4   8 138820. 5029.00   4
   1   4  -8 5440.46 801.406   1
   1   4   8 6583.58 1017.35   4
   1   4  -8 7601.58 858.510   2
   1  -4   8 5652.82 766.023   5
   0  -4   8 152778. 4676.76   5
   0   4   8 147219. 5324.70   4
   0   4  -8 144351. 4803.43   1
  -1   4   8 7267.58 1145.79   4
  -1  -4   8 5101.25 825.929   5
  -1   4  -8 4476.30 833.860   1
  -2  -4   8 140315. 4983.80   5
  -2   4   8 145983. 5644.96   4
  -2   4  -8 148246. 5362.61   1
  -3   4   8 2372.37 721.785   4
  -3   4  -8 2701.49 738.783   1
  -3  -4   8 1722.78 624.167   5
  -4   4   8 115789. 5014.04   3
  -4  -4  -8 107847. 4803.46   5
  -4  -4   8 107329. 4723.34   5
  -4   4  -8 110085. 5155.86   1
  -4   4   8 107751. 5240.42   4
  -5   4   8 7493.90 1387.39   4
  -5   4  -8 7358.75 1390.21   1
  -5   4   8 8301.86 1370.18   3
  -5  -4  -8 7214.57 1216.61   5
  -5  -4   8 8595.43 1389.01   5
  -5  -4  -8 6729.21 957.481   1
  -6   4   8 83718.7 4615.52   3
  -6  -4  -8 87327.5 4377.06   5
  -6  -4   8 89031.2 4709.68   5
  -6   4  -8 86238.5 5067.76   1
  -6   4   8 91653.9 5133.69   4
  -7   4   8 721.269 602.263   4
  -7   4   8 913.490 536.377   3
  -7  -4  -8 1162.63 413.646   5
  -7  -4   8 246.827 486.632   5
  -7   4  -8 1806.25 838.141   1
  -8   4   8 57800.7 4091.64   3
  -8  -4   8 53401.2 4049.90   5
  -8   4  -8 55144.1 4506.22   1
   8   4  -9 1780.05 1075.60   2
   7   4   9 27497.5 3177.38   2
   7   4  -9 25215.2 2995.15   2
   6   4  -9 1081.64 649.741   2
   6   4   9 470.136 647.565   2
   5   4  -9 44192.0 3382.19   2
   4   4  -9 743.719 487.225   2
   4   4   9 1058.90 464.852   4
   3   4  -9 54982.3 2481.75   1
   3   4  -9 53101.6 3056.52   2
   3   4   9 54938.7 3107.75   4
   2   4  -9 199.526 233.015   2
   2   4   9 344.990 321.449   4
   2   4  -9 582.801 304.908   1
   2  -4   9 388.361 213.008   5
   1   4  -9 62817.0 3005.10   1
   1  -4   9 66749.6 2902.08   5
   1   4  -9 67644.6 2601.74   2
   1   4   9 66790.1 3497.04   4
   0   4  -9 2151.09 609.514   1
   0   4   9 1192.60 563.425   4
   0  -4   9 1821.22 501.023   5
  -1  -4   9 68057.8 3227.59   5
  -1   4   9 68911.5 3806.43   4
  -1   4  -9 63050.5 3330.70   1
  -2   4   9 620.399 399.586   4
  -2   4  -9 553.243 388.554   1
  -2  -4   9 185.660 261.880   5
  -3  -4   9 53172.5 3112.83   5
  -3   4   9 47587.5 3450.94   4
  -3   4  -9 49786.8 3275.36   1
  -4   4   9-54.8186 348.375   4
  -4   4  -9 362.885 446.187   1
  -4  -4  -9 824.051 502.912   5
  -4  -4   9 997.759 511.963   5
  -5  -4  -9 42017.9 2677.15   1
  -5  -4  -9 47845.1 3239.85   5
  -5  -4   9 47866.6 3287.69   5
  -5   4  -9 43891.0 3446.26   1
  -5   4   9 47128.1 3704.51   4
  -6   4   9 946.622 639.585   4
  -6   4  -9 2175.56 900.794   1
  -6  -4  -9 373.149 322.397   5
  -6  -4   9 680.825 541.252   5
  -7  -4   9 28745.9 2837.32   5
  -7   4  -9 30714.2 3221.22   1
  -7   4   9 22328.1 2694.14   4
   7   4 -10 1521.78 768.761   2
   7   4  10 1877.47 922.581   2
   6   4 -10 88440.4 5371.78   2
   5   4 -10 3740.65 1021.47   2
   4   4 -10 133458. 5672.87   2
   4   4  10 138102. 5381.11   4
   3   4 -10 5965.67 996.452   2
   3   4  10 6796.73 1136.55   4
   3   4 -10 5052.92 801.945   1
   2   4 -10 170933. 5388.39   1
   2  -4  10 175948. 5108.39   5
   2   4 -10 162332. 5176.41   2
   2   4  10 174370. 6147.16   4
   1   4 -10 172.737 147.821   2
   1   4  10 752.480 357.507   4
   1   4 -10 539.738 262.520   1
   1  -4  10 301.968 248.832   5
   0   4 -10 170211. 5789.26   1
   0  -4  10 174580. 5490.82   5
   0   4  10 172755. 6418.32   4
  -1   4  10 494.666 328.525   4
  -1  -4  10 269.266 262.861   5
  -1   4 -10 388.613 251.021   1
  -2  -4  10 171034. 5861.74   5
  -2   4  10 161502. 6689.21   4
  -2   4 -10 167663. 6196.04   1
  -3   4  10 3774.40 998.227   4
  -3   4 -10 5109.37 1100.39   1
  -3  -4  10 5497.58 1015.11   5
  -4  -4  10 129737. 5517.35   5
  -4   4  10 121090. 6102.73   4
  -4   4 -10 134368. 6021.51   1
  -5   4  10 1818.85 783.053   4
  -5  -4 -10 3416.43 782.457   1
  -5   4 -10 3640.04 1080.52   1
  -5  -4 -10 2308.91 669.079   5
  -5  -4  10 2864.08 891.377   5
  -6  -4 -10 88017.3 4635.85   5
  -6   4 -10 98605.2 5681.89   1
  -6  -4  10 95792.2 5147.39   5
  -7   4 -10 914.192 609.563   1
  -7   4  10-964.559 616.126   4
  -7  -4  10 1038.35 619.723   5
   7   4 -11 21810.0 2923.10   2
   6   4 -11 119.149 312.630   2
   5   4 -11 25254.8 2650.23   2
   4   4 -11 884.654 530.949   2
   4   4  11 318.313 386.646   4
   3   4 -11 32657.1 2227.42   1
   3   4 -11 34782.5 2494.90   2
   3   4  11 33138.5 2605.51   4
   2   4  11 590.388 421.851   4
   2   4 -11 989.272 542.629   1
   2  -4  11 200.510 249.366   5
   1   4 -11 42866.3 2763.22   1
   1  -4  11 40770.3 2491.62   5
   1   4  11 37720.8 2899.15   4
   0   4  11 2905.53 808.157   4
   0   4 -11 1397.07 540.977   1
   0  -4  11 3042.70 711.700   5
  -1   4 -11 43186.7 2983.63   1
  -1  -4  11 43019.9 2743.47   5
  -1   4  11 38442.9 3132.00   4
  -2   4  11 1125.93 546.297   4
  -2  -4  11 855.441 477.754   5
  -2   4 -11 585.607 331.298   1
  -3  -4  11 30115.7 2515.12   5
  -3   4  11 29595.7 2938.63   4
  -3   4 -11 36048.8 2940.20   1
  -4   4 -11 140.005 348.582   1
  -4  -4  11 295.376 307.883   5
  -5  -4 -11 30535.2 2774.72   5
  -5  -4  11 32198.8 2869.70   5
  -5  -4 -11 33608.7 2674.15   1
  -5   4 -11 34949.6 3242.81   1
  -5   4  11 29567.8 3135.92   4
  -6   4  11 658.830 529.866   4
  -6   4 -11 1537.29 777.816   1
  -6  -4 -11 880.814 692.737   5
  -6  -4  11 246.143 525.422   5
  -7   4  11 21713.4 2846.98   4
   7   4 -12 1356.10 937.223   2
   6   4 -12 55856.6 4403.55   2
   5   4 -12 1013.06 561.054   2
   4   4  12 83037.3 4355.14   4
   3   4  12 5499.60 1090.87   4
   3   4 -12 2983.48 679.049   1
   2   4 -12 104508. 4590.47   1
   2   4  12 112352. 5249.86   4
   1   4  12 99.1589 267.244   4
   1   4 -12-178.763 202.352   1
   1  -4  12-25.4262 185.857   5
   0   4 -12 103847. 4846.84   1
   0  -4  12 108619. 4603.25   5
   0   4  12 101758. 5266.93   4
  -1   4 -12-42.8488 227.102   1
  -1   4  12 594.193 468.381   4
  -1  -4  12 85.3360 265.004   5
  -2  -4  12 108224. 4888.51   5
  -2   4  12 102493. 5629.61   4
  -2   4 -12 110575. 5332.89   1
  -3   4  12 2981.79 941.261   4
  -3  -4  12 3242.54 904.370   5
  -3   4 -12 2726.58 899.072   1
  -4  -4  12 81710.5 4608.60   5
  -4   4  12 74384.1 5001.40   4
  -4   4 -12 82207.1 4954.08   1
  -5   4  12 1569.39 809.520   4
  -5   4 -12 469.926 584.272   1
  -5  -4 -12 170.144 291.645   1
  -5  -4 -12 919.996 591.635   5
  -5  -4  12 792.557 475.265   5
  -6  -4 -12 57768.2 3992.64   5
  -6  -4  12 60664.3 4367.73   5
  -6   4 -12 72761.5 5102.11   1
  -6   4  12 59960.8 4773.78   4
  -7   4  12 290.138 619.584   4
   4   4  13 240.820 290.951   4
   3   4  13 27664.7 2598.58   4
   2   4  13-77.2795 326.316   4
   2   4 -13 3.24507 233.093   1
   1   4 -13 41917.3 3081.91   1
   1  -4  13 41299.7 2848.38   5
   1   4  13 39625.5 3246.31   4
   0  -4  13 723.447 409.722   5
   0   4 -13-1.21837 263.478   1
  -1   4 -13 41113.7 3211.51   1
  -1  -4  13 43098.6 3044.46   5
  -1   4  13 36962.1 3319.70   4
  -2   4  13-550.929 600.356   4
  -2  -4  13 478.713 489.892   5
  -2   4 -13 737.250 488.033   1
  -3  -4  13 33881.5 2901.98   5
  -3   4  13 32200.1 3259.74   4
  -3   4 -13 29553.0 2919.24   1
  -4   4  13 117.274 283.300   4
  -4   4 -13 325.275 573.549   1
  -4  -4  13-670.568 485.815   5
  -5  -4 -13 26010.7 2698.57   5
  -5  -4  13 32953.4 3103.12   5
  -5  -4 -13 31711.8 2814.69   1
  -5   4  13 28492.3 3231.83   4
  -5   4 -13 32516.3 3369.61   1
  -6   4  13 2157.33 977.257   4
   4   4  14 58083.1 3940.05   4
   3   4  14 141.573 406.904   4
   2   4 -14 70430.8 4123.43   1
   2   4  14 71289.9 4508.51   4
   1   4  14 273.264 387.159   4
   1   4 -14 744.357 422.384   1
   1  -4  14 1392.89 635.035   4
   0   4 -14 73044.2 4393.20   1
   0  -4  14 69364.6 4026.32   5
   0   4  14 64079.6 4487.10   4
  -1   4  14 489.008 484.729   4
  -1   4 -14 41.1837 442.461   1
  -1  -4  14 1104.05 466.254   5
  -2  -4  14 75109.3 4389.43   5
  -2   4  14 67137.3 4742.60   4
  -2   4 -14 68017.7 4515.81   1
  -3   4  14-111.010 519.505   4
  -3  -4  14 429.196 338.396   5
  -3   4 -14 418.112 271.313   1
  -4  -4  14 65135.6 4400.36   5
  -4   4  14 59021.0 4677.11   4
  -4   4 -14 64953.4 4780.51   1
  -5   4  14 1020.80 666.950   4
  -5  -4 -14 1000.77 536.151   1
  -5   4 -14 1650.31 737.023   1
  -5  -4  14 1515.26 662.646   5
   4   4  15 580.456 522.137   4
   3   4  15 21220.9 2468.14   4
   2   4  15 385.309 528.312   4
   2   4 -15 463.388 402.112   1
   1   4 -15 22925.6 2465.91   1
   1   4  15 19693.9 2460.92   4
   0   4  15 461.263 573.647   4
   0   4 -15 276.842 381.627   1
   0  -4  15 977.993 463.618   5
   0  -4  15 29.0689 329.750   4
  -1   4 -15 26184.0 2818.87   1
  -1  -4  15 27625.5 2687.37   5
  -1   4  15 26555.1 2960.15   4
  -2   4 -15-750.346 538.410   1
  -2   4  15 500.666 555.628   4
  -2  -4  15-202.848 344.765   5
  -3   4  15 22182.8 2812.96   4
  -3  -4  15 20423.9 2439.56   5
  -3   4 -15 20199.1 2603.09   1
  -4   4  15 274.062 336.632   4
  -4   4 -15 1092.73 778.943   1
  -4  -4  15 198.897 497.186   5
  -5  -4 -15 18524.4 2304.41   1
   4   4  16 31850.7 3131.48   4
   3   4  16 1134.30 620.471   4
   2   4 -16 49876.2 3756.10   1
   2   4  16 43632.0 3753.89   4
   1   4  16 164.656 498.288   4
   1   4 -16-776.795 525.898   1
   0   4 -16 52656.2 4067.75   1
   0  -4  16 49802.4 4074.05   4
   0   4  16 50220.1 4139.54   4
  -1   4 -16 436.207 404.988   1
  -1  -4  16 80.1350 316.883   5
  -1  -4  16-509.742 539.183   4
  -2   4 -16 47920.0 4097.62   1
  -2  -4  16 45163.4 3740.53   5
  -2   4  16 53369.5 4392.11   4
  -3   4  16-108.325 437.099   4
  -3  -4  16-455.366 486.758   5
  -3   4 -16 325.038 479.467   1
   4   4  17 1230.25 654.148   4
   3   4  17 15993.8 2294.51   4
   2   4  17 932.507 447.355   4
   2   4 -17 994.293 563.903   1
   1   4 -17 27126.6 2904.31   1
   1   4  17 24292.0 2912.67   4
   0   4  17-95.9380 499.646   4
   0   4 -17 91.7824 431.080   1
  -1   4 -17 27527.3 3090.61   1
  -1  -4  17 25886.5 3158.37   4
  -1   4  17 24182.5 2995.32   4
  -2   4 -17 592.140 399.572   1
  -2   4  17 665.794 557.099   4
  -2  -4  17-178.196 578.805   5
  -3  -4  17 17391.5 2427.92   5
  -4  -4 -17 246.481 361.017   1
   3   4  18 209.193 352.142   4
   2   4  18 38331.1 3656.37   4
   1   4  18 1053.83 658.361   4
   1   4 -18 920.986 702.220   1
   0   4 -18 38128.4 3698.53   1
   0   4  18 37099.3 3718.31   4
  -1  -4  18-265.876 434.627   4
  -1   4 -18 604.908 678.447   1
  -2  -4  18 36124.7 4029.91   4
   1   4 -19 3559.96 1123.26   1
   8   5   0 28764.2 3366.81   2
   7   5   0 692.005 598.661   2
   6   5   0 63839.6 4445.74   2
   5   5   0 96.5095 331.558   2
   4  -5   0 65987.4 2669.83   5
   4   5   0 76249.7 4282.68   2
   3  -5   0 139.713 156.466   5
   3   5   0 13.2805 276.938   2
   2   5   0 110232. 3268.87   3
   2  -5   0 113089. 3854.40   5
   2   5   0 107216. 4807.20   2
   1   5   0 7.49181 145.562   3
   1  -5   0 233.304 268.110   5
   0   5   0 106428. 3594.75   3
   0  -5   0 104919. 3901.74   5
  -1   5   0 26.3381 185.396   1
  -1  -5   0 312.917 246.169   5
  -2   5   0 114108. 4579.52   1
  -2  -5   0 108663. 4200.15   5
  -2  -5   0 108923. 2987.52   1
  -2   5   0 108798. 3474.91   4
  -3   5   0 263.327 176.304   4
  -3   5   0-156.960 339.799   1
  -3  -5   0 371.016 415.727   5
  -4  -5   0 69689.9 3579.60   5
  -4   5   0 64817.8 3843.95   1
  -4   5   0 67805.1 2533.65   4
  -5   5   0 81.7637 374.887   1
  -5  -5   0 1197.04 589.578   5
  -6  -5   0 64321.9 3788.80   5
  -6   5   0 52409.2 3948.92   1
  -7   5   0-87.1011 382.290   1
  -7  -5   0 418.073 465.152   5
  -8  -5   0 37670.3 3134.66   5
  -8   5   0 32883.9 2970.37   3
  -9  -5   0 351.694 452.993   5
   8   5   1 1335.51 781.833   2
   8   5  -1-556.657 494.888   2
   7   5   1 75201.2 5192.40   2
   7   5  -1 77926.8 5243.26   2
   6   5   1 792.936 677.996   2
   6   5  -1 450.367 466.900   2
   5   5   1 221712. 8264.69   2
   5   5  -1 220580. 8135.32   2
   4   5  -1 101.869 209.284   2
   4  -5   1 229.311 191.072   5
   4   5   1 245.068 422.170   2
   3  -5   1 128521. 3841.54   5
   3   5  -1 128971. 5381.33   2
   3   5   1 125744. 5503.28   2
   2   5   1 555.517 205.917   3
   2   5  -1 1077.45 291.361   3
   2  -5   1 854.657 285.811   5
   2   5   1 223.757 326.609   2
   2   5  -1 968.778 530.083   2
   1  -5  -1 283486. 7102.09   5
   1  -5   1 276677. 6649.28   5
   1   5   1 270443. 6359.27   3
   1   5  -1 270419. 6196.45   3
   0   5  -1 1105.00 374.175   1
   0  -5  -1 2607.22 618.128   5
   0  -5   1 1433.09 445.546   5
   0   5   1 1752.64 458.422   3
  -1   5   1 281445. 6946.74   3
  -1   5  -1 270373. 7235.34   1
  -1  -5   1 276492. 7081.80   5
  -1  -5  -1 270815. 7248.35   5
  -1   5   1 273290. 6559.33   4
  -2  -5  -1 1154.73 307.962   1
  -2   5   1 1425.50 478.862   4
  -2  -5  -1 655.743 337.851   5
  -2  -5   1 709.363 279.386   5
  -2   5  -1 615.586 252.144   1
  -2  -5   1 1065.03 229.313   1
  -3  -5  -1 133398. 4913.22   5
  -3  -5   1 123279. 4718.25   5
  -3   5   1 125610. 5178.27   1
  -3   5  -1 122388. 5103.38   1
  -3   5   1 131208. 3986.56   4
  -4   5   1 282.534 192.706   4
  -4   5   1 373.399 371.656   1
  -4  -5  -1 61.1572 228.629   5
  -4  -5   1 304.891 314.374   5
  -4   5  -1 109.888 264.760   1
  -5  -5  -1 212584. 7085.95   5
  -5  -5   1 210249. 7042.41   5
  -5   5   1 212950. 7869.38   1
  -5   5  -1 210988. 7775.66   1
  -5   5   1 223458. 5529.21   4
  -6   5   1 804.547 524.826   3
  -6   5  -1 380.186 524.514   1
  -6  -5  -1 294.398 375.807   5
  -6  -5   1 303.579 433.034   5
  -6   5   1-56.5427 408.602   1
  -7  -5  -1 67996.4 4100.46   5
  -7  -5   1 72427.8 4230.87   5
  -7   5   1 74134.1 4278.86   3
  -7   5  -1 78707.3 5078.72   1
  -8   5  -1 657.455 582.982   1
  -8   5   1 430.508 606.329   3
  -8  -5  -1 242.054 334.731   5
  -8  -5   1 137.013 278.180   5
  -9  -5   1 60657.5 4220.30   5
   8   5  -2 23851.1 3030.22   2
   8   5   2 28124.9 3362.58   2
   7   5   2 696.787 717.840   2
   7   5  -2 912.357 590.012   2
   6   5   2 53050.8 4096.61   2
   6   5  -2 53227.0 4011.70   2
   5   5   2 1285.31 704.434   2
   5   5  -2 436.936 544.964   2
   4  -5   2 58044.7 2096.12   5
   4   5   2 61258.0 3912.15   2
   4   5  -2 56851.3 3640.54   2
   3   5  -2 1095.94 548.454   2
   3   5  -2 724.059 183.145   3
   3  -5   2 847.547 248.933   5
   2  -5   2 77270.0 2885.75   5
   2   5  -2 78505.2 2553.69   3
   2   5  -2 85085.8 4050.11   2
   1   5   2 2865.16 590.106   3
   1   5  -2 1918.11 455.874   1
   1  -5   2 2739.18 560.945   5
   0  -5  -2 68072.3 3260.97   5
   0   5   2 67987.8 2915.41   3
   0   5  -2 66041.6 2900.87   1
   0  -5   2 64716.8 2883.39   5
   0   5   2 69901.8 2972.37   4
  -1   5   2 2541.78 585.144   4
  -1   5   2 1450.36 474.699   3
  -1  -5  -2 2226.16 618.423   5
  -1  -5   2 2375.75 575.839   5
  -1   5  -2 1956.84 501.676   1
  -2  -5   2 78714.6 2312.46   1
  -2  -5  -2 74341.0 3523.24   5
  -2  -5   2 81668.7 3558.48   5
  -2   5   2 76414.2 3425.45   3
  -2   5  -2 78833.6 3680.42   1
  -2   5   2 77805.9 3103.08   4
  -3   5   2 729.081 320.040   4
  -3   5   2 1181.37 526.733   3
  -3  -5  -2 1083.00 500.760   5
  -3  -5   2 310.390 319.179   5
  -3   5  -2 1006.86 456.106   1
  -4  -5  -2 57522.5 3270.25   5
  -4  -5   2 56911.0 3220.04   5
  -4   5   2 56654.0 3185.65   3
  -4   5  -2 56180.6 3515.93   1
  -4   5   2 54004.3 2562.13   4
  -5   5   2 1000.50 423.757   4
  -5   5   2 1407.89 629.195   3
  -5  -5  -2 1649.25 674.640   5
  -5  -5   2 1123.33 635.835   5
  -5   5  -2 855.192 579.271   1
  -6  -5  -2 57201.4 3522.56   5
  -6  -5   2 54137.9 3482.14   5
  -6   5   2 48150.4 3306.86   3
  -6   5  -2 49869.0 3814.93   1
  -7   5   2-58.0897 320.121   3
  -7   5  -2 102.335 548.454   1
  -7  -5  -2 101.076 358.649   5
  -7  -5   2 793.369 610.376   5
  -8   5   2 31709.1 2939.05   3
  -8  -5  -2 29638.2 2775.14   5
  -8  -5   2 28601.7 2770.48   5
  -8   5  -2 30407.8 3335.57   1
   8   5   3 1578.86 980.403   2
   8   5  -3 745.215 657.644   2
   7   5   3 87052.5 5650.10   2
   7   5  -3 85460.3 5514.99   2
   6   5   3 960.254 552.507   2
   6   5  -3 405.414 425.756   2
   5   5   3 217441. 8399.17   2
   5   5  -3 224120. 8176.70   2
   4   5  -3 258.787 305.542   2
   4   5   3-78.3910 292.289   2
   3  -5   3 149522. 3954.86   5
   3   5  -3 153477. 3369.25   3
   3   5   3 150108. 6285.37   2
   3   5  -3 156387. 5914.69   2
   2   5  -3 80.5127 100.035   1
   2  -5   3-24.5629 126.378   5
   1  -5   3 284346. 6733.77   5
   1   5   3 283641. 6883.76   3
   1   5  -3 286548. 6569.45   1
   1   5   3 291738. 7310.35   4
   0   5   3 1507.35 442.365   4
   0   5   3 1595.84 460.655   3
   0  -5   3 1303.50 403.132   5
   0   5  -3 1366.02 423.469   1
  -1  -5  -3 293756. 7858.72   5
  -1   5   3 280693. 7299.17   3
  -1  -5   3 280740. 7186.61   5
  -1   5  -3 282413. 7393.74   1
  -1   5   3 286580. 7083.48   4
  -2   5   3 657.204 350.925   4
  -2  -5   3 547.941 180.787   1
  -2   5   3-43.1918 242.192   3
  -2  -5  -3 397.766 253.528   5
  -2  -5   3 299.181 303.645   5
  -2   5  -3 894.855 415.231   1
  -3  -5  -3 156243. 5534.59   5
  -3  -5   3 150488. 5282.57   5
  -3   5   3 141027. 5189.30   3
  -3   5  -3 149506. 5684.22   1
  -3   5   3 156131. 4823.05   4
  -4   5   3 526.634 316.964   4
  -4   5   3-112.123 283.831   3
  -4  -5  -3 108.376 254.705   5
  -4  -5   3 153.088 231.266   5
  -4   5  -3 284.474 428.574   1
  -5  -5  -3 220944. 7185.33   5
  -5   5   3 209576. 7104.40   3
  -5  -5   3 210649. 7116.79   5
  -5   5  -3 212235. 7783.18   1
  -5   5   3 217605. 6044.53   4
  -6   5   3-10.4416 301.501   3
  -6  -5  -3 771.262 519.633   5
  -6  -5   3-668.051 434.540   5
  -6   5  -3 16.1610 403.005   1
  -7   5   3 87224.7 4771.06   3
  -7  -5  -3 86346.9 4606.91   5
  -7  -5   3 84701.2 4684.83   5
  -7   5  -3 85452.0 5349.28   1
  -8   5   3-153.201 331.049   3
  -8   5  -3 593.896 702.410   1
  -8  -5  -3-155.514 297.215   5
  -8  -5   3 991.027 674.684   5
   8   5  -4 22047.3 2931.84   2
   7   5   4 319.201 518.339   2
   7   5  -4 282.018 612.267   2
   6   5   4 37002.8 3449.35   2
   6   5  -4 44299.5 3672.29   2
   5   5  -4 232.208 421.366   2
   5   5   4 1729.65 795.404   2
   4   5   4 36575.0 3154.83   2
   4   5  -4 35056.5 2832.03   2
   3   5  -4 1139.87 535.528   2
   3  -5   4 1104.89 317.905   5
   3   5   4 1527.21 682.378   2
   2  -5   4 49267.2 2179.83   5
   2   5  -4 50027.8 2021.47   1
   2   5  -4 50235.0 3008.27   2
   1   5   4 775.995 413.130   4
   1  -5   4 782.224 388.858   5
   1   5  -4 819.621 298.623   1
   0  -5   4 53982.8 2586.13   5
   0   5   4 50175.5 2633.75   3
   0   5  -4 54886.3 2629.64   1
   0   5   4 48596.4 2615.40   4
  -1   5   4 980.188 429.802   4
  -1   5   4 1288.23 491.185   3
  -1  -5   4 1366.30 517.417   5
  -1   5  -4 2213.62 635.723   1
  -2  -5  -4 47606.3 2916.07   5
  -2   5   4 50500.2 2864.47   3
  -2  -5   4 44324.4 2624.59   5
  -2   5  -4 42406.9 2730.02   1
  -2   5   4 48831.6 2595.87   4
  -3   5   4 1391.31 504.087   4
  -3   5   4 1287.06 567.523   3
  -3  -5  -4 965.011 488.548   5
  -3  -5   4 1780.68 612.034   5
  -3   5  -4 405.456 435.777   1
  -4  -5  -4 32998.2 2519.24   5
  -4   5   4 38271.9 2695.24   3
  -4  -5   4 38366.7 2657.80   5
  -4   5  -4 34976.3 2813.34   1
  -4   5   4 35241.6 2266.73   4
  -5   5   4 909.430 424.827   4
  -5   5   4 293.640 493.182   3
  -5  -5  -4 144.155 409.085   5
  -5  -5   4-91.3008 310.592   5
  -5   5  -4 141.457 542.203   1
  -6  -5  -4 35808.5 2812.10   5
  -6   5   4 38902.5 3031.36   3
  -6  -5   4 41674.4 3090.33   5
  -6   5  -4 33473.1 3108.15   1
  -7   5   4 61.2652 338.427   3
  -7  -5  -4 411.642 480.095   5
  -7  -5   4 437.030 437.907   5
  -7   5  -4 894.174 515.579   1
  -8   5   4 20119.7 2401.52   3
  -8  -5  -4 20752.0 2298.19   5
  -8  -5   4 20312.9 2401.12   5
  -8   5  -4 20418.3 2755.00   1
   8   5  -5 2601.87 1060.02   2
   7   5   5 81098.0 5556.41   2
   7   5  -5 85982.0 5587.48   2
   6   5  -5 228.870 434.462   2
   6   5   5-5.17303 356.945   2
   5   5   5 181725. 7788.72   2
   5   5  -5 189442. 7467.88   2
   4   5  -5-15.3360 241.267   2
   4   5   5-113.816 332.453   2
   3  -5   5 162414. 4079.79   5
   3   5  -5 163667. 6049.74   2
   2   5   5 2878.38 687.122   4
   2  -5   5 1987.19 431.112   5
   2   5  -5 2302.15 433.180   1
   2   5  -5 2425.53 636.853   2
   1  -5   5 279455. 6657.01   5
   1   5  -5 295594. 7627.87   2
   1   5  -5 273081. 6573.81   1
   1  -5   5 270920. 5876.02   2
   1   5   5 286310. 7465.71   4
   0   5  -5 2253.88 540.289   1
   0   5   5 2235.29 568.090   4
   0   5   5 2287.28 595.310   3
   0  -5   5 2185.29 535.166   5
  -1   5   5 283781. 7641.61   3
  -1  -5   5 279879. 7289.50   5
  -1   5  -5 285339. 7580.51   1
  -1   5   5 282894. 7438.77   4
  -2   5   5 1914.89 578.720   4
  -2   5   5 2088.87 594.866   3
  -2  -5  -5 2179.93 635.493   5
  -2  -5   5 2101.22 557.838   5
  -2   5  -5 2846.19 718.626   1
  -3  -5  -5 167618. 6029.85   5
  -3   5   5 169755. 5936.64   3
  -3  -5   5 174945. 5872.02   5
  -3   5  -5 162277. 6040.79   1
  -3   5   5 161430. 5471.28   4
  -4   5   5 335.208 383.010   4
  -4   5   5 352.290 371.757   3
  -4  -5  -5 434.073 419.423   5
  -4  -5   5 51.8543 263.647   5
  -4   5  -5-361.582 286.041   1
  -5  -5  -5 190887. 6753.36   5
  -5   5   5 182772. 6743.23   3
  -5  -5   5 178950. 6575.78   5
  -5   5  -5 187934. 7374.55   1
  -5   5   5 179823. 6007.09   4
  -6   5   5 525.495 379.491   4
  -6   5   5-81.4746 369.892   3
  -6  -5  -5 651.979 509.677   5
  -6  -5   5 15.7304 313.251   5
  -6   5  -5-47.2198 332.310   1
  -7  -5   5 84296.8 4758.70   5
  -7   5   5 76355.3 4601.31   3
  -7  -5  -5 82635.4 4522.27   5
  -7   5  -5 84459.0 5373.81   1
  -8   5   5-6.04873 509.912   3
  -8  -5  -5-721.569 471.553   5
  -8  -5   5 624.000 546.400   5
   7   5  -6 1172.87 677.000   2
   7   5   6 1262.16 707.683   2
   6   5   6 53097.7 4298.92   2
   6   5  -6 57595.8 4273.58   2
   5   5  -6-302.407 408.341   2
   5   5   6 431.902 523.674   2
   4   5   6 64834.5 4391.63   2
   4   5  -6 68980.3 4065.60   2
   3   5  -6 589.919 363.850   2
   3  -5   6-474.762 200.739   5
   2  -5   6 73339.0 2783.86   5
   2   5  -6 77317.1 3674.30   2
   2   5  -6 75225.7 2731.87   1
   2   5   6 77882.5 3628.38   4
   1   5  -6 952.501 386.218   1
   1   5   6 1409.02 518.250   4
   1  -5   6 524.487 263.839   5
   1   5  -6 676.257 357.873   2
   0  -5   6 89993.2 3564.55   5
   0   5  -6 91364.6 3695.88   1
   0   5   6 94128.0 3976.67   4
  -1   5  -6 1842.85 546.846   1
  -1   5   6 1094.38 397.559   4
  -1   5   6 467.046 331.839   3
  -1  -5   6 934.936 405.989   5
  -2   5   6 75925.5 3744.43   3
  -2  -5   6 74775.3 3579.58   5
  -2   5  -6 78284.9 3859.03   1
  -2   5   6 77510.7 3687.83   4
  -3   5  -6 568.717 405.000   1
  -3   5   6 28.3896 200.795   4
  -3   5   6 438.375 504.151   3
  -3  -5  -6-193.224 299.003   5
  -3  -5   6 646.283 462.147   5
  -4  -5  -6 64321.5 3705.91   5
  -4  -5   6 63098.0 3567.22   5
  -4   5   6 60005.8 3626.37   3
  -4   5  -6 65346.2 3938.05   1
  -4   5   6 59386.1 3356.69   4
  -5   5   6 1940.59 616.063   4
  -5   5   6 1345.30 689.676   3
  -5  -5  -6 951.151 600.442   5
  -5  -5   6 836.882 609.007   5
  -5   5  -6 649.313 420.934   1
  -6   5   6 54348.7 3733.90   3
  -6  -5  -6 48586.9 3368.38   5
  -6  -5   6 51330.1 3533.18   5
  -6   5  -6 46863.7 3765.90   1
  -6   5   6 53944.1 3326.87   4
  -7   5   6-67.0361 452.038   3
  -7  -5  -6 602.675 646.353   5
  -7  -5   6 394.599 508.192   5
  -7   5  -6 619.888 677.002   1
  -8   5   6 26674.2 2826.90   3
   7   5   7 62878.9 5008.06   2
   7   5  -7 73992.2 5297.94   2
   6   5  -7 983.235 598.122   2
   6   5   7 1246.34 806.645   2
   5   5   7 95285.9 5668.65   2
   5   5  -7 103069. 5481.07   2
   4   5  -7 523.505 377.665   2
   3   5  -7 96255.3 4466.94   2
   2   5  -7 3241.17 739.752   2
   2   5  -7 2234.35 487.023   1
   2   5   7 1655.76 537.940   4
   2  -5   7 2110.41 448.984   5
   1  -5   7 117135. 3919.10   5
   1   5  -7 108419. 4084.54   2
   1   5  -7 117753. 4050.65   1
   1   5   7 114846. 4606.60   4
   0   5   7 7080.89 1099.71   4
   0   5  -7 8263.66 1085.29   1
   0  -5   7 8753.60 1060.84   5
  -1  -5   7 124575. 4533.81   5
  -1   5  -7 116515. 4657.62   1
  -1   5   7 123827. 4880.60   4
  -2   5   7 2313.13 625.178   4
  -2   5  -7 2084.92 627.495   1
  -2   5   7 1774.27 606.249   3
  -2  -5   7 2309.64 645.599   5
  -3  -5  -7 89749.6 4415.04   5
  -3   5   7 88967.9 4392.22   3
  -3  -5   7 91773.7 4243.63   5
  -3   5  -7 97245.9 4680.72   1
  -3   5   7 89811.7 4309.19   4
  -4   5  -7 375.840 460.041   1
  -4   5   7 828.986 373.758   4
  -4   5   7 368.681 279.073   3
  -4  -5  -7 902.780 370.311   5
  -4  -5   7 700.283 440.503   5
  -5   5   7 104603. 5150.53   3
  -5  -5  -7 96923.2 4803.99   5
  -5  -5   7 100126. 4877.75   5
  -5   5  -7 103932. 5461.72   1
  -5   5   7 101669. 4840.22   4
  -6   5   7 695.066 610.207   4
  -6   5   7 443.757 435.030   3
  -6  -5  -7 463.603 503.052   5
  -6  -5   7 369.327 507.872   5
  -6   5  -7 475.954 516.176   1
  -7   5   7 61103.5 4231.01   3
  -7  -5   7 61010.6 4189.11   5
  -7  -5  -7 57599.3 3842.99   5
  -7   5  -7 57715.0 4527.08   1
   7   5  -8 1163.79 1029.70   2
   7   5   8-342.790 469.728   2
   6   5   8 39886.9 3838.58   2
   6   5  -8 49436.1 4067.86   2
   5   5  -8 740.120 493.850   2
   4   5  -8 53556.3 3603.56   2
   3   5  -8 826.780 454.220   2
   3   5   8 904.037 450.146   4
   2  -5   8 58282.2 2544.50   5
   2   5  -8 55105.7 3036.32   2
   2   5  -8 52591.8 2480.88   1
   2   5   8 53557.1 3172.12   4
   1   5   8 450.813 339.363   4
   1   5  -8-6.78461 128.631   1
   1  -5   8 210.842 272.583   5
   1   5  -8 282.045 263.532   2
   0  -5   8 79341.1 3400.37   5
   0   5  -8 78836.6 3593.74   1
   0   5   8 74488.8 3821.00   4
  -1   5   8 8.95905 281.159   4
  -1   5  -8 679.203 495.926   1
  -1  -5   8 368.190 354.918   5
  -2  -5   8 50928.0 3008.30   5
  -2   5  -8 51930.9 3246.80   1
  -2   5   8 59604.2 3534.51   4
  -3   5   8 777.990 457.371   4
  -3   5  -8 109.729 348.752   1
  -3   5   8 301.161 351.988   3
  -3  -5   8 143.022 367.869   5
  -4   5   8 49099.8 3420.70   3
  -4  -5  -8 47933.2 3321.53   5
  -4  -5   8 49222.4 3255.71   5
  -4   5  -8 49102.3 3548.56   1
  -4   5   8 49762.5 3421.38   4
  -5   5  -8 60.1530 370.534   1
  -5   5   8 599.616 591.356   4
  -5   5   8 302.229 508.595   3
  -5  -5  -8 831.779 515.485   5
  -5  -5   8 669.302 483.289   5
  -6  -5  -8 42191.5 3220.22   5
  -6  -5   8 40432.0 3288.01   5
  -6   5   8 40147.7 3348.42   3
  -6   5  -8 42985.2 3737.49   1
  -6   5   8 39998.3 3236.15   4
  -7   5   8-181.853 411.046   3
  -7  -5  -8-116.797 294.337   5
  -7  -5   8-215.671 368.783   5
   7   5   9 66683.4 5277.03   2
   7   5  -9 65767.0 5171.84   2
   6   5  -9 773.298 569.931   2
   5   5  -9 106277. 5678.48   2
   4   5  -9 999.965 554.064   2
   3   5  -9 139326. 5529.90   2
   3   5   9 142651. 5609.22   4
   2   5  -9 3630.82 757.843   2
   2   5   9 5272.27 1029.79   4
   2   5  -9 5107.91 794.495   1
   2  -5   9 3852.16 681.021   5
   1   5  -9 164419. 5382.01   1
   1   5   9 168522. 6184.18   4
   0   5   9 5307.77 1051.47   4
   0   5  -9 4326.07 847.970   1
   0  -5   9 4173.47 766.764   5
  -1  -5   9 178544. 5919.80   5
  -1   5  -9 179302. 6237.66   1
  -1   5   9 195242. 6883.55   4
  -2   5   9 5233.82 1088.44   4
  -2   5  -9 3847.60 908.661   1
  -2  -5   9 4589.78 893.458   5
  -3  -5   9 140522. 5651.93   5
  -3   5  -9 146267. 6148.32   1
  -3   5   9 149720. 6304.02   4
  -4   5   9 842.829 498.297   4
  -4   5  -9 789.174 650.072   1
  -4  -5  -9 551.336 424.327   5
  -4  -5   9 1366.85 591.621   5
  -5   5   9 101493. 5305.26   3
  -5  -5  -9 102589. 5208.03   5
  -5  -5   9 96433.9 5054.50   5
  -5   5  -9 106558. 5760.53   1
  -5   5   9 102996. 5467.36   4
  -6   5  -9 174.590 525.832   1
  -6   5   9-871.009 542.597   4
  -6   5   9-93.1522 374.853   3
  -6  -5  -9 245.566 349.813   5
  -6  -5   9 175.423 415.359   5
  -7   5   9 66912.0 4593.30   3
  -7  -5  -9 67627.6 4314.20   5
   7   5 -10-330.862 464.416   2
   6   5 -10 27327.4 3112.59   2
   5   5 -10 1197.36 702.688   2
   4   5 -10 32242.9 2824.31   2
   3   5  10 1099.92 544.578   4
   2  -5  10 23270.6 1739.99   5
   2   5 -10 26837.2 1945.32   1
   2   5  10 24703.9 2299.39   4
   1   5  10 353.623 329.664   4
   1   5 -10 490.616 336.230   1
   1  -5  10 877.626 385.156   5
   0  -5  10 41187.6 2569.40   5
   0   5  10 38643.8 2991.87   4
   0   5 -10 45848.9 2885.16   1
  -1   5  10 1044.49 586.132   4
  -1   5 -10 1215.13 527.119   1
  -1  -5  10 432.037 325.194   5
  -2  -5  10 29276.6 2369.39   5
  -2   5 -10 25931.0 2426.91   1
  -2   5  10 25868.8 2589.76   4
  -3   5  10 1157.76 658.283   4
  -3   5 -10 326.258 428.716   1
  -3  -5  10 850.260 547.623   5
  -4  -5 -10 32491.2 2870.25   5
  -4  -5  10 25902.1 2445.63   5
  -4   5 -10 27960.0 2789.55   1
  -4   5  10 26602.2 2758.26   4
  -5   5  10 960.829 604.003   4
  -5   5 -10 405.039 485.240   1
  -5  -5 -10 1091.83 625.714   5
  -5  -5  10 1163.83 686.543   5
  -6  -5 -10 28309.0 2769.57   5
  -6  -5  10 23478.0 2613.82   5
  -6   5 -10 28288.5 3118.57   1
  -6   5  10 23118.0 2746.74   4
  -7   5  10 10.6422 246.432   4
   7   5 -11 62133.9 5165.37   2
   4   5  11 197.331 323.401   4
   3   5  11 114942. 5344.95   4
   2   5  11 394.770 239.782   4
   2   5 -11 329.312 200.299   1
   1  -5  11 108120. 4325.48   5
   1   5  11 109553. 5265.65   4
   1   5 -11 105363. 4530.75   1
   0   5  11 4077.84 999.377   4
   0  -5  11 3124.09 752.704   5
   0   5 -11 3826.45 864.690   1
  -1  -5  11 108316. 4665.02   5
  -1   5  11 112641. 5607.14   4
  -1   5 -11 104411. 4972.18   1
  -2   5  11 800.045 526.613   4
  -2   5 -11 622.423 509.630   1
  -2  -5  11 239.009 258.302   5
  -3  -5  11 115633. 5282.78   5
  -3   5 -11 117794. 5766.03   1
  -3   5  11 112113. 5946.49   4
  -4   5  11 554.428 534.771   4
  -4   5 -11 452.525 385.836   1
  -4  -5  11 154.753 427.062   5
  -5  -5 -11 61353.7 4220.88   5
  -5   5 -11 64705.1 4667.50   1
  -5   5  11 62653.3 4615.51   4
  -6   5 -11 971.030 632.722   1
  -6   5  11-38.7238 314.405   4
  -6  -5 -11 541.546 448.755   5
  -6  -5  11 274.453 476.910   5
  -7   5  11 51872.7 4433.94   4
   4   5  12 29669.4 2733.49   4
   3   5  12-238.801 385.478   4
   2   5  12 30512.5 2770.03   4
   2   5 -12 28546.3 2274.38   1
   1   5  12 72.0047 404.256   4
   1  -5  12 506.249 365.754   5
   1   5 -12 334.212 214.487   1
   0  -5  12 44095.8 2909.80   5
   0   5  12 43379.8 3487.53   4
   0   5 -12 46045.7 3203.22   1
  -1   5  12 469.246 499.043   4
  -1   5 -12 446.185 426.637   1
  -1  -5  12 329.546 261.921   5
  -2  -5  12 36338.6 2819.43   5
  -2   5  12 31141.2 3109.85   4
  -2   5 -12 29506.2 2826.19   1
  -3   5  12-77.1016 323.281   4
  -3   5 -12 433.937 325.576   1
  -3  -5  12-345.723 324.472   5
  -4  -5  12 32866.2 2953.81   5
  -4   5 -12 30838.3 3118.20   1
  -4   5  12 28256.0 3116.10   4
  -5   5  12 29.9370 503.918   4
  -5   5 -12 241.399 482.571   1
  -5  -5 -12 949.742 696.118   5
  -5  -5  12 1512.41 800.986   5
  -6   5  12 24058.4 3005.58   4
  -6  -5 -12 25800.0 2807.96   5
   4   5  13 17.0400 257.534   4
   3   5  13 79858.6 4728.81   4
   2   5  13 470.359 324.434   4
   1  -5  13 71695.7 3823.76   5
   1   5  13 59540.6 4204.87   4
   1   5 -13 67987.3 3966.67   1
   0   5  13 123.193 412.196   4
   0  -5  13 372.674 374.172   5
   0   5 -13 653.588 441.255   1
  -1  -5  13 62633.2 3792.13   5
  -1   5  13 63253.6 4537.53   4
  -1   5 -13 67408.9 4266.82   1
  -2   5  13 1505.21 746.648   4
  -2   5 -13 584.734 461.880   1
  -2  -5  13 384.245 360.029   5
  -3  -5  13 81267.4 4623.09   5
  -3   5 -13 85262.3 5208.13   1
  -4   5  13 111.630 410.918   4
  -4   5 -13 844.707 625.925   1
  -4  -5  13 765.923 663.074   5
  -5  -5 -13 33871.7 3331.15   5
  -5  -5  13 37178.4 3397.78   5
  -5   5 -13 41446.8 3939.26   1
  -5   5  13 34558.1 3607.05   4
  -6  -5 -13-872.192 576.135   5
   4   5  14 31618.8 3079.59   4
   3   5  14 384.893 588.971   4
   2   5  14 26622.7 2849.94   4
   1   5 -14-41.9863 255.160   1
   1   5  14-56.7689 377.458   4
   0  -5  14 36964.9 2934.65   5
   0   5  14 36370.1 3441.04   4
   0   5 -14 35036.8 3092.20   1
  -1   5  14-636.623 525.057   4
  -1  -5  14 159.434 419.818   5
  -1   5 -14 788.598 523.356   1
  -2  -5  14 31179.2 2842.74   5
  -2   5  14 27952.5 3164.88   4
  -2   5 -14 29575.8 3053.05   1
  -3   5  14 139.239 459.701   4
  -3   5 -14 103.253 431.234   1
  -3  -5  14 609.706 346.055   5
  -4   5  14 22220.8 2930.00   4
  -4  -5  14 24340.6 2710.15   5
  -4   5 -14 27916.0 3213.41   1
  -5  -5 -14 414.348 419.679   5
   4   5  15 358.671 419.945   4
   3   5  15 60043.1 4429.61   4
   2   5  15-172.796 483.941   4
   1   5 -15 48317.5 3724.75   1
   1   5  15 40413.0 3700.04   4
   0   5  15 308.863 325.084   4
   0  -5  15-194.751 420.786   5
  -1  -5  15 50662.2 3701.39   5
  -1   5  15 47106.8 4160.46   4
  -1   5 -15 43990.0 3749.10   1
  -2   5  15 650.021 485.066   4
  -2   5 -15-309.566 602.906   1
  -2  -5  15 215.289 341.142   5
  -3  -5  15 60172.5 4345.43   5
  -3   5  15 57742.6 4759.97   4
  -3   5 -15 67680.8 5026.75   1
  -5  -5 -15 20495.9 2671.09   5
   4   5  16 16935.6 2371.04   4
   3   5  16-186.310 377.454   4
   2   5  16 16907.2 2426.06   4
   1   5 -16 335.200 404.058   1
   1   5  16 331.604 475.886   4
   0   5  16 18758.4 2622.38   4
   0  -5  16 18285.8 2250.75   5
   0   5 -16 18244.9 2432.37   1
  -1   5  16-858.682 624.166   4
  -1  -5  16-679.582 509.160   5
  -1   5 -16-518.764 488.451   1
  -2   5  16 19592.8 2738.06   4
  -2  -5  16 16521.4 2250.41   5
  -2   5 -16 17985.5 2570.87   1
  -3  -5  16 1058.16 661.787   5
   0   5 -17-181.001 409.207   1
  -1  -5  17 41705.5 3677.23   5
  -1   5 -17 34757.3 3601.26   1
  -2  -5  17 492.688 436.820   5
   0   5 -18 12516.5 2200.75   1
   7   6   0 597.772 810.024   2
   6   6   0 118241. 6518.71   2
   5   6   0 337.231 543.133   2
   4  -6   0 146064. 4587.02   5
   4   6   0 149446. 6766.97   2
   3  -6   0-413.967 266.200   5
   3   6   0 321.964 419.495   2
   2  -6   0 160031. 5186.58   5
   2   6   0 166871. 4657.94   3
   1   6   0 84.8226 146.305   3
   1  -6   0-38.6951 155.182   5
   0   6   0 246771. 6618.20   3
   0  -6   0 253802. 7129.18   5
  -1   6   0 150.127 181.640   3
  -1  -6   0 196.088 287.764   5
  -2  -6   0 151970. 5541.57   5
  -2   6   0 152634. 5864.80   1
  -3   6   0 179.496 285.057   1
  -3  -6   0 390.823 262.816   5
  -4  -6   0 151843. 5925.13   5
  -4   6   0 152595. 6522.18   1
  -4   6   0 144336. 4360.63   4
  -5   6   0 408.350 466.700   1
  -5  -6   0 701.168 542.611   5
  -6  -6   0 120936. 5694.43   5
  -6   6   0 118617. 6375.06   1
  -7   6   0 334.735 471.729   3
  -7  -6   0-345.288 410.446   5
   7   6   1 31476.6 3535.25   2
   7   6  -1 31500.1 3512.88   2
   6   6  -1 549.639 585.824   2
   6   6   1 640.478 546.860   2
   5   6   1 49616.4 3965.59   2
   5   6  -1 51197.7 4016.60   2
   4  -6  -1 216.700 181.230   5
   4   6   1 754.902 602.297   2
   4   6  -1 837.670 683.971   2
   3  -6  -1 47717.1 2680.17   5
   3  -6   1 48385.6 2461.34   5
   3   6   1 51793.2 3741.22   2
   3   6  -1 49167.6 3593.37   2
   2   6   1 71.5370 152.575   3
   2   6  -1 329.331 255.698   3
   2  -6  -1 587.937 431.629   5
   2  -6   1 940.296 413.535   5
   1  -6  -1 69962.0 3417.58   5
   1  -6   1 66197.3 3119.66   5
   1   6   1 66824.9 2989.59   3
   1   6  -1 64484.1 2826.10   3
   0   6   1 358.418 279.701   3
   0  -6  -1 304.590 294.139   5
   0  -6   1 304.225 356.019   5
  -1  -6  -1 70022.7 3542.00   5
  -1  -6   1 65045.6 3320.00   5
  -1   6   1 64729.8 3184.94   3
  -1   6  -1 61095.0 3349.30   1
  -2   6   1 680.627 356.588   4
  -2   6  -1-209.055 414.269   1
  -2   6   1-7.54880 230.919   3
  -2  -6  -1 1015.07 543.752   5
  -2  -6   1 1049.95 496.272   5
  -3  -6  -1 44638.2 2979.66   5
  -3  -6   1 45157.4 2954.03   5
  -3   6   1 44937.6 2893.04   3
  -3   6  -1 45882.3 3218.26   1
  -3   6   1 48015.0 2465.70   4
  -4   6   1 150.426 195.024   4
  -4   6  -1 390.401 517.960   1
  -4   6   1 544.064 429.896   3
  -4  -6  -1 150.670 259.449   5
  -4  -6   1 762.880 577.829   5
  -5  -6   1 50098.0 3413.83   5
  -5  -6  -1 51573.9 3459.56   5
  -5   6   1 41357.6 3065.83   3
  -5   6  -1 47417.0 3697.73   1
  -6   6  -1 1166.61 608.515   1
  -6   6   1 318.291 550.977   3
  -6  -6  -1 406.373 507.650   5
  -6  -6   1 1155.02 571.124   5
  -7  -6  -1 40353.7 3316.89   5
  -7   6   1 32441.5 2994.43   3
  -7  -6   1 36750.3 3193.11   5
  -7   6  -1 36246.3 3649.87   1
  -8  -6  -1 995.073 597.872   5
   7   6  -2-101.670 546.242   2
   7   6   2 143.169 421.053   2
   6   6   2 105229. 6283.84   2
   6   6  -2 118833. 6549.54   2
   5   6  -2 2801.99 979.129   2
   5   6   2 3972.40 1130.43   2
   4   6   2 138763. 6703.67   2
   4   6  -2 150014. 6657.76   2
   3  -6   2 290.454 161.564   5
   3   6  -2 463.184 371.255   2
   2  -6  -2 150134. 5311.47   5
   2   6  -2 160176. 4341.03   3
   1   6   2 3005.58 637.785   3
   1  -6  -2 2220.04 650.438   5
   1  -6   2 2718.38 627.065   5
   0  -6  -2 237586. 7214.16   5
   0   6   2 238201. 6691.00   3
   0  -6   2 239923. 6721.09   5
   0   6  -2 242587. 6872.31   1
  -1   6   2 3509.45 730.518   4
  -1   6   2 2766.86 654.665   3
  -1  -6  -2 3206.39 792.907   5
  -1   6  -2 3157.69 745.092   1
  -1  -6   2 2128.67 585.908   5
  -2  -6  -2 158301. 5780.43   5
  -2  -6   2 152447. 5505.05   5
  -2   6   2 158841. 5527.87   3
  -2   6  -2 151502. 5811.98   1
  -2   6   2 156114. 5001.80   4
  -3   6   2 400.923 281.702   4
  -3   6   2 318.783 346.444   3
  -3  -6  -2 510.155 425.732   5
  -3  -6   2-77.2993 233.221   5
  -3   6  -2 617.346 431.628   1
  -4  -6  -2 153684. 6018.18   5
  -4  -6   2 143617. 5781.49   5
  -4   6   2 143471. 5746.55   3
  -4   6  -2 142128. 6290.17   1
  -4   6   2 154931. 4892.24   4
  -5   6   2 2128.71 721.381   3
  -5  -6  -2 3758.45 946.326   5
  -5   6  -2 3757.89 1164.85   1
  -5  -6   2 2716.16 885.288   5
  -6  -6  -2 103928. 5261.09   5
  -6   6   2 105840. 5343.48   3
  -6  -6   2 105554. 5308.35   5
  -6   6  -2 113005. 6203.55   1
  -7   6  -2 735.092 507.718   1
  -7   6   2 825.117 642.632   3
  -7  -6  -2 429.370 450.977   5
  -7  -6   2 252.173 345.220   5
  -8  -6  -2 52299.1 3958.64   5
   7   6   3 34711.8 3734.45   2
   7   6  -3 38402.2 3877.55   2
   6   6  -3 845.412 624.992   2
   6   6   3-185.150 672.318   2
   5   6   3 52224.8 4176.18   2
   5   6  -3 54007.1 4092.11   2
   4   6   3 2396.88 1007.71   2
   4   6  -3 2481.64 846.700   2
   3  -6   3 55277.1 2494.33   5
   3   6  -3 55836.7 3752.25   2
   2   6  -3 2638.69 501.654   3
   2  -6   3 1677.58 460.290   5
   2   6  -3 2093.65 764.519   2
   1   6   3 80222.1 3480.00   3
   1  -6   3 80818.6 3439.90   5
   1   6  -3 84766.2 3457.88   1
   0   6   3 8124.45 1130.23   4
   0   6   3 8075.09 1118.32   3
   0  -6  -3 6942.19 1169.04   5
   0  -6   3 7226.81 1011.89   5
   0   6  -3 6076.15 943.656   1
  -1  -6  -3 82132.3 4059.01   5
  -1   6   3 84569.6 3853.80   3
  -1  -6   3 83466.6 3762.33   5
  -1   6  -3 76411.8 3762.19   1
  -1   6   3 83910.4 3643.98   4
  -2   6   3 2467.56 663.779   4
  -2   6   3 3303.70 817.319   3
  -2  -6  -3 2313.32 694.725   5
  -2  -6   3 2228.66 737.816   5
  -2   6  -3 1286.46 497.085   1
  -3  -6  -3 59626.0 3550.33   5
  -3   6   3 58519.5 3420.04   3
  -3  -6   3 60993.9 3483.77   5
  -3   6  -3 55737.1 3593.80   1
  -3   6   3 62284.3 3056.23   4
  -4   6   3 1533.47 497.870   4
  -4   6   3 1325.21 637.327   3
  -4  -6  -3 1782.41 688.074   5
  -4  -6   3 1711.02 724.685   5
  -4   6  -3 1989.88 812.524   1
  -5  -6  -3 49950.8 3459.20   5
  -5   6   3 53142.6 3557.73   3
  -5  -6   3 47919.6 3401.43   5
  -5   6  -3 54265.6 3972.50   1
  -5   6   3 51263.4 2760.02   4
  -6   6   3-198.934 450.661   3
  -6  -6  -3 872.200 597.860   5
  -6   6  -3 170.028 542.060   1
  -6  -6   3 198.473 326.063   5
  -7   6   3 32565.5 3046.07   3
  -7  -6  -3 30006.9 2869.81   5
  -7  -6   3 32112.2 2991.15   5
  -7   6  -3 31841.9 3408.89   1
  -8  -6  -3 411.769 433.200   5
   7   6  -4 2623.22 1078.38   2
   7   6   4 2919.01 1151.71   2
   6   6   4 107014. 6399.08   2
   6   6  -4 98856.4 5999.76   2
   5   6  -4 595.184 430.271   2
   5   6   4 3072.67 1116.78   2
   4   6   4 131283. 6677.03   2
   4   6  -4 150162. 6584.64   2
   3  -6   4 3149.66 548.351   5
   3   6  -4 2990.72 889.100   2
   2  -6   4 149045. 4645.41   5
   2   6  -4 157722. 4461.20   1
   2   6  -4 157986. 6229.10   2
   1  -6   4 75.4617 227.168   5
   1   6  -4-304.869 224.472   1
   0   6   4 224909. 6700.87   3
   0  -6   4 222232. 6427.85   5
   0   6  -4 218112. 6439.88   1
   0   6   4 224322. 6675.25   4
  -1   6   4 492.652 413.736   4
  -1   6   4-177.004 229.600   3
  -1  -6  -4-92.5494 212.455   5
  -1  -6   4 145.372 289.449   5
  -1   6  -4-248.978 269.715   1
  -2  -6  -4 148704. 5807.26   5
  -2   6   4 153641. 5694.44   3
  -2  -6   4 154922. 5556.41   5
  -2   6  -4 140828. 5639.22   1
  -2   6   4 147068. 5153.47   4
  -3   6   4 2176.73 616.673   4
  -3   6   4 2880.84 815.256   3
  -3  -6  -4 2658.55 773.406   5
  -3  -6   4 3169.30 812.781   5
  -3   6  -4 1855.63 671.159   1
  -4  -6  -4 139501. 5863.31   5
  -4   6   4 149979. 6030.82   3
  -4  -6   4 136597. 5728.56   5
  -4   6  -4 151023. 6515.16   1
  -4   6   4 144053. 5120.83   4
  -5   6   4 465.351 351.896   4
  -5   6   4 1162.18 588.277   3
  -5  -6  -4 1345.53 640.898   5
  -5  -6   4 887.533 633.727   5
  -5   6  -4 2007.31 795.568   1
  -6  -6  -4 105742. 5345.84   5
  -6   6   4 108086. 5542.40   3
  -6  -6   4 103311. 5341.44   5
  -6   6  -4 107596. 6064.76   1
  -7  -6  -4 2243.55 818.775   5
  -7   6  -4 546.942 443.010   1
  -7  -6   4 2022.56 858.056   5
   7   6  -5 18939.0 2773.14   2
   6   6  -5 1779.84 908.870   2
   6   6   5 1180.95 628.252   2
   5   6   5 34157.7 3464.51   2
   5   6  -5 36894.4 3384.90   2
   4   6  -5 629.501 473.533   2
   3   6  -5 30663.6 2698.08   2
   2  -6   5 6878.09 891.172   5
   2   6  -5 7080.50 1232.97   2
   1  -6   5 43724.7 2443.39   5
   1   6  -5 42848.2 2384.58   1
   1   6   5 43755.6 2774.59   4
   0   6   5 3938.56 819.478   4
   0   6   5 3906.22 847.979   3
   0  -6   5 5636.43 931.056   5
   0   6  -5 2742.05 620.608   1
  -1  -6  -5 39130.6 2869.59   5
  -1   6   5 41751.0 2790.92   3
  -1  -6   5 45152.9 2764.80   5
  -1   6  -5 41412.7 2760.76   1
  -1   6   5 45125.5 2766.04   4
  -2   6   5 5071.14 920.574   4
  -2   6   5 6423.10 1136.36   3
  -2  -6  -5 4941.26 1076.40   5
  -2  -6   5 6940.10 1184.16   5
  -2   6  -5 6992.92 1205.10   1
  -3  -6  -5 33533.4 2728.05   5
  -3   6   5 32395.7 2637.94   3
  -3  -6   5 36082.8 2687.50   5
  -3   6  -5 37001.1 2951.05   1
  -3   6   5 30962.7 2301.93   4
  -4   6   5 1850.06 594.415   4
  -4   6   5 1845.54 712.232   3
  -4  -6  -5 720.309 518.060   5
  -4  -6   5 1182.17 544.297   5
  -4   6  -5 1994.47 784.351   1
  -5  -6  -5 34961.4 2924.45   5
  -5   6   5 33349.6 2907.93   3
  -5  -6   5 34855.7 2905.11   5
  -5   6  -5 38842.9 3408.21   1
  -5   6   5 38026.3 2603.88   4
  -6   6   5 2722.42 900.120   3
  -6  -6  -5 1343.64 660.426   5
  -6  -6   5 605.519 590.552   5
  -6   6  -5 625.311 591.061   1
  -7  -6  -5 25354.6 2637.23   5
  -7  -6   5 28301.8 2860.32   5
  -7   6   5 28432.7 2911.75   3
   7   6  -6-43.3026 400.675   2
   6   6   6 94675.4 6177.86   2
   6   6  -6 87459.9 5714.80   2
   5   6  -6 2488.62 947.836   2
   4   6  -6 114531. 5747.76   2
   3   6  -6 6657.84 1245.43   2
   2  -6   6 129193. 4199.63   5
   2   6  -6 120409. 5268.87   2
   1   6   6 202.041 265.152   4
   1  -6   6-14.6065 161.146   5
   1   6  -6 247.448 249.868   1
   0  -6   6 163216. 5430.26   5
   0   6  -6 163987. 5531.08   1
   0   6   6 156628. 5713.10   4
  -1   6   6-32.3504 185.712   4
  -1   6   6 135.122 304.367   3
  -1  -6   6-27.0406 236.354   5
  -1   6  -6 810.073 421.622   1
  -2  -6  -6 118739. 5347.44   5
  -2   6   6 118536. 5179.45   3
  -2  -6   6 124041. 5049.45   5
  -2   6  -6 123198. 5319.35   1
  -2   6   6 122617. 4976.82   4
  -3   6   6 6139.08 1054.57   4
  -3   6   6 5302.30 1096.40   3
  -3  -6  -6 6338.47 1234.26   5
  -3  -6   6 6449.69 1168.58   5
  -3   6  -6 4710.93 1070.14   1
  -4  -6  -6 109547. 5284.84   5
  -4   6   6 110503. 5333.38   3
  -4  -6   6 114394. 5237.11   5
  -4   6  -6 118402. 5839.92   1
  -4   6   6 114360. 4861.04   4
  -5   6   6 2095.70 644.953   4
  -5   6   6 426.129 427.276   3
  -5  -6  -6 1705.20 744.850   5
  -5  -6   6 726.595 453.411   5
  -5   6  -6 1736.53 837.012   1
  -6   6   6 89694.2 5186.95   3
  -6  -6  -6 85756.7 4866.46   5
  -6  -6   6 85514.5 4910.84   5
  -6   6  -6 86417.5 5488.28   1
  -7  -6  -6 1351.62 626.934   5
   7   6  -7 24830.1 3235.18   2
   6   6  -7 780.162 597.001   2
   5   6  -7 49817.8 4025.13   2
   4   6  -7 943.665 546.031   2
   3   6  -7 53992.5 3607.47   2
   2   6   7 601.126 550.925   4
   2  -6   7 865.349 354.044   5
   2   6  -7 22.1095 178.626   2
   1  -6   7 68663.2 3153.00   5
   1   6  -7 65088.0 3130.73   1
   1   6   7 62857.6 3558.31   4
   0   6  -7 4806.31 921.047   1
   0   6   7 3815.23 898.346   4
   0  -6   7 5723.96 931.308   5
  -1  -6   7 68875.7 3545.31   5
  -1   6  -7 61972.2 3552.57   1
  -1   6   7 64775.6 3626.95   4
  -2   6   7 974.284 500.143   4
  -2   6   7 749.900 437.143   3
  -2  -6  -7 850.713 579.733   5
  -2  -6   7 823.655 483.072   5
  -2   6  -7 1124.84 577.168   1
  -3   6   7 49777.3 3459.18   3
  -3  -6  -7 50712.2 3510.29   5
  -3  -6   7 50989.4 3336.85   5
  -3   6  -7 50559.5 3549.97   1
  -3   6   7 50636.9 3240.30   4
  -4   6   7 1983.93 683.503   4
  -4   6   7 265.614 383.451   3
  -4  -6  -7 763.786 597.720   5
  -4  -6   7 1295.89 655.708   5
  -4   6  -7 2349.83 897.741   1
  -5   6   7 40726.5 3379.01   3
  -5  -6  -7 46501.3 3496.56   5
  -5  -6   7 39953.5 3197.01   5
  -5   6  -7 40686.8 3562.74   1
  -5   6   7 44334.0 3126.04   4
  -6   6   7 315.991 447.432   3
  -6  -6  -7 457.991 410.387   5
  -6  -6   7 576.933 506.694   5
  -6   6  -7-199.879 461.533   1
  -7  -6  -7 24749.2 2657.03   5
   7   6  -8 1601.72 848.532   2
   6   6  -8 71790.6 5253.93   2
   5   6  -8 6020.57 1380.86   2
   4   6  -8 102453. 5449.74   2
   3   6  -8 945.738 545.722   2
   2  -6   8 127066. 4290.05   5
   2   6   8 122766. 5310.62   4
   1   6  -8 4192.66 780.674   1
   1   6   8 2993.85 835.160   4
   1  -6   8 2453.46 601.729   5
   0  -6   8 148969. 5196.53   5
   0   6  -8 137879. 5266.30   1
   0   6   8 138890. 5662.13   4
  -1   6  -8 4098.39 923.420   1
  -1   6   8 3662.47 905.755   4
  -1  -6   8 3468.72 809.621   5
  -2  -6   8 119804. 5099.51   5
  -2   6  -8 118202. 5408.10   1
  -2   6   8 118762. 5300.83   4
  -3   6  -8 762.787 431.414   1
  -3   6   8 35.1100 244.394   4
  -3   6   8 272.770 308.793   3
  -3  -6  -8 847.234 557.794   5
  -3  -6   8 850.271 498.803   5
  -4   6   8 98234.8 5251.04   3
  -4  -6  -8 93448.2 5087.23   5
  -4  -6   8 101639. 5056.08   5
  -4   6  -8 100329. 5492.16   1
  -4   6   8 103651. 5093.30   4
  -5   6   8 3566.74 909.346   4
  -5   6   8 4129.06 1126.87   3
  -5  -6  -8 1448.09 704.523   5
  -5   6  -8 4146.60 1161.88   1
  -6   6   8 72094.5 4787.60   3
  -6  -6  -8 76943.9 4729.64   5
  -6  -6   8 77873.6 4810.45   5
  -6   6  -8 77987.9 5362.07   1
  -6   6   8 68134.9 4219.32   4
  -7  -6  -8-49.4568 327.607   5
   7   6  -9 20988.7 3071.77   2
   6   6  -9 231.732 327.809   2
   3   6   9 36542.1 2908.56   4
   2   6   9 427.631 397.051   4
   1  -6   9 41010.8 2530.16   5
   1   6  -9 38499.1 2526.33   1
   1   6   9 35132.3 2826.24   4
   0   6  -9 94.8610 208.617   1
   0  -6   9 362.592 386.891   5
  -1  -6   9 40476.5 2751.65   5
  -1   6  -9 39673.6 2903.60   1
  -1   6   9 39023.9 3010.36   4
  -2   6  -9 472.461 435.031   1
  -2   6   9 928.973 503.148   4
  -2  -6   9 185.621 388.353   5
  -3  -6  -9 31980.4 2955.79   5
  -3  -6   9 35963.0 2865.77   5
  -3   6  -9 35287.3 3084.62   1
  -3   6   9 38676.3 3135.76   4
  -4   6  -9 1684.53 834.878   1
  -4   6   9 1851.79 682.192   4
  -4  -6  -9 1005.67 575.582   5
  -4  -6   9 487.441 404.041   5
  -5   6   9 27609.7 2872.54   3
  -5  -6  -9 30676.7 2959.33   5
  -5  -6   9 31783.0 2935.95   5
  -5   6  -9 30624.1 3181.26   1
  -5   6   9 25745.0 2684.80   4
  -6   6   9 1394.49 650.404   4
  -6   6   9 968.673 755.362   3
  -6  -6  -9 611.442 258.861   5
  -7  -6  -9 20003.5 2472.84   5
   3   6  10 831.444 619.076   4
   2   6  10 94800.6 4885.80   4
   1   6  10 386.935 309.953   4
   1   6 -10 530.152 272.382   1
   1  -6  10 320.884 429.426   5
   0  -6  10 97707.6 4291.36   5
   0   6 -10 86560.9 4308.53   1
   0   6  10 87112.7 4743.33   4
  -1   6  10 956.880 608.159   4
  -1   6 -10 1083.36 542.820   1
  -1  -6  10 378.016 313.133   5
  -2  -6  10 97869.8 4756.40   5
  -2   6 -10 94284.3 4984.37   1
  -2   6  10 88644.0 4986.06   4
  -3   6 -10 958.004 572.436   1
  -3   6  10 1379.63 650.794   4
  -3  -6  10 1630.11 665.329   5
  -4  -6  10 80763.8 4668.65   5
  -4  -6 -10 82175.0 4992.40   5
  -4   6 -10 81715.4 5087.44   1
  -4   6  10 81494.5 4976.41   4
  -5   6 -10 2449.00 963.172   1
  -5   6  10 3166.83 1065.58   4
  -5  -6 -10 3047.65 995.073   5
  -5  -6  10 3130.10 950.279   5
  -6  -6 -10 60174.8 4370.29   5
  -6   6  10 68525.2 4699.77   4
   3   6  11 28848.3 2739.52   4
   2   6  11 880.988 601.540   4
   1  -6  11 31650.1 2335.01   5
   1   6 -11 27081.3 2290.49   1
   1   6  11 29926.7 2800.38   4
   0   6  11 426.624 341.248   4
   0   6 -11-79.5246 223.328   1
  -1  -6  11 29890.6 2474.32   5
  -1   6 -11 27517.5 2585.41   1
  -1   6  11 32601.1 3038.54   4
  -2   6  11 739.417 543.873   4
  -2   6 -11 260.934 332.438   1
  -2  -6  11 231.715 411.410   5
  -3  -6  11 27327.4 2611.06   5
  -3   6 -11 25825.1 2782.15   1
  -3   6  11 32693.1 3160.72   4
  -4   6 -11-376.122 417.515   1
  -4   6  11 533.217 487.750   4
  -4  -6 -11 542.826 551.371   5
  -4  -6  11-309.723 422.477   5
  -5   6 -11 24374.5 2942.22   1
  -5   6  11 19561.8 2583.19   4
  -5  -6 -11 25721.8 2851.08   5
  -5  -6  11 25731.5 2789.79   5
  -6   6  11 973.300 724.671   4
  -6  -6 -11 1600.63 737.665   5
   3   6  12 2690.08 931.530   4
   2   6  12 77639.2 4768.71   4
   1   6  12 48.9888 325.115   4
   1   6 -12-190.144 245.176   1
   0  -6  12 76951.0 4024.13   5
   0   6 -12 69775.2 4133.05   1
   0   6  12 68592.0 4583.12   4
  -1   6  12-259.723 591.431   4
  -1   6 -12-462.914 554.690   1
  -1  -6  12 229.689 363.311   5
  -2  -6  12 78127.7 4413.21   5
  -2   6 -12 72915.4 4680.56   1
  -2   6  12 86607.9 5361.72   4
  -3   6  12 1534.73 655.467   4
  -3   6 -12 1125.15 652.378   1
  -3  -6  12 1658.61 742.441   5
  -4  -6 -12 56093.6 4392.22   5
  -4  -6  12 55032.2 4043.72   5
  -4   6 -12 57992.0 4506.38   1
  -4   6  12 56019.5 4483.48   4
  -5   6  12-584.746 548.661   4
  -5  -6 -12 891.947 611.040   5
   3   6  13 32601.7 3142.65   4
   2   6  13 738.211 484.013   4
   1   6  13 30657.6 3098.22   4
   0   6  13-180.866 581.309   4
   0  -6  13 327.370 335.826   5
  -1  -6  13 34405.1 2841.56   5
  -1   6 -13 35224.5 3187.27   1
  -1   6  13 34437.1 3400.50   4
  -2   6  13 756.060 631.748   4
  -2   6 -13-72.4980 406.574   1
  -2  -6  13 1403.67 725.678   5
  -3  -6  13 29742.7 2891.71   5
  -3   6 -13 24209.5 2875.81   1
  -3   6  13 27939.4 3200.30   4
  -4   6  13 357.140 548.518   4
  -4  -6 -13 1341.75 889.510   5
   3   6  14-286.950 383.680   4
   2   6  14 62333.2 4555.08   4
   1   6  14-463.652 481.495   4
   0  -6  14 57004.2 3715.89   5
   0   6 -14 50290.2 3827.00   1
   0   6  14 51379.0 4262.29   4
  -1   6  14-559.522 531.580   4
  -1   6 -14-407.355 412.557   1
  -1  -6  14 441.804 442.444   5
  -2  -6  14 62219.2 4196.50   5
  -2   6 -14 63949.7 4702.41   1
  -2   6  14 54457.9 4626.33   4
  -3   6 -14 528.376 485.870   1
  -3  -6  14 1059.74 747.997   5
   1   6  15 14304.8 2288.96   4
   0   6 -15 671.437 519.773   1
  -1   6 -15 18110.9 2499.76   1
  -1  -6  15 14189.8 1980.97   5
  -2   6 -15 66.7199 315.799   1
  -2  -6  15 1362.62 665.815   5
   0   6 -16 29365.9 3193.28   1
  -1   6 -16 224.214 416.565   1
  -1  -6  16 41.1642 292.444   5
   6   7   0 29834.1 3469.12   2
   5   7   0 233.590 548.009   2
   4   7   0 34157.3 3403.22   2
   3  -7   0 198.069 345.202   5
   2   7   0 34143.6 2114.37   3
   2  -7   0 32113.0 2335.01   5
   1   7   0-304.080 276.897   3
   1  -7   0 11.8664 297.775   5
   0  -7   0 47351.5 3000.72   5
   0   7   0 49463.7 2866.74   3
  -1   7   0 25.2742 238.246   3
  -1  -7   0 609.713 499.721   5
  -2  -7   0 37821.9 2836.66   5
  -2   7   0 32646.8 2496.21   3
  -3   7   0 620.869 504.332   3
  -3  -7   0 1326.56 670.961   5
  -4  -7   0 37963.5 3057.50   5
  -4   7   0 39112.0 3022.62   3
  -5   7   0-166.907 411.783   3
  -5  -7   0 873.790 786.870   5
  -6  -7   0 25756.8 2728.53   5
  -6   7   0 24567.4 2617.84   3
   6   7   1 1488.59 800.276   2
   6   7  -1-363.433 456.536   2
   5   7   1 77201.3 5433.32   2
   5   7  -1 85570.5 5644.43   2
   4   7   1 428.881 648.122   2
   4   7  -1 1367.77 702.080   2
   3  -7  -1 179516. 5994.56   5
   3  -7   1 179921. 5610.80   5
   2   7   1 822.669 366.616   3
   2  -7  -1 1120.48 525.218   5
   2  -7   1 847.114 464.933   5
   1  -7  -1 156084. 5761.75   5
   1   7   1 155554. 5288.01   3
   1  -7   1 152207. 5421.12   5
   1   7  -1 154530. 5119.76   3
   0   7   1 3237.71 764.296   3
   0   7  -1 1909.37 606.225   3
   0  -7  -1 3597.87 836.796   5
   0  -7   1 2822.09 712.637   5
  -1  -7  -1 148813. 5834.08   5
  -1  -7   1 148583. 5694.67   5
  -1   7   1 151641. 5561.42   3
  -1   7  -1 152501. 5473.53   3
  -2   7  -1 736.683 482.059   1
  -2   7   1 692.136 456.009   3
  -2  -7  -1 257.287 383.409   5
  -2  -7   1 192.841 271.269   5
  -3  -7  -1 167463. 6561.84   5
  -3  -7   1 179952. 6723.67   5
  -3   7   1 164384. 6304.36   3
  -3   7  -1 169300. 7017.68   1
  -4   7  -1 36.8993 307.708   1
  -4   7   1 521.135 370.299   3
  -4  -7  -1 1207.69 664.571   5
  -4  -7   1 433.538 448.933   5
  -5  -7  -1 82964.7 4782.12   5
  -5  -7   1 83360.9 4765.37   5
  -5   7   1 84271.3 4763.39   3
  -5   7  -1 78796.8 5188.06   1
  -6   7  -1 329.170 363.353   1
  -6   7   1 1529.49 794.548   3
  -6  -7  -1 807.714 558.057   5
  -6  -7   1 309.250 427.438   5
   6   7   2 33249.3 3712.10   2
   6   7  -2 33419.0 3632.95   2
   5   7   2 1492.44 988.250   2
   5   7  -2 190.800 389.136   2
   4   7  -2 40092.2 3645.90   2
   3  -7  -2 710.718 443.191   5
   2  -7  -2 51630.1 3219.03   5
   2  -7   2 54253.7 2921.57   5
   1   7   2 495.980 382.875   3
   1   7  -2 224.483 191.392   3
   1  -7  -2 405.058 392.897   5
   1  -7   2 278.790 260.878   5
   0  -7  -2 64197.1 3713.27   5
   0   7   2 63228.8 3376.98   3
   0  -7   2 58420.8 3287.79   5
  -1   7  -2-87.6472 265.958   1
  -1   7   2-37.7631 252.913   3
  -1  -7  -2 317.118 460.847   5
  -1  -7   2 559.421 452.112   5
  -2  -7  -2 51732.2 3414.97   5
  -2  -7   2 46504.1 3149.49   5
  -2   7   2 48525.3 3164.65   3
  -2   7  -2 49521.6 3467.20   1
  -3   7   2 283.551 392.304   4
  -3   7   2 1201.64 689.374   3
  -3   7  -2 892.759 683.428   1
  -3  -7  -2 1036.89 664.382   5
  -3  -7   2 306.385 298.992   5
  -4  -7  -2 45787.6 3390.70   5
  -4  -7   2 46052.1 3379.47   5
  -4   7   2 49588.1 3451.40   3
  -4   7  -2 50844.1 3886.67   1
  -4   7   2 46141.8 2683.83   4
  -5   7  -2-242.589 263.165   1
  -5   7   2-235.202 392.639   3
  -5  -7  -2 534.958 492.593   5
  -5  -7   2 411.012 595.006   5
  -6  -7  -2 31834.7 3036.80   5
  -6   7   2 32027.3 3047.84   3
  -6  -7   2 33077.6 3111.64   5
  -6   7  -2 30572.2 3383.33   1
   6   7   3-645.241 598.106   2
   6   7  -3 214.789 397.257   2
   5   7   3 71512.0 5311.63   2
   5   7  -3 62301.0 4796.99   2
   4  -7  -3 413.878 350.220   5
   4   7  -3 587.931 478.498   2
   3  -7  -3 127355. 5250.06   5
   3   7  -3 126083. 6375.33   2
   2  -7  -3 1530.03 570.142   5
   2  -7   3 1764.79 551.550   5
   1   7   3 105407. 4416.52   3
   1  -7  -3 105388. 4911.02   5
   1  -7   3 106524. 4349.94   5
   0   7  -3 62.8566 203.580   1
   0  -7  -3-106.490 358.895   5
   0  -7   3 298.544 209.689   5
  -1  -7  -3 110652. 5128.25   5
  -1   7   3 110087. 4840.28   3
  -1  -7   3 100746. 4551.34   5
  -1   7  -3 108528. 4930.17   1
  -2   7   3 1020.40 452.742   4
  -2   7   3 1052.50 546.946   3
  -2  -7  -3 1459.33 609.971   5
  -2   7  -3 546.536 455.262   1
  -2  -7   3 945.135 454.184   5
  -3  -7  -3 130318. 5839.02   5
  -3   7   3 132972. 5706.06   3
  -3  -7   3 130701. 5667.68   5
  -3   7  -3 123493. 5956.68   1
  -3   7   3 134353. 4998.30   4
  -4   7   3-4.26233 269.783   4
  -4   7   3 194.861 303.651   3
  -4  -7  -3 366.353 469.546   5
  -4   7  -3 136.541 291.614   1
  -4  -7   3 1255.82 689.129   5
  -5  -7  -3 66298.6 4285.08   5
  -5   7   3 64300.7 4232.10   3
  -5  -7   3 61575.3 4104.65   5
  -5   7  -3 65715.7 4757.53   1
  -6   7   3-67.2743 393.976   3
  -6   7  -3-326.746 568.210   1
  -6  -7  -3 1287.76 723.842   5
   6   7   4 34157.3 3814.07   2
   6   7  -4 33104.1 3676.24   2
   5   7  -4 108.835 294.525   2
   4   7  -4 54621.8 4237.15   2
   3   7  -4 1103.61 656.695   2
   2  -7   4 52735.0 2822.77   5
   1   7  -4 220.193 268.496   1
   1  -7  -4-70.7238 344.379   5
   1  -7   4 763.734 455.945   5
   0   7   4 61337.4 3474.14   3
   0  -7  -4 59408.3 3737.49   5
   0  -7   4 59714.1 3314.76   5
   0   7  -4 59366.3 3368.80   1
  -1   7   4 827.917 501.292   4
  -1   7   4 684.670 498.143   3
  -1  -7  -4 914.225 553.501   5
  -1  -7   4 251.273 358.834   5
  -1   7  -4 539.831 434.917   1
  -2  -7  -4 58134.6 3762.15   5
  -2   7   4 50168.1 3348.82   3
  -2  -7   4 50976.2 3299.75   5
  -2   7  -4 50914.7 3516.79   1
  -2   7   4 53801.9 3163.60   4
  -3   7   4 1263.57 583.948   4
  -3   7   4 985.464 586.635   3
  -3  -7  -4 416.762 427.162   5
  -3  -7   4 38.6856 289.588   5
  -4  -7  -4 45989.0 3438.25   5
  -4   7   4 47240.8 3480.32   3
  -4  -7   4 43741.9 3290.01   5
  -4   7  -4 44444.6 3678.68   1
  -4   7   4 42578.6 2780.42   4
  -5   7   4-23.0653 486.888   3
  -5  -7  -4 543.185 417.912   5
  -5   7  -4 385.572 504.640   1
  -5  -7   4-82.8138 344.907   5
  -6   7   4 29990.1 3032.10   3
  -6  -7  -4 29662.8 2975.51   5
  -6  -7   4 31011.3 3031.36   5
  -6   7  -4 30566.3 3383.09   1
   6   7  -5 874.774 634.886   2
   5   7  -5 82185.9 5515.18   2
   4   7  -5 562.605 448.312   2
   3   7  -5 133841. 6484.66   2
   2  -7   5 433.254 244.321   5
   1  -7   5 137552. 5049.44   5
   0   7   5 2282.99 717.893   4
   0   7   5 3670.84 859.500   3
   0  -7  -5 2952.66 844.039   5
   0  -7   5 4423.17 910.712   5
   0   7  -5 2784.53 726.637   1
  -1   7   5 134645. 5641.96   3
  -1  -7  -5 133639. 5916.10   5
  -1  -7   5 128798. 5293.18   5
  -1   7  -5 137066. 5633.57   1
  -1   7   5 131025. 5333.53   4
  -2   7   5 959.869 459.990   4
  -2   7   5 794.991 376.030   3
  -2  -7  -5 1022.47 561.378   5
  -2  -7   5 1566.95 620.063   5
  -2   7  -5 1073.14 663.448   1
  -3  -7  -5 134806. 6083.87   5
  -3   7   5 137355. 6027.61   3
  -3  -7   5 139954. 5903.91   5
  -3   7  -5 135766. 6265.75   1
  -3   7   5 126940. 5225.19   4
  -4   7   5 82.7116 303.939   4
  -4   7   5-148.958 396.453   3
  -4  -7  -5 381.588 574.458   5
  -4  -7   5-100.173 386.729   5
  -4   7  -5 127.600 349.163   1
  -5   7   5 77943.1 4820.49   3
  -5  -7  -5 82153.0 4852.64   5
  -5  -7   5 76220.2 4666.09   5
  -5   7  -5 79623.6 5277.04   1
  -6  -7  -5 32.4903 426.768   5
   6   7  -6 23498.9 3126.30   2
   5   7  -6 486.821 483.501   2
   4   7  -6 29383.9 3047.16   2
   3   7  -6 460.552 397.956   2
   1   7   6 1005.62 564.870   4
   1  -7   6 81.8574 325.440   5
   0  -7   6 34562.1 2520.64   5
   0   7  -6 35459.2 2580.71   1
   0   7   6 38211.6 2818.69   4
  -1   7   6 1024.81 616.631   4
  -1   7   6-142.117 342.153   3
  -1  -7  -6 86.5498 313.006   5
  -1  -7   6 286.600 498.961   5
  -1   7  -6 831.484 517.940   1
  -2   7   6 40132.5 3101.24   3
  -2  -7  -6 38855.4 3155.26   5
  -2  -7   6 32906.4 2682.72   5
  -2   7  -6 37655.1 3061.45   1
  -2   7   6 39339.1 2844.87   4
  -3   7   6 1097.92 531.021   4
  -3   7   6 368.512 362.068   3
  -3  -7  -6 103.916 649.486   5
  -3  -7   6 1088.41 660.050   5
  -3   7  -6 295.460 385.967   1
  -4   7   6 26737.4 2728.66   3
  -4  -7  -6 32069.6 2982.60   5
  -4  -7   6 32785.7 2905.41   5
  -4   7  -6 29690.1 3030.66   1
  -4   7   6 33681.5 2621.06   4
  -5   7   6 138.062 378.356   3
  -5  -7  -6 628.857 556.664   5
  -5  -7   6 712.394 518.876   5
  -5   7  -6 310.087 514.261   1
  -6  -7  -6 24372.0 2696.56   5
   6   7  -7 469.764 504.133   2
   5   7  -7 70585.6 5135.33   2
   1  -7   7 102113. 4292.15   5
   1   7   7 97756.6 4833.94   4
   0   7   7 1199.19 606.478   4
   0  -7   7 1481.76 545.254   5
   0   7  -7 2605.60 724.713   1
  -1  -7  -7 97360.2 5170.34   5
  -1  -7   7 105754. 4804.54   5
  -1   7  -7 108230. 5092.57   1
  -1   7   7 101604. 4864.21   4
  -2   7   7 2483.42 790.637   4
  -2   7   7 3398.91 916.380   3
  -2  -7  -7 1822.97 731.043   5
  -2  -7   7 1914.34 682.722   5
  -2   7  -7 1191.96 519.971   1
  -3   7   7 106926. 5486.56   3
  -3  -7  -7 98785.3 5375.80   5
  -3  -7   7 104906. 5186.03   5
  -3   7  -7 104694. 5588.36   1
  -3   7   7 100315. 4865.89   4
  -4   7   7 30.1453 316.035   4
  -4   7   7 220.810 510.538   3
  -4  -7  -7 98.9029 392.333   5
  -4  -7   7-18.9618 343.865   5
  -4   7  -7 31.3340 267.729   1
  -5   7   7 76433.9 4908.14   3
  -5  -7  -7 70559.2 4651.39   5
  -5  -7   7 70179.5 4548.88   5
  -5   7  -7 73782.8 5109.48   1
  -5   7   7 67175.9 3971.59   4
   1   7   8 1439.06 675.239   4
   1  -7   8 142.149 341.475   5
   0  -7   8 31286.8 2455.69   5
   0   7  -8 34849.3 2656.99   1
   0   7   8 38799.3 3012.65   4
  -1   7   8 1218.55 662.407   4
  -1  -7   8 457.325 483.849   5
  -1   7  -8 751.284 480.125   1
  -2  -7  -8 34815.0 3160.58   5
  -2  -7   8 38554.0 2965.65   5
  -2   7  -8 40510.2 3250.84   1
  -2   7   8 36605.1 2969.44   4
  -3   7   8 541.887 419.309   4
  -3   7   8 1512.43 675.097   3
  -3  -7  -8 1319.03 680.030   5
  -3  -7   8 358.918 348.996   5
  -3   7  -8 927.007 597.552   1
  -4   7   8 32575.3 3137.19   3
  -4  -7  -8 35365.1 3251.27   5
  -4  -7   8 33962.9 3027.57   5
  -4   7  -8 31088.7 3157.81   1
  -4   7   8 32092.4 2811.50   4
  -5   7   8 38.9518 282.628   4
  -5  -7  -8 398.049 509.174   5
  -5  -7   8 503.568 595.038   5
  -5   7  -8 90.6991 497.040   1
   2   7   9 674.507 514.435   4
   1  -7   9 96869.0 4251.94   5
   1   7   9 91218.5 4918.07   4
   0   7   9 2330.09 786.019   4
   0  -7   9 4283.29 905.429   5
   0   7  -9 3784.48 880.191   1
  -1  -7   9 91398.8 4543.31   5
  -1   7  -9 89341.8 4751.78   1
  -1   7   9 89952.7 4889.99   4
  -2   7   9-290.620 353.857   4
  -2   7  -9 65.9740 292.098   1
  -3  -7  -9 73278.0 4799.06   5
  -3  -7   9 85255.6 4742.28   5
  -3   7  -9 82680.6 5074.79   1
  -3   7   9 83371.2 4776.92   4
  -4   7   9 760.612 491.051   4
  -4  -7  -9-224.594 398.383   5
  -4  -7   9 794.401 601.302   5
  -4   7  -9 117.316 442.224   1
  -5  -7  -9 64693.5 4609.99   5
  -5   7   9 67047.9 4387.38   4
   2   7  10 32597.4 2996.63   4
   1   7  10 1393.32 746.695   4
   0  -7  10 29382.4 2446.24   5
   0   7 -10 26861.0 2449.02   1
   0   7  10 30309.5 2869.52   4
  -1   7 -10 1315.80 603.398   1
  -1   7  10 447.318 431.793   4
  -1  -7  10 112.363 344.334   5
  -2  -7  10 43073.8 3254.27   5
  -2   7 -10 41158.9 3433.97   1
  -2   7  10 36575.8 3229.40   4
  -3   7  10 2499.10 878.451   4
  -3  -7 -10 1538.47 685.750   5
  -3  -7  10 1651.81 780.659   5
  -3   7 -10 722.066 469.216   1
  -4  -7 -10 23487.7 2783.78   5
  -4  -7  10 28621.4 2877.24   5
  -4   7 -10 26191.4 3010.34   1
  -4   7  10 25675.1 2767.85   4
  -5   7  10 1747.81 754.451   4
   2   7  11 1715.18 838.454   4
   1   7  11 69684.8 4553.76   4
   0   7  11 3499.06 1020.02   4
   0  -7  11 1023.07 499.923   5
  -1  -7  11 69129.8 4083.78   5
  -1   7 -11 66298.7 4264.83   1
  -1   7  11 59640.4 4282.21   4
  -2   7 -11 1988.83 907.885   1
  -2   7  11 239.117 425.250   4
  -2  -7  11 866.274 572.024   5
  -3  -7 -11 53254.3 4335.11   5
  -3  -7  11 54960.6 3951.52   5
  -3   7 -11 54204.8 4270.01   1
  -3   7  11 53472.6 4162.42   4
  -4   7  11-13.7778 261.869   4
   2   7  12 25804.6 2822.48   4
   1   7  12 377.910 298.728   4
   0  -7  12 24837.0 2356.99   5
   0   7  12 23435.8 2743.78   4
  -1   7  12 324.430 348.692   4
  -1  -7  12 786.594 556.739   5
  -2  -7  12 29471.2 2832.17   5
  -2   7 -12 30896.6 3140.74   1
  -2   7  12 30022.1 3208.41   4
  -3   7 -12 1673.04 782.750   1
  -3   7  12 1126.60 624.478   4
  -3  -7  12 933.650 590.729   5
  -1  -7  13 56689.3 3858.06   5
  -1   7 -13 52740.4 4063.70   1
  -2   7 -13 236.922 394.308   1
  -2  -7  13 1390.76 656.500   5
  -1   7 -14 1650.75 768.756   1
  -1  -7  14 1610.01 736.223   5
  -2   7 -14 15764.8 2400.04   1
   2  -8   0 155286. 5898.21   5
   1   8   0 149.710 325.508   3
   1  -8   0-406.461 297.713   5
   0  -8   0 85883.0 4470.21   5
   0   8   0 83494.3 4172.08   3
  -1   8   0 649.464 489.450   3
  -1  -8   0 743.825 561.220   5
  -2  -8   0 164143. 6711.83   5
  -2   8   0 153791. 6214.26   3
  -3   8   0 137.418 398.568   3
  -3  -8   0-700.299 470.384   5
  -4  -8   0 94475.6 5278.75   5
  -4   8   0 91115.8 5069.26   3
   5   8  -1 28269.3 3441.70   2
   2  -8  -1 455.682 382.485   5
   2  -8   1 750.118 570.170   5
   1   8   1 38943.6 2698.47   3
   1  -8  -1 39134.7 2956.41   5
   1  -8   1 36985.0 2746.81   5
   1   8  -1 36342.6 2540.05   3
   0   8   1 399.754 335.815   3
   0   8  -1 975.578 537.834   3
   0  -8  -1 1004.06 553.489   5
   0  -8   1 302.066 467.407   5
  -1  -8  -1 39940.4 3132.08   5
  -1  -8   1 36862.4 2964.80   5
  -1   8   1 37980.0 2883.44   3
  -1   8  -1 36930.8 2776.24   3
  -2   8   1 1226.07 561.380   3
  -2   8  -1 443.416 481.719   3
  -2  -8  -1-88.3480 293.843   5
  -2  -8   1 279.213 370.310   5
  -3  -8  -1 39335.1 3274.02   5
  -3  -8   1 36858.4 3129.17   5
  -3   8   1 32612.9 2865.46   3
  -3   8  -1 41105.2 3166.03   3
  -4   8   1 576.021 563.696   3
  -4   8  -1 457.436 353.572   3
  -4  -8  -1 159.590 592.643   5
  -4  -8   1 383.713 319.390   5
   5   8  -2 339.756 495.750   2
   3  -8  -2 280.390 307.492   5
   2  -8  -2 138757. 5821.58   5
   2  -8   2 126269. 5073.73   5
   1   8   2-14.0319 206.459   3
   1  -8  -2-88.2555 395.002   5
   1  -8   2-887.338 445.454   5
   0   8   2 80030.0 4200.30   3
   0  -8  -2 78805.8 4456.90   5
   0  -8   2 70862.3 3997.53   5
   0   8  -2 77718.9 3897.79   3
  -1   8   2 757.672 447.680   3
  -1   8  -2 393.520 363.310   3
  -1  -8  -2 58.5387 330.844   5
  -1  -8   2 443.433 418.921   5
  -2  -8  -2 146132. 6407.82   5
  -2   8   2 135867. 5939.21   3
  -2  -8   2 130017. 5850.51   5
  -3   8  -2 716.948 510.837   1
  -3   8   2 683.450 565.244   3
  -3  -8  -2-117.745 489.337   5
  -3  -8   2 1417.96 678.832   5
  -4  -8  -2 71567.0 4627.37   5
  -4   8   2 80288.6 4786.10   3
  -4  -8   2 80678.7 4835.64   5
  -4   8  -2 78555.6 5234.92   1
  -5   8  -2-241.874 426.693   1
   5   8  -3 32569.4 3693.91   2
   3  -8  -3 47799.8 3310.77   5
   2  -8  -3 14.7398 263.970   5
   2  -8   3 1001.56 476.347   5
   1   8   3 41118.6 2881.29   3
   1  -8  -3 45119.6 3327.62   5
   1  -8   3 38757.6 2756.26   5
   0   8   3 868.194 503.651   3
   0  -8  -3 329.016 379.332   5
   0   8  -3 574.332 434.672   3
   0  -8   3-65.9050 246.028   5
  -1  -8  -3 39493.4 3220.73   5
  -1   8   3 43974.1 3210.09   3
  -1  -8   3 43887.4 3148.64   5
  -1   8  -3 38325.1 3079.13   1
  -2   8  -3 117.910 354.467   1
  -2   8   3 277.087 274.289   3
  -2  -8  -3 489.819 495.038   5
  -2  -8   3 398.100 537.888   5
  -3  -8  -3 39408.9 3348.46   5
  -3   8   3 46791.2 3522.92   3
  -3  -8   3 41241.3 3314.05   5
  -3   8  -3 42135.6 3645.63   1
  -4   8  -3-9.01566 390.234   1
  -4   8   3-158.090 455.588   3
  -4  -8  -3 54.6912 474.407   5
  -4  -8   3 118.850 476.105   5
   5   8  -4 227.363 675.423   2
   3  -8  -4 171.909 309.808   5
   2  -8  -4 113528. 5466.57   5
   1  -8  -4-71.4634 341.294   5
   1  -8   4 45.7663 254.616   5
   0   8   4 70293.0 4104.11   3
   0  -8  -4 77232.7 4576.09   5
   0  -8   4 77206.5 4091.82   5
  -1   8   4 420.516 332.316   3
  -1   8  -4 1125.78 547.603   1
  -1  -8  -4-667.787 463.413   5
  -1  -8   4-107.374 388.156   5
  -2   8   4 121577. 5760.86   3
  -2  -8  -4 115365. 5791.43   5
  -2  -8   4 115912. 5494.98   5
  -2   8  -4 115969. 5861.15   1
  -2   8   4 117223. 5177.95   4
  -3   8   4 301.163 259.368   4
  -3   8   4 478.680 480.820   3
  -3   8  -4 1572.51 754.994   1
  -3  -8  -4 244.271 401.539   5
  -3  -8   4-24.4713 334.117   5
  -4   8   4 74852.6 4774.86   3
  -4  -8  -4 77717.6 4881.00   5
  -4  -8   4 76177.1 4708.78   5
  -4   8  -4 75734.0 5221.65   1
   3  -8  -5 30984.3 2775.35   5
   2  -8  -5 358.415 312.567   5
   1  -8  -5 31454.9 2914.87   5
   1  -8   5 32875.5 2514.99   5
   0  -8  -5 1161.50 682.958   5
   0  -8   5 672.087 495.111   5
  -1   8   5 36982.4 3039.82   3
  -1  -8  -5 32992.1 3040.31   5
  -1  -8   5 33883.4 2767.27   5
  -1   8  -5 28029.2 2660.20   1
  -1   8   5 31830.5 2688.49   4
  -2   8   5 481.588 426.843   4
  -2   8   5 863.765 596.755   3
  -2  -8  -5 672.565 525.361   5
  -2   8  -5 1939.71 878.567   1
  -2  -8   5 381.251 447.639   5
  -3   8   5 33283.4 3081.75   3
  -3  -8  -5 32659.3 3088.79   5
  -3  -8   5 33777.6 2990.86   5
  -3   8  -5 34058.0 3289.97   1
  -3   8   5 34236.0 2728.42   4
  -4   8   5 224.506 375.813   3
  -4  -8  -5 1266.47 832.007   5
  -4   8  -5 82.4103 336.402   1
  -4  -8   5-19.3818 557.462   5
   2  -8  -6 96490.6 5144.15   5
   1  -8  -6 599.150 609.276   5
   1  -8   6 212.452 297.757   5
   0  -8  -6 80779.8 4822.64   5
   0  -8   6 79386.6 4212.36   5
  -1   8   6 207.843 308.922   4
  -1   8   6-211.808 415.630   3
  -1  -8  -6 50.4860 271.416   5
  -1  -8   6 46.6849 277.449   5
  -1   8  -6 404.323 345.114   1
  -2   8   6 98013.5 5354.75   3
  -2  -8  -6 93648.5 5377.77   5
  -2  -8   6 103851. 5237.60   5
  -2   8  -6 96633.1 5379.69   1
  -2   8   6 101912. 4998.16   4
  -3   8   6 1415.27 660.248   4
  -3   8   6 882.922 631.497   3
  -3  -8  -6 1108.16 679.930   5
  -3  -8   6 93.5794 298.636   5
  -3   8  -6 233.873 406.857   1
  -4   8   6 67843.5 4662.81   3
  -4  -8   6 71503.2 4616.19   5
  -4   8  -6 71460.1 5078.51   1
  -4   8   6 67502.5 3974.70   4
   1  -8  -7 30146.4 2885.30   5
   0   8   7 835.351 520.409   4
   0  -8  -7 445.896 378.914   5
   0  -8   7 779.064 543.252   5
  -1  -8  -7 31776.8 3068.48   5
  -1  -8   7 38374.3 3010.19   5
  -1   8  -7 31410.9 2849.71   1
  -1   8   7 36156.2 2998.15   4
  -2   8   7 1597.48 674.250   4
  -2   8   7 728.676 569.225   3
  -2  -8  -7 744.314 643.005   5
  -2  -8   7 565.279 468.334   5
  -2   8  -7-812.447 533.044   1
  -3   8   7 29975.8 3068.42   3
  -3  -8  -7 36884.7 3399.08   5
  -3  -8   7 34589.6 3114.25   5
  -3   8  -7 40044.5 3597.40   1
  -3   8   7 40637.7 3151.75   4
  -4   8   7 652.890 567.307   4
  -4   8  -7-816.479 627.766   1
   0  -8  -8 66186.9 4469.35   5
   0  -8   8 75787.8 4130.02   5
   0   8   8 68976.1 4356.37   4
  -1   8   8-131.381 423.349   4
  -1  -8  -8 616.723 479.485   5
  -1  -8   8 464.844 453.829   5
  -1   8  -8-679.773 465.923   1
  -2  -8  -8 70863.5 4786.09   5
  -2  -8   8 82106.2 4676.34   5
  -2   8  -8 69016.4 4589.92   1
  -2   8   8 68363.1 4302.17   4
  -3   8   8 207.105 543.841   4
  -3  -8   8 248.785 318.918   5
  -3   8  -8 136.119 345.170   1
  -4   8   8 60167.2 4026.89   4
   1   8   9 20637.6 2437.45   4
   0   8   9 614.025 595.976   4
   0  -8   9 413.662 355.061   5
  -1  -8   9 21350.0 2274.83   5
  -1  -8  -9 16627.5 2317.31   5
  -1   8  -9 18209.9 2250.43   1
  -1   8   9 23901.8 2601.71   4
  -2   8   9 583.158 536.266   4
  -2  -8  -9 978.055 572.985   5
  -2  -8   9 1386.03 758.901   5
  -2   8  -9-93.0180 315.100   1
  -3  -8   9 23067.6 2586.32   5
  -3   8  -9 18056.5 2473.13   1
  -3   8   9 23336.5 2558.24   4
  -4   8   9-430.969 411.438   4
   0   8  10 72401.5 4744.66   4
  -1   8  10 308.472 374.946   4
  -1  -8  10 115.878 263.778   5
  -2  -8  10 63607.9 4239.64   5
  -2   8 -10 61654.3 4488.43   1
  -2   8  10 59563.2 4306.87   4
  -3   8 -10 969.707 617.451   1
  -1  -8  11 25331.6 2575.21   5
  -2  -8  11 1112.48 611.719   5
  -2   8 -11 1233.49 675.951   1
  -1  -8  12 742.198 460.308   5
  -2   8 -12 33254.3 3392.67   1
   1  -9   0 462.093 480.463   5
   0   9   0 20002.1 2148.97   3
   0  -9   0 21016.5 2334.60   5
  -1   9   0-198.107 340.728   3
  -1  -9   0-106.265 450.244   5
  -2  -9   0 25734.9 2743.27   5
  -2   9   0 25111.7 2573.94   3
  -3   9   0-99.8794 394.064   3
   2  -9  -1 203.256 321.977   5
   1  -9  -1 92785.4 5012.52   5
   1  -9   1 92968.6 4831.84   5
   0   9   1 177.088 358.081   3
   0  -9   1-303.096 354.685   5
  -1   9   1 91368.1 4984.52   3
  -1  -9  -1 95224.2 5318.57   5
  -1  -9   1 99955.1 5325.93   5
  -1   9  -1 93912.9 4905.24   3
  -2   9   1-29.6618 392.451   3
  -2   9  -1 525.421 458.782   3
  -2  -9  -1-659.976 487.517   5
  -2  -9   1 454.874 341.187   5
  -3   9   1 75481.5 4760.16   3
  -3   9  -1 79165.6 4820.02   3
   2  -9  -2 42518.3 3290.80   5
   1  -9  -2 694.233 560.983   5
   1  -9   2 1068.61 559.961   5
   0   9   2 31180.8 2785.58   3
   0  -9  -2 33085.0 3041.85   5
   0  -9   2 28607.7 2671.76   5
  -1   9   2 612.785 584.934   3
  -1   9  -2 432.792 482.466   3
  -1  -9  -2 521.106 627.749   5
  -1  -9   2-81.5518 327.703   5
  -2   9   2 37992.4 3263.59   3
  -2  -9  -2 39324.4 3469.90   5
  -2  -9   2 38401.4 3307.49   5
  -2   9  -2 37695.2 3136.40   3
  -3   9   2 69.8492 456.461   3
  -3   9  -2 842.893 621.729   3
   2  -9  -3 133.512 352.174   5
   1  -9  -3 78242.6 4715.94   5
   1  -9   3 68807.6 4052.67   5
   0   9   3 430.085 404.406   3
   0  -9  -3 1603.56 814.365   5
   0  -9   3 843.127 536.629   5
  -1   9   3 70230.5 4453.53   3
  -1  -9  -3 74367.3 4776.52   5
  -1  -9   3 70188.9 4394.64   5
  -1   9  -3 74946.7 4300.81   3
  -2   9   3 1204.24 574.211   3
  -2   9  -3 375.736 469.084   3
  -2  -9  -3 661.633 518.490   5
  -2  -9   3 1804.22 830.545   5
  -3   9  -3 62950.7 4298.53   3
   2  -9  -4 34799.4 3124.38   5
   1  -9  -4 777.150 563.967   5
   0   9   4 26409.7 2645.18   3
   0  -9  -4 27776.2 2881.31   5
   0  -9   4 31584.1 2771.98   5
  -1   9   4 39.7170 315.091   3
  -1   9  -4 295.465 357.217   3
  -1  -9  -4-68.6512 467.794   5
  -1  -9   4 1063.11 707.366   5
  -2   9   4 27349.7 2841.00   3
  -2  -9   4 31621.0 2975.78   5
  -2   9  -4 29466.7 3071.96   1
  -3   9  -4 635.506 697.041   1
   2  -9  -5 368.533 550.757   5
   1  -9  -5 85041.2 5113.06   5
   0  -9  -5 5930.44 1376.52   5
   0  -9   5 3182.12 860.545   5
  -1   9   5 75186.5 4800.92   3
  -1  -9  -5 77340.5 4991.30   5
  -1  -9   5 86716.0 4874.29   5
  -2   9   5 679.030 494.077   3
  -2   9  -5 1194.28 666.314   1
  -2  -9   5 776.510 618.742   5
  -3   9  -5 65708.6 4927.84   1
   3  -9  -6-524.921 443.895   5
   2  -9  -6 29117.6 2944.43   5
   1  -9  -6 1.58145 274.493   5
   0  -9  -6 27758.2 2952.13   5
   0  -9   6 29895.8 2698.90   5
  -1  -9   6-394.917 421.379   5
  -2  -9   6 28076.2 2842.61   5
  -2   9  -6 26722.5 2988.36   1
  -3   9   6-167.638 384.240   4
  -3   9  -6 1909.87 840.758   1
   3  -9  -7 47126.4 3731.42   5
   2  -9  -7 2094.74 743.804   5
  -1  -9   7 57557.7 4000.31   5
  -1  -9   8 2017.02 763.389   5
  -1  -9   9 57544.8 4025.95   5
   0   0   0    0.00    0.00   0
;
_shelx_hkl_checksum              64954
loop_
_space_group_symop_operation_xyz
'x, y, z'
'-x+1/2, -y, z+1/2'
'x, -y, -z'
'-x+1/2, y, -z+1/2'
'-x, -y, -z'
'x-1/2, y, -z-1/2'
'-x, y, z'
'x-1/2, -y, z-1/2'
loop_
_atom_site_label
_atom_site_type_symbol
_atom_site_fract_x
_atom_site_fract_y
_atom_site_fract_z
_atom_site_U_iso_or_equiv
_atom_site_adp_type
_atom_site_occupancy
_atom_site_site_symmetry_order
_atom_site_calc_flag
_atom_site_refinement_flags_posn
_atom_site_refinement_flags_adp
_atom_site_refinement_flags_occupancy
Pt Pt 0.0000 0.0000 0.0000 0.01309(8) Uani 1 4 d S T P
Fe Fe 0.5000 0.5000 0.0000 0.01617(19) Uani 1 4 d S T P
N1 N 0.5000 0.3848(6) -0.1374(3) 0.0215(9) Uani 1 2 d S T P
N2 N 0.2982(4) 0.2994(4) 0.0334(2) 0.0225(6) Uani 1 1 d . . .
N3 N 0.5000 0.2453(9) -0.3095(4) 0.067(2) Uani 1 2 d S T P
C1 C 0.5000 0.2017(7) -0.1528(4) 0.0338(13) Uani 1 2 d S T P
H1 H 0.5000 0.1164 -0.1060 0.041 Uiso 1 2 calc R U P
C2 C 0.5000 0.1409(9) -0.2394(5) 0.054(2) Uani 1 2 d S T P
C3 C 0.5000 0.4277(11) -0.2929(5) 0.059(2) Uani 1 2 d S T P
H3 H 0.5000 0.5110 -0.3405 0.070 Uiso 1 2 calc R U P
C4 C 0.5000 0.4979(8) -0.2083(4) 0.0391(15) Uani 1 2 d S T P
H4 H 0.5000 0.6271 -0.1999 0.047 Uiso 1 2 calc R U P
C5 C 0.1883(4) 0.1903(4) 0.0243(2) 0.0168(6) Uani 1 1 d . . .
F F 0.5000 -0.0453(6) -0.2538(4) 0.122(3) Uani 1 2 d S T P
loop_
_atom_site_aniso_label
_atom_site_aniso_U_11
_atom_site_aniso_U_22
_atom_site_aniso_U_33
_atom_site_aniso_U_23
_atom_site_aniso_U_13
_atom_site_aniso_U_12
Pt 0.00895(11) 0.00883(12) 0.02149(14) -0.00082(10) 0.000 0.000
Fe 0.0102(4) 0.0100(4) 0.0283(5) -0.0056(4) 0.000 0.000
N1 0.017(2) 0.018(2) 0.029(3) -0.0037(18) 0.000 0.000
N2 0.0150(13) 0.0181(13) 0.0343(17) -0.0028(13) 0.0013(13) -0.0038(12)
N3 0.129(7) 0.047(4) 0.026(3) -0.007(3) 0.000 0.000
C1 0.052(4) 0.019(3) 0.031(3) -0.003(2) 0.000 0.000
C2 0.098(6) 0.030(3) 0.035(4) -0.013(3) 0.000 0.000
C3 0.098(7) 0.046(4) 0.031(4) 0.007(3) 0.000 0.000
C4 0.056(4) 0.026(3) 0.035(3) 0.005(3) 0.000 0.000
C5 0.0124(14) 0.0137(14) 0.0241(18) -0.0036(13) 0.0009(13) 0.0012(13)
F 0.283(9) 0.028(2) 0.054(3) -0.023(2) 0.000 0.000
loop_
_atom_type_symbol
_atom_type_description
_atom_type_scat_dispersion_real
_atom_type_scat_dispersion_imag
_atom_type_scat_source
C C 0.0033 0.0016 'International Tables Vol C Tables 4.2.6.8 and 6.1.1.4'
H H 0.0000 0.0000 'International Tables Vol C Tables 4.2.6.8 and 6.1.1.4'
N N 0.0061 0.0033 'International Tables Vol C Tables 4.2.6.8 and 6.1.1.4'
F F 0.0171 0.0103 'International Tables Vol C Tables 4.2.6.8 and 6.1.1.4'
Fe Fe 0.3463 0.8444 'International Tables Vol C Tables 4.2.6.8 and 6.1.1.4'
Pt Pt -1.7033 8.3905 'International Tables Vol C Tables 4.2.6.8 and 6.1.1.4'
loop_
_geom_angle_atom_site_label_1
_geom_angle_atom_site_label_2
_geom_angle_atom_site_label_3
_geom_angle
_geom_angle_site_symmetry_1
_geom_angle_site_symmetry_3
C5 Pt C5 90.05(18) 5 7
C5 Pt C5 89.95(18) 5 3
C5 Pt C5 180.0(2) 7 3
C5 Pt C5 180.0 5 .
C5 Pt C5 89.95(18) 7 .
C5 Pt C5 90.05(18) 3 .
N1 Fe N1 180.0 . 5_665
N2 Fe N1 88.37(11) . .
N2 Fe N1 91.63(11) 5_665 .
N2 Fe N1 88.37(11) 7_655 .
N2 Fe N1 91.63(11) 3_565 .
N2 Fe N1 91.63(11) . 5_665
N2 Fe N1 88.37(11) 5_665 5_665
N2 Fe N1 91.63(11) 7_655 5_665
N2 Fe N1 88.37(11) 3_565 5_665
N2 Fe N2 180.00(11) . 5_665
N2 Fe N2 89.57(16) . 7_655
N2 Fe N2 90.43(16) 5_665 7_655
N2 Fe N2 90.43(16) . 3_565
N2 Fe N2 89.57(16) 5_665 3_565
N2 Fe N2 180.00(17) 7_655 3_565
C1 N1 C4 117.0(5) . .
C1 N1 Fe 121.7(4) . .
C4 N1 Fe 121.3(4) . .
C5 N2 Fe 159.5(3) . .
C2 N3 C3 114.3(6) . .
N1 C1 C2 118.5(6) . .
N1 C1 H1 120.8 . .
C2 C1 H1 120.8 . .
N3 C2 F 115.9(6) . .
N3 C2 C1 126.4(6) . .
F C2 C1 117.7(6) . .
N3 C3 C4 122.3(7) . .
N3 C3 H3 118.8 . .
C4 C3 H3 118.8 . .
N1 C4 C3 121.5(6) . .
N1 C4 H4 119.3 . .
C3 C4 H4 119.3 . .
N2 C5 Pt 176.3(3) . .
loop_
_geom_bond_atom_site_label_1
_geom_bond_atom_site_label_2
_geom_bond_distance
_geom_bond_site_symmetry_2
Pt C5 1.986(3) 5
Pt C5 1.986(3) 7
Pt C5 1.986(3) 3
Pt C5 1.986(3) .
Fe N1 2.225(4) .
Fe N1 2.225(4) 5_665
Fe N2 2.135(3) .
Fe N2 2.135(3) 5_665
Fe N2 2.135(3) 7_655
Fe N2 2.135(3) 3_565
N1 C1 1.325(6) .
N1 C4 1.337(7) .
N2 C5 1.137(4) .
N3 C2 1.291(9) .
N3 C3 1.323(9) .
C1 C2 1.373(9) .
C1 H1 0.9300 .
C2 F 1.345(7) .
C3 C4 1.368(10) .
C3 H3 0.9300 .
C4 H4 0.9300 .
