#------------------------------------------------------------------------------
#$Date: 2019-11-23 20:45:32 +0200 (Sat, 23 Nov 2019) $
#$Revision: 234916 $
#$URL: file:///home/coder/svn-repositories/cod/cif/4/34/96/4349610.cif $
#------------------------------------------------------------------------------
#
# This file is available in the Crystallography Open Database (COD),
# http://www.crystallography.net/
#
# All data on this site have been placed in the public domain by the
# contributors.
#
data_4349610
loop_
_publ_author_name
'Felder, Justin'
'Yeon, Jeongho'
'Smith, Mark'
'zur Loye, Hans-Conrad'
_publ_section_title
;
 Application of a mild hydrothermal method to the synthesis of mixed
 transition-metal(ii)/uranium(iv) fluorides
;
_journal_issue                   2
_journal_name_full               'Inorganic Chemistry Frontiers'
_journal_page_first              368
_journal_paper_doi               10.1039/C6QI00491A
_journal_volume                  4
_journal_year                    2017
_chemical_formula_moiety         '2(F5 U), H12 O6 Zn, 2(H2 O)'
_chemical_formula_sum            'F10 H16 O8 U2 Zn'
_chemical_formula_weight         875.56
_space_group_crystal_system      monoclinic
_space_group_IT_number           14
_space_group_name_Hall           '-P 2ybc'
_space_group_name_H-M_alt        'P 1 21/c 1'
_atom_sites_solution_hydrogens   difmap
_audit_creation_method           SHELXL-2014/7
_audit_update_record
;
2016-11-07 deposited with the CCDC.
2016-12-26 downloaded from the CCDC.
;
_cell_angle_alpha                90
_cell_angle_beta                 94.2424(13)
_cell_angle_gamma                90
_cell_formula_units_Z            2
_cell_length_a                   11.0116(5)
_cell_length_b                   7.0571(3)
_cell_length_c                   8.8476(4)
_cell_measurement_reflns_used    9956
_cell_measurement_temperature    100(2)
_cell_measurement_theta_max      30.051
_cell_measurement_theta_min      3.432
_cell_volume                     685.66(5)
_computing_cell_refinement       'SAINT Version 8.34a (Bruker, 2014)'
_computing_data_collection       'Bruker APEXII v2014.9-0 (Bruker, 2014)'
_computing_data_reduction        'SAINT Version 8.34a (Bruker, 2014)'
_computing_molecular_graphics    various
_computing_publication_material  various
_computing_structure_refinement  'SHELXL-2014/7 (Sheldrick, 2014)'
_computing_structure_solution    'SHELXS (Sheldrick, 2008)'
_diffrn_ambient_temperature      100(2)
_diffrn_detector_area_resol_mean 10.4
_diffrn_measured_fraction_theta_full 1.000
_diffrn_measured_fraction_theta_max 1.000
_diffrn_measurement_device_type  'Bruker D8 QUEST'
_diffrn_measurement_method       '\w and \f scans'
_diffrn_radiation_type           MoK\a
_diffrn_radiation_wavelength     0.71073
_diffrn_reflns_av_R_equivalents  0.0353
_diffrn_reflns_av_unetI/netI     0.0145
_diffrn_reflns_Laue_measured_fraction_full 1.000
_diffrn_reflns_Laue_measured_fraction_max 1.000
_diffrn_reflns_limit_h_max       15
_diffrn_reflns_limit_h_min       -15
_diffrn_reflns_limit_k_max       9
_diffrn_reflns_limit_k_min       -9
_diffrn_reflns_limit_l_max       11
_diffrn_reflns_limit_l_min       -12
_diffrn_reflns_number            28820
_diffrn_reflns_point_group_measured_fraction_full 1.000
_diffrn_reflns_point_group_measured_fraction_max 1.000
_diffrn_reflns_theta_full        30.065
_diffrn_reflns_theta_max         30.065
_diffrn_reflns_theta_min         3.432
_diffrn_source                   'microfocus sealed X-ray tube'
_exptl_absorpt_coefficient_mu    25.448
_exptl_absorpt_correction_T_max  0.0846
_exptl_absorpt_correction_T_min  0.0312
_exptl_absorpt_correction_type   multi-scan
_exptl_absorpt_process_details   'SADABS Version 2014/4 (Bruker, 2014)'
_exptl_crystal_colour            'light green'
_exptl_crystal_density_diffrn    4.241
_exptl_crystal_description       'rhombic plate'
_exptl_crystal_F_000             768
_exptl_crystal_size_max          0.080
_exptl_crystal_size_mid          0.060
_exptl_crystal_size_min          0.040
_refine_diff_density_max         1.099
_refine_diff_density_min         -1.106
_refine_diff_density_rms         0.135
_refine_ls_extinction_coef       0.00702(15)
_refine_ls_extinction_expression Fc^*^=kFc[1+0.001xFc^2^\l^3^/sin(2\q)]^-1/4^
_refine_ls_extinction_method     'SHELXL-2014/7 (Sheldrick 2014'
_refine_ls_goodness_of_fit_ref   1.104
_refine_ls_hydrogen_treatment    refall
_refine_ls_matrix_type           full
_refine_ls_number_parameters     130
_refine_ls_number_reflns         2015
_refine_ls_number_restraints     29
_refine_ls_restrained_S_all      1.096
_refine_ls_R_factor_all          0.0130
_refine_ls_R_factor_gt           0.0118
_refine_ls_shift/su_max          0.001
_refine_ls_shift/su_mean         0.000
_refine_ls_structure_factor_coef Fsqd
_refine_ls_weighting_details
'w=1/[\s^2^(Fo^2^)+(0.0123P)^2^+0.8800P] where P=(Fo^2^+2Fc^2^)/3'
_refine_ls_weighting_scheme      calc
_refine_ls_wR_factor_gt          0.0272
_refine_ls_wR_factor_ref         0.0277
_reflns_Friedel_coverage         0.000
_reflns_number_gt                1941
_reflns_number_total             2015
_reflns_threshold_expression     'I > 2\s(I)'
_cod_data_source_file            c6qi00491a2.cif
_cod_data_source_block           jwj1015c_1
_cod_original_sg_symbol_H-M      'P 21/c'
_cod_database_code               4349610
_shelx_shelxl_version_number     2014/7
_shelx_space_group_comment
; 
The symmetry employed for this shelxl refinement is uniquely defined 
by the following loop, which should always be used as a source of 
symmetry information in preference to the above space-group names. 
They are only intended as comments. 
;
_shelx_estimated_absorpt_t_min   0.235
_shelx_estimated_absorpt_t_max   0.429
_shelx_res_file
; 
  
    jwj1015c_1.res created by SHELXL-2014/7 
  
  
TITL JWJ1015C_1 in P2(1)/c 
CELL 0.71073 11.0116 7.0571 8.8476 90 94.2424 90 
ZERR 2 0.0005 0.0003 0.0004 0 0.0013 0 
LATT 1 
SYMM -X,0.5+Y,0.5-Z 
SFAC O H F Zn U 
UNIT 16 32 20 2 4 
EQIV $1 +X,0.5-Y,0.5+Z 
EQIV $2 1-X,-0.5+Y,0.5-Z 
EQIV $3 1-X,1-Y,1-Z 
SADI O1 H1a O1 H1b O2 H2a O2 H2b O3 H3a O3 H3b O4 H4a O4 H4b 
DANG 1.25 H4A H4B 
L.S. 9 
PLAN  9 
SIZE 0.04 0.06 0.08 
REM light green rhombic plate 
REM 9956 refl / 2th = 6.863 - 60.102 
REM sadabs  0.0312  0.0846 
  
TEMP -173.25 
HTAB O1 F3 
HTAB O1 F5_$1 
HTAB O1 F1 
HTAB O2 O3_$1 
HTAB O2 O4 
HTAB O3 F1_$2 
HTAB O3 O4_$3 
HTAB O4 F2 
HTAB O4 F3_$1 
LIST 4 
  
fmap 2 
MORE -1 
BOND $H 
ACTA 60.13 
CONF 
  
WGHT    0.012300    0.880000 
EXTI    0.007021 
FVAR       0.10341 
U1    5    0.046209    0.345304    0.176654    11.00000    0.00631    0.00719 = 
         0.00733    0.00024    0.00054    0.00007 
ZN1   4    0.500000    0.000000    0.500000    10.50000    0.00712    0.01015 = 
         0.00982    0.00040    0.00002   -0.00014 
F1    3    0.246663    0.334362    0.214318    11.00000    0.00817    0.01235 = 
         0.01659    0.00189    0.00197    0.00039 
F2    3    0.113405    0.640713    0.293014    11.00000    0.00920    0.00958 = 
         0.01111   -0.00030    0.00050    0.00016 
F3    3    0.101776    0.028155    0.213847    11.00000    0.00837    0.00890 = 
         0.01108    0.00014    0.00195    0.00047 
F4    3    0.068472    0.295196    0.438820    11.00000    0.01235    0.01049 = 
         0.00973    0.00086    0.00102   -0.00022 
F5    3    0.113035    0.563015   -0.000218    11.00000    0.01009    0.01031 = 
         0.00960    0.00019    0.00022   -0.00068 
O1    1    0.337678    0.024321    0.365558    11.00000    0.00861    0.01498 = 
         0.01402    0.00288   -0.00030    0.00005 
H1A   2    0.277802   -0.007266    0.401476    11.00000    0.02531 
H1B   2    0.322312    0.115993    0.318098    11.00000    0.02838 
O2    1    0.473455    0.275169    0.573958    11.00000    0.01012    0.01338 = 
         0.01725   -0.00444   -0.00091    0.00191 
H2A   2    0.512178    0.314019    0.645336    11.00000    0.02548 
H2B   2    0.418380    0.343779    0.555167    11.00000    0.02162 
O3    1    0.604992    0.117569    0.333554    11.00000    0.01056    0.01184 = 
         0.01285    0.00041    0.00078    0.00110 
H3A   2    0.653326    0.042146    0.310054    11.00000    0.03261 
H3B   2    0.642289    0.209282    0.353918    11.00000    0.05576 
O4    1    0.287260    0.568001    0.537613    11.00000    0.00889    0.01773 = 
         0.01331    0.00167   -0.00013   -0.00123 
H4A   2    0.248984    0.592958    0.461346    11.00000    0.02293 
H4B   2    0.231909    0.550351    0.588250    11.00000    0.02856 
HKLF 4 
  
REM  JWJ1015C_1 in P2(1)/c 
REM R1 =  0.0118 for    1941 Fo > 4sig(Fo)  and  0.0130 for all    2015 data 
REM    130 parameters refined using     29 restraints 
  
END 
  
WGHT      0.0123      0.8800 
  
REM Highest difference peak  1.099,  deepest hole -1.106,  1-sigma level  0.135 
Q1    1   0.0575  0.3475  0.2611  11.00000  0.05    1.10 
Q2    1   0.0342  0.3437  0.0895  11.00000  0.05    0.80 
Q3    1   0.1119  0.3409  0.1837  11.00000  0.05    0.62 
Q4    1   0.0468  0.4514  0.1714  11.00000  0.05    0.54 
Q5    1  -0.0172  0.3452  0.1610  11.00000  0.05    0.51 
Q6    1   0.5035  0.0544  0.4600  11.00000  0.05    0.49 
Q7    1   0.5428 -0.0113  0.5036  11.00000  0.05    0.48 
Q8    1   0.1150  0.6376  0.5143  11.00000  0.05    0.47 
Q9    1   0.1419  0.4450  0.1430  11.00000  0.05    0.47 
;
_shelx_res_checksum              46911
_shelx_hkl_file
; 
   0   0  -1   -0.09    0.05 
   0   0   1   -0.20    0.06 
   0   0   1   -0.11    0.03 
   0   0  -1   -0.06    0.07 
   0   0  -2  153.63    6.34 
   0   0  -2  165.36    6.40 
   0   0  -2  158.01    6.35 
   0   0  -2  162.22    6.35 
   0   0   2  160.94    6.39 
   0   0   2  152.55    6.35 
   0   0  -2  152.15    6.40 
   0   0   2  160.88    6.35 
   0   0  -3   -0.62    0.31 
   0   0  -3   -0.71    0.07 
   0   0  -3   -0.68    0.15 
   0   0   3   -0.63    0.14 
   0   0   3   -0.81    0.07 
   0   0   3   -0.64    0.11 
   0   0  -3   -0.50    0.17 
   0   0  -3   -0.81    0.09 
   0   0  -3   -0.71    0.06 
   0   0  -4    4.92    0.32 
   0   0   4    5.33    0.43 
   0   0   4    4.34    0.26 
   0   0  -4    4.90    0.27 
   0   0  -4    5.46    0.50 
   0   0   4    3.77    0.34 
   0   0  -4    4.10    0.56 
   0   0  -4    4.22    0.47 
   0   0  -4    4.48    0.26 
   0   0  -5   -0.01    0.28 
   0   0  -5    0.09    0.11 
   0   0  -5    0.40    0.46 
   0   0   5    0.18    0.27 
   0   0   5    0.31    0.10 
   0   0  -5    0.15    0.31 
   0   0   5   -0.07    0.23 
   0   0  -5    0.04    0.22 
   0   0  -5    0.30    0.13 
   0   0  -5   -0.15    0.32 
   0   0  -6  525.84   21.73 
   0   0  -6  521.39   21.52 
   0   0   6  522.14   21.62 
   0   0  -6  553.10   21.67 
   0   0  -6  550.60   21.69 
   0   0  -6  545.67   21.64 
   0   0  -7    0.23    0.47 
   0   0  -7    1.13    0.56 
   0   0  -7    0.17    0.43 
   0   0  -7    0.82    0.60 
   0   0  -7    0.18    0.17 
   0   0  -8  195.87    7.99 
   0   0  -8  195.28    8.16 
   0   0  -8  198.26    8.02 
   0   0  -8  194.43    8.25 
   0   0  -8  206.93    8.31 
   0   0  -8  200.27    8.25 
   0   0  -8  196.74    8.21 
   0   0  -9    0.23    0.29 
   0   0  -9    0.75    1.00 
   0   0  -9   -0.10    0.55 
   0   0  -9    0.37    0.65 
   0   0  -9   -0.13    0.64 
   0   0  -9    0.08    0.22 
   0   0 -10   16.85    1.72 
   0   0 -10   20.03    1.52 
   0   0 -10   19.27    0.90 
   0   0 -10   15.80    1.52 
   0   0 -10   18.19    1.06 
   0   0 -10   18.72    1.78 
   0   0 -11    0.30    0.85 
   0   0 -11    1.09    0.81 
   0   0 -11    0.53    0.61 
   0   0 -12   95.71    4.45 
   0   0 -12   92.95    4.13 
   0   0 -12   86.73    4.21 
   0   1   0    0.12    0.07 
   0   1   0    0.25    0.07 
   0   1   0    0.31    0.06 
   0   1   0    0.21    0.06 
   0   1   0    0.15    0.06 
   0   1   0    0.09    0.06 
   0  -1   0    0.21    0.06 
   0  -1   0    0.12    0.06 
   0  -1   0    0.24    0.06 
   0  -1   0    0.25    0.07 
   0  -1   0    0.41    0.08 
   0  -1   0    0.26    0.06 
   0  -1   0    0.15    0.06 
   0   1  -1  187.90    7.52 
   0   1   1  185.10    7.54 
   0   1  -1  194.56    7.53 
   0   1  -1  183.20    7.51 
   0   1   1  187.00    7.53 
   0   1   1  186.77    7.52 
   0   1   1  171.98    7.53 
   0   1  -1  182.53    7.51 
   0   1   1  188.28    7.53 
   0   1  -1  191.91    7.52 
   0   1  -1  184.51    7.51 
   0  -1   1  182.42    7.51 
   0  -1  -1  181.69    7.52 
   0  -1   1  191.07    7.51 
   0  -1  -1  180.26    7.52 
   0  -1  -1  191.41    7.53 
   0  -1   1  188.23    7.52 
   0  -1   1  195.38    7.54 
   0  -1   1  190.17    7.53 
   0  -1  -1  195.91    7.54 
   0  -1   1  191.91    7.52 
   0  -1  -1  174.53    7.52 
   0  -1  -1  189.56    7.52 
   0  -1  -1  187.54    7.53 
   0   1   2  319.62   13.02 
   0   1   2  316.19   13.04 
   0   1  -2  335.26   13.02 
   0   1  -2  330.13   13.04 
   0   1   2  304.33   13.02 
   0   1  -2  327.10   13.01 
   0   1   2  330.44   12.99 
   0   1  -2  342.79   13.04 
   0   1  -2  324.71   13.01 
   0   1  -2  333.80   13.01 
   0   1   2  337.30   13.01 
   0  -1  -2  324.94   13.01 
   0  -1  -2  326.50   13.03 
   0  -1  -2  312.67   13.01 
   0  -1  -2  307.47   13.00 
   0  -1  -2  316.17   13.00 
   0  -1  -2  298.30   13.01 
   0  -1   2  349.30   13.03 
   0  -1   2  315.20   13.02 
   0  -1  -2  320.10   13.07 
   0   1  -3  135.61    5.27 
   0   1  -3  137.10    5.31 
   0   1  -3  128.75    5.23 
   0   1  -3  129.83    5.34 
   0   1   3  130.72    5.39 
   0   1   3  126.86    5.26 
   0   1  -3  124.72    5.25 
   0   1   3  126.86    5.34 
   0   1   3  135.81    5.29 
   0   1   3  129.39    5.29 
   0   1   3  138.14    5.30 
   0  -1   3  120.69    5.27 
   0  -1  -3  124.62    5.27 
   0  -1  -3  131.08    5.29 
   0  -1  -3  135.19    5.34 
   0  -1  -3  142.01    5.36 
   0  -1  -3  130.82    5.33 
   0  -1  -3  127.17    5.28 
   0  -1  -3  124.00    5.27 
   0  -1   3  128.10    5.23 
   0   1   4  407.95   19.13 
   0   1  -4  479.76   19.03 
   0   1   4  477.27   18.98 
   0   1  -4  469.17   19.01 
   0   1  -4  465.98   19.02 
   0   1   4  465.65   18.99 
   0   1  -4  494.84   19.06 
   0  -1  -4  477.10   18.98 
   0  -1  -4  457.58   18.97 
   0  -1  -4  470.96   18.98 
   0  -1  -4  465.05   19.04 
   0  -1  -4  491.92   19.06 
   0  -1  -4  509.98   19.07 
   0  -1  -4  479.44   18.97 
   0   1  -5  174.82    7.06 
   0   1   5  171.06    7.03 
   0   1  -5  175.49    7.08 
   0   1  -5  157.75    6.97 
   0   1  -5  161.78    7.19 
   0   1   5  176.86    7.01 
   0   1   5  179.09    7.05 
   0  -1  -5  173.77    7.00 
   0  -1  -5  177.21    7.01 
   0  -1  -5  178.70    7.13 
   0  -1  -5  174.77    7.10 
   0  -1  -5  163.62    6.99 
   0  -1  -5  181.95    7.12 
   0   1   6   68.23    2.91 
   0   1  -6   68.03    3.01 
   0   1  -6   64.28    2.96 
   0   1  -6   65.54    2.85 
   0   1   6   66.28    2.93 
   0   1  -6   71.69    3.07 
   0   1  -6   70.45    2.99 
   0   1   6   67.97    2.86 
   0  -1  -6   73.60    2.88 
   0  -1  -6   69.18    3.01 
   0  -1  -6   67.57    2.86 
   0  -1  -6   72.08    3.09 
   0  -1  -6   72.35    2.87 
   0  -1  -6   72.62    3.06 
   0  -1  -6   66.79    2.86 
   0   1  -7   63.82    3.13 
   0   1  -7   79.57    3.33 
   0   1  -7   63.95    3.56 
   0   1   7   78.79    3.12 
   0   1  -7   76.85    3.29 
   0   1   7   76.79    3.21 
   0   1   7   71.89    3.18 
   0   1  -7   76.26    3.25 
   0   1  -7   82.80    3.41 
   0  -1  -7   76.77    3.29 
   0  -1  -7   74.06    3.12 
   0  -1  -7   74.11    3.24 
   0  -1  -7   78.91    3.44 
   0  -1  -7   77.50    3.12 
   0  -1  -7   74.91    3.37 
   0  -1  -7   77.22    3.12 
   0   1  -8   20.07    1.79 
   0   1  -8   22.31    1.35 
   0   1   8   22.10    1.24 
   0   1  -8   22.31    1.69 
   0   1   8   22.49    1.05 
   0   1  -8   21.98    1.50 
   0   1  -8   23.52    1.36 
   0  -1  -8   19.89    1.50 
   0  -1  -8   23.39    1.07 
   0  -1  -8   20.85    1.61 
   0  -1  -8   21.80    1.07 
   0  -1  -8   22.76    1.20 
   0  -1  -8   22.49    1.06 
   0  -1  -8   22.02    1.77 
   0  -1  -8   21.58    1.34 
   0   1  -9   22.79    1.94 
   0   1  -9   26.43    2.10 
   0   1  -9   25.46    1.69 
   0   1  -9   25.90    1.58 
   0  -1  -9   25.19    1.51 
   0  -1  -9   24.39    1.61 
   0  -1  -9   28.28    2.24 
   0  -1  -9   23.45    1.23 
   0  -1  -9   23.43    1.70 
   0  -1  -9   23.64    1.17 
   0   1 -10  120.80    5.50 
   0   1 -10  131.49    5.42 
   0   1 -10  122.75    5.35 
   0  -1 -10  128.53    5.10 
   0  -1 -10  119.32    5.27 
   0  -1 -10  128.23    5.13 
   0  -1 -10  124.10    5.95 
   0  -1 -10  113.92    5.38 
   0  -1 -10  125.53    5.41 
   0   1 -11  102.66    4.56 
   0   1 -11   98.76    4.57 
   0  -1 -11   94.24    4.34 
   0  -1 -11  101.90    4.13 
   0  -1 -11   97.98    4.53 
   0  -1 -11   98.28    4.17 
   0   1 -12   47.41    2.95 
   0   1 -12   49.30    2.66 
   0   1 -12   47.97    2.94 
   0  -1 -12   47.82    2.38 
   0  -1 -12   50.88    2.96 
   0  -1 -12   49.30    2.64 
   0  -1 -12   50.54    2.21 
   0  -1 -12   51.44    2.58 
   0   2   0    8.36    0.43 
   0   2   0    7.10    0.41 
   0   2   0    7.73    0.42 
   0   2   0    7.08    0.45 
   0   2   0    7.78    0.39 
   0   2   0    8.15    0.45 
   0  -2   0    7.23    0.44 
   0  -2   0    7.70    0.43 
   0  -2   0    7.52    0.43 
   0  -2   0    8.06    0.43 
   0  -2   0    7.76    0.41 
   0  -2   0    7.05    0.40 
   0   2  -1  320.78   13.84 
   0   2  -1  360.79   13.87 
   0   2   1  348.19   13.88 
   0   2   1  362.45   13.87 
   0   2  -1  345.77   13.85 
   0   2  -1  353.41   13.87 
   0   2   1  334.33   13.86 
   0   2   1  348.48   13.89 
   0   2   1  331.10   13.86 
   0   2  -1  339.29   13.85 
   0   2  -1  356.31   13.87 
   0   2   1  349.57   13.87 
   0  -2  -1  352.82   13.86 
   0  -2  -1  351.18   13.88 
   0  -2  -1  356.14   13.89 
   0  -2   1  359.47   13.86 
   0  -2   1  337.76   13.86 
   0  -2  -1  335.43   13.86 
   0  -2  -1  348.84   13.87 
   0  -2  -1  312.61   13.90 
   0  -2  -1  345.11   13.85 
   0  -2   1  309.22   13.84 
   0  -2   1  357.67   13.87 
   0   2  -2  108.77    4.40 
   0   2   2   99.44    4.46 
   0   2  -2  108.18    4.38 
   0   2  -2  107.22    4.39 
   0   2  -2  106.33    4.41 
   0   2  -2  110.09    4.42 
   0   2   2  110.28    4.41 
   0   2  -2  107.29    4.40 
   0   2   2  101.82    4.40 
   0   2   2  108.96    4.43 
   0   2   2  104.02    4.43 
   0   2   2  106.22    4.42 
   0  -2  -2  109.54    4.43 
   0  -2  -2  110.74    4.42 
   0  -2   2  111.37    4.43 
   0  -2  -2  108.67    4.39 
   0  -2   2  109.96    4.37 
   0  -2   2  107.67    4.39 
   0  -2  -2  108.87    4.41 
   0  -2   2  113.08    4.38 
   0  -2   2  106.30    4.39 
   0  -2  -2  106.33    4.41 
   0  -2   2  109.22    4.40 
   0  -2  -2  108.47    4.43 
   0   2   3    8.32    0.57 
   0   2   3    7.80    0.57 
   0   2   3    7.60    0.51 
   0   2  -3    7.22    0.40 
   0   2   3    6.94    0.45 
   0   2  -3    7.28    0.43 
   0   2  -3    7.02    0.56 
   0   2  -3    7.47    0.45 
   0   2  -3    6.89    0.48 
   0   2  -3    7.45    0.52 
   0   2   3    7.16    0.60 
   0   2  -3    7.76    0.42 
   0  -2  -3    7.91    0.49 
   0  -2  -3    9.81    0.59 
   0  -2  -3    9.34    0.52 
   0  -2   3    8.32    0.44 
   0  -2   3    8.15    0.39 
   0  -2  -3    7.52    0.47 
   0  -2   3    7.77    0.41 
   0  -2  -3    6.86    0.55 
   0  -2  -3    7.11    0.51 
   0  -2   3    7.72    0.44 
   0  -2  -3    7.67    0.46 
   0  -2   3    7.78    0.54 
   0   2   4   59.61    2.74 
   0   2  -4   66.41    2.79 
   0   2  -4   65.61    2.71 
   0   2   4   70.72    2.92 
   0   2   4   65.36    2.80 
   0   2  -4   68.65    2.74 
   0   2   4   68.87    2.78 
   0   2  -4   66.02    2.70 
   0   2   4   65.17    2.78 
   0   2  -4   68.95    2.80 
   0   2   4   64.94    2.85 
   0   2  -4   68.22    2.87 
   0   2  -4   65.33    2.71 
   0  -2  -4   64.13    2.76 
   0  -2   4   66.50    2.72 
   0  -2   4   64.69    2.83 
   0  -2  -4   63.59    2.94 
   0  -2  -4   64.87    2.78 
   0  -2  -4   63.18    2.79 
   0  -2  -4   65.00    2.76 
   0  -2  -4   69.49    2.86 
   0   2   5  113.54    4.65 
   0   2  -5  114.35    4.62 
   0   2  -5  117.29    4.73 
   0   2  -5  115.19    4.68 
   0   2   5  117.17    4.70 
   0   2  -5  116.31    4.60 
   0   2   5  112.02    4.93 
   0   2  -5  117.12    4.74 
   0   2  -5  115.08    4.78 
   0   2  -5  116.20    4.81 
   0   2   5  112.35    4.72 
   0   2   5  115.71    4.70 
   0   2  -5  114.06    4.61 
   0  -2   5  115.39    4.59 
   0  -2   5  108.48    4.64 
   0  -2  -5  115.84    4.70 
   0  -2  -5  101.88    4.94 
   0  -2  -5  118.07    4.70 
   0  -2  -5  118.69    4.79 
   0  -2  -5  109.35    4.67 
   0  -2   5  108.56    4.78 
   0  -2  -5  112.18    4.68 
   0  -2  -5  113.28    4.72 
   0   2  -6    1.86    0.39 
   0   2  -6    1.16    0.39 
   0   2   6    1.38    0.34 
   0   2   6    0.33    0.84 
   0   2  -6    1.31    0.51 
   0   2   6    1.40    0.33 
   0   2  -6    1.24    0.17 
   0   2  -6    1.12    0.37 
   0   2   6    1.32    0.30 
   0  -2  -6    1.50    0.27 
   0  -2  -6    1.72    0.39 
   0  -2  -6    1.04    0.31 
   0  -2  -6    0.98    0.82 
   0  -2  -6    1.16    0.31 
   0  -2  -6    1.62    0.28 
   0  -2  -6    0.95    0.49 
   0   2   7  278.61   11.75 
   0   2  -7  281.23   11.61 
   0   2  -7  295.75   11.76 
   0   2  -7  290.99   11.88 
   0   2   7  296.25   11.71 
   0   2  -7  293.46   11.80 
   0   2   7  285.17   11.70 
   0   2  -7  302.68   11.80 
   0  -2  -7  293.03   12.03 
   0  -2  -7  298.17   11.70 
   0  -2  -7  280.55   11.75 
   0  -2  -7  281.90   11.69 
   0  -2  -7  284.00   11.84 
   0  -2  -7  295.68   11.71 
   0  -2  -7  278.59   11.69 
   0   2  -8  109.74    4.94 
   0   2  -8  119.17    4.80 
   0   2  -8  117.52    4.51 
   0   2  -8  112.48    4.74 
   0   2   8  110.85    4.70 
   0   2  -8  109.70    4.80 
   0   2   8  115.10    4.66 
   0   2   8  115.50    4.64 
   0  -2  -8  108.58    4.71 
   0  -2  -8  109.49    4.63 
   0  -2  -8  102.79    4.71 
   0  -2  -8  111.69    4.62 
   0  -2  -8  107.40    5.16 
   0  -2  -8  111.59    4.63 
   0   2  -9   49.39    2.50 
   0   2  -9   54.90    2.53 
   0   2   9   48.40    2.38 
   0   2   9   53.05    2.26 
   0   2  -9   52.61    2.66 
   0   2  -9   47.86    3.11 
   0  -2  -9   48.89    2.35 
   0  -2  -9   49.32    3.41 
   0  -2  -9   50.30    2.41 
   0  -2  -9   50.58    2.25 
   0  -2  -9   53.44    2.26 
   0   2 -10    5.66    0.78 
   0   2 -10    4.42    1.33 
   0   2 -10    3.86    1.08 
   0   2  10    5.20    0.55 
   0   2 -10    5.32    1.00 
   0   2  10    3.82    0.80 
   0  -2 -10    5.66    0.75 
   0  -2 -10    5.41    1.18 
   0  -2 -10    5.11    0.56 
   0  -2 -10    5.97    2.31 
   0  -2 -10    5.14    0.90 
   0  -2 -10    5.11    0.56 
   0  -2 -10    4.89    0.96 
   0   2 -11   21.05    1.87 
   0   2 -11   21.12    1.84 
   0   2 -11   19.51    1.64 
   0  -2 -11   18.38    1.50 
   0  -2 -11   19.50    1.87 
   0  -2 -11   19.20    1.27 
   0  -2 -11   17.80    1.22 
   0   2 -12    4.74    1.04 
   0   2 -12    6.64    1.52 
   0   2 -12    6.55    1.25 
   0  -2 -12    3.96    0.76 
   0  -2 -12    7.24    1.29 
   0   3   0   -0.17    0.22 
   0   3   0   -0.68    0.17 
   0   3   0   -0.72    0.18 
   0   3   0   -0.61    0.13 
   0   3   0   -0.63    0.14 
   0   3   0   -0.56    0.22 
   0   3   0   -0.76    0.20 
   0  -3   0   -0.79    0.17 
   0  -3   0   -0.58    0.14 
   0  -3   0   -0.72    0.17 
   0  -3   0   -0.52    0.17 
   0  -3   0   -0.51    0.18 
   0  -3   0   -0.61    0.17 
   0  -3   0   -0.47    0.19 
   0   3  -1   12.36    0.57 
   0   3   1   11.37    0.62 
   0   3  -1   11.58    0.65 
   0   3  -1   11.76    0.67 
   0   3   1   11.48    0.63 
   0   3  -1   11.60    0.66 
   0   3   1   11.73    0.67 
   0   3   1   12.05    0.70 
   0   3   1   11.02    0.67 
   0   3  -1   10.97    0.65 
   0   3   1   10.73    0.64 
   0   3  -1   11.03    0.62 
   0   3   1   10.93    0.64 
   0  -3   1   10.06    0.62 
   0  -3   1   11.10    0.65 
   0  -3   1   11.93    0.64 
   0  -3  -1   11.27    0.61 
   0  -3  -1   11.52    0.64 
   0  -3   1    9.87    0.69 
   0  -3   1   10.65    0.59 
   0  -3  -1   11.61    0.68 
   0  -3  -1   11.08    0.64 
   0  -3   1   11.40    0.65 
   0  -3  -1   12.35    0.64 
   0   3  -2    5.22    0.44 
   0   3  -2    6.42    0.49 
   0   3  -2    6.76    0.53 
   0   3  -2    6.03    0.41 
   0   3  -2    4.92    0.47 
   0   3   2    5.50    0.44 
   0   3  -2    5.48    0.45 
   0   3   2    6.20    0.50 
   0   3   2    5.29    0.50 
   0   3  -2    4.98    0.47 
   0   3   2    5.65    0.46 
   0   3   2    6.97    0.54 
   0   3   2    4.97    0.51 
   0   3   2    6.13    0.49 
   0  -3  -2    5.90    0.50 
   0  -3  -2    5.87    0.41 
   0  -3  -2    5.17    0.45 
   0  -3   2    4.91    0.42 
   0  -3   2    5.40    0.41 
   0  -3   2    5.56    0.44 
   0  -3  -2    5.72    0.48 
   0  -3  -2    5.09    0.49 
   0  -3   2    5.84    0.39 
   0  -3   2    5.21    0.50 
   0  -3   2    5.49    0.37 
   0  -3  -2    5.29    0.42 
   0   3   3  755.32   29.18 
   0   3  -3  743.30   29.23 
   0   3   3  694.04   29.20 
   0   3  -3  736.93   29.16 
   0   3   3  722.45   29.21 
   0   3  -3  715.59   29.15 
   0   3  -3  697.46   29.19 
   0   3   3  718.64   29.22 
   0   3  -3  695.35   29.21 
   0   3   3  767.18   29.22 
   0   3  -3  760.55   29.19 
   0   3  -3  740.40   29.17 
   0  -3  -3  724.45   29.14 
   0  -3  -3  691.84   29.18 
   0  -3   3  676.01   29.14 
   0  -3   3  779.63   29.23 
   0  -3  -3  725.42   29.18 
   0  -3   3  751.65   29.13 
   0  -3   3  703.02   29.15 
   0  -3  -3  733.96   29.22 
   0  -3   3  695.23   29.20 
   0  -3  -3  717.88   29.18 
   0  -3  -3  748.06   29.21 
   0  -3  -3  704.97   29.20 
   0  -3   3  751.21   29.17 
   0   3   4   38.39    1.83 
   0   3  -4   37.40    1.76 
   0   3  -4   39.00    1.79 
   0   3  -4   39.83    1.86 
   0   3   4   38.14    1.72 
   0   3   4   36.31    1.94 
   0   3   4   40.16    1.88 
   0   3   4   39.40    1.80 
   0   3  -4   34.29    1.70 
   0   3  -4   38.67    1.68 
   0   3  -4   38.07    1.69 
   0   3  -4   41.52    1.72 
   0  -3  -4   40.24    1.78 
   0  -3  -4   38.52    1.71 
   0  -3  -4   38.40    1.76 
   0  -3   4   42.41    1.72 
   0  -3  -4   39.30    1.74 
   0  -3   4   39.93    1.69 
   0  -3  -4   41.26    1.82 
   0  -3  -4   35.54    1.75 
   0  -3   4   40.96    1.64 
   0  -3   4   37.76    1.80 
   0  -3  -4   39.86    1.74 
   0   3   5  195.99    8.01 
   0   3  -5  194.73    7.92 
   0   3   5  193.10    8.03 
   0   3  -5  194.85    8.09 
   0   3   5  199.97    7.97 
   0   3   5  189.95    7.95 
   0   3  -5  195.98    7.92 
   0   3  -5  194.94    7.91 
   0   3  -5  195.44    8.00 
   0   3  -5  200.87    8.02 
   0   3  -5  205.20    7.96 
   0   3   5  206.54    8.15 
   0  -3  -5  187.58    7.98 
   0  -3  -5  198.23    8.06 
   0  -3  -5  199.89    8.01 
   0  -3  -5  187.66    7.98 
   0  -3   5  193.82    8.06 
   0  -3  -5  191.63    8.00 
   0  -3   5  193.25    7.91 
   0  -3  -5  192.47    7.98 
   0  -3  -5  195.25    8.01 
   0  -3   5  198.46    7.93 
   0   3   6    9.02    0.68 
   0   3   6    8.22    1.02 
   0   3  -6    8.75    0.79 
   0   3  -6    7.90    0.51 
   0   3  -6    7.88    0.81 
   0   3  -6    8.80    0.53 
   0   3   6    9.33    0.66 
   0   3  -6    7.96    0.86 
   0   3  -6    8.02    0.68 
   0   3  -6    8.50    0.80 
   0   3   6    8.11    0.63 
   0   3   6    7.63    0.76 
   0  -3  -6    8.31    0.66 
   0  -3   6    7.75    0.61 
   0  -3   6    7.12    0.73 
   0  -3   6    8.22    0.47 
   0  -3  -6    9.49    0.85 
   0  -3  -6    7.76    0.76 
   0  -3  -6    8.08    0.71 
   0  -3  -6    8.20    0.70 
   0  -3  -6    8.23    0.65 
   0  -3  -6    9.40    1.00 
   0   3  -7    4.74    0.60 
   0   3   7    4.37    1.25 
   0   3  -7    5.27    0.67 
   0   3  -7    5.03    0.86 
   0   3  -7    5.24    0.42 
   0   3   7    4.54    0.52 
   0   3  -7    4.96    0.62 
   0   3   7    5.75    0.50 
   0   3   7    4.92    0.58 
   0  -3  -7    4.38    0.54 
   0  -3  -7    5.06    0.48 
   0  -3  -7    5.38    0.49 
   0  -3  -7    4.08    0.76 
   0  -3  -7    4.64    0.55 
   0  -3  -7    5.10    0.58 
   0  -3  -7    5.50    0.80 
   0   3   8    0.26    0.39 
   0   3  -8    1.07    0.55 
   0   3  -8   -0.39    0.63 
   0   3  -8    0.65    0.65 
   0   3   8    0.92    1.41 
   0   3   8    1.42    0.41 
   0   3  -8   -0.06    0.53 
   0   3  -8    0.31    0.20 
   0  -3  -8    0.30    0.49 
   0  -3  -8    0.25    0.44 
   0  -3  -8    0.06    0.48 
   0  -3  -8    1.03    0.90 
   0   3  -9  195.16    8.18 
   0   3  -9  196.33    8.18 
   0   3   9  185.10    8.11 
   0   3  -9  195.66    8.17 
   0   3   9  202.56    8.05 
   0   3  -9  200.17    7.87 
   0   3  -9  189.48    8.13 
   0  -3  -9  199.56    8.08 
   0  -3  -9  189.13    8.33 
   0  -3  -9  198.35    8.03 
   0  -3  -9  198.22    8.08 
   0  -3  -9  195.23    8.03 
   0   3 -10    8.00    1.05 
   0   3  10    7.25    0.90 
   0   3 -10    8.47    1.01 
   0   3  10   10.03    1.01 
   0   3 -10    7.01    1.79 
   0  -3 -10    7.94    0.72 
   0  -3 -10    7.64    0.83 
   0  -3 -10    9.14    0.77 
   0   3  11   93.09    4.18 
   0   3 -11   95.58    4.44 
   0   3  11   90.19    4.32 
   0   3 -11   85.99    5.12 
   0   3 -11   97.57    4.34 
   0  -3 -11   95.79    4.45 
   0  -3 -11   92.27    4.15 
   0  -3 -11   99.66    4.11 
   0   4   0  162.35    6.83 
   0   4   0  166.65    6.93 
   0   4   0  177.36    6.94 
   0   4   0  174.76    6.89 
   0   4   0  167.20    6.90 
   0   4   0  168.48    6.91 
   0   4   0  164.98    6.90 
   0  -4   0  174.50    6.90 
   0  -4   0  168.65    6.87 
   0  -4   0  168.20    6.92 
   0  -4   0  165.71    6.91 
   0  -4   0  163.50    6.90 
   0  -4   0  166.60    6.88 
   0   4   1  294.02   11.45 
   0   4   1  278.96   11.44 
   0   4   1  296.00   11.43 
   0   4  -1  297.91   11.45 
   0   4   1  288.82   11.47 
   0   4  -1  280.23   11.35 
   0   4   1  283.52   11.39 
   0   4  -1  277.19   11.45 
   0   4   1  273.67   11.43 
   0   4  -1  286.24   11.42 
   0   4  -1  285.99   11.45 
   0   4   1  273.83   11.47 
   0   4  -1  275.84   11.42 
   0   4  -1  289.19   11.46 
   0  -4   1  279.45   11.41 
   0  -4   1  235.62   11.42 
   0  -4   1  290.46   11.45 
   0  -4   1  279.26   11.44 
   0  -4  -1  284.96   11.41 
   0  -4  -1  275.57   11.43 
   0  -4  -1  284.89   11.44 
   0  -4   1  268.03   11.44 
   0  -4  -1  289.88   11.41 
   0  -4  -1  283.41   11.44 
   0  -4  -1  295.07   11.48 
   0   4  -2  281.58   11.14 
   0   4   2  269.21   11.15 
   0   4  -2  288.46   11.15 
   0   4  -2  264.35   11.10 
   0   4  -2  276.37   11.16 
   0   4   2  285.34   11.18 
   0   4   2  271.96   11.11 
   0   4   2  270.16   11.14 
   0   4   2  280.94   11.12 
   0   4  -2  278.84   11.10 
   0   4   2  280.67   11.15 
   0   4   2  268.96   11.18 
   0   4  -2  263.99   11.04 
   0   4  -2  266.31   11.13 
   0  -4   2  272.02   11.14 
   0  -4  -2  276.80   11.13 
   0  -4  -2  271.58   11.13 
   0  -4  -2  278.62   11.08 
   0  -4  -2  262.58   11.12 
   0  -4  -2  264.16   11.15 
   0  -4  -2  279.50   11.17 
   0  -4   2  274.74   11.09 
   0  -4   2  271.20   11.05 
   0  -4  -2  288.86   11.13 
   0  -4   2  259.90   11.12 
   0  -4   2  280.52   11.12 
   0   4  -3   18.38    1.00 
   0   4   3   18.24    1.00 
   0   4  -3   19.03    1.13 
   0   4   3   17.78    1.05 
   0   4   3   16.94    1.20 
   0   4  -3   18.60    1.05 
   0   4  -3   18.90    1.09 
   0   4   3   18.40    1.08 
   0   4  -3   18.40    0.92 
   0   4  -3   18.85    0.99 
   0   4  -3   17.71    0.93 
   0   4   3   18.65    1.03 
   0   4  -3   17.56    0.96 
   0   4   3   16.95    1.06 
   0  -4   3   19.05    0.91 
   0  -4  -3   18.72    1.03 
   0  -4   3   18.49    1.05 
   0  -4   3   18.47    0.86 
   0  -4   3   17.38    0.95 
   0  -4  -3   18.08    1.00 
   0  -4   3   18.80    0.98 
   0  -4  -3   20.15    1.06 
   0  -4  -3   17.88    1.02 
   0  -4  -3   18.46    0.91 
   0  -4  -3   16.84    0.97 
   0  -4  -3   19.14    1.08 
   0   4  -4   38.16    1.96 
   0   4   4   39.24    1.90 
   0   4  -4   37.27    1.96 
   0   4  -4   40.12    1.74 
   0   4   4   40.97    1.87 
   0   4  -4   38.94    1.88 
   0   4  -4   43.07    1.89 
   0   4  -4   39.44    1.79 
   0   4   4   41.15    1.92 
   0   4   4   39.51    1.82 
   0   4   4   38.13    1.89 
   0   4   4   39.31    2.08 
   0   4  -4   40.86    1.82 
   0   4  -4   38.81    1.75 
   0  -4   4   40.51    1.88 
   0  -4   4   41.26    1.72 
   0  -4  -4   38.20    1.83 
   0  -4   4   39.68    1.77 
   0  -4  -4   37.76    1.81 
   0  -4  -4   39.30    1.74 
   0  -4   4   37.91    1.75 
   0  -4  -4   41.04    1.86 
   0  -4  -4   41.43    1.92 
   0  -4  -4   40.93    1.89 
   0  -4  -4   39.15    1.83 
   0   4   5   84.33    3.52 
   0   4  -5   83.16    3.57 
   0   4  -5   80.61    3.67 
   0   4   5   80.35    3.61 
   0   4  -5   81.59    3.58 
   0   4   5   83.90    3.70 
   0   4   5   83.69    3.56 
   0   4   5   79.75    3.59 
   0   4  -5   79.66    3.59 
   0   4  -5   79.75    3.43 
   0   4  -5   78.98    3.44 
   0   4  -5   81.89    3.46 
   0   4   5   81.97    3.50 
   0   4  -5   86.04    3.51 
   0  -4  -5   84.04    3.44 
   0  -4  -5   83.36    3.52 
   0  -4  -5   81.41    3.52 
   0  -4  -5   84.16    3.58 
   0  -4   5   82.90    3.45 
   0  -4  -5   81.51    3.52 
   0  -4   5   86.23    3.38 
   0  -4   5   82.24    3.44 
   0  -4  -5   82.21    3.55 
   0  -4   5   80.83    3.59 
   0  -4   5   85.28    3.47 
   0  -4  -5   85.08    3.63 
   0   4   6  124.51    5.27 
   0   4  -6  126.83    5.27 
   0   4   6  126.31    5.33 
   0   4  -6  129.26    5.50 
   0   4  -6  131.91    5.36 
   0   4  -6  127.25    5.21 
   0   4   6  123.07    5.38 
   0   4   6  135.01    5.25 
   0   4  -6  130.43    5.29 
   0   4  -6  123.04    5.21 
   0   4  -6  131.02    5.37 
   0   4   6  129.41    5.57 
   0   4  -6  127.08    5.40 
   0   4  -6  120.97    5.24 
   0  -4   6  127.98    5.23 
   0  -4   6  128.12    5.20 
   0  -4  -6  125.77    5.31 
   0  -4  -6  126.96    5.35 
   0  -4  -6  122.74    5.30 
   0  -4   6  124.95    5.41 
   0  -4  -6  126.78    5.22 
   0  -4  -6  126.03    5.31 
   0  -4  -6  125.42    5.43 
   0  -4  -6  129.52    5.34 
   0   4  -7  117.51    5.18 
   0   4   7  123.53    5.56 
   0   4   7  115.35    5.15 
   0   4  -7  114.98    5.08 
   0   4  -7  122.94    5.15 
   0   4  -7  117.14    4.95 
   0   4  -7  120.66    5.07 
   0   4   7  126.04    5.11 
   0   4  -7  126.07    4.95 
   0   4   7  124.91    4.98 
   0   4  -7  124.60    5.17 
   0  -4  -7  119.70    5.06 
   0  -4  -7  120.95    5.10 
   0  -4   7  119.96    4.99 
   0  -4  -7  121.98    5.07 
   0  -4   7  120.22    5.25 
   0  -4  -7  118.31    5.08 
   0  -4   7  117.91    4.91 
   0  -4  -7  117.67    4.99 
   0  -4  -7  125.67    5.22 
   0   4  -8  155.98    6.55 
   0   4  -8  151.59    6.54 
   0   4   8  146.63    7.22 
   0   4  -8  156.99    6.49 
   0   4   8  149.79    6.54 
   0   4   8  160.04    6.49 
   0   4   8  162.38    6.34 
   0   4  -8  155.90    6.31 
   0   4  -8  153.11    6.58 
   0  -4  -8  158.16    6.52 
   0  -4  -8  158.68    6.47 
   0  -4  -8  156.89    6.45 
   0  -4  -8  152.79    6.45 
   0  -4  -8  148.37    6.39 
   0   4  -9   33.14    2.10 
   0   4   9   33.14    2.89 
   0   4  -9   32.51    1.41 
   0   4   9   33.79    1.80 
   0   4  -9   32.73    1.90 
   0   4   9   31.59    1.90 
   0   4  -9   32.90    1.99 
   0  -4  -9   27.32    1.99 
   0  -4  -9   32.61    1.77 
   0  -4  -9   31.38    1.67 
   0  -4  -9   21.91    2.20 
   0  -4  -9   32.16    1.97 
   0   4 -10    0.07    0.89 
   0   4  10   -0.46    0.79 
   0   4  10    0.47    0.71 
   0   4 -10   -0.78    0.90 
   0  -4 -10    0.38    0.70 
   0  -4 -10   -0.29    0.56 
   0   4  11    7.84    1.17 
   0   4 -11    9.19    1.34 
   0   4 -11    5.92    2.34 
   0   4 -11    8.14    1.14 
   0  -4 -11    8.90    0.91 
   0  -4 -11    9.59    1.00 
   0  -4 -11    8.98    1.32 
   0   5   0   -0.04    0.28 
   0   5   0   -0.13    0.34 
   0   5   0    1.81    0.35 
   0   5   0   -0.16    0.40 
   0   5   0    0.42    0.34 
   0   5   0    0.31    0.43 
   0  -5   0    1.26    0.39 
   0  -5   0    0.57    0.36 
   0  -5   0    0.20    0.42 
   0  -5   0    0.16    0.35 
   0  -5   0    0.21    0.34 
   0  -5   0    0.17    0.36 
   0   5  -1    8.48    0.55 
   0   5   1    8.63    0.83 
   0   5   1    9.52    0.65 
   0   5   1    9.19    0.77 
   0   5  -1    9.04    0.69 
   0   5  -1    8.93    0.77 
   0   5   1    9.10    0.89 
   0   5   1   11.26    0.86 
   0   5  -1    7.65    0.70 
   0   5  -1    8.91    0.89 
   0   5  -1    8.77    0.82 
   0   5  -1    8.52    0.77 
   0   5   1    8.97    0.72 
   0   5   1    8.36    0.72 
   0  -5  -1    8.14    0.75 
   0  -5  -1    8.54    0.77 
   0  -5   1    8.60    0.66 
   0  -5   1    8.53    0.77 
   0  -5   1    7.98    0.77 
   0  -5   1    7.90    0.70 
   0  -5  -1    9.45    0.76 
   0  -5  -1    8.78    0.83 
   0  -5   1    7.61    0.77 
   0  -5   1    8.66    0.76 
   0  -5  -1    5.63    0.85 
   0  -5  -1    8.14    0.71 
   0   5   2  293.30   11.68 
   0   5   2  294.91   11.73 
   0   5  -2  295.25   11.70 
   0   5  -2  282.97   11.64 
   0   5  -2  296.01   11.69 
   0   5   2  280.65   11.73 
   0   5  -2  285.51   11.69 
   0   5   2  281.36   11.69 
   0   5   2  283.92   11.66 
   0   5   2  274.85   11.68 
   0   5  -2  280.87   11.70 
   0   5  -2  268.46   11.56 
   0   5  -2  288.85   11.65 
   0   5   2  285.93   11.64 
   0  -5   2  290.76   11.66 
   0  -5  -2  300.28   11.73 
   0  -5  -2  274.95   11.67 
   0  -5   2  282.02   11.56 
   0  -5  -2  299.49   11.70 
   0  -5  -2  289.21   11.71 
   0  -5  -2  285.47   11.62 
   0  -5   2  279.14   11.68 
   0  -5  -2  287.48   11.67 
   0  -5   2  277.35   11.66 
   0  -5  -2  304.31   11.67 
   0  -5   2  291.93   11.68 
   0   5  -3    0.45    0.43 
   0   5  -3   -0.38    0.49 
   0   5   3    0.00    0.44 
   0   5  -3    0.48    0.50 
   0   5  -3    1.18    0.32 
   0   5  -3    0.25    0.37 
   0   5   3    0.52    0.55 
   0   5  -3    0.41    0.29 
   0   5   3    0.28    0.36 
   0   5   3   -0.45    0.51 
   0   5   3    0.36    0.42 
   0   5  -3    0.71    0.42 
   0   5   3    0.33    0.38 
   0  -5   3    0.48    0.31 
   0  -5  -3    0.77    0.48 
   0  -5  -3    0.25    0.31 
   0  -5   3    0.10    0.42 
   0  -5  -3    0.15    0.44 
   0  -5   3    0.93    0.30 
   0  -5   3    0.48    0.33 
   0  -5  -3   -0.15    0.37 
   0  -5  -3    0.77    0.37 
   0  -5  -3    0.29    0.36 
   0  -5   3    0.29    0.22 
   0  -5   3    0.45    0.39 
   0  -5  -3    0.39    0.39 
   0   5   4  338.01   13.74 
   0   5   4  330.53   13.78 
   0   5  -4  340.38   13.74 
   0   5  -4  333.40   13.69 
   0   5  -4  347.57   13.76 
   0   5  -4  348.26   13.79 
   0   5   4  346.78   13.81 
   0   5   4  337.98   13.83 
   0   5   4  331.55   13.87 
   0   5  -4  334.34   13.81 
   0   5  -4  321.67   13.67 
   0   5  -4  327.73   13.70 
   0   5  -4  347.99   13.84 
   0  -5   4  336.49   13.71 
   0  -5  -4  330.43   13.75 
   0  -5  -4  329.02   13.76 
   0  -5  -4  338.06   13.75 
   0  -5   4  349.52   13.74 
   0  -5   4  339.42   13.79 
   0  -5  -4  348.78   13.80 
   0  -5  -4  337.35   13.66 
   0  -5   4  321.40   13.70 
   0  -5  -4  356.41   13.79 
   0  -5   4  349.54   13.68 
   0   5  -5   20.63    1.35 
   0   5   5   19.93    1.29 
   0   5  -5   19.88    1.60 
   0   5  -5   21.88    1.34 
   0   5   5   22.40    1.34 
   0   5   5   22.78    1.42 
   0   5  -5   21.44    1.36 
   0   5   5   21.75    1.39 
   0   5  -5   20.59    1.23 
   0   5  -5   21.79    1.23 
   0   5  -5   26.18    1.52 
   0   5   5   23.86    1.63 
   0   5  -5   22.14    1.14 
   0  -5  -5   20.84    1.25 
   0  -5  -5   22.49    1.29 
   0  -5   5   22.21    1.21 
   0  -5  -5   21.38    1.41 
   0  -5  -5   21.84    1.10 
   0  -5  -5   20.74    1.26 
   0  -5   5   21.27    1.24 
   0  -5   5   21.78    1.10 
   0  -5   5   21.01    1.38 
   0  -5   5   21.56    1.14 
   0  -5  -5   23.55    1.33 
   0  -5  -5   23.21    1.51 
   0   5  -6   46.80    2.53 
   0   5  -6   50.72    2.23 
   0   5   6   56.14    2.58 
   0   5  -6   50.49    2.54 
   0   5  -6   52.27    2.24 
   0   5  -6   46.71    2.58 
   0   5  -6   49.43    2.48 
   0   5   6   47.75    2.77 
   0   5   6   52.44    2.29 
   0   5   6   52.65    2.44 
   0   5   6   50.72    2.50 
   0  -5  -6   53.37    2.63 
   0  -5   6   51.35    2.52 
   0  -5  -6   50.02    2.50 
   0  -5  -6   51.77    2.41 
   0  -5  -6   51.46    2.20 
   0  -5   6   50.66    2.23 
   0  -5   6   52.02    2.30 
   0  -5  -6   49.95    2.38 
   0  -5  -6   49.75    2.36 
   0  -5  -6   50.05    2.39 
   0   5  -7   10.95    1.02 
   0   5   7   11.60    1.14 
   0   5   7   12.41    1.27 
   0   5  -7   15.53    1.53 
   0   5   7   13.05    1.55 
   0   5   7   11.59    0.87 
   0   5  -7   13.37    1.29 
   0   5  -7   12.34    1.05 
   0   5  -7   12.35    0.81 
   0  -5   7   10.74    1.08 
   0  -5  -7   12.56    1.16 
   0  -5  -7   12.94    0.88 
   0  -5   7   12.96    0.96 
   0  -5  -7   11.73    1.05 
   0  -5  -7   12.48    1.04 
   0  -5   7   12.55    0.80 
   0  -5  -7   11.32    1.23 
   0   5   8   58.30    2.39 
   0   5   8   52.21    2.78 
   0   5  -8   57.46    2.89 
   0   5  -8   51.42    2.66 
   0   5  -8   56.97    2.80 
   0   5   8   57.82    2.69 
   0   5  -8   56.14    2.45 
   0   5  -8   56.03    2.41 
   0  -5  -8   55.24    2.68 
   0  -5  -8   53.67    2.79 
   0  -5   8   53.11    2.32 
   0  -5  -8   59.10    2.62 
   0  -5   8   55.92    3.79 
   0  -5   8   52.58    2.52 
   0  -5  -8   55.88    2.42 
   0  -5  -8   53.15    2.58 
   0   5  -9    1.04    0.86 
   0   5  -9    0.37    0.99 
   0   5  -9    0.79    0.39 
   0   5   9    1.77    0.88 
   0  -5  -9    1.56    1.24 
   0  -5  -9    1.21    0.65 
   0   5 -10  125.70    5.57 
   0   5 -10  128.13    5.67 
   0   5  10  115.64    5.51 
   0  -5 -10  123.52    5.35 
   0  -5 -10  126.74    5.33 
   0   6   0  418.54   16.79 
   0   6   0  425.67   16.85 
   0   6   0  400.73   16.67 
   0   6   0  401.35   16.80 
   0   6   0  428.63   16.78 
   0   6   0  408.50   16.81 
   0   6   0  415.15   16.85 
   0  -6   0  415.42   16.77 
   0  -6   0  409.68   16.80 
   0  -6   0  401.01   16.80 
   0  -6   0  405.21   16.81 
   0  -6   0  418.80   16.79 
   0  -6   0  432.27   16.83 
   0   6  -1   48.73    2.37 
   0   6   1   49.98    2.38 
   0   6   1   48.35    2.36 
   0   6   1   46.96    2.27 
   0   6   1   48.20    2.16 
   0   6   1   51.80    2.31 
   0   6  -1   50.25    2.31 
   0   6  -1   48.93    2.25 
   0   6   1   49.36    2.27 
   0   6  -1   49.43    2.08 
   0   6  -1   48.27    2.36 
   0   6  -1   52.55    2.38 
   0   6  -1   49.21    2.25 
   0   6   1   46.17    2.35 
   0  -6  -1   49.04    2.35 
   0  -6  -1   48.07    2.30 
   0  -6   1   49.41    2.32 
   0  -6  -1   52.94    2.34 
   0  -6   1   46.72    2.20 
   0  -6   1   50.11    2.31 
   0  -6   1   46.28    2.26 
   0  -6  -1   46.44    2.27 
   0  -6  -1   46.16    2.24 
   0  -6   1   46.90    2.27 
   0  -6   1   45.55    2.27 
   0  -6  -1   48.63    2.25 
   0   6   2  121.96    5.01 
   0   6   2  116.29    4.99 
   0   6  -2  117.27    4.73 
   0   6  -2  116.23    4.97 
   0   6   2  118.81    4.92 
   0   6  -2  115.30    4.88 
   0   6  -2  113.81    4.95 
   0   6  -2  115.08    4.95 
   0   6   2  113.54    4.94 
   0   6   2  117.18    4.85 
   0   6   2  114.94    4.91 
   0   6   2  114.12    5.00 
   0   6  -2  113.90    4.87 
   0   6  -2  116.40    4.95 
   0  -6  -2  114.04    4.95 
   0  -6  -2  119.22    4.91 
   0  -6   2  111.70    4.89 
   0  -6   2  121.58    4.94 
   0  -6   2  117.08    4.75 
   0  -6  -2  111.07    4.90 
   0  -6  -2  117.20    4.98 
   0  -6  -2  117.64    4.89 
   0  -6   2  112.20    4.92 
   0  -6  -2  111.15    4.93 
   0  -6   2  116.43    4.91 
   0   6   3    4.08    0.77 
   0   6   3    3.85    0.55 
   0   6  -3    3.45    0.67 
   0   6  -3    3.08    0.55 
   0   6  -3    3.62    0.52 
   0   6  -3    4.24    0.48 
   0   6   3    3.47    0.66 
   0   6   3    4.25    0.73 
   0   6  -3    3.12    0.74 
   0   6  -3    3.24    0.75 
   0   6   3    3.17    0.60 
   0   6   3    4.02    0.80 
   0   6  -3    3.44    0.61 
   0  -6  -3    4.99    0.66 
   0  -6  -3    4.22    0.59 
   0  -6  -3    2.96    0.60 
   0  -6   3    4.03    0.62 
   0  -6  -3    3.36    0.67 
   0  -6  -3    5.10    0.62 
   0  -6   3    4.72    0.60 
   0  -6  -3    4.98    0.72 
   0  -6   3    3.60    0.33 
   0  -6   3    4.42    0.69 
   0  -6   3    3.72    0.54 
   0  -6   3    3.83    0.48 
   0   6  -4    2.43    0.44 
   0   6   4    3.20    0.69 
   0   6  -4    2.68    0.61 
   0   6   4    2.80    0.69 
   0   6  -4    3.17    0.68 
   0   6  -4    3.14    0.51 
   0   6   4    3.97    1.03 
   0   6   4    3.39    0.80 
   0   6  -4    3.25    0.80 
   0   6   4    2.96    0.57 
   0   6  -4    3.12    0.44 
   0   6   4    3.08    0.65 
   0   6  -4    3.03    0.56 
   0  -6   4    2.18    0.65 
   0  -6   4    3.23    0.48 
   0  -6  -4    3.01    0.55 
   0  -6  -4    4.43    0.71 
   0  -6  -4    3.23    0.63 
   0  -6   4    2.93    0.58 
   0  -6  -4    4.08    0.70 
   0  -6  -4    3.96    0.58 
   0  -6   4    3.21    0.51 
   0  -6  -4    3.47    0.47 
   0  -6   4    3.33    0.68 
   0  -6  -4    2.88    0.73 
   0   6  -5   26.12    1.55 
   0   6   5   29.70    1.90 
   0   6  -5   27.69    1.32 
   0   6   5   24.95    1.70 
   0   6  -5   25.14    1.42 
   0   6   5   28.01    2.05 
   0   6   5   26.44    1.73 
   0   6  -5   27.51    1.75 
   0   6  -5   27.74    1.39 
   0   6   5   23.51    1.62 
   0  -6  -5   25.60    1.78 
   0  -6   5   27.73    1.53 
   0  -6  -5   25.71    1.56 
   0  -6   5   27.07    1.42 
   0  -6  -5   26.55    1.69 
   0  -6  -5   29.20    1.36 
   0  -6   5   27.44    1.68 
   0  -6  -5   28.44    1.88 
   0  -6  -5   27.15    1.66 
   0  -6  -5   27.95    1.55 
   0  -6   5   27.48    1.38 
   0   6  -6  203.23    8.44 
   0   6   6  208.05    8.45 
   0   6  -6  203.78    8.37 
   0   6  -6  207.71    8.43 
   0   6  -6  188.35    8.57 
   0   6   6  211.77    8.62 
   0   6   6  196.96    8.69 
   0   6  -6  208.18    8.44 
   0   6  -6  209.86    8.64 
   0  -6   6  204.81    8.43 
   0  -6  -6  200.03    8.58 
   0  -6   6  215.67    8.35 
   0  -6  -6  207.93    8.60 
   0  -6  -6  212.73    8.53 
   0  -6  -6  200.40    8.53 
   0  -6  -6  205.07    8.36 
   0  -6   6  213.76    8.48 
   0   6  -7   22.00    1.77 
   0   6  -7   22.46    1.42 
   0   6  -7   28.05    1.68 
   0   6  -7   23.35    1.67 
   0   6  -7   21.81    1.28 
   0   6   7   23.78    1.26 
   0   6   7   23.73    1.74 
   0   6   7   23.98    1.78 
   0  -6   7   22.42    1.88 
   0  -6   7   22.04    1.28 
   0  -6  -7   24.92    1.88 
   0  -6  -7   24.32    1.79 
   0  -6   7   23.53    1.42 
   0  -6  -7   21.47    1.32 
   0  -6  -7   23.05    1.51 
   0   6  -8   76.68    3.76 
   0   6  -8   79.14    3.37 
   0   6   8   75.76    3.78 
   0   6  -8   74.84    3.77 
   0  -6   8   77.51    3.46 
   0  -6  -8   75.10    3.54 
   0  -6   8   82.51    3.95 
   0  -6  -8   83.72    3.58 
   0  -6   8   78.44    3.32 
   0   6  -9    6.39    1.15 
   0   6  -9    7.95    0.70 
   0   6   9    8.05    1.26 
   0  -6   9    8.36    1.61 
   0  -6  -9    6.98    0.98 
   0  -6  -9    8.71    1.00 
   0   7   0    0.27    0.57 
   0   7   0    3.14    0.76 
   0   7   0    0.20    0.70 
   0   7   0   -0.06    0.35 
   0   7   0    0.66    0.58 
   0   7   0    1.13    0.53 
   0  -7   0   -0.48    0.54 
   0  -7   0    0.00    0.44 
   0  -7   0    0.72    0.68 
   0  -7   0    0.48    0.66 
   0  -7   0    2.37    0.52 
   0   7  -1  101.91    4.59 
   0   7   1  104.54    4.36 
   0   7   1  108.49    4.52 
   0   7  -1  105.77    4.49 
   0   7  -1  105.20    4.29 
   0   7   1  100.68    4.60 
   0   7  -1  101.95    4.58 
   0   7   1  106.73    4.64 
   0   7   1  101.49    4.50 
   0   7   1  102.54    4.53 
   0   7  -1  104.09    4.48 
   0   7  -1  108.98    4.54 
   0  -7  -1  100.81    4.47 
   0  -7   1   99.82    4.50 
   0  -7  -1  107.92    4.53 
   0  -7  -1  102.96    4.57 
   0  -7   1  108.34    4.56 
   0  -7   1  101.82    4.55 
   0  -7  -1   99.27    4.52 
   0  -7  -1  103.19    4.57 
   0  -7   1  100.13    4.49 
   0  -7   1  106.62    4.45 
   0  -7   1  104.16    4.42 
   0  -7  -1  104.07    4.50 
   0   7  -2   43.28    2.39 
   0   7   2   45.27    2.39 
   0   7   2   46.35    2.34 
   0   7  -2   43.67    1.95 
   0   7  -2   46.87    2.27 
   0   7  -2   43.77    2.27 
   0   7  -2   44.75    2.17 
   0   7   2   44.05    2.08 
   0   7   2   41.41    2.32 
   0   7  -2   43.01    2.14 
   0   7   2   42.92    2.29 
   0  -7   2   39.90    2.25 
   0  -7   2   44.88    2.17 
   0  -7  -2   47.60    2.26 
   0  -7   2   44.83    1.92 
   0  -7   2   46.71    2.26 
   0  -7  -2   44.25    2.21 
   0  -7  -2   41.00    2.31 
   0  -7   2   40.26    2.25 
   0  -7  -2   43.51    2.19 
   0  -7  -2   45.50    2.34 
   0  -7  -2   41.58    2.24 
   0   7   3  121.57    5.43 
   0   7  -3  121.93    5.34 
   0   7  -3  128.13    5.11 
   0   7   3  128.19    5.54 
   0   7  -3  125.69    5.43 
   0   7  -3  127.83    5.46 
   0   7   3  124.77    5.33 
   0   7   3  127.74    5.55 
   0   7  -3  130.08    5.35 
   0   7   3  133.68    5.53 
   0  -7   3  129.55    5.11 
   0  -7  -3  121.87    5.43 
   0  -7  -3  129.07    5.40 
   0  -7  -3  124.16    5.45 
   0  -7  -3  122.08    5.41 
   0  -7  -3  132.05    5.42 
   0  -7   3  116.73    5.43 
   0  -7   3  126.47    5.31 
   0  -7  -3  130.57    5.50 
   0  -7   3  119.28    5.48 
   0   7  -4   91.02    3.88 
   0   7   4   84.72    4.38 
   0   7  -4   91.11    3.89 
   0   7   4   84.95    4.32 
   0   7   4   84.87    4.25 
   0   7  -4   91.90    4.07 
   0   7   4   96.18    4.13 
   0   7  -4   87.69    4.01 
   0  -7  -4   90.09    4.12 
   0  -7  -4   88.13    4.06 
   0  -7  -4   89.52    4.09 
   0  -7   4   92.18    3.91 
   0  -7  -4   89.95    3.97 
   0  -7   4   89.97    3.85 
   0  -7   4   93.30    3.96 
   0  -7  -4   87.67    4.03 
   0  -7   4   86.36    4.01 
   0  -7  -4   82.94    4.10 
   0   7  -5   93.67    4.20 
   0   7  -5   94.69    4.35 
   0   7  -5   96.39    4.42 
   0   7   5  100.57    4.49 
   0   7   5   93.14    4.60 
   0   7  -5   96.56    4.20 
   0  -7   5   96.63    4.40 
   0  -7  -5  101.10    4.32 
   0  -7   5  101.69    4.30 
   0  -7  -5   98.29    4.31 
   0  -7   5  100.01    4.17 
   0  -7  -5   94.67    4.44 
   0  -7   5   95.34    4.22 
   0  -7  -5  102.76    4.40 
   0   7   6   14.53    1.38 
   0   7  -6   15.76    1.66 
   0   7   6   15.19    1.38 
   0   7  -6   13.76    1.24 
   0   7  -6   16.32    1.16 
   0  -7   6   13.77    1.24 
   0  -7  -6   14.89    1.35 
   0  -7   6   15.24    1.34 
   0  -7   6   14.45    1.18 
   0  -7   6   16.45    1.37 
   0  -7  -6   13.96    1.43 
   0  -7  -6   13.64    1.42 
   0   7  -7    3.88    1.03 
   0   7  -7    3.83    0.64 
   0   7   7    3.61    1.11 
   0  -7   7    4.76    0.83 
   0  -7  -7    2.82    0.86 
   0  -7  -7    3.63    0.90 
   0  -7   7    5.52    1.18 
   0  -7   7    3.71    0.65 
   0   7   8    7.09    1.37 
   0   7  -8    8.39    1.33 
   0   7  -8    6.39    0.78 
   0  -7   8    7.86    0.97 
   0  -7  -8    7.70    1.04 
   0  -7   8    7.48    0.96 
   0  -7  -8   10.53    1.13 
   0  -7   8    6.18    1.48 
   0   8   0    9.24    1.14 
   0   8   0    8.93    1.05 
   0   8   0    8.13    0.92 
   0   8   0    8.81    1.28 
   0   8   0    7.54    0.63 
   0   8   0    7.12    0.98 
   0  -8   0    8.77    1.01 
   0  -8   0    9.08    1.27 
   0  -8   0    6.24    0.85 
   0  -8   0    6.53    0.88 
   0   8   1  145.08    6.60 
   0   8   1  145.62    6.54 
   0   8  -1  157.98    6.49 
   0   8  -1  153.44    6.57 
   0   8   1  156.23    6.55 
   0   8  -1  150.19    6.58 
   0   8  -1  150.23    6.22 
   0   8  -1  150.54    6.51 
   0   8   1  148.67    6.66 
   0   8   1  151.72    6.31 
   0  -8  -1  153.13    6.53 
   0  -8  -1  152.52    6.48 
   0  -8   1  155.23    6.45 
   0  -8   1  152.02    6.50 
   0  -8  -1  148.01    6.48 
   0  -8   1  148.82    6.49 
   0  -8  -1  157.10    6.64 
   0  -8   1  157.54    6.58 
   0  -8  -1  159.19    6.63 
   0  -8   1  153.68    6.30 
   0   8   2   -0.67    0.94 
   0   8   2    0.13    0.89 
   0   8  -2    0.49    0.74 
   0   8  -2    1.29    0.71 
   0   8  -2    0.84    0.95 
   0   8   2    0.91    0.87 
   0   8   2    0.42    0.89 
   0   8  -2    1.18    0.77 
   0  -8   2    0.13    0.71 
   0  -8  -2    0.42    0.99 
   0  -8  -2    2.09    1.01 
   0  -8  -2    1.84    1.05 
   0  -8  -2    0.18    0.72 
   0  -8   2    0.99    0.67 
   0  -8   2    1.07    0.81 
   0  -8  -2    1.01    0.85 
   0  -8   2    0.75    0.34 
   0  -8   2    0.15    0.86 
   0  -8  -2    0.08    0.73 
   0   8  -3    4.90    1.01 
   0   8  -3    6.06    0.79 
   0   8   3    7.14    1.15 
   0   8   3    7.06    1.30 
   0   8   3    6.19    1.26 
   0   8  -3    4.94    0.89 
   0  -8  -3    7.25    1.01 
   0  -8  -3    6.80    1.19 
   0  -8   3    7.78    1.22 
   0  -8  -3    5.74    0.94 
   0  -8  -3    7.76    1.40 
   0  -8  -3    5.99    1.15 
   0  -8  -3    7.51    0.97 
   0  -8   3    7.50    0.86 
   0  -8   3    6.93    1.00 
   0   8   4   -1.86    1.47 
   0   8  -4    0.11    0.63 
   0   8  -4   -0.36    0.83 
   0  -8   4    0.05    0.86 
   0  -8   4   -0.59    0.69 
   0  -8  -4   -0.15    0.80 
   0  -8  -4    0.61    0.75 
   0  -8  -4    2.40    2.07 
   0  -8  -4   -0.46    0.84 
   0   8   5   83.65    4.14 
   0   8   5   76.56    4.29 
   0   8  -5   81.41    3.94 
   0   8  -5   82.02    3.66 
   0  -8   5   81.09    3.92 
   0  -8  -5   77.27    4.13 
   0  -8  -5   77.95    3.80 
   0  -8  -5   85.98    3.81 
   0  -8   5   81.47    3.67 
   0   8  -6    6.89    0.85 
   0   8   6    6.01    1.36 
   0   8  -6    7.05    1.16 
   0  -8  -6    7.10    1.09 
   0  -8   6    5.23    0.85 
   0  -8   6    6.52    1.27 
   0  -8  -6    4.69    0.90 
   0   8  -7  127.19    5.63 
   0   8  -7  132.96    5.99 
   0   8   7  132.91    6.14 
   0  -8  -7  135.37    5.84 
   0  -8  -7  137.67    5.84 
   0  -8   7  131.84    6.06 
   0  -8   7  125.21    5.61 
   0   9   0   -0.76    1.06 
   0  -9   0   -0.07    0.84 
   0  -9   0    0.98    0.96 
   0   9   1   10.03    1.32 
   0   9  -1   13.01    1.35 
   0   9   1   13.47    1.48 
   0  -9   1   11.25    1.19 
   0  -9  -1   12.32    1.21 
   0  -9   1   15.26    1.42 
   0  -9  -1   14.14    1.32 
   0   9   2   51.35    3.00 
   0   9  -2   46.51    2.86 
   0   9   2   52.21    3.12 
   0  -9  -2   51.33    2.73 
   0  -9  -2   51.33    2.78 
   0  -9   2   48.27    2.72 
   0  -9   2   45.77    2.76 
   0   9  -3  113.43    5.16 
   0   9   3   98.54    6.04 
   0   9   3  121.32    5.49 
   0   9  -3  110.76    5.01 
   0  -9   3  109.70    5.13 
   0  -9  -3  114.85    5.04 
   0  -9  -3  111.02    5.06 
   0  -9   3  112.62    5.02 
   0  -9  -3  114.82    5.14 
   0   9   4   52.71    3.49 
   0   9  -4   57.25    2.91 
   0   9  -4   58.48    3.17 
   0  -9   4   51.59    3.13 
   0  -9   4   52.60    2.88 
   0  -9  -4   54.90    3.01 
   0  -9  -4   55.82    3.00 
   0   9   5   28.50    2.84 
   0   9  -5   29.63    2.54 
   0  -9   5   29.21    2.09 
   0  -9   5   27.27    2.61 
   0  -9  -5   33.38    2.28 
   0  -9  -5   31.96    2.39 
   1   0 -12   82.40    3.63 
   1   0 -12   74.68    3.89 
   1   0 -12   82.08    3.99 
   1   0 -11    0.56    0.86 
   1   0 -11   -0.77    0.60 
   1   0 -11   -0.09    0.96 
   1   0 -10    9.89    1.50 
   1   0 -10    9.29    1.11 
   1   0 -10    7.46    0.91 
   1   0 -10    9.44    0.57 
   1   0 -10    9.28    1.10 
   1   0 -10   10.14    0.65 
   1   0 -10    9.41    0.97 
   1   0  -9    0.42    0.21 
   1   0  -9   -0.48    0.55 
   1   0  -9    0.62    0.76 
   1   0  -9    1.57    0.86 
   1   0  -9    0.42    0.80 
   1   0  -9    0.21    0.22 
   1   0  -8  234.00    9.30 
   1   0  -8  221.57    9.27 
   1   0  -8  225.46    9.03 
   1   0  -8  219.78    9.26 
   1   0  -8  226.60    9.04 
   1   0  -8  218.51    9.37 
   1   0  -7    0.59    0.57 
   1   0  -7    0.06    0.49 
   1   0  -7    0.07    0.14 
   1   0  -7    0.25    0.14 
   1   0  -7    0.59    0.49 
   1   0  -7    0.44    0.65 
   1   0  -6  378.31   15.95 
   1   0  -6  419.02   16.15 
   1   0  -6  376.65   15.95 
   1   0  -6  413.08   16.11 
   1   0  -6  419.00   16.11 
   1   0  -6  378.55   16.24 
   1   0  -5    0.27    0.10 
   1   0  -5    0.46    0.42 
   1   0  -5    0.50    0.54 
   1   0  -5    0.17    0.29 
   1   0  -5    0.24    0.10 
   1   0  -5    0.13    0.27 
   1   0  -4  166.40    6.97 
   1   0  -4  174.75    6.97 
   1   0  -4  172.54    6.97 
  -1   0   4  170.76    7.09 
  -1   0   4  173.66    6.97 
   1   0  -4  179.39    7.08 
   1   0  -4  174.28    7.06 
  -1   0   4  176.34    6.98 
  -1   0   3   -0.48    0.17 
   1   0  -3   -0.48    0.17 
   1   0  -3   -0.50    0.36 
  -1   0   3   -0.40    0.09 
   1   0  -3   -0.46    0.06 
   1   0  -3   -0.32    0.14 
   1   0  -3   -0.36    0.09 
   1   0  -2  219.32    8.83 
   1   0  -2  223.71    8.83 
   1   0  -2  225.64    8.87 
  -1   0   2  222.06    8.87 
  -1   0   2  228.68    8.84 
   1   0  -2  219.65    8.83 
  -1   0   2  221.11    8.84 
   1   0  -2  194.91    8.95 
   1   0  -1   -0.01    0.15 
   1   0  -1    0.20    0.05 
   1   0  -1    0.27    0.08 
   1   0  -1    0.27    0.08 
  -1   0   1    0.13    0.06 
  -1   0   1    0.22    0.05 
  -1   0   1    0.22    0.10 
  -1   0   1    0.10    0.07 
   1   0  -1    0.24    0.05 
  -1   0  -1   -0.24    0.08 
   1   0   1    0.02    0.08 
  -1   0  -1   -0.13    0.11 
   1   0   1    0.07    0.14 
  -1   0  -1   -0.20    0.10 
  -1   0  -1    0.35    0.10 
   1   0   1   -0.22    0.10 
  -1   0  -1   -0.08    0.11 
   1   0   2  748.52   27.60 
  -1   0  -2  678.75   27.59 
  -1   0  -2  631.22   27.54 
  -1   0  -2  712.25   27.66 
  -1   0  -2  671.73   27.54 
   1   0   2  633.76   27.61 
   1   0   2  741.19   27.71 
  -1   0  -2  667.90   27.64 
  -1   0  -3   -0.38    0.24 
   1   0   3    0.15    0.12 
  -1   0  -3   -0.44    0.14 
  -1   0  -3   -0.35    0.10 
  -1   0  -3   -0.31    0.16 
   1   0   3   -0.32    0.06 
   1   0   3   -0.05    0.23 
  -1   0  -3   -0.03    0.18 
   1   0   3   -0.37    0.20 
  -1   0  -3   -0.13    0.13 
  -1   0  -3   -0.10    0.23 
  -1   0  -4   13.68    0.73 
  -1   0  -4   13.69    0.76 
  -1   0  -4   14.25    0.78 
   1   0   4   12.22    0.69 
   1   0   4   13.77    0.79 
  -1   0  -4   15.84    0.89 
   1   0   4   13.28    0.84 
  -1   0  -4   14.47    0.68 
  -1   0  -4   13.72    0.88 
  -1   0  -4   14.45    0.66 
  -1   0  -5   -0.06    0.23 
  -1   0  -5   -0.10    0.17 
  -1   0  -5    0.07    0.37 
   1   0   5    0.24    0.30 
   1   0   5   -0.10    0.41 
  -1   0  -5   -0.13    0.33 
  -1   0  -5   -0.17    0.28 
  -1   0  -5   -0.11    0.32 
   1   0   5   -0.06    0.15 
  -1   0  -5    0.29    0.39 
  -1   0  -5    0.35    0.17 
   1   0   6   97.91    4.06 
   1   0   6   82.82    4.06 
   1   0   6   95.77    3.90 
  -1   0  -6   99.40    4.11 
  -1   0  -6   97.50    3.93 
  -1   0  -6   98.15    3.99 
  -1   0  -6   94.46    4.06 
  -1   0  -6   87.94    3.99 
  -1   0  -6   96.43    4.08 
  -1   0  -6  101.12    3.91 
  -1   0  -6  102.20    4.16 
  -1   0  -7    0.91    0.67 
   1   0   7    0.12    0.39 
   1   0   7    0.37    0.16 
  -1   0  -7    0.96    0.26 
  -1   0  -7    0.35    0.39 
  -1   0  -7    0.20    0.32 
   1   0   7    0.13    0.37 
  -1   0  -7    0.76    0.21 
  -1   0  -7    0.00    0.53 
  -1   0  -7    0.59    0.46 
  -1   0  -7    0.29    0.43 
  -1   0  -8  367.29   15.26 
  -1   0  -8  373.96   15.36 
  -1   0  -8  372.76   15.30 
  -1   0  -8  380.77   15.52 
  -1   0  -8  391.70   15.46 
  -1   0  -8  377.56   15.42 
   1   0   8  385.45   15.38 
  -1   0  -9   -0.56    1.06 
  -1   0  -9    0.78    0.54 
  -1   0  -9    0.57    0.57 
  -1   0  -9    0.07    0.60 
  -1   0 -10   21.51    1.29 
  -1   0 -10   21.38    1.65 
  -1   0 -10   22.55    1.48 
  -1   0 -10   20.49    1.62 
  -1   0 -10   18.78    1.88 
  -1   0 -10   22.39    1.07 
  -1   0 -11    0.27    0.68 
  -1   0 -11    0.07    0.89 
  -1   0 -11   -0.06    0.34 
  -1   0 -11    0.57    0.78 
  -1   0 -12   13.71    0.84 
  -1   0 -12   15.05    1.52 
  -1   0 -12   12.24    1.00 
   1   1 -12   32.33    2.63 
   1   1 -12   29.87    1.96 
   1   1 -12   32.89    2.39 
   1  -1 -12   31.39    1.53 
   1  -1 -12   34.47    2.41 
   1  -1 -12   29.33    2.16 
   1  -1 -12   29.73    1.62 
   1   1 -11   24.57    2.26 
   1   1 -11   23.43    1.61 
   1   1 -11   22.19    1.85 
   1  -1 -11   21.83    1.86 
   1  -1 -11   20.50    1.75 
   1  -1 -11   23.04    1.42 
   1  -1 -11   23.19    1.23 
   1  -1 -11   23.40    1.18 
   1   1 -10  118.83    5.10 
   1   1 -10  123.13    5.48 
   1   1 -10  115.93    5.35 
   1   1 -10  108.06    5.09 
   1   1 -10  115.07    4.97 
   1  -1 -10  125.54    5.64 
   1  -1 -10  119.45    4.80 
   1  -1 -10  107.71    5.17 
   1  -1 -10  113.68    5.07 
   1  -1 -10  117.74    4.78 
   1   1  -9  143.80    6.32 
   1   1  -9  147.29    6.36 
   1   1  -9  146.30    6.45 
   1   1  -9  151.51    6.24 
   1   1  -9  154.94    6.32 
   1   1  -9  143.58    6.59 
   1  -1  -9  155.08    6.10 
   1  -1  -9  154.15    6.49 
   1  -1  -9  147.74    6.41 
   1  -1  -9  148.84    6.34 
   1   1  -8  130.44    5.42 
   1   1  -8  125.95    5.43 
   1   1  -8  124.83    5.43 
  -1   1   8  137.73    5.23 
   1   1  -8  109.90    5.70 
  -1   1   8  125.02    5.26 
   1   1  -8  129.04    5.51 
   1  -1  -8  131.07    5.23 
   1  -1  -8  132.00    5.24 
   1  -1  -8  130.08    5.21 
   1  -1  -8  133.56    5.53 
   1  -1  -8  123.26    5.47 
   1  -1  -8  128.93    5.23 
   1  -1  -8  127.00    5.48 
   1   1  -7    6.79    0.71 
   1   1  -7    7.22    0.67 
  -1   1   7    8.92    0.56 
  -1   1   7    7.60    0.58 
   1   1  -7    6.57    0.72 
   1   1  -7    7.65    0.80 
   1   1  -7    5.52    1.01 
   1  -1  -7    7.98    0.56 
   1  -1  -7    9.22    0.53 
   1  -1  -7    8.97    0.82 
   1  -1  -7    7.85    0.49 
   1  -1  -7    8.00    0.78 
   1  -1  -7    9.96    0.84 
   1  -1  -7    7.95    0.58 
   1   1  -6   10.91    0.82 
  -1   1   6   10.37    0.60 
  -1   1   6   10.38    0.62 
   1   1  -6   10.90    0.88 
   1   1  -6   10.26    0.88 
   1  -1  -6   10.75    0.60 
   1  -1  -6   11.25    0.61 
   1  -1  -6   10.16    0.94 
   1  -1  -6   10.66    0.89 
   1  -1  -6   10.13    0.57 
   1  -1  -6    9.98    0.55 
   1  -1  -6   12.14    0.90 
  -1   1   5    2.69    0.41 
  -1   1   5    3.16    0.34 
   1   1  -5    2.77    0.36 
   1   1  -5    2.29    0.41 
  -1   1   5    2.78    0.27 
   1   1  -5    2.60    0.40 
   1  -1  -5    2.75    0.37 
   1  -1  -5    2.27    0.22 
   1  -1  -5    2.66    0.24 
   1  -1  -5    2.55    0.25 
   1  -1  -5    2.68    0.26 
   1  -1  -5    3.61    0.50 
   1  -1  -5    3.59    0.45 
  -1   1   4  484.89   19.81 
   1   1  -4  502.06   19.77 
  -1   1   4  440.21   19.94 
   1   1  -4  514.14   19.80 
  -1   1   4  497.98   19.72 
   1   1  -4  492.55   19.80 
  -1   1   4  497.08   19.74 
  -1   1   4  492.95   19.73 
   1  -1  -4  510.17   19.76 
   1  -1  -4  470.33   19.84 
   1  -1  -4  505.50   19.80 
   1  -1  -4  504.39   19.73 
   1  -1  -4  481.34   19.72 
   1  -1  -4  483.14   19.71 
  -1   1   3  258.43   10.12 
   1   1  -3  252.31    9.98 
  -1   1   3  251.26    9.97 
  -1   1   3  251.21   10.02 
  -1   1   3  249.67    9.94 
   1   1  -3  230.68    9.92 
   1   1  -3  254.51   10.02 
   1   1  -3  254.67    9.93 
   1   1  -3  243.76    9.91 
  -1   1   3  233.85    9.96 
   1  -1  -3  232.69    9.95 
   1  -1  -3  244.93    9.95 
  -1  -1   3  235.61    9.92 
   1  -1  -3  256.36   10.02 
   1  -1  -3  244.95   10.05 
  -1  -1   3  245.74    9.91 
   1  -1  -3  262.76    9.97 
   1  -1  -3  248.56    9.96 
  -1  -1   3  250.96   10.04 
   1  -1  -3  245.34    9.96 
  -1   1   2  467.61   17.74 
  -1   1   2  447.29   17.73 
   1   1  -2  452.24   17.68 
   1   1  -2  432.97   17.63 
   1   1  -2  433.43   17.68 
   1   1  -2  422.50   17.66 
  -1   1   2  465.98   17.63 
   1   1  -2  459.88   17.70 
   1   1  -2  441.60   17.64 
  -1   1   2  437.70   17.71 
   1   1  -2  426.48   17.67 
  -1   1   2  430.81   17.63 
  -1  -1   2  443.28   17.70 
   1  -1  -2  422.99   17.62 
   1  -1  -2  470.55   17.79 
   1  -1  -2  428.51   17.67 
  -1  -1   2  446.56   17.63 
  -1  -1   2  415.82   17.67 
   1  -1  -2  429.46   17.69 
   1  -1  -2  421.18   17.64 
   1  -1  -2  413.33   17.63 
  -1  -1   2  434.50   17.68 
   1  -1  -2  462.80   17.76 
  -1   1   1   32.07    1.30 
  -1   1   1   31.41    1.35 
  -1   1   1   31.18    1.36 
   1   1  -1   30.70    1.36 
  -1   1   1   32.34    1.36 
  -1   1   1   32.11    1.37 
   1   1  -1   31.78    1.35 
   1   1  -1   33.94    1.31 
   1   1  -1   32.19    1.34 
   1   1  -1   32.14    1.34 
  -1   1   1   31.49    1.37 
  -1   1   1   31.24    1.30 
   1  -1  -1   30.02    1.35 
   1  -1  -1   30.26    1.36 
  -1  -1   1   32.62    1.34 
  -1  -1   1   32.40    1.33 
   1  -1  -1   34.18    1.36 
  -1  -1   1   32.46    1.36 
   1  -1  -1   32.98    1.35 
  -1  -1   1   34.21    1.37 
  -1  -1   1   31.79    1.34 
  -1  -1   1   33.02    1.34 
  -1  -1   1   32.90    1.31 
   1  -1  -1   32.87    1.37 
  -1   1   0   57.83    2.46 
  -1   1   0   62.93    2.46 
  -1   1   0   60.36    2.43 
  -1   1   0   57.44    2.44 
   1   1   0   60.13    2.44 
   1   1   0   57.39    2.45 
   1   1   0   58.12    2.43 
  -1   1   0   58.91    2.44 
   1   1   0   60.58    2.45 
   1   1   0   61.28    2.46 
  -1   1   0   60.93    2.45 
   1  -1   0   60.21    2.45 
  -1  -1   0   62.90    2.46 
   1  -1   0   57.10    2.46 
   1  -1   0   60.19    2.44 
  -1  -1   0   61.39    2.43 
   1  -1   0   57.72    2.43 
   1  -1   0   63.10    2.45 
  -1  -1   0   59.18    2.41 
   1  -1   0   59.37    2.45 
  -1  -1   0   57.49    2.44 
   1  -1   0   58.44    2.43 
  -1  -1   0   60.08    2.44 
  -1  -1   0   57.29    2.45 
   1   1   1    8.71    0.42 
  -1   1  -1    8.70    0.41 
   1   1   1    8.50    0.40 
  -1   1  -1   10.23    0.43 
   1   1   1    8.26    0.43 
  -1   1  -1    9.14    0.43 
   1   1   1    7.84    0.57 
  -1   1  -1    8.74    0.44 
   1   1   1    8.37    0.45 
  -1   1  -1    8.32    0.47 
  -1  -1  -1    9.16    0.45 
  -1  -1  -1    8.24    0.43 
  -1  -1  -1    9.15    0.53 
   1  -1   1    8.40    0.43 
   1  -1   1    8.88    0.44 
   1  -1   1    8.13    0.45 
  -1  -1  -1    8.26    0.39 
   1  -1   1    8.60    0.41 
  -1  -1  -1    8.82    0.42 
  -1   1  -2  115.91    4.92 
  -1   1  -2  124.00    4.88 
   1   1   2  122.12    4.88 
   1   1   2  120.63    4.98 
  -1   1  -2  125.27    4.87 
  -1   1  -2  124.57    4.91 
   1   1   2  122.86    4.91 
  -1   1  -2  120.74    4.91 
  -1   1  -2  115.97    4.89 
   1   1   2  122.83    4.88 
   1  -1   2  111.41    4.97 
  -1  -1  -2  124.11    4.92 
  -1  -1  -2  117.56    4.88 
   1  -1   2  119.83    4.89 
  -1  -1  -2  120.59    4.86 
  -1  -1  -2  120.71    4.90 
   1  -1   2  121.45    4.85 
  -1  -1  -2  120.28    4.89 
   1  -1   2  108.84    4.91 
   1  -1   2  124.88    4.90 
   1  -1   2  124.02    4.88 
  -1  -1  -2  118.65    5.05 
   1  -1   2  120.99    4.88 
   1   1   3   68.01    3.06 
  -1   1  -3   65.80    3.03 
   1   1   3   62.20    3.11 
  -1   1  -3   75.44    3.10 
   1   1   3   74.09    2.98 
  -1   1  -3   72.19    3.04 
  -1   1  -3   72.89    3.07 
   1   1   3   71.44    3.04 
  -1   1  -3   76.75    3.00 
   1   1   3   76.35    3.01 
  -1   1  -3   77.60    2.98 
   1  -1   3   72.91    2.99 
  -1  -1  -3   74.54    3.02 
   1  -1   3   75.44    2.94 
  -1  -1  -3   71.85    2.99 
   1  -1   3   72.53    3.04 
  -1  -1  -3   75.32    3.02 
   1  -1   3   73.16    2.94 
   1  -1   3   72.20    3.06 
   1  -1   3   74.70    3.02 
  -1  -1  -3   72.39    3.07 
  -1  -1  -3   76.38    3.17 
  -1  -1  -3   73.41    2.99 
  -1   1  -4  529.93   24.03 
   1   1   4  608.81   24.07 
  -1   1  -4  638.28   24.11 
   1   1   4  567.86   24.04 
  -1   1  -4  629.92   24.01 
  -1   1  -4  591.32   24.00 
  -1   1  -4  620.45   24.02 
   1   1   4  630.54   24.01 
  -1   1  -4  579.92   24.06 
   1   1   4  550.44   24.11 
   1   1   4  624.59   24.07 
  -1  -1  -4  613.64   24.14 
  -1  -1  -4  627.81   24.02 
   1  -1   4  565.21   24.07 
  -1  -1  -4  605.33   24.10 
   1  -1   4  598.59   24.01 
  -1  -1  -4  600.33   24.01 
   1  -1   4  572.38   23.99 
  -1  -1  -4  603.32   24.04 
   1   1   5   52.32    2.31 
   1   1   5   55.83    2.35 
  -1   1  -5   56.75    2.43 
   1   1   5   53.29    2.20 
   1   1   5   51.78    2.26 
  -1   1  -5   47.82    2.32 
  -1   1  -5   54.53    2.22 
  -1   1  -5   57.59    2.20 
  -1   1  -5   53.70    2.28 
  -1   1  -5   51.10    2.34 
  -1  -1  -5   52.20    2.25 
  -1  -1  -5   54.19    2.30 
   1  -1   5   53.98    2.21 
  -1  -1  -5   54.02    2.40 
  -1  -1  -5   55.35    2.28 
   1  -1   5   50.17    2.36 
  -1  -1  -5   54.93    2.27 
   1  -1   5   55.46    2.20 
  -1  -1  -5   53.32    2.50 
  -1   1  -6   76.73    3.12 
  -1   1  -6   77.22    3.21 
   1   1   6   76.44    3.08 
  -1   1  -6   75.91    3.25 
  -1   1  -6   66.90    3.15 
  -1   1  -6   78.17    3.32 
   1   1   6   68.28    3.14 
   1   1   6   79.33    3.20 
  -1  -1  -6   73.55    3.08 
  -1  -1  -6   73.42    3.26 
  -1  -1  -6   74.22    3.08 
  -1  -1  -6   73.13    3.14 
  -1  -1  -6   75.48    3.12 
   1  -1   6   74.66    3.22 
  -1  -1  -6   66.50    3.50 
  -1   1  -7   14.17    1.14 
   1   1   7   13.92    0.97 
  -1   1  -7   12.01    0.96 
   1   1   7   14.16    0.96 
  -1   1  -7   13.22    0.90 
  -1   1  -7   12.67    1.11 
   1   1   7   13.95    0.73 
  -1   1  -7   14.45    1.32 
  -1   1  -7   13.00    1.00 
  -1  -1  -7   12.80    0.89 
  -1  -1  -7   14.53    1.23 
  -1  -1  -7   13.14    0.75 
  -1  -1  -7   12.99    1.01 
  -1  -1  -7   13.39    0.91 
  -1  -1  -7   17.38    1.51 
  -1  -1  -7   14.72    0.78 
  -1   1  -8   12.04    1.08 
   1   1   8   11.46    1.15 
  -1   1  -8   12.42    0.98 
  -1   1  -8   13.13    1.08 
  -1   1  -8   12.00    1.18 
   1   1   8   11.95    0.69 
   1   1   8   12.58    0.99 
  -1   1  -8   13.39    1.31 
  -1   1  -8   10.19    0.93 
  -1  -1  -8   11.92    1.06 
  -1  -1  -8   12.96    1.07 
  -1  -1  -8   12.83    0.78 
  -1  -1  -8   13.43    1.07 
  -1  -1  -8   11.71    0.73 
  -1  -1  -8   10.45    0.91 
  -1  -1  -8   13.37    1.29 
  -1  -1  -8   10.88    1.04 
  -1  -1  -8   12.08    0.76 
  -1   1  -9   50.77    2.43 
   1   1   9   51.13    2.32 
  -1   1  -9   49.70    2.28 
  -1   1  -9   51.84    2.92 
   1   1   9   46.67    2.46 
  -1   1  -9   41.84    2.16 
   1   1   9   50.05    2.06 
  -1   1  -9   50.29    2.52 
  -1  -1  -9   45.27    2.83 
  -1  -1  -9   46.98    2.97 
  -1  -1  -9   49.15    2.11 
  -1  -1  -9   45.84    2.30 
  -1  -1  -9   47.67    2.23 
  -1  -1  -9   48.74    2.14 
  -1   1 -10  105.12    4.61 
  -1   1 -10  107.45    4.25 
  -1   1 -10  105.39    4.66 
  -1   1 -10   97.78    4.32 
  -1   1 -10  103.94    4.53 
  -1  -1 -10  100.74    4.55 
  -1  -1 -10  105.23    4.44 
  -1  -1 -10  104.87    4.65 
  -1  -1 -10  106.08    5.40 
  -1  -1 -10  106.10    4.33 
  -1  -1 -10  105.28    4.39 
  -1   1 -11   53.01    2.79 
  -1   1 -11   49.02    2.62 
  -1  -1 -11   49.15    2.40 
  -1  -1 -11   47.30    2.35 
  -1  -1 -11   50.94    2.74 
  -1  -1 -11   51.12    2.23 
  -1   1 -12   84.20    4.13 
  -1  -1 -12   85.96    4.14 
  -1  -1 -12   75.12    3.71 
  -1  -1 -12   85.19    3.53 
   1   2 -12   25.16    2.34 
   1   2 -12   22.26    2.19 
   1   2 -12   25.89    1.95 
   1  -2 -12   25.52    2.32 
   1  -2 -12   24.03    1.98 
   1  -2 -12   24.08    1.52 
   1   2 -11   59.82    2.91 
   1   2 -11   56.45    3.77 
   1   2 -11   62.20    3.11 
   1  -2 -11   60.18    2.68 
   1  -2 -11   62.08    3.18 
   1  -2 -11   60.20    2.66 
   1  -2 -11   59.44    2.64 
   1  -2 -11   54.86    3.14 
  -1   2  10    0.50    0.44 
   1   2 -10    0.78    0.72 
   1   2 -10   -0.92    1.36 
  -1   2  10    0.50    0.62 
   1  -2 -10   -0.04    0.39 
   1  -2 -10    0.50    0.41 
   1  -2 -10    1.38    0.72 
   1  -2 -10   -0.40    0.72 
   1  -2 -10   -0.53    1.30 
   1  -2 -10   -0.17    1.97 
   1   2  -9   18.28    1.62 
  -1   2   9   20.54    1.14 
   1   2  -9   21.86    1.49 
   1   2  -9   14.71    1.76 
   1   2  -9   20.54    1.61 
   1   2  -9   19.70    1.90 
  -1   2   9   19.39    1.20 
   1   2  -9   18.50    1.30 
   1  -2  -9   22.04    1.41 
   1  -2  -9   20.22    1.10 
   1  -2  -9   20.59    1.08 
   1  -2  -9   21.23    1.22 
   1  -2  -9   19.77    1.80 
   1   2  -8    3.87    0.69 
  -1   2   8    5.09    0.49 
   1   2  -8    3.71    0.73 
   1   2  -8    3.90    0.68 
   1   2  -8    4.87    0.62 
  -1   2   8    4.02    0.51 
   1   2  -8    4.20    0.90 
   1  -2  -8    5.09    1.13 
   1  -2  -8    5.14    0.46 
   1  -2  -8    4.96    0.51 
   1  -2  -8    3.87    0.42 
   1  -2  -8    3.90    0.64 
   1  -2  -8    4.95    0.51 
   1   2  -7  329.98   13.71 
  -1   2   7  338.29   13.64 
   1   2  -7  340.93   13.71 
  -1   2   7  324.82   13.66 
   1   2  -7  336.74   13.72 
   1   2  -7  353.68   13.80 
   1   2  -7  341.79   13.69 
   1  -2  -7  332.81   13.74 
   1  -2  -7  344.08   13.63 
   1  -2  -7  334.81   13.87 
   1  -2  -7  318.09   13.61 
   1  -2  -7  344.35   13.77 
   1  -2  -7  349.06   13.64 
   1  -2  -7  333.85   13.62 
   1   2  -6   75.66    3.17 
  -1   2   6   77.41    3.69 
   1   2  -6   70.32    3.18 
   1   2  -6   76.11    3.22 
   1   2  -6   75.35    3.28 
   1   2  -6   75.59    3.16 
   1   2  -6   71.60    3.00 
  -1   2   6   75.67    3.12 
   1   2  -6   74.59    3.00 
  -1   2   6   70.03    3.26 
  -1   2   6   73.71    3.13 
  -1   2   6   76.27    3.07 
   1  -2  -6   73.76    3.12 
   1  -2  -6   74.92    3.23 
   1  -2  -6   78.16    3.12 
   1  -2  -6   75.62    3.10 
   1  -2  -6   67.70    3.38 
   1  -2  -6   72.30    3.24 
   1  -2  -6   71.35    3.09 
   1   2  -5  362.77   14.53 
  -1   2   5  367.28   14.46 
   1   2  -5  352.24   14.43 
   1   2  -5  357.57   14.43 
   1   2  -5  359.23   14.57 
   1   2  -5  366.83   14.52 
  -1   2   5  350.06   14.53 
   1   2  -5  366.97   14.60 
   1   2  -5  380.34   14.57 
  -1   2   5  358.61   14.62 
  -1   2   5  359.55   14.52 
  -1   2   5  370.87   14.75 
   1  -2  -5  370.37   14.52 
   1  -2  -5  360.48   14.51 
   1  -2  -5  367.30   14.59 
  -1  -2   5  354.19   14.62 
   1  -2  -5  344.02   14.49 
   1  -2  -5  356.14   14.50 
   1  -2  -5  368.12   14.59 
   1  -2  -5  320.83   14.61 
   1   2  -4   13.54    0.78 
   1   2  -4   13.82    0.64 
   1   2  -4   13.37    0.62 
   1   2  -4   13.28    0.62 
   1   2  -4   13.64    0.85 
  -1   2   4   13.35    0.73 
   1   2  -4   13.04    0.71 
   1   2  -4   14.50    0.72 
  -1   2   4   13.04    0.84 
  -1   2   4   14.31    0.64 
   1   2  -4   14.21    0.82 
  -1   2   4   13.78    1.03 
  -1   2   4   13.96    0.74 
   1   2  -4   13.15    0.65 
  -1  -2   4   14.22    0.63 
   1  -2  -4   13.01    0.84 
   1  -2  -4   13.35    0.71 
   1  -2  -4   12.98    0.78 
   1  -2  -4   14.03    0.83 
   1  -2  -4   12.97    0.68 
   1  -2  -4   14.11    0.83 
  -1  -2   4   12.93    0.85 
  -1  -2   4   13.92    0.62 
   1   2  -3   60.03    2.59 
   1   2  -3   61.26    2.52 
   1   2  -3   59.24    2.50 
   1   2  -3   56.55    2.58 
  -1   2   3   60.26    2.61 
  -1   2   3   63.59    2.50 
  -1   2   3   59.75    2.58 
   1   2  -3   60.92    2.50 
   1   2  -3   60.36    2.51 
  -1   2   3   63.83    2.65 
   1   2  -3   62.57    2.52 
  -1   2   3   61.68    2.55 
  -1   2   3   61.60    2.54 
   1   2  -3   60.27    2.52 
   1  -2  -3   57.22    2.54 
  -1  -2   3   58.15    2.60 
   1  -2  -3   59.75    2.55 
  -1  -2   3   62.92    2.52 
   1  -2  -3   60.32    2.56 
  -1  -2   3   61.58    2.49 
   1  -2  -3   64.86    2.61 
   1  -2  -3   62.32    2.57 
  -1  -2   3   64.00    2.50 
   1  -2  -3   60.60    2.60 
   1  -2  -3   60.56    2.49 
  -1  -2   3   58.54    2.51 
  -1   2   2    6.33    0.43 
  -1   2   2    5.80    0.38 
   1   2  -2    5.40    0.36 
   1   2  -2    5.34    0.37 
   1   2  -2    5.63    0.32 
   1   2  -2    5.32    0.42 
  -1   2   2    6.02    0.45 
   1   2  -2    5.29    0.34 
  -1   2   2    5.43    0.42 
  -1   2   2    6.07    0.39 
   1   2  -2    5.67    0.34 
   1   2  -2    6.37    0.31 
   1   2  -2    5.70    0.45 
  -1   2   2    6.17    0.46 
  -1   2   2    5.53    0.39 
   1  -2  -2    5.94    0.42 
  -1  -2   2    5.71    0.37 
  -1  -2   2    5.95    0.34 
  -1  -2   2    5.83    0.35 
   1  -2  -2    6.11    0.39 
   1  -2  -2    6.61    0.45 
   1  -2  -2    5.97    0.40 
   1  -2  -2    5.02    0.40 
   1  -2  -2    5.78    0.30 
  -1  -2   2    6.02    0.45 
  -1  -2   2    6.24    0.35 
   1  -2  -2    5.46    0.45 
  -1   2   1  298.21   13.10 
  -1   2   1  332.73   13.12 
  -1   2   1  322.89   13.06 
  -1   2   1  322.34   13.10 
  -1   2   1  339.54   13.12 
   1   2  -1  319.85   13.08 
   1   2  -1  329.77   13.10 
  -1   2   1  327.72   13.10 
   1   2  -1  316.02   13.11 
   1   2  -1  330.47   13.10 
   1   2  -1  331.77   13.08 
   1   2  -1  328.89   13.09 
  -1   2   1  328.65   13.09 
   1  -2  -1  318.24   13.09 
   1  -2  -1  308.76   13.11 
   1  -2  -1  316.26   13.10 
   1  -2  -1  326.16   13.10 
  -1  -2   1  321.92   13.09 
   1  -2  -1  342.66   13.12 
  -1  -2   1  322.12   13.10 
  -1  -2   1  329.96   13.08 
  -1  -2   1  330.03   13.11 
   1  -2  -1  333.00   13.11 
   1   2   0  172.45    6.95 
  -1   2   0  163.76    6.99 
  -1   2   0  172.14    7.01 
   1   2   0  174.49    6.99 
  -1   2   0  170.17    6.99 
   1   2   0  177.36    7.01 
  -1   2   0  173.23    6.99 
  -1   2   0  173.57    7.00 
   1   2   0  186.81    7.00 
   1   2   0  164.64    7.01 
  -1   2   0  163.80    7.01 
   1   2   0  176.37    6.99 
   1  -2   0  164.80    7.00 
   1  -2   0  176.76    7.01 
   1  -2   0  166.22    6.99 
  -1  -2   0  171.88    6.99 
  -1  -2   0  173.10    7.01 
  -1  -2   0  172.82    7.01 
  -1  -2   0  174.74    6.99 
   1  -2   0  169.61    7.01 
  -1  -2   0  173.47    7.00 
   1  -2   0  179.41    7.00 
   1  -2   0  175.01    7.01 
  -1  -2   0  177.62    6.95 
   1   2   1  577.71   23.28 
  -1   2  -1  569.24   23.23 
   1   2   1  649.42   23.37 
  -1   2  -1  598.83   23.26 
  -1   2  -1  594.17   23.27 
   1   2   1  518.44   23.27 
  -1   2  -1  580.54   23.26 
  -1   2  -1  569.43   23.25 
  -1   2  -1  613.59   23.25 
   1   2   1  576.38   23.24 
  -1   2  -1  510.90   23.28 
  -1  -2  -1  612.36   23.28 
   1  -2   1  562.77   23.25 
   1  -2   1  583.41   23.25 
  -1  -2  -1  537.88   23.45 
  -1  -2  -1  578.80   23.27 
  -1  -2  -1  568.27   23.25 
  -1  -2  -1  558.23   23.26 
  -1  -2  -1  565.60   23.26 
   1  -2   1  630.31   23.39 
  -1  -2  -1  598.33   23.25 
   1   2   2   11.24    0.65 
   1   2   2   12.03    0.60 
  -1   2  -2   10.80    0.58 
  -1   2  -2   11.32    0.56 
  -1   2  -2   11.75    0.60 
   1   2   2   12.00    0.60 
  -1   2  -2   11.38    0.68 
   1   2   2   11.00    0.87 
  -1   2  -2   12.03    0.59 
  -1   2  -2   11.45    0.61 
  -1  -2  -2   10.98    0.60 
   1  -2   2   11.90    0.60 
   1  -2   2   12.38    0.61 
  -1  -2  -2   11.68    0.63 
   1  -2   2   12.21    0.59 
  -1  -2  -2   12.35    0.60 
  -1  -2  -2   10.96    0.68 
   1  -2   2   10.70    0.58 
  -1  -2  -2   10.79    0.61 
  -1  -2  -2   11.63    0.63 
   1  -2   2   11.82    0.55 
   1  -2   2   12.28    0.62 
  -1   2  -3   79.90    3.36 
  -1   2  -3   85.63    3.40 
  -1   2  -3   83.17    3.38 
  -1   2  -3   78.87    3.34 
  -1   2  -3   78.22    3.41 
   1   2   3   81.67    3.41 
   1   2   3   75.28    3.63 
   1   2   3   81.97    3.43 
  -1   2  -3   82.70    3.36 
   1   2   3   86.57    3.38 
  -1  -2  -3   83.53    3.53 
   1  -2   3   82.65    3.40 
  -1  -2  -3   81.14    3.43 
  -1  -2  -3   81.51    3.38 
   1  -2   3   81.88    3.39 
  -1  -2  -3   81.88    3.39 
   1  -2   3   85.61    3.37 
   1  -2   3   80.87    3.40 
   1  -2   3   82.05    3.36 
  -1  -2  -3   84.72    3.42 
   1  -2   3   81.98    3.32 
  -1  -2  -3   76.79    3.40 
  -1  -2  -3   80.88    3.38 
  -1   2  -4   11.81    0.68 
  -1   2  -4   11.74    0.83 
  -1   2  -4   12.37    0.74 
   1   2   4   11.24    0.62 
   1   2   4   11.35    0.73 
   1   2   4   12.19    0.85 
  -1   2  -4   10.17    0.60 
   1   2   4   11.52    0.66 
  -1   2  -4   12.12    0.60 
   1   2   4   12.40    0.82 
  -1   2  -4   11.58    0.73 
  -1  -2  -4   11.88    0.65 
  -1  -2  -4   11.49    0.70 
  -1  -2  -4   11.45    0.79 
  -1  -2  -4   11.26    0.65 
   1  -2   4   11.05    0.74 
  -1  -2  -4   11.97    0.69 
   1  -2   4   11.69    0.65 
   1  -2   4   11.42    0.58 
  -1  -2  -4   10.67    1.21 
  -1  -2  -4   11.44    0.67 
   1   2   5   68.25    2.96 
  -1   2  -5   69.46    2.96 
   1   2   5   65.88    3.12 
  -1   2  -5   65.32    3.03 
   1   2   5   71.10    2.91 
  -1   2  -5   65.78    3.24 
  -1   2  -5   71.50    2.83 
   1   2   5   68.91    2.86 
   1   2   5   69.82    2.96 
  -1   2  -5   66.86    2.85 
  -1   2  -5   71.37    2.91 
  -1  -2  -5   67.88    2.89 
  -1  -2  -5   67.90    3.36 
  -1  -2  -5   68.98    2.92 
   1  -2   5   69.08    3.00 
  -1  -2  -5   69.93    3.02 
   1  -2   5   71.02    2.82 
  -1  -2  -5   68.58    2.89 
   1  -2   5   62.74    2.93 
  -1  -2  -5   69.68    2.90 
  -1  -2  -5   72.00    2.92 
  -1   2  -6  141.25    5.63 
  -1   2  -6  129.48    5.37 
  -1   2  -6  135.69    5.46 
  -1   2  -6  124.97    5.39 
  -1   2  -6  132.60    5.34 
   1   2   6  129.26    5.51 
   1   2   6  131.27    5.39 
  -1   2  -6  131.98    5.52 
   1   2   6  135.61    5.50 
   1   2   6  128.86    5.74 
   1   2   6  127.44    5.47 
  -1  -2  -6  137.39    5.59 
  -1  -2  -6  128.79    5.43 
   1  -2   6  131.46    5.35 
  -1  -2  -6  136.74    5.47 
   1  -2   6  134.17    5.33 
  -1  -2  -6  132.68    5.45 
  -1  -2  -6  129.37    5.44 
  -1  -2  -6  136.27    5.44 
  -1  -2  -6  132.77    5.91 
   1   2   7  223.17    9.74 
  -1   2  -7  245.75    9.70 
  -1   2  -7  235.38    9.87 
  -1   2  -7  239.85    9.79 
  -1   2  -7  240.79    9.78 
   1   2   7  241.07    9.67 
   1   2   7  248.16    9.73 
  -1   2  -7  223.69    9.61 
  -1  -2  -7  239.53   10.12 
  -1  -2  -7  241.74    9.68 
  -1  -2  -7  243.24    9.70 
  -1  -2  -7  241.23    9.84 
  -1  -2  -7  227.92    9.67 
  -1  -2  -7  232.09    9.67 
  -1  -2  -7  247.31    9.71 
   1   2   8   13.38    0.86 
  -1   2  -8   13.18    1.07 
  -1   2  -8   14.64    1.15 
   1   2   8   12.98    1.04 
  -1   2  -8   13.74    1.25 
  -1   2  -8   13.31    0.73 
  -1   2  -8   13.59    1.38 
   1   2   8   14.76    1.03 
  -1  -2  -8   14.75    1.72 
  -1  -2  -8   14.84    1.18 
  -1  -2  -8   14.32    0.97 
  -1  -2  -8   14.49    0.86 
  -1  -2  -8   14.12    1.18 
  -1  -2  -8   13.92    0.87 
  -1   2  -9   95.99    4.67 
  -1   2  -9   99.92    4.35 
   1   2   9  102.48    4.23 
   1   2   9   92.73    4.29 
  -1   2  -9   98.95    4.22 
   1   2   9  101.60    4.13 
  -1  -2  -9   96.76    4.24 
  -1  -2  -9   99.56    4.17 
  -1  -2  -9   98.09    4.35 
  -1  -2  -9   96.83    4.13 
  -1  -2  -9  102.09    5.23 
  -1  -2  -9   97.45    4.15 
  -1   2 -10    7.49    0.96 
  -1   2 -10    8.67    1.28 
   1   2  10    7.48    0.77 
   1   2  10    6.22    1.01 
  -1   2 -10    7.22    0.97 
  -1  -2 -10    6.50    0.94 
  -1  -2 -10    7.77    2.61 
  -1  -2 -10    6.32    1.13 
  -1  -2 -10    7.99    0.83 
  -1  -2 -10    5.98    1.09 
  -1  -2 -10    7.56    0.73 
  -1  -2 -10    7.54    0.69 
   1   2  11   10.88    1.16 
   1   2  11   11.22    0.90 
  -1   2 -11   10.65    1.27 
  -1   2 -11   10.71    1.37 
  -1  -2 -11   11.75    0.92 
  -1  -2 -11   11.09    0.90 
  -1  -2 -11   10.63    1.18 
  -1  -2 -11   10.68    1.11 
  -1   2 -12   11.72    1.47 
  -1   2 -12    9.52    1.26 
  -1  -2 -12   10.93    1.37 
  -1  -2 -12   10.17    1.00 
   1   3 -11  114.32    6.78 
   1   3 -11  147.18    6.14 
  -1   3  11  132.51    5.91 
   1   3 -11  141.74    6.00 
   1  -3 -11  140.74    5.93 
   1  -3 -11  144.29    5.80 
  -1   3  10   12.53    1.27 
  -1   3  10   15.44    1.17 
   1   3 -10   12.50    1.34 
   1   3 -10   14.96    1.48 
   1  -3 -10   13.73    1.10 
   1  -3 -10   13.39    1.05 
   1  -3 -10   14.79    1.30 
   1  -3 -10   12.87    1.09 
   1   3  -9  129.62    5.77 
  -1   3   9  142.11    5.68 
  -1   3   9  133.21    5.71 
   1   3  -9  150.58    6.31 
   1   3  -9  135.56    5.76 
   1  -3  -9  132.08    5.63 
   1  -3  -9  133.54    5.63 
   1  -3  -9  139.99    5.69 
   1  -3  -9  133.29    5.74 
   1  -3  -9  129.40    5.76 
   1   3  -8    4.12    0.62 
  -1   3   8    4.93    1.67 
   1   3  -8    3.26    1.08 
   1   3  -8    3.08    0.60 
   1   3  -8    3.66    0.83 
  -1   3   8    3.53    0.52 
   1   3  -8    3.04    0.65 
   1  -3  -8    3.41    0.55 
   1  -3  -8    3.44    0.49 
   1  -3  -8    3.26    0.60 
   1  -3  -8    3.86    0.66 
  -1   3   7   93.31    4.78 
   1   3  -7   97.70    4.23 
   1   3  -7   91.33    4.19 
  -1   3   7  100.03    4.14 
   1   3  -7  101.06    4.36 
   1   3  -7  101.00    3.98 
   1   3  -7   98.45    4.15 
  -1   3   7   98.25    4.16 
   1   3  -7   98.22    4.13 
   1   3  -7   96.71    3.97 
   1  -3  -7   97.14    4.13 
   1  -3  -7   95.59    4.09 
   1  -3  -7   98.83    4.18 
   1  -3  -7   93.91    4.29 
   1  -3  -7   99.90    4.12 
   1  -3  -7   99.70    4.10 
   1  -3  -7   95.28    4.08 
   1   3  -6   10.84    1.05 
  -1   3   6   10.71    1.17 
  -1   3   6   12.04    0.85 
   1   3  -6   11.68    0.72 
  -1   3   6   11.85    0.80 
   1   3  -6   12.20    0.61 
  -1   3   6   11.46    1.01 
   1   3  -6   11.33    0.61 
   1   3  -6   12.05    0.82 
  -1   3   6   12.07    0.62 
   1   3  -6   12.36    0.66 
   1   3  -6   11.45    0.90 
   1   3  -6   12.94    1.17 
   1  -3  -6   11.98    0.86 
  -1  -3   6   12.26    0.58 
  -1  -3   6   10.73    1.07 
   1  -3  -6   11.59    0.91 
   1  -3  -6   11.94    0.79 
   1  -3  -6   11.36    0.72 
  -1  -3   6   11.46    0.62 
   1  -3  -6   11.83    1.09 
   1  -3  -6   12.02    0.74 
   1  -3  -6   11.51    0.80 
   1   3  -5  181.43    7.67 
   1   3  -5  190.91    7.72 
  -1   3   5  185.36    7.78 
  -1   3   5  191.47    7.93 
  -1   3   5  186.76    7.79 
   1   3  -5  199.10    7.70 
  -1   3   5  197.32    7.67 
   1   3  -5  186.69    7.68 
   1   3  -5  184.67    7.81 
   1   3  -5  192.57    7.86 
  -1   3   5  185.20    7.85 
   1   3  -5  197.34    7.81 
   1   3  -5  188.91    7.74 
   1   3  -5  197.73    7.70 
   1  -3  -5  186.94    7.77 
   1  -3  -5  181.06    7.74 
   1  -3  -5  185.90    7.75 
  -1  -3   5  188.24    7.67 
  -1  -3   5  189.84    7.84 
   1  -3  -5  201.88    7.85 
   1  -3  -5  187.47    7.67 
   1  -3  -5  181.18    7.79 
   1  -3  -5  194.50    7.78 
  -1  -3   5  195.69    7.69 
  -1   3   4    4.05    0.38 
  -1   3   4    3.99    0.42 
   1   3  -4    4.23    0.36 
  -1   3   4    3.81    0.48 
  -1   3   4    3.51    0.51 
   1   3  -4    4.08    0.41 
   1   3  -4    3.82    0.43 
   1   3  -4    4.19    0.39 
  -1   3   4    4.19    0.38 
   1   3  -4    3.81    0.43 
   1   3  -4    3.89    0.47 
   1  -3  -4    4.44    0.48 
  -1  -3   4    5.44    0.36 
   1  -3  -4    3.88    0.42 
   1  -3  -4    4.19    0.43 
   1  -3  -4    6.06    0.56 
  -1  -3   4    4.29    0.36 
  -1  -3   4    4.84    0.35 
   1  -3  -4    4.36    0.32 
  -1  -3   4    4.17    0.48 
   1  -3  -4    4.32    0.42 
  -1  -3   4    3.77    0.41 
  -1   3   3  418.10   16.92 
  -1   3   3  405.96   16.91 
   1   3  -3  433.86   16.86 
   1   3  -3  405.71   16.84 
   1   3  -3  409.50   16.84 
  -1   3   3  427.61   16.89 
   1   3  -3  442.03   16.91 
   1   3  -3  421.94   16.87 
   1   3  -3  396.33   16.91 
  -1   3   3  437.40   16.92 
   1   3  -3  423.61   16.85 
  -1   3   3  428.45   16.87 
  -1   3   3  405.37   16.94 
  -1  -3   3  430.59   16.86 
   1  -3  -3  417.91   16.91 
   1  -3  -3  417.18   16.91 
  -1  -3   3  412.25   16.83 
   1  -3  -3  426.02   16.88 
   1  -3  -3  425.21   16.89 
   1  -3  -3  354.44   16.92 
  -1  -3   3  418.48   16.92 
   1  -3  -3  437.14   16.91 
   1  -3  -3  415.78   16.80 
  -1  -3   3  411.29   16.85 
  -1  -3   3  436.34   16.84 
  -1   3   2  189.00    7.49 
   1   3  -2  186.31    7.51 
   1   3  -2  182.38    7.49 
  -1   3   2  185.66    7.50 
   1   3  -2  181.85    7.48 
   1   3  -2  185.77    7.47 
  -1   3   2  188.52    7.53 
  -1   3   2  191.39    7.50 
   1   3  -2  174.44    7.39 
   1   3  -2  181.39    7.52 
  -1   3   2  186.74    7.51 
  -1   3   2  182.61    7.45 
  -1   3   2  183.47    7.52 
   1   3  -2  189.08    7.48 
  -1  -3   2  180.24    7.47 
   1  -3  -2  175.93    7.50 
  -1  -3   2  188.07    7.46 
   1  -3  -2  175.56    7.51 
   1  -3  -2  180.56    7.49 
  -1  -3   2  182.53    7.51 
   1  -3  -2  182.55    7.42 
   1  -3  -2  190.14    7.51 
   1  -3  -2  186.22    7.52 
  -1  -3   2  186.48    7.46 
  -1  -3   2  180.79    7.48 
   1  -3  -2  182.98    7.50 
   1   3  -1  695.04   26.47 
   1   3  -1  672.88   26.44 
   1   3  -1  653.03   26.44 
  -1   3   1  653.90   26.50 
  -1   3   1  680.15   26.45 
   1   3  -1  658.94   26.46 
   1   3  -1  627.13   26.47 
  -1   3   1  681.51   26.47 
  -1   3   1  659.66   26.48 
  -1   3   1  630.73   26.45 
   1   3  -1  670.16   26.48 
  -1   3   1  646.92   26.46 
  -1   3   1  680.85   26.49 
   1   3  -1  668.25   26.40 
  -1  -3   1  626.35   26.46 
  -1  -3   1  650.08   26.47 
   1  -3  -1  671.19   26.46 
   1  -3  -1  652.48   26.47 
  -1  -3   1  654.90   26.44 
   1  -3  -1  680.83   26.47 
   1  -3  -1  703.31   26.49 
  -1  -3   1  653.40   26.47 
  -1  -3   1  620.31   26.46 
   1  -3  -1  612.16   26.45 
   1   3   0   10.89    0.62 
  -1   3   0   11.77    0.67 
  -1   3   0   10.68    0.67 
   1   3   0    9.99    0.67 
  -1   3   0   11.64    0.69 
   1   3   0   11.78    0.67 
   1   3   0   10.65    0.65 
  -1   3   0   12.13    0.64 
   1   3   0   10.57    0.62 
  -1   3   0   10.81    0.67 
   1   3   0   11.51    0.67 
   1   3   0   10.04    0.54 
  -1   3   0   11.02    0.64 
  -1   3   0   12.14    0.62 
  -1  -3   0   11.37    0.68 
  -1  -3   0   10.99    0.64 
  -1  -3   0   11.44    0.56 
   1  -3   0   11.92    0.67 
   1  -3   0    9.76    0.62 
   1  -3   0   10.11    0.61 
   1  -3   0   11.65    0.66 
  -1  -3   0   10.86    0.62 
   1  -3   0   10.00    0.65 
  -1  -3   0   10.41    0.65 
  -1  -3   0   11.05    0.64 
  -1  -3   0   10.98    0.66 
   1  -3   0   11.77    0.67 
  -1   3  -1    1.32    0.24 
   1   3   1    0.55    0.27 
   1   3   1    0.07    0.22 
  -1   3  -1    1.22    0.26 
  -1   3  -1    1.19    0.23 
  -1   3  -1    0.77    0.24 
  -1   3  -1    0.67    0.19 
  -1   3  -1    1.21    0.26 
   1   3   1    1.03    0.26 
   1   3   1    0.69    0.26 
   1   3   1    0.54    0.20 
  -1   3  -1    0.69    0.22 
   1  -3   1    0.58    0.20 
   1  -3   1    0.18    0.17 
  -1  -3  -1    1.23    0.27 
  -1  -3  -1    0.82    0.21 
  -1  -3  -1    1.14    0.23 
  -1  -3  -1    0.87    0.23 
   1  -3   1    0.40    0.22 
  -1  -3  -1    0.79    0.26 
   1  -3   1    1.63    0.26 
   1  -3   1    0.46    0.23 
   1  -3   1    0.41    0.36 
  -1  -3  -1    1.41    0.26 
  -1   3  -2   22.70    1.09 
  -1   3  -2   22.92    1.12 
   1   3   2   23.53    1.10 
   1   3   2   21.71    1.10 
  -1   3  -2   23.95    1.07 
   1   3   2   22.47    1.15 
  -1   3  -2   23.27    1.08 
  -1   3  -2   22.43    1.15 
   1   3   2   23.50    1.13 
   1   3   2   22.38    1.11 
   1   3   2   22.92    1.24 
  -1   3  -2   25.22    1.12 
  -1  -3  -2   22.07    1.10 
  -1  -3  -2   20.82    1.07 
  -1  -3  -2   22.98    1.11 
  -1  -3  -2   23.67    1.15 
   1  -3   2   24.90    1.11 
   1  -3   2   22.56    1.10 
  -1  -3  -2   24.49    1.11 
   1  -3   2   24.02    1.09 
  -1  -3  -2   24.30    1.11 
   1  -3   2   22.48    1.11 
   1  -3   2   23.99    1.05 
  -1  -3  -2   23.57    1.13 
   1  -3   2   22.13    1.08 
  -1   3  -3  233.63    9.74 
  -1   3  -3  254.91    9.77 
  -1   3  -3  239.59    9.72 
  -1   3  -3  236.76    9.74 
   1   3   3  251.91    9.76 
   1   3   3  235.62    9.81 
  -1   3  -3  236.89    9.81 
  -1   3  -3  246.19    9.77 
   1   3   3  239.39    9.77 
   1   3   3  238.55    9.79 
  -1   3  -3  227.93    9.82 
   1  -3   3  246.32    9.74 
  -1  -3  -3  241.30    9.77 
   1  -3   3  238.25    9.75 
  -1  -3  -3  236.41    9.75 
   1  -3   3  230.74    9.74 
  -1  -3  -3  234.36    9.78 
  -1  -3  -3  242.03    9.77 
   1  -3   3  249.34    9.75 
  -1  -3  -3  240.52    9.77 
  -1  -3  -3  245.19    9.79 
   1  -3   3  238.66    9.78 
  -1  -3  -3  244.81    9.80 
   1  -3   3  240.66    9.71 
  -1   3  -4   42.97    1.86 
   1   3   4   44.25    1.89 
  -1   3  -4   45.21    2.03 
  -1   3  -4   44.43    1.91 
   1   3   4   42.99    2.09 
  -1   3  -4   42.02    1.85 
   1   3   4   43.88    1.94 
  -1   3  -4   41.37    1.83 
  -1   3  -4   45.19    1.91 
   1   3   4   41.29    1.98 
   1   3   4   41.79    1.97 
  -1   3  -4   41.23    1.96 
   1  -3   4   44.65    1.89 
  -1  -3  -4   42.25    1.90 
   1  -3   4   43.18    1.88 
  -1  -3  -4   43.43    1.94 
   1  -3   4   43.81    1.80 
  -1  -3  -4   41.92    1.92 
  -1  -3  -4   43.86    1.98 
   1  -3   4   39.39    1.83 
  -1  -3  -4   43.17    1.97 
   1  -3   4   40.65    1.93 
   1  -3   4   42.86    1.91 
  -1  -3  -4   40.13    1.87 
  -1  -3  -4   41.11    1.90 
   1   3   5  389.10   15.62 
  -1   3  -5  397.87   15.60 
   1   3   5  378.79   15.66 
  -1   3  -5  378.89   15.54 
   1   3   5  385.19   15.65 
  -1   3  -5  409.00   15.72 
  -1   3  -5  381.08   15.55 
   1   3   5  397.24   15.71 
   1   3   5  400.64   15.58 
  -1   3  -5  397.18   15.61 
  -1   3  -5  380.78   15.64 
  -1  -3  -5  403.07   15.68 
  -1  -3  -5  400.19   15.70 
  -1  -3  -5  374.40   15.60 
   1  -3   5  371.52   15.53 
  -1  -3  -5  383.75   15.62 
   1  -3   5  369.58   15.56 
   1  -3   5  373.50   15.64 
  -1  -3  -5  384.05   15.62 
  -1  -3  -5  377.00   15.59 
  -1  -3  -5  375.24   15.57 
   1   3   6   12.38    0.95 
  -1   3  -6   11.23    0.73 
  -1   3  -6   11.05    1.14 
   1   3   6   11.66    0.78 
   1   3   6   11.71    1.11 
   1   3   6   13.47    0.85 
  -1   3  -6   12.43    1.24 
  -1   3  -6   12.78    0.92 
  -1   3  -6   13.72    0.71 
   1   3   6   13.28    0.91 
  -1   3  -6   11.76    0.97 
   1  -3   6   11.62    0.90 
  -1  -3  -6   12.73    0.91 
   1  -3   6   12.21    1.06 
  -1  -3  -6   12.33    0.87 
  -1  -3  -6   13.46    1.14 
  -1  -3  -6   12.69    0.83 
  -1  -3  -6   12.01    0.79 
  -1  -3  -6   13.56    0.82 
   1  -3   6   13.22    0.64 
  -1  -3  -6   16.59    1.40 
   1   3   7    1.65    0.44 
  -1   3  -7    1.09    0.76 
  -1   3  -7    1.49    0.52 
   1   3   7    2.81    1.11 
   1   3   7    1.82    0.36 
  -1   3  -7    1.07    0.51 
  -1   3  -7    2.88    0.32 
  -1   3  -7    1.34    0.65 
   1   3   7    1.53    0.52 
   1   3   7    1.86    0.46 
  -1  -3  -7    0.85    0.34 
  -1  -3  -7    1.65    0.50 
  -1  -3  -7    2.00    0.93 
  -1  -3  -7    2.32    0.76 
  -1  -3  -7    1.26    0.40 
  -1  -3  -7    1.92    0.41 
  -1  -3  -7    2.05    0.42 
   1  -3   7    1.90    0.71 
   1   3   8    2.09    0.46 
  -1   3  -8    0.86    0.73 
   1   3   8    1.59    0.53 
  -1   3  -8    1.35    0.28 
   1   3   8    1.15    0.57 
  -1   3  -8    1.13    0.61 
  -1   3  -8    1.13    0.60 
  -1  -3  -8    1.46    0.46 
  -1  -3  -8    1.31    0.52 
  -1  -3  -8    1.50    1.13 
  -1  -3  -8    0.98    0.46 
   1   3   9   42.68    2.26 
  -1   3  -9   45.15    1.90 
   1   3   9   45.29    2.11 
  -1   3  -9   42.04    2.53 
  -1   3  -9   45.92    2.31 
  -1   3  -9   45.58    2.37 
   1   3   9   44.65    2.13 
  -1  -3  -9   45.28    3.35 
  -1  -3  -9   42.85    2.34 
  -1  -3  -9   42.88    2.09 
  -1  -3  -9   44.09    2.09 
  -1  -3  -9   45.15    2.31 
  -1  -3  -9   47.68    2.13 
   1   3  10   11.37    1.12 
  -1   3 -10   11.83    1.18 
  -1   3 -10   10.51    1.77 
   1   3  10   12.21    1.15 
  -1   3 -10   11.35    1.19 
  -1   3 -10   11.35    0.64 
   1   3  10   13.95    1.10 
  -1  -3 -10   10.40    1.06 
  -1  -3 -10   10.64    1.10 
  -1  -3 -10   11.54    1.10 
  -1  -3 -10   10.18    1.09 
  -1   3 -11  164.98    7.00 
   1   3  11  169.99    6.74 
  -1   3 -11  167.83    7.09 
  -1   3 -11  156.52    7.40 
   1   3  11  146.76    6.99 
  -1  -3 -11  166.98    6.81 
  -1  -3 -11  161.17    7.04 
  -1  -3 -11  161.73    6.76 
   1   4 -11   36.52    2.48 
   1   4 -11   31.34    3.15 
   1   4 -11   36.70    2.36 
  -1   4  11   34.20    2.27 
   1  -4 -11   36.17    2.02 
   1  -4 -11   38.12    2.26 
   1   4 -10    0.81    0.80 
  -1   4  10    0.00    0.76 
  -1   4  10    0.61    0.76 
   1   4 -10    0.36    0.84 
   1  -4 -10   -0.36    0.54 
   1  -4 -10    0.86    0.81 
  -1   4   9   21.36    1.58 
   1   4  -9   23.67    1.66 
   1   4  -9   24.78    1.66 
   1   4  -9   25.40    1.79 
  -1   4   9   22.16    1.55 
   1  -4  -9   23.67    1.52 
   1  -4  -9   23.97    1.74 
   1  -4  -9   25.28    1.40 
   1  -4  -9   26.26    1.63 
   1   4  -8   17.78    1.27 
  -1   4   8   16.62    1.24 
  -1   4   8   17.06    2.11 
  -1   4   8   16.31    1.29 
   1   4  -8   17.55    1.32 
   1   4  -8   15.73    1.57 
   1   4  -8   17.55    0.87 
   1  -4  -8   17.10    1.16 
   1  -4  -8   17.59    1.37 
   1  -4  -8   17.49    1.12 
   1  -4  -8   16.57    1.32 
   1   4  -7  135.74    5.63 
   1   4  -7  131.88    5.60 
  -1   4   7  133.33    6.19 
   1   4  -7  134.91    5.70 
   1   4  -7  136.21    5.55 
   1   4  -7  131.13    5.54 
   1   4  -7  127.89    5.76 
   1   4  -7  134.69    5.77 
  -1   4   7  128.35    5.73 
  -1   4   7  141.87    5.50 
  -1   4   7  145.86    5.72 
   1   4  -7  140.47    5.56 
   1  -4  -7  134.77    5.66 
  -1  -4   7  129.89    5.51 
   1  -4  -7  134.48    5.72 
  -1  -4   7  135.92    5.54 
   1  -4  -7  144.83    5.81 
   1  -4  -7  137.75    5.67 
   1  -4  -7  137.63    5.51 
   1  -4  -7  138.22    5.71 
  -1  -4   7  138.09    5.86 
   1   4  -6  219.21    8.47 
   1   4  -6  207.36    8.54 
   1   4  -6  213.01    8.47 
   1   4  -6  207.68    8.62 
   1   4  -6  210.72    8.44 
  -1   4   6  219.17    8.40 
   1   4  -6  204.32    8.44 
   1   4  -6  215.59    8.49 
  -1   4   6  210.09    8.66 
  -1   4   6  208.70    8.77 
   1   4  -6  195.73    8.68 
  -1   4   6  210.69    8.57 
   1   4  -6  209.15    8.60 
  -1   4   6  199.23    8.59 
   1  -4  -6  203.89    8.53 
   1  -4  -6  204.91    8.57 
   1  -4  -6  212.88    8.39 
   1  -4  -6  211.15    8.66 
  -1  -4   6  203.49    8.43 
  -1  -4   6  210.70    8.45 
   1  -4  -6  204.20    8.54 
   1  -4  -6  206.64    8.56 
  -1  -4   6  202.10    8.63 
   1  -4  -6  204.94    8.57 
   1   4  -5  145.36    5.88 
   1   4  -5  138.77    5.83 
  -1   4   5  150.86    5.81 
  -1   4   5  141.14    5.99 
  -1   4   5  138.82    5.89 
  -1   4   5  140.77    6.06 
   1   4  -5  144.78    5.92 
   1   4  -5  144.98    6.05 
   1   4  -5  141.34    5.82 
   1   4  -5  140.17    5.87 
  -1   4   5  137.78    6.00 
   1   4  -5  135.70    5.83 
   1   4  -5  143.07    5.99 
   1   4  -5  147.54    5.98 
  -1   4   5  141.34    5.98 
   1  -4  -5  141.36    5.94 
  -1  -4   5  146.02    5.86 
   1  -4  -5  142.90    5.92 
  -1  -4   5  148.64    5.79 
   1  -4  -5  142.10    5.95 
  -1  -4   5  142.66    5.80 
   1  -4  -5  147.23    5.95 
   1  -4  -5  147.17    6.01 
  -1  -4   5  140.18    5.99 
   1  -4  -5  137.02    5.90 
   1  -4  -5  145.68    5.78 
  -1  -4   5  142.20    5.84 
   1   4  -4   23.53    1.14 
  -1   4   4   24.17    1.28 
   1   4  -4   22.92    1.02 
   1   4  -4   21.43    1.07 
   1   4  -4   21.89    1.24 
  -1   4   4   22.31    1.16 
   1   4  -4   22.48    1.07 
   1   4  -4   24.39    1.30 
  -1   4   4   21.39    1.25 
   1   4  -4   21.96    1.24 
  -1   4   4   23.16    1.23 
  -1   4   4   21.41    1.39 
   1   4  -4   24.08    1.15 
  -1   4   4   23.04    1.22 
   1  -4  -4   22.23    1.01 
   1  -4  -4   21.91    1.21 
  -1  -4   4   22.76    1.09 
   1  -4  -4   23.90    1.26 
   1  -4  -4   21.60    1.20 
  -1  -4   4   22.33    1.10 
  -1  -4   4   23.94    1.07 
   1  -4  -4   20.63    1.14 
   1  -4  -4   23.29    1.32 
  -1  -4   4   21.75    1.28 
   1  -4  -4   21.31    1.19 
  -1  -4   4   22.03    1.27 
  -1   4   3   23.77    1.17 
   1   4  -3   22.32    1.09 
   1   4  -3   23.56    1.25 
   1   4  -3   24.49    1.16 
  -1   4   3   22.20    1.23 
  -1   4   3   23.34    1.25 
  -1   4   3   22.96    1.22 
   1   4  -3   23.43    1.17 
  -1   4   3   22.67    1.16 
  -1   4   3   19.48    1.32 
   1   4  -3   22.86    1.10 
   1   4  -3   21.45    1.21 
   1   4  -3   21.94    1.01 
  -1   4   3   23.32    1.24 
   1  -4  -3   21.75    1.14 
  -1  -4   3   22.43    1.09 
   1  -4  -3   23.30    1.20 
   1  -4  -3   23.80    1.04 
  -1  -4   3   24.23    1.15 
  -1  -4   3   23.33    1.12 
  -1  -4   3   24.15    1.23 
   1  -4  -3   21.79    1.18 
   1  -4  -3   24.46    1.27 
  -1  -4   3   23.66    1.12 
   1  -4  -3   22.04    1.21 
   1  -4  -3   23.38    1.23 
   1   4  -2    0.61    0.24 
   1   4  -2    0.61    0.31 
  -1   4   2    0.66    0.30 
   1   4  -2    0.32    0.38 
  -1   4   2    0.79    0.28 
   1   4  -2    1.03    0.31 
   1   4  -2    0.90    0.28 
   1   4  -2    0.89    0.26 
  -1   4   2    1.61    0.32 
  -1   4   2    1.23    0.31 
   1   4  -2    0.75    0.12 
  -1   4   2    0.45    0.37 
  -1   4   2    1.17    0.35 
  -1   4   2    1.74    0.39 
   1  -4  -2    1.30    0.36 
   1  -4  -2    0.40    0.29 
   1  -4  -2    0.38    0.31 
  -1  -4   2    1.51    0.31 
  -1  -4   2    0.95    0.33 
   1  -4  -2    0.14    0.21 
  -1  -4   2    0.55    0.22 
   1  -4  -2    0.40    0.30 
  -1  -4   2    1.55    0.31 
   1   4  -1  182.19    7.26 
  -1   4   1  181.86    7.37 
   1   4  -1  181.30    7.41 
  -1   4   1  185.51    7.35 
   1   4  -1  168.13    7.44 
  -1   4   1  188.18    7.40 
   1   4  -1  187.41    7.40 
  -1   4   1  181.83    7.36 
  -1   4   1  186.48    7.42 
   1   4  -1  183.37    7.41 
  -1   4   1  183.13    7.39 
  -1   4   1  181.06    7.42 
   1   4  -1  177.39    7.36 
   1   4  -1  173.26    7.35 
  -1  -4   1  173.43    7.38 
  -1  -4   1  171.05    7.37 
  -1  -4   1  161.85    7.30 
   1  -4  -1  185.08    7.39 
  -1  -4   1  187.00    7.40 
  -1  -4   1  181.66    7.36 
  -1  -4   1  178.60    7.37 
   1  -4  -1  178.78    7.37 
   1  -4  -1  178.14    7.39 
   1  -4  -1  169.51    7.39 
   1  -4  -1  189.50    7.42 
   1  -4  -1  192.16    7.39 
   1   4   0  385.80   16.15 
  -1   4   0  412.65   16.13 
   1   4   0  401.31   16.12 
  -1   4   0  382.76   16.09 
   1   4   0  406.32   16.18 
  -1   4   0  409.80   16.17 
   1   4   0  405.74   16.14 
   1   4   0  404.51   16.16 
  -1   4   0  417.57   16.15 
   1   4   0  401.63   16.05 
  -1   4   0  417.52   16.22 
   1   4   0  394.98   16.13 
  -1   4   0  384.21   16.12 
  -1   4   0  399.39   16.17 
  -1  -4   0  394.49   16.07 
  -1  -4   0  399.40   16.12 
   1  -4   0  407.95   16.15 
  -1  -4   0  398.00   16.13 
   1  -4   0  399.95   16.12 
  -1  -4   0  405.31   16.16 
   1  -4   0  411.71   16.17 
   1  -4   0  385.32   16.15 
   1  -4   0  384.40   16.14 
  -1  -4   0  383.62   16.13 
   1  -4   0  390.65   16.14 
  -1  -4   0  400.83   16.15 
  -1   4  -1  243.60    9.99 
   1   4   1  242.03   10.00 
   1   4   1  239.22    9.98 
   1   4   1  251.54    9.99 
  -1   4  -1  240.62    9.90 
   1   4   1  256.87    9.97 
  -1   4  -1  258.86    9.97 
  -1   4  -1  241.32    9.93 
  -1   4  -1  245.29    9.95 
  -1   4  -1  246.34    9.96 
  -1   4  -1  248.16    9.96 
   1   4   1  245.44    9.90 
  -1   4  -1  236.04    9.97 
   1   4   1  248.63    9.95 
  -1  -4  -1  241.45    9.94 
   1  -4   1  251.11    9.97 
   1  -4   1  218.01   10.00 
   1  -4   1  221.15   10.01 
  -1  -4  -1  251.23    9.95 
  -1  -4  -1  246.06    9.96 
  -1  -4  -1  267.09    9.92 
  -1  -4  -1  247.38    9.99 
   1  -4   1  246.96    9.93 
  -1  -4  -1  245.22    9.95 
   1  -4   1  242.50    9.96 
   1  -4   1  242.14    9.97 
  -1  -4  -1  243.07    9.98 
   1   4   2  106.76    4.52 
  -1   4  -2  101.72    4.50 
  -1   4  -2  111.16    4.52 
   1   4   2  104.50    4.54 
   1   4   2  107.41    4.49 
  -1   4  -2  110.56    4.45 
  -1   4  -2  107.75    4.47 
   1   4   2  106.52    4.46 
   1   4   2  106.63    4.48 
  -1   4  -2  102.71    4.45 
  -1   4  -2  108.50    4.49 
  -1   4  -2  111.80    4.50 
   1   4   2  104.62    4.54 
  -1   4  -2  108.74    4.51 
  -1  -4  -2  108.66    4.49 
  -1  -4  -2  100.49    4.46 
  -1  -4  -2  106.29    4.48 
  -1  -4  -2  117.80    4.48 
  -1  -4  -2  109.90    4.53 
   1  -4   2  109.68    4.48 
  -1  -4  -2  107.80    4.51 
   1  -4   2  101.07    4.47 
  -1  -4  -2  110.79    4.47 
   1  -4   2  108.51    4.47 
   1  -4   2  107.41    4.49 
   1  -4   2  107.67    4.44 
  -1   4  -3   42.46    1.95 
   1   4   3   42.55    2.00 
   1   4   3   41.55    2.04 
  -1   4  -3   44.63    2.07 
   1   4   3   41.66    1.95 
  -1   4  -3   42.29    2.05 
   1   4   3   43.65    2.22 
  -1   4  -3   43.99    2.02 
  -1   4  -3   44.02    1.93 
  -1   4  -3   42.96    1.91 
   1   4   3   43.32    2.01 
  -1   4  -3   43.49    1.99 
  -1   4  -3   45.33    2.00 
   1  -4   3   44.99    1.92 
  -1  -4  -3   45.74    2.00 
  -1  -4  -3   44.61    1.99 
  -1  -4  -3   45.47    1.95 
  -1  -4  -3   43.65    1.97 
  -1  -4  -3   42.97    2.00 
   1  -4   3   45.28    1.96 
  -1  -4  -3   43.41    1.94 
   1  -4   3   44.11    1.89 
   1  -4   3   45.53    1.96 
   1  -4   3   40.36    1.92 
   1  -4   3   43.29    2.00 
  -1  -4  -3   44.52    2.03 
  -1   4  -4   10.71    1.11 
  -1   4  -4    9.51    0.65 
  -1   4  -4   10.30    0.97 
   1   4   4    8.72    1.03 
   1   4   4    9.62    0.75 
  -1   4  -4    9.47    0.62 
  -1   4  -4   10.07    0.87 
  -1   4  -4    9.82    0.80 
   1   4   4    9.18    0.88 
   1   4   4   10.92    0.80 
  -1   4  -4    9.13    0.71 
   1   4   4   10.57    0.88 
   1  -4   4    9.44    0.75 
  -1  -4  -4   10.46    0.71 
   1  -4   4    9.11    0.82 
  -1  -4  -4    9.29    0.75 
  -1  -4  -4    8.69    0.76 
  -1  -4  -4   10.24    0.79 
   1  -4   4    9.82    0.71 
   1  -4   4    9.87    0.64 
  -1  -4  -4   11.53    0.87 
   1  -4   4    9.23    0.59 
  -1  -4  -4   10.62    0.83 
  -1  -4  -4    9.36    0.74 
   1  -4   4   10.91    0.69 
  -1   4  -5    1.57    0.36 
  -1   4  -5    1.70    0.48 
  -1   4  -5    1.62    0.47 
  -1   4  -5    1.39    0.56 
  -1   4  -5    0.83    0.53 
   1   4   5    0.74    0.61 
   1   4   5    1.85    0.60 
   1   4   5    1.00    0.37 
   1   4   5    0.76    0.42 
   1   4   5    1.75    0.43 
  -1   4  -5    1.53    0.31 
  -1  -4  -5    1.53    0.44 
  -1  -4  -5    1.82    0.41 
  -1  -4  -5    1.10    0.44 
  -1  -4  -5    1.09    0.50 
   1  -4   5    0.92    0.26 
   1  -4   5    3.05    0.51 
   1  -4   5    1.37    0.50 
  -1  -4  -5    1.61    0.34 
   1  -4   5    1.64    0.37 
  -1  -4  -5    1.89    0.44 
  -1  -4  -5    1.76    0.39 
  -1   4  -6  183.07    7.71 
   1   4   6  188.30    7.55 
  -1   4  -6  181.28    7.46 
   1   4   6  170.31    7.68 
   1   4   6  191.25    7.57 
  -1   4  -6  191.12    7.55 
  -1   4  -6  178.74    7.51 
   1   4   6  179.49    7.50 
  -1   4  -6  188.40    7.63 
   1   4   6  192.48    7.74 
  -1   4  -6  185.35    7.58 
  -1  -4  -6  178.93    7.53 
  -1  -4  -6  181.37    7.54 
  -1  -4  -6  181.07    7.50 
  -1  -4  -6  174.37    7.55 
   1  -4   6  183.13    7.49 
  -1  -4  -6  185.47    7.58 
  -1  -4  -6  188.80    7.65 
   1  -4   6  180.87    7.62 
  -1  -4  -6  176.21    7.53 
  -1   4  -7  122.25    5.23 
  -1   4  -7  122.07    5.01 
   1   4   7  118.61    5.53 
  -1   4  -7  124.12    5.19 
  -1   4  -7  124.73    5.01 
  -1   4  -7  118.93    5.15 
  -1   4  -7  115.52    5.25 
   1   4   7  120.06    5.22 
   1   4   7  122.67    5.10 
   1   4   7  125.75    5.15 
   1  -4   7  121.62    5.11 
   1  -4   7  124.14    5.29 
   1  -4   7  120.75    4.97 
  -1  -4  -7  121.50    5.12 
  -1  -4  -7  124.71    5.16 
  -1  -4  -7  118.09    5.14 
  -1  -4  -7  124.82    5.09 
  -1  -4  -7  119.81    5.11 
   1   4   8   91.16    4.10 
  -1   4  -8   93.59    4.09 
  -1   4  -8   93.73    4.13 
  -1   4  -8   92.06    3.82 
   1   4   8   97.69    3.93 
   1   4   8   89.26    4.86 
  -1   4  -8   86.94    4.04 
   1   4   8   96.26    4.02 
  -1  -4  -8   90.95    3.95 
   1  -4   8   91.39    4.28 
  -1  -4  -8   93.48    4.04 
  -1  -4  -8   91.39    3.98 
  -1  -4  -8   87.78    4.09 
  -1  -4  -8   89.07    3.93 
  -1   4  -9   38.15    2.22 
  -1   4  -9   34.36    2.40 
   1   4   9   37.40    2.14 
  -1   4  -9   33.67    2.15 
   1   4   9   40.14    1.86 
   1   4   9   37.38    1.97 
  -1   4  -9   37.69    1.66 
  -1  -4  -9   38.19    3.05 
  -1  -4  -9   36.54    1.89 
  -1  -4  -9   37.24    1.98 
  -1  -4  -9   36.02    1.89 
   1   4  10   35.26    2.24 
  -1   4 -10   37.90    1.64 
   1   4  10   40.00    1.92 
  -1   4 -10   34.44    2.53 
   1   4  10   37.96    2.06 
  -1   4 -10   35.58    2.26 
  -1  -4 -10   35.81    1.93 
  -1  -4 -10   35.83    1.96 
  -1  -4 -10   35.08    2.28 
   1   4  11   -1.62    1.09 
  -1   4 -11   -2.12    2.07 
  -1   4 -11   -0.08    1.19 
  -1   4 -11    1.84    1.06 
  -1  -4 -11    1.75    1.08 
  -1  -4 -11    0.88    0.78 
  -1   5  10  159.20    7.22 
   1   5 -10  167.83    7.26 
   1   5 -10  170.99    7.42 
   1  -5 -10  169.07    7.09 
   1  -5 -10  175.06    7.15 
   1   5  -9   19.36    1.82 
  -1   5   9   15.70    1.63 
   1   5  -9   18.47    1.66 
   1  -5  -9   17.97    1.34 
   1  -5  -9   17.95    1.54 
   1   5  -8  102.15    4.55 
   1   5  -8   98.34    4.34 
   1   5  -8  100.93    4.54 
  -1   5   8  108.33    4.49 
  -1   5   8  102.30    4.55 
   1  -5  -8   96.78    4.42 
   1  -5  -8   97.75    4.39 
   1  -5  -8  103.54    4.46 
  -1  -5   8  103.92    4.74 
   1  -5  -8  106.28    4.53 
   1   5  -7    0.62    0.59 
   1   5  -7    1.19    0.55 
   1   5  -7    0.97    0.74 
  -1   5   7    2.56    1.46 
  -1   5   7    1.52    0.65 
   1   5  -7    0.39    0.58 
   1   5  -7    0.56    0.33 
   1   5  -7    1.48    0.36 
  -1   5   7    0.48    0.56 
  -1  -5   7    1.40    0.43 
   1  -5  -7    0.68    0.48 
  -1  -5   7    0.23    0.76 
   1  -5  -7    0.70    0.60 
   1  -5  -7    1.33    0.63 
   1  -5  -7    0.52    0.55 
  -1  -5   7    0.82    0.34 
   1   5  -6    3.00    0.71 
  -1   5   6    2.35    0.98 
   1   5  -6    2.10    0.59 
   1   5  -6    2.38    0.38 
   1   5  -6    2.97    0.38 
   1   5  -6    2.93    0.39 
  -1   5   6    2.98    0.31 
  -1   5   6    3.56    0.69 
  -1   5   6    2.14    0.53 
   1   5  -6    4.46    0.80 
   1   5  -6    3.26    0.71 
  -1   5   6    2.95    0.68 
  -1  -5   6    2.81    0.46 
  -1  -5   6    2.16    0.69 
   1  -5  -6    2.78    0.90 
   1  -5  -6    3.33    0.59 
   1  -5  -6    2.93    0.50 
  -1  -5   6    2.09    0.39 
   1  -5  -6    2.64    0.53 
   1  -5  -6    3.29    0.72 
   1  -5  -6    3.15    0.58 
   1   5  -5   -0.47    0.67 
  -1   5   5    0.92    0.47 
   1   5  -5   -0.11    0.47 
   1   5  -5    0.17    0.47 
   1   5  -5    0.34    0.29 
   1   5  -5    0.12    0.24 
   1   5  -5    1.06    0.65 
  -1   5   5    0.48    0.49 
  -1   5   5    0.21    0.74 
  -1   5   5    0.39    0.52 
   1   5  -5    0.12    0.43 
  -1   5   5    0.13    0.52 
   1  -5  -5   -0.03    0.46 
  -1  -5   5    0.43    0.40 
   1  -5  -5    0.17    0.68 
   1  -5  -5    0.47    0.39 
   1  -5  -5    0.62    0.49 
  -1  -5   5    0.34    0.31 
  -1  -5   5    0.65    0.38 
  -1  -5   5    0.36    0.58 
   1  -5  -5    0.81    0.46 
   1  -5  -5    0.09    0.43 
  -1  -5   5    0.13    0.30 
   1   5  -4  280.14   12.11 
  -1   5   4  309.61   12.13 
   1   5  -4  283.44   11.90 
  -1   5   4  300.42   12.05 
   1   5  -4  294.24   12.05 
  -1   5   4  289.45   12.10 
   1   5  -4  291.36   12.01 
   1   5  -4  302.13   12.06 
   1   5  -4  296.92   12.01 
  -1   5   4  291.27   12.12 
   1   5  -4  299.07   12.11 
   1   5  -4  291.65   11.89 
  -1   5   4  283.65   12.13 
   1  -5  -4  293.33   12.08 
   1  -5  -4  299.70   12.07 
   1  -5  -4  291.54   12.09 
  -1  -5   4  293.60   12.02 
  -1  -5   4  302.94   11.99 
  -1  -5   4  297.76   12.01 
   1  -5  -4  308.30   12.12 
   1  -5  -4  311.85   12.12 
  -1  -5   4  306.91   12.05 
  -1  -5   4  293.54   12.11 
  -1   5   3   47.09    2.22 
   1   5  -3   47.57    2.20 
  -1   5   3   46.08    2.15 
  -1   5   3   46.97    2.23 
  -1   5   3   46.92    2.16 
   1   5  -3   46.71    2.08 
   1   5  -3   46.36    2.07 
  -1   5   3   46.00    2.26 
  -1   5   3   46.87    2.19 
   1   5  -3   47.72    2.25 
  -1   5   3   45.56    2.14 
   1   5  -3   45.56    2.15 
   1   5  -3   46.49    2.15 
   1  -5  -3   49.66    2.20 
   1  -5  -3   47.07    2.21 
  -1  -5   3   45.83    2.12 
   1  -5  -3   45.67    2.16 
  -1  -5   3   48.79    2.07 
  -1  -5   3   46.98    2.11 
  -1  -5   3   45.93    2.10 
   1  -5  -3   45.77    2.12 
   1  -5  -3   45.63    2.16 
  -1  -5   3   45.58    2.19 
  -1   5   2  302.96   12.35 
   1   5  -2  298.97   12.41 
   1   5  -2  301.91   12.20 
   1   5  -2  300.87   12.40 
   1   5  -2  314.67   12.40 
  -1   5   2  299.76   12.35 
  -1   5   2  312.85   12.44 
   1   5  -2  298.06   12.35 
  -1   5   2  288.16   12.43 
  -1   5   2  307.32   12.39 
  -1   5   2  310.72   12.41 
   1   5  -2  321.28   12.41 
  -1   5   2  306.84   12.37 
   1   5  -2  307.24   12.35 
   1  -5  -2  298.29   12.51 
  -1  -5   2  304.92   12.20 
  -1  -5   2  318.71   12.39 
   1  -5  -2  297.99   12.39 
  -1  -5   2  310.86   12.36 
  -1  -5   2  294.02   12.37 
  -1  -5   2  289.59   12.51 
  -1  -5   2  300.60   12.39 
   1  -5  -2  312.11   12.38 
   1  -5  -2  300.75   12.41 
   1  -5  -2  300.51   12.39 
   1  -5  -2  312.29   12.38 
   1   5  -1   13.44    0.97 
  -1   5   1   14.61    1.01 
  -1   5   1   11.82    0.79 
   1   5  -1   12.55    0.82 
   1   5  -1   12.38    0.91 
  -1   5   1    9.90    0.92 
   1   5  -1   11.52    0.90 
  -1   5   1   12.23    0.87 
  -1   5   1   12.35    0.85 
   1   5  -1   11.66    0.81 
  -1   5   1   12.32    0.83 
   1   5  -1   12.40    0.90 
  -1   5   1   11.61    0.96 
   1   5  -1   12.56    0.61 
  -1  -5   1   12.64    0.86 
   1  -5  -1   11.53    0.81 
  -1  -5   1   12.56    0.87 
  -1  -5   1   11.88    0.86 
  -1  -5   1   12.81    0.89 
   1  -5  -1   11.85    0.85 
  -1  -5   1   11.04    0.79 
   1  -5  -1   11.71    0.89 
   1  -5  -1   12.56    0.93 
  -1  -5   1   12.77    0.79 
   1   5   0   42.23    1.98 
  -1   5   0   41.54    1.93 
   1   5   0   42.08    1.80 
  -1   5   0   41.30    1.98 
   1   5   0   40.16    1.97 
  -1   5   0   42.72    1.93 
  -1   5   0   42.06    2.00 
   1   5   0   41.68    2.01 
   1   5   0   41.14    1.92 
  -1   5   0   40.68    1.93 
   1   5   0   43.64    2.00 
  -1   5   0   42.84    1.99 
   1   5   0   40.40    1.92 
  -1   5   0   41.32    1.86 
   1  -5   0   42.18    1.96 
   1  -5   0   43.62    2.02 
  -1  -5   0   44.16    1.96 
  -1  -5   0   41.50    1.94 
   1  -5   0   42.65    1.97 
  -1  -5   0   40.93    1.95 
  -1  -5   0   42.98    1.86 
   1  -5   0   41.06    1.94 
  -1  -5   0   40.64    1.94 
   1  -5   0   42.42    1.99 
  -1  -5   0   42.37    1.98 
  -1  -5   0   42.12    1.96 
  -1   5  -1   10.27    0.68 
   1   5   1   10.46    0.87 
  -1   5  -1   11.50    0.90 
  -1   5  -1   10.49    0.85 
  -1   5  -1   10.81    0.81 
   1   5   1   11.86    0.91 
  -1   5  -1   10.73    0.89 
   1   5   1    9.53    0.87 
   1   5   1   11.12    0.91 
   1   5   1    9.56    0.80 
  -1   5  -1    9.69    0.83 
  -1   5  -1   11.61    0.78 
   1   5   1   10.18    0.67 
  -1   5  -1   10.98    0.78 
  -1  -5  -1    9.38    0.73 
   1  -5   1   10.73    1.09 
  -1  -5  -1   10.78    0.87 
  -1  -5  -1    9.98    0.78 
   1  -5   1    9.10    0.81 
  -1  -5  -1   11.16    0.80 
  -1  -5  -1    9.80    0.78 
   1  -5   1   10.49    0.82 
   1  -5   1   10.25    0.80 
   1  -5   1    9.60    0.73 
  -1  -5  -1    9.40    0.83 
   1  -5   1   11.24    0.85 
  -1   5  -2  216.44    8.76 
  -1   5  -2  203.24    8.83 
  -1   5  -2  221.47    8.82 
   1   5   2  201.26    8.75 
   1   5   2  209.36    8.78 
   1   5   2  209.28    8.82 
  -1   5  -2  225.15    8.75 
   1   5   2  218.58    8.83 
  -1   5  -2  224.01    8.80 
   1   5   2  206.56    8.84 
  -1   5  -2  208.03    8.69 
  -1   5  -2  214.87    8.80 
   1   5   2  215.57    8.73 
  -1   5  -2  218.83    8.81 
   1  -5   2  213.96    8.79 
  -1  -5  -2  211.47    8.76 
  -1  -5  -2  210.17    8.80 
   1  -5   2  225.50    8.80 
   1  -5   2  210.50    8.73 
  -1  -5  -2  218.39    8.74 
   1  -5   2  220.52    8.78 
  -1  -5  -2  212.61    8.75 
  -1  -5  -2  213.29    8.79 
  -1  -5  -2  208.56    8.77 
  -1  -5  -2  218.23    8.83 
   1  -5   2  208.57    8.77 
  -1   5  -3   53.29    2.41 
  -1   5  -3   53.64    2.34 
  -1   5  -3   53.85    2.45 
  -1   5  -3   55.07    2.52 
  -1   5  -3   52.38    2.36 
   1   5   3   53.10    2.47 
  -1   5  -3   52.72    2.34 
   1   5   3   52.83    2.51 
  -1   5  -3   54.30    2.46 
   1   5   3   55.30    2.47 
   1   5   3   51.27    2.40 
   1   5   3   53.82    2.63 
  -1   5  -3   51.38    2.45 
   1  -5   3   53.61    2.32 
   1  -5   3   53.98    2.40 
  -1  -5  -3   51.75    2.38 
  -1  -5  -3   56.89    2.42 
   1  -5   3   49.64    2.36 
  -1  -5  -3   54.28    2.41 
  -1  -5  -3   52.14    2.45 
   1  -5   3   56.91    2.40 
  -1  -5  -3   54.47    2.36 
   1  -5   3   50.76    2.43 
  -1  -5  -3   54.10    2.49 
  -1  -5  -3   53.23    2.44 
   1  -5   3   52.34    2.30 
  -1   5  -4  270.93   11.08 
  -1   5  -4  282.77   11.16 
  -1   5  -4  269.13   11.14 
  -1   5  -4  270.59   11.16 
   1   5   4  260.85   11.18 
   1   5   4  271.04   11.23 
  -1   5  -4  271.20   11.12 
   1   5   4  273.80   11.13 
  -1   5  -4  270.35   11.20 
   1   5   4  288.13   11.21 
  -1   5  -4  281.35   11.24 
  -1   5  -4  266.21   11.10 
  -1  -5  -4  271.57   11.14 
  -1  -5  -4  269.73   11.16 
  -1  -5  -4  268.48   11.11 
   1  -5   4  273.85   11.17 
  -1  -5  -4  238.85   11.14 
   1  -5   4  283.26   11.13 
   1  -5   4  263.53   11.10 
  -1  -5  -4  267.10   11.18 
   1  -5   4  282.78   11.06 
  -1  -5  -4  293.25   11.18 
   1  -5   4  268.81   11.11 
   1  -5   4  284.87   11.05 
  -1  -5  -4  280.84   11.20 
  -1   5  -5    5.11    0.74 
   1   5   5    5.11    0.70 
  -1   5  -5    5.63    0.52 
   1   5   5    5.35    0.83 
  -1   5  -5    4.89    0.78 
   1   5   5    6.85    0.70 
  -1   5  -5    5.18    0.53 
   1   5   5    4.68    0.91 
  -1   5  -5    6.38    0.92 
  -1   5  -5    5.75    0.71 
  -1   5  -5    5.77    0.59 
  -1   5  -5    5.37    0.68 
   1   5   5    5.71    0.65 
   1  -5   5    5.71    0.58 
  -1  -5  -5    5.93    0.68 
  -1  -5  -5    4.42    0.60 
   1  -5   5    6.15    0.67 
  -1  -5  -5    4.54    0.53 
  -1  -5  -5    5.42    0.76 
   1  -5   5    5.06    0.70 
  -1  -5  -5    5.18    0.71 
  -1  -5  -5    5.79    0.68 
  -1  -5  -5    3.93    0.51 
  -1   5  -6  122.82    5.13 
  -1   5  -6  118.57    5.27 
   1   5   6  119.91    5.30 
   1   5   6  120.50    5.12 
  -1   5  -6  115.51    5.16 
   1   5   6  122.86    5.10 
   1   5   6  117.78    5.17 
  -1   5  -6  125.18    5.01 
  -1   5  -6  116.60    5.03 
  -1  -5  -6  122.69    5.11 
   1  -5   6  114.41    4.96 
  -1  -5  -6  118.12    5.14 
  -1  -5  -6  117.95    5.06 
  -1  -5  -6  116.56    5.07 
  -1  -5  -6  119.54    4.99 
   1  -5   6  121.38    5.01 
   1  -5   6  114.22    5.15 
  -1  -5  -6  123.98    5.03 
  -1  -5  -6  121.92    5.21 
  -1   5  -7    7.35    1.08 
   1   5   7    7.35    0.75 
  -1   5  -7    7.81    0.68 
  -1   5  -7    6.79    0.97 
  -1   5  -7    7.73    0.86 
  -1   5  -7    7.57    0.71 
  -1   5  -7    5.43    0.81 
   1   5   7    7.47    0.71 
   1   5   7    7.22    1.39 
   1   5   7    7.00    0.85 
   1  -5   7    7.78    0.67 
  -1  -5  -7    9.24    0.91 
   1  -5   7    7.94    0.73 
  -1  -5  -7    7.93    0.72 
  -1  -5  -7    5.54    0.63 
  -1  -5  -7    8.14    0.83 
  -1  -5  -7    7.44    0.73 
   1  -5   7    6.26    0.94 
  -1   5  -8   13.70    1.18 
  -1   5  -8   17.50    1.52 
  -1   5  -8   13.05    1.18 
   1   5   8   13.64    1.32 
   1   5   8   16.88    1.12 
   1   5   8   14.70    2.12 
  -1   5  -8   13.50    1.31 
  -1   5  -8   14.80    0.93 
   1   5   8   15.16    1.55 
  -1  -5  -8   15.02    1.61 
   1  -5   8   15.02    1.41 
  -1  -5  -8   16.44    1.20 
   1  -5   8   13.98    1.36 
  -1  -5  -8   14.13    1.37 
  -1  -5  -8   13.18    1.28 
  -1  -5  -8   14.00    1.19 
   1  -5   8   14.81    0.85 
   1   5   9   13.42    1.14 
  -1   5  -9   13.64    1.40 
   1   5   9   12.91    1.28 
  -1   5  -9   12.95    0.92 
  -1   5  -9   13.96    1.30 
  -1  -5  -9   12.23    1.26 
  -1  -5  -9   15.33    1.26 
  -1   5 -10  146.23    6.28 
  -1   5 -10  116.75    7.40 
  -1   5 -10  146.75    5.82 
   1   5  10  128.31    6.25 
  -1  -5 -10  147.13    6.07 
  -1  -5 -10  147.62    6.26 
  -1  -5 -10  148.05    6.01 
   1   6  -9    2.79    1.08 
  -1   6   9    3.05    1.07 
   1  -6  -9    2.21    0.97 
   1  -6  -9    4.46    0.87 
   1   6  -8  143.18    6.17 
  -1   6   8  143.10    6.35 
   1   6  -8  146.81    6.34 
   1   6  -8  145.03    6.25 
  -1  -6   8  145.45    6.45 
  -1  -6   8  143.98    5.98 
  -1  -6   8  145.98    6.04 
   1  -6  -8  144.82    6.19 
   1  -6  -8  152.04    6.26 
   1   6  -7   54.54    2.69 
  -1   6   7   52.55    2.77 
   1   6  -7   51.50    2.76 
  -1   6   7   56.08    2.81 
   1   6  -7   52.84    2.41 
   1   6  -7   55.41    2.43 
   1   6  -7   54.38    2.46 
   1   6  -7   51.43    2.40 
   1  -6  -7   53.12    2.74 
  -1  -6   7   53.93    2.85 
   1  -6  -7   53.51    2.77 
  -1  -6   7   56.30    2.48 
   1  -6  -7   53.78    2.61 
   1  -6  -7   54.80    2.69 
  -1  -6   7   53.84    2.41 
   1   6  -6  109.79    5.10 
   1   6  -6  126.34    5.06 
   1   6  -6  124.71    5.20 
  -1   6   6  113.44    5.47 
  -1   6   6  135.15    5.09 
   1   6  -6  123.84    5.41 
  -1   6   6  121.40    5.44 
   1   6  -6  125.14    5.19 
  -1   6   6  135.41    5.44 
  -1  -6   6  130.55    5.13 
   1  -6  -6  124.16    5.32 
  -1  -6   6  125.20    5.20 
  -1  -6   6  118.09    5.42 
  -1  -6   6  129.52    5.25 
   1  -6  -6  124.82    5.38 
   1  -6  -6  126.43    5.33 
   1  -6  -6  122.24    5.36 
   1   6  -5   70.27    3.11 
  -1   6   5   68.75    3.18 
  -1   6   5   71.99    3.23 
   1   6  -5   64.90    3.00 
  -1   6   5   69.02    3.24 
  -1   6   5   70.30    3.09 
   1   6  -5   68.34    3.46 
   1   6  -5   67.57    2.99 
  -1  -6   5   72.07    2.97 
   1  -6  -5   67.81    3.12 
   1  -6  -5   64.58    3.10 
   1  -6  -5   68.72    3.20 
   1  -6  -5   70.92    3.27 
   1  -6  -5   64.84    3.14 
   1  -6  -5   67.77    3.25 
  -1  -6   5   68.56    3.01 
  -1  -6   5   73.29    3.08 
  -1  -6   5   69.33    3.21 
   1   6  -4  136.92    5.79 
  -1   6   4  134.08    5.86 
  -1   6   4  143.53    5.90 
   1   6  -4  138.22    5.80 
   1   6  -4  135.56    5.89 
   1   6  -4  135.80    5.85 
  -1   6   4  142.94    5.95 
  -1   6   4  139.33    5.96 
  -1   6   4  125.97    6.00 
   1   6  -4  139.01    5.94 
  -1   6   4  131.66    5.97 
  -1  -6   4  135.86    5.81 
  -1  -6   4  145.42    5.78 
  -1  -6   4  136.12    5.91 
   1  -6  -4  141.57    5.87 
   1  -6  -4  142.20    5.92 
  -1  -6   4  141.91    5.91 
   1  -6  -4  145.63    5.94 
  -1  -6   4  146.86    5.85 
   1  -6  -4  142.07    5.90 
   1  -6  -4  141.85    5.88 
   1  -6  -4  142.82    5.95 
   1   6  -3    1.91    0.56 
   1   6  -3    3.13    0.49 
  -1   6   3    2.00    0.65 
   1   6  -3    3.82    0.68 
   1   6  -3    2.38    0.72 
  -1   6   3    3.29    0.61 
   1   6  -3    2.87    0.48 
  -1   6   3    2.61    0.61 
  -1   6   3    3.09    0.68 
   1   6  -3    2.04    0.47 
  -1   6   3    2.14    0.56 
  -1   6   3    2.49    0.73 
  -1   6   3    2.35    0.52 
  -1  -6   3    2.64    0.46 
   1  -6  -3    2.28    0.49 
   1  -6  -3    3.24    0.66 
   1  -6  -3    2.48    0.56 
   1  -6  -3    2.96    0.69 
  -1  -6   3    2.67    0.49 
   1  -6  -3    2.91    0.72 
  -1  -6   3    2.65    0.61 
   1  -6  -3    2.69    0.49 
  -1  -6   3    2.67    0.57 
  -1  -6   3    2.98    0.50 
   1   6  -2  110.42    4.52 
   1   6  -2  106.27    4.61 
  -1   6   2  106.17    4.63 
  -1   6   2  105.05    4.62 
   1   6  -2  103.39    4.56 
   1   6  -2  106.50    4.50 
  -1   6   2  104.91    4.60 
   1   6  -2  105.08    4.57 
  -1   6   2  106.05    4.52 
  -1   6   2  109.16    4.54 
  -1   6   2  104.95    4.54 
  -1   6   2  105.78    4.48 
   1   6  -2  109.42    4.58 
  -1  -6   2  108.65    4.54 
   1  -6  -2  102.42    4.56 
   1  -6  -2  104.33    4.55 
  -1  -6   2  111.20    4.55 
  -1  -6   2  102.71    4.51 
   1  -6  -2  108.06    4.60 
  -1  -6   2  104.27    4.54 
   1  -6  -2  103.77    4.57 
   1  -6  -2  104.91    4.52 
   1  -6  -2  107.83    4.55 
   1   6  -1   27.43    1.50 
  -1   6   1   26.58    1.60 
  -1   6   1   32.09    1.57 
  -1   6   1   28.61    1.43 
   1   6  -1   29.85    1.72 
  -1   6   1   28.35    1.53 
   1   6  -1   30.05    1.61 
   1   6  -1   29.87    1.63 
  -1   6   1   31.03    1.65 
  -1   6   1   28.32    1.56 
   1   6  -1   27.61    1.27 
  -1   6   1   26.99    1.66 
   1   6  -1   28.26    1.59 
   1   6  -1   29.44    1.50 
  -1  -6   1   28.58    1.58 
   1  -6  -1   30.32    1.63 
  -1  -6   1   27.69    1.46 
  -1  -6   1   28.22    1.58 
   1  -6  -1   27.90    1.57 
  -1  -6   1   29.80    1.40 
  -1  -6   1   29.35    1.53 
   1  -6  -1   29.51    1.57 
  -1  -6   1   28.52    1.54 
   1  -6  -1   29.15    1.51 
   1  -6  -1   30.38    1.66 
  -1   6   0  202.92    8.26 
   1   6   0  200.67    8.34 
   1   6   0  207.40    8.42 
  -1   6   0  201.94    8.34 
  -1   6   0  209.52    8.43 
  -1   6   0  194.45    8.40 
  -1   6   0  205.92    8.39 
  -1   6   0  200.44    8.35 
  -1   6   0  209.20    8.37 
   1   6   0  205.09    8.40 
   1   6   0  191.95    8.41 
   1   6   0  208.24    8.36 
   1   6   0  193.85    8.38 
   1   6   0  199.08    8.21 
  -1  -6   0  203.96    8.34 
   1  -6   0  206.76    8.38 
  -1  -6   0  205.46    8.38 
   1  -6   0  208.97    8.40 
   1  -6   0  197.66    8.38 
   1  -6   0  195.83    8.49 
  -1  -6   0  204.86    8.40 
   1  -6   0  202.35    8.37 
  -1  -6   0  204.20    8.36 
   1  -6   0  201.79    8.34 
  -1  -6   0  197.02    8.35 
  -1  -6   0  206.76    8.31 
   1   6   1   64.12    3.01 
   1   6   1   66.57    2.99 
  -1   6  -1   66.59    2.95 
  -1   6  -1   66.01    3.00 
  -1   6  -1   68.00    2.80 
   1   6   1   68.44    3.02 
   1   6   1   64.78    3.00 
   1   6   1   66.07    2.80 
   1   6   1   65.44    2.94 
  -1   6  -1   65.93    2.94 
  -1   6  -1   66.85    3.02 
  -1   6  -1   63.92    2.89 
  -1   6  -1   64.36    2.91 
   1  -6   1   66.18    2.94 
  -1  -6  -1   63.38    2.91 
  -1  -6  -1   67.99    3.01 
  -1  -6  -1   60.52    2.90 
   1  -6   1   63.12    2.95 
  -1  -6  -1   69.36    2.87 
   1  -6   1   65.20    2.87 
   1  -6   1   62.86    2.92 
  -1  -6  -1   62.45    2.94 
   1  -6   1   61.65    3.04 
   1  -6   1   69.61    2.98 
  -1  -6  -1   65.24    2.91 
  -1  -6  -1   64.99    2.99 
  -1   6  -2  268.82   11.10 
  -1   6  -2  275.06   11.17 
   1   6   2  270.31   11.14 
  -1   6  -2  275.07   11.13 
  -1   6  -2  270.91   11.16 
  -1   6  -2  262.47   11.16 
  -1   6  -2  272.00   11.17 
   1   6   2  267.43   11.20 
   1   6   2  273.65   11.18 
  -1   6  -2  264.27   11.01 
   1   6   2  275.81   11.21 
  -1   6  -2  272.71   11.19 
   1   6   2  273.51   11.23 
  -1  -6  -2  289.25   11.10 
   1  -6   2  268.30   11.15 
   1  -6   2  268.28   11.14 
  -1  -6  -2  277.64   11.20 
   1  -6   2  261.85   11.13 
  -1  -6  -2  268.95   11.12 
  -1  -6  -2  268.75   11.15 
  -1  -6  -2  273.91   11.10 
  -1  -6  -2  277.48   11.14 
   1  -6   2  265.83   11.06 
  -1  -6  -2  271.12   11.17 
   1  -6   2  290.72   11.17 
  -1   6  -3   24.28    1.34 
   1   6   3   25.90    1.59 
  -1   6  -3   25.42    1.38 
   1   6   3   27.99    1.68 
  -1   6  -3   25.39    1.61 
  -1   6  -3   24.70    1.68 
  -1   6  -3   22.94    1.40 
   1   6   3   24.93    1.78 
  -1   6  -3   26.84    1.65 
  -1   6  -3   25.90    1.25 
   1   6   3   27.91    1.55 
   1   6   3   26.42    1.62 
  -1   6  -3   23.32    1.50 
   1  -6   3   25.66    1.32 
  -1  -6  -3   26.33    1.56 
  -1  -6  -3   26.04    1.51 
  -1  -6  -3   24.61    1.57 
  -1  -6  -3   25.44    1.40 
   1  -6   3   25.00    1.27 
  -1  -6  -3   23.66    1.40 
  -1  -6  -3   25.74    1.46 
   1  -6   3   24.96    1.50 
   1  -6   3   23.11    1.50 
  -1  -6  -3   24.81    1.43 
  -1   6  -4    1.74    0.43 
   1   6   4    1.98    0.67 
   1   6   4    2.34    0.68 
  -1   6  -4    1.74    0.43 
  -1   6  -4    1.84    0.63 
  -1   6  -4    1.69    0.77 
  -1   6  -4    2.18    0.54 
  -1   6  -4    2.52    0.70 
   1   6   4    2.42    0.85 
   1   6   4    1.26    0.62 
   1   6   4    2.97    1.14 
  -1   6  -4    1.74    0.43 
   1  -6   4    2.14    0.43 
  -1  -6  -4    2.19    0.64 
  -1  -6  -4    2.03    0.73 
  -1  -6  -4    1.65    0.65 
  -1  -6  -4    2.01    0.54 
   1  -6   4    2.68    0.40 
  -1  -6  -4    2.38    0.58 
   1  -6   4    1.56    0.64 
  -1  -6  -4    2.31    0.50 
   1  -6   4    1.97    0.48 
  -1  -6  -4    1.66    0.49 
  -1   6  -5    9.69    0.80 
  -1   6  -5   12.07    1.25 
  -1   6  -5    8.93    0.86 
   1   6   5   10.91    1.01 
   1   6   5    9.19    1.09 
  -1   6  -5    9.34    0.98 
  -1   6  -5    9.77    0.84 
   1   6   5   10.09    1.04 
   1   6   5    8.23    0.98 
   1   6   5    9.25    1.25 
   1  -6   5   10.11    0.97 
  -1  -6  -5   10.09    0.89 
  -1  -6  -5   10.28    1.01 
  -1  -6  -5    9.78    1.02 
  -1  -6  -5    7.37    0.76 
  -1  -6  -5    8.84    0.95 
   1  -6   5    9.21    1.01 
   1  -6   5    8.91    0.86 
  -1  -6  -5    8.44    0.96 
  -1  -6  -5    6.93    0.80 
  -1   6  -6   55.35    2.63 
   1   6   6   51.59    2.80 
   1   6   6   56.73    2.74 
   1   6   6   58.16    2.76 
  -1   6  -6   54.01    2.74 
  -1   6  -6   54.95    2.69 
  -1   6  -6   54.64    2.48 
  -1  -6  -6   54.54    2.52 
  -1  -6  -6   55.07    2.62 
   1  -6   6   56.35    2.58 
   1  -6   6   53.10    2.47 
   1  -6   6   56.04    2.38 
  -1  -6  -6   54.47    2.57 
  -1  -6  -6   57.82    2.74 
   1  -6   6   54.28    2.74 
  -1  -6  -6   51.92    2.71 
  -1   6  -7   23.11    1.96 
   1   6   7   26.20    1.85 
   1   6   7   21.48    1.87 
  -1   6  -7   26.02    1.40 
   1   6   7   28.08    1.60 
  -1   6  -7   26.13    1.84 
  -1   6  -7   24.71    1.96 
  -1   6  -7   28.05    1.70 
  -1  -6  -7   28.98    2.52 
  -1  -6  -7   25.06    1.62 
  -1  -6  -7   25.21    1.89 
   1  -6   7   25.78    1.56 
   1  -6   7   24.89    1.38 
  -1  -6  -7   23.57    1.69 
  -1  -6  -7   27.18    1.59 
   1  -6   7   28.98    1.98 
   1   6   8  186.62    7.35 
  -1   6  -8  160.23    7.65 
   1   6   8  179.64    7.66 
  -1   6  -8  182.76    7.34 
  -1   6  -8  180.90    7.64 
  -1  -6  -8  170.65    7.47 
  -1  -6  -8  182.35    7.45 
   1  -6   8  183.33    7.73 
   1  -6   8  177.75    7.28 
   1  -6   8  174.67    7.42 
  -1   6  -9    8.88    1.27 
  -1   6  -9    9.15    0.76 
   1   6   9    7.34    1.29 
  -1  -6  -9    8.54    0.93 
   1  -6   9    9.72    1.73 
  -1  -6  -9    7.64    0.99 
   1   7  -8   19.48    2.02 
  -1   7   8   16.38    1.64 
  -1  -7   8   15.39    1.46 
  -1  -7   8   16.53    1.24 
  -1  -7   8   16.97    1.73 
   1  -7  -8   18.21    1.77 
   1  -7  -8   16.17    1.71 
  -1   7   7    8.49    1.25 
   1   7  -7    7.53    1.08 
  -1  -7   7    9.77    0.95 
   1  -7  -7    7.88    0.98 
  -1  -7   7    8.64    0.78 
   1  -7  -7    9.32    1.06 
  -1  -7   7    6.81    1.19 
  -1   7   6   -0.33    0.89 
   1   7  -6    0.72    0.61 
   1   7  -6    0.76    0.53 
   1   7  -6   -0.22    0.85 
  -1  -7   6    0.22    0.65 
   1  -7  -6    0.95    0.75 
  -1  -7   6   -0.08    0.90 
  -1  -7   6    0.91    0.55 
  -1  -7   6    1.09    0.67 
   1  -7  -6    0.60    0.87 
   1  -7  -6    0.22    0.76 
   1   7  -5   15.42    1.62 
   1   7  -5   15.26    1.56 
  -1   7   5   16.84    1.74 
   1   7  -5   14.89    1.25 
   1   7  -5   15.02    1.16 
  -1   7   5   15.72    1.62 
  -1   7   5   17.50    1.47 
  -1  -7   5   15.58    1.55 
  -1  -7   5   16.71    1.36 
   1  -7  -5   15.17    1.36 
   1  -7  -5   15.67    1.42 
   1  -7  -5   18.63    1.49 
   1  -7  -5   17.87    1.76 
  -1  -7   5   15.41    1.21 
  -1  -7   5   15.21    1.21 
   1   7  -4   41.98    2.33 
  -1   7   4   42.87    2.20 
   1   7  -4   43.78    2.31 
   1   7  -4   41.31    2.06 
  -1   7   4   38.95    2.36 
  -1   7   4   41.34    2.60 
   1   7  -4   39.36    2.08 
   1  -7  -4   40.78    2.39 
  -1  -7   4   42.64    2.10 
   1  -7  -4   42.87    2.40 
  -1  -7   4   41.93    2.28 
   1  -7  -4   40.95    2.41 
   1  -7  -4   43.39    2.22 
   1  -7  -4   44.00    2.29 
   1  -7  -4   45.09    2.23 
  -1  -7   4   44.19    2.19 
  -1  -7   4   44.37    2.09 
   1   7  -3  254.06   10.66 
   1   7  -3  252.24   10.67 
   1   7  -3  261.19   10.60 
   1   7  -3  254.53   10.73 
  -1   7   3  249.79   10.65 
  -1   7   3  265.97   10.76 
  -1   7   3  256.19   10.61 
  -1   7   3  250.82   10.74 
  -1   7   3  261.11   10.70 
  -1   7   3  275.61   10.68 
   1  -7  -3  263.38   10.73 
   1  -7  -3  265.15   10.65 
  -1  -7   3  244.99   10.64 
  -1  -7   3  266.27   10.58 
   1  -7  -3  262.07   10.67 
  -1  -7   3  256.55   10.68 
   1  -7  -3  259.72   10.69 
   1  -7  -3  251.99   10.68 
  -1   7   2   91.38    4.06 
  -1   7   2   88.41    3.83 
  -1   7   2   86.67    3.94 
   1   7  -2   93.55    3.99 
   1   7  -2   85.20    4.02 
  -1   7   2   89.66    3.94 
   1   7  -2   86.98    3.94 
  -1   7   2   92.60    3.94 
   1   7  -2   85.83    3.86 
   1   7  -2   85.44    3.86 
  -1   7   2   89.69    4.04 
   1  -7  -2   89.28    3.94 
  -1  -7   2   83.76    3.88 
  -1  -7   2   88.37    4.20 
   1  -7  -2   84.53    3.98 
   1  -7  -2   90.40    3.91 
  -1  -7   2   89.26    3.93 
   1  -7  -2   89.25    4.01 
   1  -7  -2   91.54    3.97 
   1  -7  -2   89.52    3.97 
  -1   7   1   51.29    2.47 
  -1   7   1   51.80    2.61 
  -1   7   1   48.00    2.30 
   1   7  -1   48.68    2.53 
  -1   7   1   52.61    2.45 
   1   7  -1   48.12    2.49 
  -1   7   1   52.13    2.39 
  -1   7   1   51.58    2.45 
   1   7  -1   50.19    2.60 
   1   7  -1   51.52    2.41 
   1   7  -1   50.43    2.42 
  -1   7   1   48.19    2.57 
  -1  -7   1   49.72    2.43 
   1  -7  -1   49.43    2.47 
  -1  -7   1   46.73    2.42 
   1  -7  -1   46.97    2.56 
   1  -7  -1   49.39    2.63 
  -1  -7   1   50.41    2.36 
  -1  -7   1   49.14    2.52 
   1  -7  -1   53.94    2.58 
   1  -7  -1   51.22    2.42 
   1  -7  -1   51.72    2.47 
  -1  -7   1   54.72    2.54 
  -1  -7   1   51.56    2.19 
  -1   7   0   20.41    1.38 
  -1   7   0   20.06    1.14 
  -1   7   0   20.88    1.37 
   1   7   0   20.47    1.45 
  -1   7   0   21.71    1.39 
   1   7   0   17.77    1.47 
  -1   7   0   19.32    1.49 
   1   7   0   20.39    1.59 
   1   7   0   19.97    1.47 
  -1   7   0   21.07    1.35 
  -1   7   0   18.91    1.56 
   1  -7   0   21.56    1.58 
  -1  -7   0   20.66    1.34 
  -1  -7   0   19.58    1.51 
  -1  -7   0   19.21    1.35 
  -1  -7   0   17.06    1.43 
  -1  -7   0   19.01    1.32 
   1  -7   0   19.02    1.36 
   1  -7   0   20.57    1.35 
   1  -7   0   22.31    1.51 
   1  -7   0   18.90    1.37 
   1  -7   0   19.84    1.75 
  -1  -7   0   18.52    1.55 
  -1   7  -1    6.22    0.75 
  -1   7  -1    5.14    0.66 
   1   7   1    5.38    0.81 
  -1   7  -1    4.37    0.81 
   1   7   1    5.81    0.80 
   1   7   1    5.38    0.85 
   1   7   1    4.75    0.86 
  -1   7  -1    4.72    0.68 
  -1   7  -1    4.37    0.85 
  -1   7  -1    5.54    0.53 
  -1   7  -1    4.82    0.77 
  -1  -7  -1    6.11    0.73 
   1  -7   1    4.63    0.70 
  -1  -7  -1    3.21    0.61 
  -1  -7  -1    5.00    0.82 
  -1  -7  -1    4.84    0.70 
   1  -7   1    4.88    0.71 
   1  -7   1    5.49    0.82 
  -1  -7  -1    5.48    0.71 
   1  -7   1    4.32    0.87 
  -1  -7  -1    5.53    0.82 
   1  -7   1    5.35    0.86 
   1  -7   1    4.92    0.65 
  -1   7  -2   10.22    1.07 
  -1   7  -2   10.78    1.20 
   1   7   2   10.31    0.97 
   1   7   2   10.28    1.05 
   1   7   2   11.66    1.09 
  -1   7  -2   11.74    1.14 
   1   7   2   12.42    1.34 
  -1   7  -2   12.19    0.82 
  -1   7  -2   11.76    1.21 
  -1   7  -2    9.88    1.05 
  -1   7  -2   10.10    1.09 
  -1  -7  -2   11.70    1.11 
   1  -7   2   10.99    1.21 
   1  -7   2    9.76    0.96 
   1  -7   2   12.55    1.00 
  -1  -7  -2   13.24    1.38 
  -1  -7  -2   11.03    1.12 
   1  -7   2   10.98    1.10 
  -1  -7  -2   12.43    1.20 
  -1  -7  -2   12.93    1.09 
  -1  -7  -2   12.08    1.20 
   1  -7   2   11.48    0.98 
   1   7   3  178.56    7.72 
  -1   7  -3  184.57    7.34 
  -1   7  -3  177.50    7.57 
  -1   7  -3  178.58    7.58 
  -1   7  -3  180.72    7.53 
   1   7   3  174.26    7.66 
   1   7   3  175.09    7.56 
   1   7   3  191.18    7.67 
  -1   7  -3  178.00    7.48 
  -1  -7  -3  184.77    7.54 
   1  -7   3  195.10    7.59 
  -1  -7  -3  189.55    7.53 
  -1  -7  -3  182.78    7.51 
   1  -7   3  181.17    7.35 
   1  -7   3  166.49    7.52 
   1  -7   3  184.72    7.47 
  -1  -7  -3  174.52    7.57 
   1  -7   3  165.63    7.67 
  -1  -7  -3  182.62    7.63 
  -1  -7  -3  176.35    7.61 
   1   7   4   64.58    3.61 
  -1   7  -4   58.45    2.83 
   1   7   4   67.32    3.16 
   1   7   4   62.14    3.16 
  -1   7  -4   60.38    3.00 
  -1   7  -4   65.22    2.68 
  -1   7  -4   63.64    2.87 
  -1   7  -4   62.85    3.03 
  -1  -7  -4   61.24    3.16 
  -1  -7  -4   54.31    3.32 
   1  -7   4   63.88    2.82 
  -1  -7  -4   62.14    2.87 
   1  -7   4   61.55    3.01 
   1  -7   4   63.65    2.67 
  -1  -7  -4   59.48    3.16 
  -1  -7  -4   62.05    3.04 
  -1  -7  -4   62.82    2.94 
   1  -7   4   64.18    2.93 
  -1  -7  -4   61.86    3.01 
   1  -7   4   63.07    2.88 
  -1   7  -5   58.08    2.72 
   1   7   5   57.73    3.08 
  -1   7  -5   60.97    2.96 
  -1   7  -5   57.27    2.56 
  -1   7  -5   53.19    2.93 
   1   7   5   51.75    3.45 
   1  -7   5   62.30    2.85 
  -1  -7  -5   60.42    2.79 
   1  -7   5   59.31    2.68 
  -1  -7  -5   61.64    3.16 
  -1  -7  -5   56.19    2.92 
  -1  -7  -5   61.38    2.85 
   1  -7   5   56.01    2.91 
   1  -7   5   62.47    2.74 
  -1  -7  -5   59.39    2.78 
  -1   7  -6   18.56    1.25 
  -1   7  -6   18.67    1.33 
   1   7   6   22.32    1.89 
  -1   7  -6   19.67    1.76 
   1   7   6   16.67    1.88 
  -1  -7  -6   17.94    1.54 
   1  -7   6   18.37    1.32 
   1  -7   6   19.80    1.53 
   1  -7   6   21.27    1.79 
  -1  -7  -6   19.06    1.53 
  -1  -7  -6   19.07    1.85 
   1  -7   6   19.02    1.34 
   1   7   7   21.18    2.11 
  -1   7  -7   22.19    1.44 
  -1   7  -7   23.13    2.00 
  -1  -7  -7   22.80    1.72 
  -1  -7  -7   22.62    1.72 
   1  -7   7   22.87    1.72 
   1  -7   7   24.44    2.12 
   1  -7   7   22.74    1.43 
   1   7   8   -0.59    1.14 
  -1   7  -8    0.55    0.63 
  -1   7  -8    1.67    1.11 
   1  -7   8    1.90    1.42 
  -1  -7  -8    0.24    0.89 
   1  -7   8    0.39    0.61 
  -1  -7  -8    0.43    0.88 
   1  -7   8    0.14    0.94 
   1   8  -7  114.47    5.39 
  -1   8   7  114.07    5.50 
   1  -8  -7  120.92    5.23 
  -1  -8   7  105.46    4.94 
   1  -8  -7  120.69    5.23 
  -1  -8   7  114.88    5.40 
   1   8  -6    4.36    1.10 
  -1   8   6    3.21    1.22 
  -1  -8   6    4.30    1.24 
   1  -8  -6    2.62    0.90 
  -1  -8   6    3.33    0.76 
   1  -8  -6    2.82    0.99 
   1   8  -5  158.27    6.78 
  -1   8   5  154.02    6.86 
   1  -8  -5  157.84    6.69 
  -1  -8   5  156.18    6.76 
  -1  -8   5  150.35    6.56 
   1  -8  -5  153.15    6.68 
   1  -8  -5  156.82    7.18 
   1   8  -4    5.52    1.03 
  -1   8   4    5.22    1.43 
  -1   8   4    3.02    1.79 
  -1   8   4    4.86    0.87 
  -1  -8   4    4.92    0.79 
   1  -8  -4    4.66    0.92 
   1  -8  -4    4.42    0.92 
   1  -8  -4    4.48    1.04 
  -1  -8   4    4.89    1.03 
   1   8  -3    3.94    0.90 
  -1   8   3    5.26    1.13 
  -1   8   3    6.82    1.36 
  -1   8   3    5.42    0.82 
  -1   8   3    5.37    0.80 
  -1   8   3    4.19    0.97 
   1   8  -3    5.52    1.21 
   1  -8  -3    7.11    1.17 
  -1  -8   3    4.35    0.74 
  -1  -8   3    5.68    0.97 
   1  -8  -3    4.64    0.98 
   1  -8  -3    5.62    1.25 
   1  -8  -3    5.03    0.94 
  -1  -8   3    5.42    1.15 
   1  -8  -3    3.83    1.05 
   1  -8  -3    4.45    0.89 
  -1   8   2   12.35    1.21 
   1   8  -2   13.89    1.33 
  -1   8   2   14.09    1.26 
  -1   8   2   12.37    1.25 
  -1   8   2   17.00    1.50 
   1   8  -2   13.71    1.51 
  -1   8   2   14.46    1.13 
   1   8  -2   15.33    1.25 
  -1   8   2   11.36    1.34 
  -1   8   2   13.88    1.27 
   1  -8  -2   14.36    1.41 
  -1  -8   2   14.39    1.62 
  -1  -8   2   12.28    1.16 
   1  -8  -2   15.63    1.53 
   1  -8  -2   13.83    1.20 
   1  -8  -2   14.86    1.20 
  -1  -8   2   11.59    1.51 
   1  -8  -2   16.52    1.47 
  -1  -8   2   16.91    1.37 
   1  -8  -2   16.72    1.49 
  -1   8   1   74.97    3.75 
  -1   8   1   78.93    3.61 
  -1   8   1   77.84    3.57 
   1   8  -1   74.10    3.68 
  -1   8   1   76.89    3.38 
  -1   8   1   80.77    3.60 
   1   8  -1   67.45    3.85 
  -1   8   1   78.61    3.89 
   1   8  -1   72.80    3.63 
  -1   8   1   77.58    3.71 
   1  -8  -1   77.94    3.62 
   1  -8  -1   80.58    3.99 
  -1  -8   1   81.90    3.72 
  -1  -8   1   76.33    3.52 
  -1  -8   1   78.79    3.61 
   1  -8  -1   74.46    3.54 
   1  -8  -1   80.04    3.78 
  -1  -8   1   76.88    3.56 
   1  -8  -1   81.17    3.60 
  -1   8   0    4.54    0.60 
   1   8   0    4.82    0.92 
   1   8   0    4.30    1.31 
   1   8   0    5.04    0.97 
   1   8   0    3.13    0.93 
  -1   8   0    4.73    0.98 
  -1   8   0    4.40    0.86 
  -1   8   0    3.76    0.91 
  -1   8   0    4.60    1.08 
  -1   8   0    4.94    0.82 
   1  -8   0    5.92    1.32 
  -1  -8   0    3.20    0.67 
  -1  -8   0    5.92    0.95 
   1  -8   0    4.19    0.82 
   1  -8   0    3.94    0.79 
  -1  -8   0    5.09    0.81 
  -1  -8   0    4.56    0.82 
   1  -8   0    5.26    1.26 
   1  -8   0    2.92    0.68 
   1   8   1  190.43    8.06 
   1   8   1  184.24    8.11 
  -1   8  -1  193.40    7.78 
  -1   8  -1  195.57    7.99 
  -1   8  -1  187.95    8.00 
  -1   8  -1  192.04    8.02 
  -1   8  -1  193.74    8.10 
   1   8   1  191.82    8.09 
   1   8   1  185.12    8.17 
   1  -8   1  187.32    8.01 
  -1  -8  -1  194.05    8.12 
  -1  -8  -1  190.02    8.02 
  -1  -8  -1  188.43    7.98 
   1  -8   1  193.43    8.07 
   1  -8   1  190.81    7.96 
  -1  -8  -1  183.65    8.01 
  -1  -8  -1  190.27    7.97 
   1  -8   1  193.74    7.95 
   1   8   2   15.37    1.41 
   1   8   2   14.74    1.35 
   1   8   2   11.23    1.27 
  -1   8  -2   17.30    1.58 
   1   8   2   12.02    1.37 
  -1   8  -2   14.62    1.51 
  -1   8  -2   15.03    1.37 
  -1   8  -2   15.57    0.93 
   1  -8   2   15.62    1.37 
   1  -8   2   14.90    1.39 
   1  -8   2   13.25    1.15 
  -1  -8  -2   15.55    1.39 
  -1  -8  -2   14.61    1.51 
  -1  -8  -2   15.05    1.45 
  -1  -8  -2   14.78    1.23 
   1  -8   2   10.71    1.10 
  -1  -8  -2   12.77    1.37 
  -1  -8  -2   12.64    1.29 
   1  -8   2   14.33    1.15 
  -1   8  -3   54.05    3.29 
  -1   8  -3   53.42    2.69 
  -1   8  -3   53.78    2.36 
   1   8   3   58.57    3.21 
   1   8   3   55.78    3.21 
   1   8   3   55.50    3.06 
  -1   8  -3   55.20    2.86 
  -1  -8  -3   55.43    2.75 
  -1  -8  -3   54.73    2.83 
   1  -8   3   54.05    2.84 
  -1  -8  -3   54.66    2.72 
   1  -8   3   55.55    2.72 
  -1  -8  -3   51.78    3.12 
  -1  -8  -3   56.27    2.93 
  -1  -8  -3   53.11    3.16 
  -1   8  -4    2.94    0.95 
  -1   8  -4    1.88    0.69 
   1   8   4    4.25    1.63 
  -1  -8  -4    3.50    0.91 
  -1  -8  -4    3.89    0.93 
   1  -8   4    3.80    1.01 
  -1  -8  -4    4.31    0.83 
   1  -8   4    3.29    0.75 
   1   8   5   37.63    2.79 
  -1   8  -5   43.61    2.59 
   1   8   5   39.97    3.41 
  -1   8  -5   43.22    2.26 
  -1  -8  -5   44.42    2.35 
  -1  -8  -5   47.52    3.86 
  -1  -8  -5   41.49    2.43 
   1  -8   5   40.09    2.53 
   1  -8   5   43.65    2.28 
  -1   8  -6    0.88    1.08 
  -1   8  -6    0.48    0.72 
   1   8   6    1.99    1.32 
  -1  -8  -6    1.07    0.92 
   1  -8   6    1.48    1.20 
   1  -8   6    0.67    0.71 
  -1  -8  -6    0.72    0.94 
  -1   8  -7  115.89    5.11 
   1   8   7  121.09    5.63 
  -1   8  -7  115.36    5.51 
  -1  -8  -7  118.69    5.33 
  -1  -8  -7  124.51    5.26 
   1  -8   7  112.84    5.08 
   1  -8   7  117.81    5.52 
   1   9  -5   48.33    3.09 
  -1   9   5   48.55    3.31 
   1  -9  -5   49.68    2.86 
   1  -9  -5   46.31    2.91 
  -1  -9   5   45.73    3.01 
  -1  -9   5   45.03    2.61 
   1   9  -4   52.67    3.10 
  -1   9   4   53.48    3.28 
   1  -9  -4   52.07    2.96 
   1  -9  -4   53.17    2.95 
  -1  -9   4   53.05    2.80 
  -1  -9   4   47.99    3.03 
  -1   9   3   72.68    4.09 
  -1   9   3   75.98    4.15 
   1   9  -3   74.87    3.82 
   1  -9  -3   77.84    3.70 
   1  -9  -3   76.51    3.70 
  -1  -9   3   74.27    3.62 
  -1  -9   3   71.83    3.71 
   1  -9  -3   75.07    3.79 
  -1   9   2   73.43    3.71 
   1   9  -2   70.36    3.61 
  -1   9   2   66.68    3.23 
  -1   9   2   68.50    3.74 
  -1  -9   2   70.87    3.48 
  -1  -9   2   66.57    3.50 
   1  -9  -2   72.17    3.52 
   1  -9  -2   73.25    3.50 
  -1   9   1   89.23    4.50 
   1   9  -1   94.18    4.42 
  -1   9   1   89.87    4.03 
  -1   9   1   98.22    4.52 
  -1  -9   1   95.02    4.31 
   1  -9  -1   92.38    4.35 
  -1  -9   1   88.80    4.29 
   1  -9  -1   91.89    4.30 
  -1   9   0    9.12    1.20 
  -1   9   0    9.22    0.84 
   1   9   0   10.47    1.31 
  -1   9   0    8.32    1.24 
   1  -9   0    7.26    1.10 
  -1  -9   0    8.20    1.17 
   1  -9   0    7.91    1.18 
  -1  -9   0    8.16    1.21 
   1   9   1   13.15    1.54 
  -1   9  -1   15.32    1.43 
   1   9   1   15.30    1.64 
  -1   9  -1   15.63    1.34 
  -1  -9  -1   13.20    1.35 
   1  -9   1   13.52    1.34 
  -1  -9  -1   13.74    1.26 
   1  -9   1   14.22    1.36 
  -1   9  -2   33.43    2.35 
   1   9   2   35.23    2.83 
   1   9   2   37.12    2.67 
  -1   9  -2   37.23    2.27 
  -1  -9  -2   33.96    2.31 
   1  -9   2   35.40    2.35 
  -1  -9  -2   33.35    2.18 
  -1  -9  -2   35.21    2.52 
   1  -9   2   34.19    2.25 
  -1   9  -3   41.89    2.46 
   1   9   3   40.48    3.32 
  -1   9  -3   40.13    2.64 
   1   9   3   42.13    3.39 
  -1  -9  -3   40.71    2.67 
  -1  -9  -3   40.81    2.58 
   1  -9   3   39.33    2.62 
   1  -9   3   41.44    2.47 
  -1  -9  -3   42.75    2.48 
   1   9   4   68.38    4.97 
  -1   9  -4   65.77    3.53 
   1   9   4   60.56    3.78 
  -1   9  -4   65.64    3.28 
  -1  -9  -4   64.86    3.42 
  -1  -9  -4   65.75    3.30 
   1  -9   4   64.67    3.48 
   1  -9   4   65.25    3.27 
  -1   9  -5  109.18    5.17 
   1   9   5  108.33    5.34 
  -1   9  -5  108.75    4.85 
   1  -9   5   99.95    4.84 
  -1  -9  -5  108.31    5.03 
   1  -9   5  105.16    5.14 
  -1  -9  -5  112.20    4.91 
   2   0 -12  212.02    9.23 
   2   0 -12  221.19    9.18 
   2   0 -12  214.47    8.96 
   2   0 -11   -1.60    1.13 
   2   0 -11   -0.84    0.86 
   2   0 -11    0.36    0.56 
   2   0 -10   10.82    1.31 
   2   0 -10   12.20    0.66 
   2   0 -10   11.91    0.67 
   2   0 -10   12.01    1.49 
   2   0 -10   11.18    0.99 
   2   0  -9   -1.39    0.81 
   2   0  -9    0.45    0.40 
   2   0  -9   -0.10    0.87 
   2   0  -9   -0.10    0.22 
   2   0  -9    0.01    0.20 
   2   0  -9   -0.65    0.89 
   2   0  -8   50.79    2.02 
   2   0  -8   46.39    2.35 
   2   0  -8   48.80    2.00 
   2   0  -8   47.12    2.35 
   2   0  -8   47.70    2.16 
   2   0  -8   50.06    2.58 
   2   0  -8   45.81    2.65 
   2   0  -7    0.29    0.43 
   2   0  -7   -0.15    0.42 
   2   0  -7    0.17    0.15 
   2   0  -7    0.47    0.29 
   2   0  -7    0.79    0.74 
   2   0  -7    0.35    0.17 
   2   0  -7   -1.00    0.63 
   2   0  -6  412.17   15.80 
   2   0  -6  359.80   15.97 
   2   0  -6  381.90   15.65 
   2   0  -6  421.48   15.78 
   2   0  -6  410.25   15.91 
   2   0  -6  376.46   15.72 
   2   0  -6  365.32   15.64 
  -2   0   5    0.33    0.31 
  -2   0   5    0.20    0.32 
   2   0  -5    0.23    0.27 
   2   0  -5    0.31    0.25 
  -2   0   5    0.07    0.14 
   2   0  -5    0.17    0.12 
   2   0  -5    0.22    0.59 
   2   0  -5    0.43    0.29 
   2   0  -5    0.33    0.21 
   2   0  -4  300.36   11.60 
   2   0  -4  285.28   11.54 
   2   0  -4  253.42   11.79 
   2   0  -4  290.37   11.54 
   2   0  -4  264.16   11.58 
   2   0  -4  291.55   11.57 
  -2   0   4  289.33   11.54 
  -2   0   4  300.55   11.61 
  -2   0   4  293.93   11.64 
   2   0  -4  301.82   11.63 
   2   0  -3   -0.25    0.13 
   2   0  -3    0.05    0.17 
  -2   0   3   -0.09    0.19 
   2   0  -3   -0.08    0.13 
   2   0  -3   -0.03    0.11 
  -2   0   3   -0.22    0.11 
  -2   0   3   -0.13    0.07 
   2   0  -3    0.60    0.44 
   2   0  -3   -0.02    0.19 
  -2   0   3   -0.11    0.22 
  -2   0   2    7.29    0.38 
  -2   0   2    6.74    0.42 
   2   0  -2    7.70    0.45 
   2   0  -2    6.76    0.39 
  -2   0   2    7.91    0.44 
   2   0  -2    7.79    0.48 
  -2   0   2    7.53    0.54 
   2   0  -2    6.62    0.45 
   2   0  -2    6.17    0.40 
  -2   0   2    7.69    0.40 
  -2   0   1   -0.06    0.12 
   2   0  -1   -0.03    0.12 
  -2   0   1   -0.14    0.14 
   2   0  -1   -0.13    0.21 
  -2   0   1   -0.27    0.10 
   2   0  -1    0.52    0.14 
   2   0  -1   -0.24    0.11 
   2   0  -1   -0.06    0.17 
   2   0  -1   -0.30    0.24 
  -2   0   0  602.45   22.94 
  -2   0   0  617.39   22.99 
   2   0   0  538.10   22.95 
  -2   0   0  565.54   22.92 
  -2   0   0  633.91   22.97 
   2   0   0  537.86   22.90 
   2   0   0  525.59   22.91 
   2   0   0  591.78   22.94 
   2   0   0  583.91   22.88 
   2   0   0  537.87   22.97 
  -2   0   0  532.85   22.89 
   2   0   1    0.61    0.19 
  -2   0  -1   -0.02    0.25 
   2   0   1   -0.10    0.27 
  -2   0  -1   -0.14    0.13 
  -2   0  -1   -0.01    0.22 
   2   0   1   -0.27    0.19 
  -2   0  -1   -0.21    0.18 
  -2   0  -1   -0.08    0.12 
   2   0   1   -0.22    0.13 
   2   0   1   -0.09    0.19 
  -2   0  -2  230.63    9.49 
  -2   0  -2  245.30    9.51 
   2   0   2  228.58    9.51 
  -2   0  -2  225.12    9.44 
   2   0   2  214.01    9.53 
   2   0   2  237.63    9.42 
   2   0   2  240.13    9.45 
   2   0   2  238.16    9.46 
  -2   0  -2  239.85    9.51 
  -2   0  -2  228.79    9.44 
  -2   0  -3    0.77    0.16 
  -2   0  -3    0.27    0.16 
  -2   0  -3    0.69    0.28 
   2   0   3    0.03    0.33 
  -2   0  -3    0.06    0.09 
  -2   0  -3    0.48    0.21 
  -2   0  -3    0.21    0.22 
   2   0   3    0.29    0.18 
   2   0   3    0.01    0.23 
   2   0   3    0.17    0.13 
  -2   0  -3    0.42    0.25 
  -2   0  -4  157.93    6.26 
  -2   0  -4  150.49    6.21 
  -2   0  -4  153.11    6.32 
   2   0   4  153.96    6.19 
   2   0   4  146.45    6.28 
   2   0   4  158.95    6.14 
  -2   0  -4  150.55    6.18 
  -2   0  -4  150.59    6.28 
  -2   0  -4  153.09    6.20 
  -2   0  -4  153.21    6.14 
   2   0   4  142.30    6.35 
  -2   0  -5    0.24    0.25 
  -2   0  -5    0.05    0.45 
  -2   0  -5    0.22    0.20 
   2   0   5   -0.05    0.48 
   2   0   5    0.08    0.20 
  -2   0  -5   -0.27    0.30 
  -2   0  -5   -0.34    0.23 
   2   0   5   -0.10    0.31 
  -2   0  -5    0.25    0.24 
   2   0   5   -0.07    0.10 
  -2   0  -5   -0.08    0.38 
  -2   0  -6  271.92   11.15 
   2   0   6  283.40   11.11 
  -2   0  -6  276.04   11.23 
  -2   0  -6  259.98   11.14 
  -2   0  -6  287.84   11.30 
  -2   0  -6  285.52   11.34 
  -2   0  -6  278.15   11.25 
  -2   0  -6  275.05   11.11 
   2   0   6  254.43   11.32 
   2   0   6  278.19   11.26 
  -2   0  -6  279.36   11.13 
  -2   0  -7   -0.43    0.55 
  -2   0  -7    0.24    0.67 
  -2   0  -7    0.28    0.41 
  -2   0  -7    0.03    0.29 
   2   0   7    0.27    0.56 
  -2   0  -7    0.49    0.37 
  -2   0  -7    0.78    0.32 
  -2   0  -7   -0.03    0.29 
   2   0   7    0.24    0.46 
  -2   0  -7    0.22    0.58 
   2   0   8  230.26    9.25 
  -2   0  -8  228.41    9.19 
  -2   0  -8  218.96    9.25 
  -2   0  -8  219.60    9.24 
  -2   0  -8  220.87    9.23 
   2   0   8  228.06    9.35 
  -2   0  -8  229.30    9.44 
   2   0   8  232.03    9.14 
  -2   0  -8  236.98    9.15 
  -2   0  -8  224.73    9.54 
  -2   0  -8  221.64    9.37 
  -2   0  -9    0.95    0.47 
  -2   0  -9    0.75    0.49 
  -2   0  -9    0.90    0.50 
   2   0   9    0.28    0.61 
  -2   0  -9    0.11    1.21 
  -2   0 -10   91.55    4.11 
  -2   0 -10   93.22    4.01 
  -2   0 -10   95.09    4.07 
  -2   0 -10   97.87    4.30 
  -2   0 -11   -0.44    0.60 
  -2   0 -11   -0.06    0.94 
  -2   0 -11    0.92    0.85 
  -2   0 -11    0.61    0.41 
  -2   0 -12   32.38    1.51 
  -2   0 -12   29.93    2.54 
  -2   0 -12   27.17    1.97 
   2   1 -12    0.48    1.50 
   2   1 -12    3.17    0.84 
   2   1 -12    2.29    1.13 
   2  -1 -12    3.17    0.53 
   2  -1 -12    2.64    1.13 
   2  -1 -12    3.41    0.52 
   2  -1 -12    2.69    1.13 
   2   1 -11   48.25    2.63 
   2   1 -11   45.97    3.21 
   2   1 -11   47.80    2.40 
   2  -1 -11   49.19    2.12 
   2  -1 -11   44.20    2.75 
   2  -1 -11   47.96    2.25 
   2  -1 -11   50.04    2.13 
   2   1 -10   91.36    4.08 
   2   1 -10   95.07    4.68 
   2   1 -10   89.21    4.49 
   2  -1 -10   94.80    4.68 
   2  -1 -10   99.79    3.92 
   2  -1 -10   95.43    3.99 
   2  -1 -10   96.69    3.92 
   2  -1 -10   90.82    4.32 
   2   1  -9   45.88    2.53 
   2   1  -9   43.62    2.37 
   2   1  -9   45.64    2.15 
   2   1  -9   43.62    2.49 
   2   1  -9   48.60    2.90 
   2   1  -9   47.37    2.31 
   2  -1  -9   42.21    2.05 
   2  -1  -9   46.40    2.80 
   2  -1  -9   46.82    2.06 
   2  -1  -9   47.38    2.51 
   2  -1  -9   49.30    2.54 
   2  -1  -9   47.35    2.00 
   2   1  -8  186.59    8.81 
  -2   1   8  220.98    8.36 
   2   1  -8  209.66    8.55 
   2   1  -8  208.71    8.44 
   2   1  -8  205.56    8.49 
   2   1  -8  200.51    8.55 
  -2   1   8  191.58    8.32 
   2  -1  -8  216.60    8.31 
   2  -1  -8  210.60    8.55 
   2  -1  -8  205.62    8.33 
   2  -1  -8  211.77    8.64 
   2  -1  -8  206.28    8.37 
   2  -1  -8  202.56    8.32 
   2  -1  -8  198.50    8.65 
   2  -1  -8  205.85    8.32 
  -2   1   7  114.28    4.83 
   2   1  -7  121.04    5.06 
   2   1  -7  122.09    5.02 
  -2   1   7  122.53    4.86 
   2   1  -7  104.36    5.32 
   2   1  -7  118.35    4.93 
   2   1  -7  118.71    4.97 
   2  -1  -7  116.22    5.12 
   2  -1  -7  119.61    5.02 
   2  -1  -7  115.03    4.85 
   2  -1  -7  117.70    4.83 
   2  -1  -7  122.88    4.98 
   2  -1  -7  117.99    4.83 
   2  -1  -7  115.20    4.82 
   2  -1  -7  123.59    4.83 
   2   1  -6   17.05    1.04 
  -2   1   6   18.59    0.89 
  -2   1   6   18.09    0.94 
   2   1  -6   19.83    1.11 
  -2   1   6   19.32    1.16 
   2   1  -6   20.88    1.27 
   2   1  -6   19.03    0.99 
   2  -1  -6   18.35    1.34 
   2  -1  -6   18.38    1.04 
   2  -1  -6   17.79    0.88 
   2  -1  -6   18.16    0.87 
   2  -1  -6   19.70    1.14 
   2  -1  -6   18.36    0.93 
   2  -1  -6   18.73    0.88 
   2   1  -5   61.78    2.58 
  -2   1   5   61.00    2.50 
   2   1  -5   59.40    2.54 
  -2   1   5   59.41    2.61 
  -2   1   5   59.62    2.47 
   2   1  -5   57.91    2.65 
   2   1  -5   55.28    2.46 
   2   1  -5   57.29    2.52 
   2  -1  -5   60.30    2.59 
   2  -1  -5   60.82    2.46 
   2  -1  -5   60.79    2.45 
   2  -1  -5   54.20    2.46 
   2  -1  -5   53.98    2.72 
   2  -1  -5   58.93    2.45 
   2  -1  -5   59.78    2.50 
   2  -1  -5   62.78    2.48 
  -2   1   4   97.42    4.10 
   2   1  -4  103.81    4.04 
   2   1  -4  102.91    4.13 
  -2   1   4  108.42    4.13 
   2   1  -4   97.20    4.22 
  -2   1   4   97.55    4.43 
   2   1  -4   89.73    4.10 
   2   1  -4  104.49    4.06 
  -2   1   4   98.36    4.19 
   2   1  -4   92.59    4.13 
   2  -1  -4   95.46    4.29 
   2  -1  -4   99.42    4.06 
   2  -1  -4   98.66    4.09 
  -2  -1   4  103.66    4.15 
   2  -1  -4  102.01    4.10 
   2  -1  -4  103.67    4.09 
   2  -1  -4   97.84    4.09 
   2  -1  -4  102.48    4.18 
  -2  -1   4  102.16    4.04 
   2  -1  -4  104.46    4.11 
   2   1  -3    9.60    0.61 
   2   1  -3    7.66    0.45 
   2   1  -3    7.77    0.39 
  -2   1   3    6.98    0.66 
  -2   1   3    7.45    0.41 
  -2   1   3    8.09    0.48 
   2   1  -3    7.05    0.60 
   2   1  -3    6.76    0.47 
  -2   1   3    8.43    0.54 
  -2   1   3    7.40    0.44 
   2   1  -3    6.77    0.48 
   2  -1  -3    7.61    0.42 
   2  -1  -3    7.66    0.45 
  -2  -1   3    9.00    0.51 
   2  -1  -3    7.46    0.53 
  -2  -1   3    7.93    0.41 
  -2  -1   3    9.02    0.48 
   2  -1  -3    7.34    0.36 
   2  -1  -3    7.39    0.70 
   2  -1  -3    7.39    0.45 
   2  -1  -3    7.56    0.37 
   2   1  -2  456.88   17.65 
  -2   1   2  443.81   17.71 
   2   1  -2  459.38   17.73 
   2   1  -2  430.94   17.70 
   2   1  -2  446.57   17.72 
  -2   1   2  474.23   17.80 
   2   1  -2  426.06   17.68 
  -2   1   2  426.07   17.68 
  -2   1   2  457.24   17.76 
   2  -1  -2  460.02   17.77 
  -2  -1   2  380.81   17.68 
   2  -1  -2  422.60   17.70 
  -2  -1   2  443.01   17.69 
  -2  -1   2  444.91   17.68 
  -2  -1   2  435.38   17.72 
   2  -1  -2  458.04   17.69 
  -2  -1   2  465.79   17.77 
  -2  -1   2  407.77   17.67 
   2  -1  -2  393.23   17.63 
   2  -1  -2  465.91   17.69 
   2  -1  -2  437.11   17.67 
  -2   1   1  345.12   13.92 
  -2   1   1  340.72   13.92 
  -2   1   1  357.96   13.89 
  -2   1   1  355.98   13.91 
   2   1  -1  336.66   13.89 
   2   1  -1  323.31   13.92 
   2   1  -1  342.00   13.91 
  -2   1   1  346.17   13.90 
   2   1  -1  345.10   13.90 
   2   1  -1  340.00   13.91 
   2   1  -1  333.57   13.87 
  -2   1   1  357.88   13.93 
   2  -1  -1  373.09   13.92 
   2  -1  -1  354.59   13.90 
   2  -1  -1  353.53   13.92 
  -2  -1   1  343.70   13.86 
  -2  -1   1  337.60   13.90 
   2  -1  -1  370.77   13.91 
   2  -1  -1  355.73   13.93 
  -2  -1   1  317.71   13.90 
  -2  -1   1  328.35   13.91 
   2  -1  -1  342.90   13.92 
   2   1   0  181.03    7.40 
  -2   1   0  182.19    7.41 
  -2   1   0  189.86    7.40 
   2   1   0  179.29    7.37 
  -2   1   0  182.62    7.41 
   2   1   0  179.32    7.43 
   2   1   0  180.54    7.38 
   2   1   0  185.18    7.41 
  -2   1   0  185.30    7.38 
  -2   1   0  188.97    7.43 
   2   1   0  182.01    7.43 
  -2   1   0  188.53    7.45 
   2  -1   0  176.81    7.40 
  -2  -1   0  176.78    7.43 
  -2  -1   0  181.02    7.38 
   2  -1   0  177.40    7.38 
  -2  -1   0  181.34    7.43 
  -2  -1   0  187.20    7.40 
   2  -1   0  187.61    7.43 
   2  -1   0  188.06    7.45 
  -2  -1   0  180.88    7.37 
  -2  -1   0  174.23    7.40 
   2  -1   0  189.38    7.41 
   2  -1   0  185.09    7.40 
  -2   1  -1   18.83    0.94 
   2   1   1   19.84    0.88 
  -2   1  -1   19.33    0.84 
  -2   1  -1   19.38    0.97 
   2   1   1   16.74    1.08 
   2   1   1   19.77    0.90 
  -2   1  -1   18.53    0.89 
   2   1   1   20.00    0.83 
   2   1   1   19.80    0.87 
  -2   1  -1   19.94    0.92 
  -2   1  -1   18.95    0.91 
   2   1   1   18.02    0.92 
  -2  -1  -1   19.96    0.90 
  -2  -1  -1   17.89    0.91 
  -2  -1  -1   18.83    1.04 
  -2  -1  -1   19.25    0.82 
   2  -1   1   20.11    0.84 
   2  -1   1   17.52    0.90 
  -2  -1  -1   20.74    0.89 
   2  -1   1   19.54    0.96 
  -2  -1  -1   19.73    0.87 
   2  -1   1   18.68    0.93 
  -2   1  -2   86.26    3.40 
   2   1   2   84.10    3.33 
  -2   1  -2   74.40    3.38 
   2   1   2   82.17    3.39 
   2   1   2   74.77    3.53 
  -2   1  -2   83.67    3.36 
  -2   1  -2   83.48    3.29 
  -2   1  -2   81.93    3.42 
   2   1   2   81.65    3.28 
   2  -1   2   83.14    3.37 
  -2  -1  -2   78.96    3.58 
  -2  -1  -2   81.65    3.37 
  -2  -1  -2   83.52    3.35 
  -2  -1  -2   80.92    3.27 
   2  -1   2   79.60    3.38 
   2  -1   2   80.66    3.29 
   2  -1   2   79.25    3.37 
  -2  -1  -2   82.05    3.34 
   2  -1   2   78.13    3.41 
  -2  -1  -2   77.43    3.35 
  -2   1  -3   31.80    1.28 
   2   1   3   29.21    1.34 
   2   1   3   30.69    1.32 
  -2   1  -3   32.01    1.45 
  -2   1  -3   30.74    1.39 
  -2   1  -3   30.75    1.36 
   2   1   3   31.16    1.35 
   2   1   3   29.67    1.50 
   2   1   3   28.66    1.40 
  -2   1  -3   28.86    1.57 
  -2   1  -3   25.41    1.41 
  -2  -1  -3   31.33    1.36 
  -2  -1  -3   30.31    1.27 
   2  -1   3   31.59    1.34 
  -2  -1  -3   31.39    1.38 
   2  -1   3   30.95    1.38 
   2  -1   3   31.04    1.31 
  -2  -1  -3   31.27    1.65 
   2  -1   3   30.03    1.42 
  -2  -1  -3   29.09    1.33 
   2  -1   3   30.31    1.46 
   2  -1   3   29.87    1.39 
  -2  -1  -3   31.67    1.37 
   2   1   4  314.64   12.87 
  -2   1  -4  316.48   12.94 
  -2   1  -4  317.60   12.89 
  -2   1  -4  319.76   12.79 
   2   1   4  320.18   12.94 
  -2   1  -4  327.20   12.83 
   2   1   4  304.01   12.89 
  -2   1  -4  303.25   12.90 
   2   1   4  338.91   12.84 
   2  -1   4  321.85   12.84 
   2  -1   4  320.23   12.92 
  -2  -1  -4  311.95   12.92 
   2  -1   4  327.52   12.77 
   2  -1   4  304.12   12.86 
  -2  -1  -4  298.76   12.77 
  -2  -1  -4  313.79   12.88 
   2  -1   4  326.17   12.76 
  -2  -1  -4  318.18   12.83 
  -2  -1  -4  336.62   13.04 
  -2  -1  -4  318.21   12.85 
  -2   1  -5  247.35    9.98 
  -2   1  -5  248.28   10.04 
  -2   1  -5  248.36   10.10 
  -2   1  -5  232.21   10.10 
   2   1   5  256.80    9.97 
  -2   1  -5  253.16   10.00 
   2   1   5  259.89   10.02 
   2   1   5  229.91   10.09 
  -2   1  -5  256.55   10.17 
   2   1   5  245.13   10.12 
   2  -1   5  239.51   10.03 
   2  -1   5  243.87   10.12 
   2  -1   5  242.56   10.00 
  -2  -1  -5  254.95   10.04 
  -2  -1  -5  259.57   10.14 
  -2  -1  -5  240.83   10.09 
  -2  -1  -5  248.51   10.05 
  -2  -1  -5  245.70   10.02 
   2   1   6  160.79    6.47 
  -2   1  -6  164.21    6.66 
  -2   1  -6  165.21    6.52 
  -2   1  -6  161.76    6.50 
   2   1   6  149.80    6.65 
  -2   1  -6  160.73    6.52 
   2   1   6  160.29    6.54 
   2   1   6  164.88    6.66 
  -2   1  -6  170.05    6.77 
  -2   1  -6  146.77    6.63 
   2  -1   6  166.21    6.50 
  -2  -1  -6  156.86    6.64 
  -2  -1  -6  156.07    6.58 
  -2  -1  -6  157.50    6.69 
   2  -1   6  158.07    6.67 
   2  -1   6  156.10    6.53 
  -2  -1  -6  164.55    6.56 
  -2  -1  -6  164.12    6.55 
  -2  -1  -6  155.21    6.51 
  -2  -1  -6  164.70    6.83 
   2   1   7    1.48    0.53 
  -2   1  -7    0.74    0.33 
  -2   1  -7    0.55    0.65 
  -2   1  -7    0.82    0.47 
   2   1   7    0.97    0.47 
  -2   1  -7    1.39    0.28 
  -2   1  -7    0.99    0.26 
  -2   1  -7   -0.13    0.74 
   2   1   7    1.10    0.28 
  -2   1  -7    1.79    0.62 
  -2   1  -7    1.01    0.53 
  -2  -1  -7    1.28    0.38 
   2  -1   7    1.23    0.26 
  -2  -1  -7    1.41    0.37 
  -2  -1  -7    0.17    0.58 
  -2  -1  -7    1.54    0.32 
   2  -1   7    1.42    0.22 
  -2  -1  -7    1.28    0.32 
   2  -1   7    1.06    0.49 
  -2  -1  -7    1.34    0.50 
  -2  -1  -7    0.48    0.83 
  -2  -1  -7    1.24    0.41 
   2   1   8    1.11    0.75 
  -2   1  -8    2.30    0.59 
  -2   1  -8    0.54    0.56 
   2   1   8    1.27    0.39 
  -2   1  -8    1.01    0.94 
  -2   1  -8    0.95    0.74 
  -2   1  -8    1.93    0.41 
  -2   1  -8    0.91    0.64 
   2   1   8    0.67    0.52 
  -2  -1  -8    1.06    0.38 
  -2  -1  -8    1.06    0.51 
  -2  -1  -8    2.00    0.39 
  -2  -1  -8    1.76    0.54 
  -2  -1  -8    2.02    1.08 
  -2  -1  -8    0.80    0.37 
  -2  -1  -8    2.02    0.66 
   2  -1   8    1.02    0.56 
  -2   1  -9    7.14    0.78 
   2   1   9    8.78    1.05 
   2   1   9    7.32    0.63 
   2   1   9    7.74    0.81 
  -2   1  -9    8.23    0.91 
  -2   1  -9    7.17    0.67 
  -2   1  -9    7.72    0.82 
  -2  -1  -9    8.27    0.95 
  -2  -1  -9    6.54    0.80 
  -2  -1  -9    7.87    0.63 
  -2  -1  -9    8.95    0.71 
  -2  -1  -9   10.85    1.57 
  -2  -1  -9    7.88    0.81 
  -2   1 -10  110.53    4.90 
  -2   1 -10  117.02    5.14 
  -2   1 -10  118.06    4.91 
   2   1  10  122.55    5.05 
  -2   1 -10  117.18    4.96 
   2   1  10  120.73    4.75 
   2   1  10  118.95    4.92 
  -2  -1 -10  120.01    4.83 
  -2  -1 -10  117.51    4.91 
  -2  -1 -10  117.16    5.14 
  -2  -1 -10  116.07    4.84 
  -2  -1 -10  110.43    4.90 
  -2  -1 -10  107.48    4.87 
  -2  -1 -10  110.45    5.96 
  -2   1 -11   82.73    3.73 
  -2   1 -11   78.54    3.58 
  -2   1 -11   89.06    4.04 
  -2  -1 -11   82.87    3.73 
  -2  -1 -11   87.91    3.59 
  -2  -1 -11   83.49    3.61 
  -2  -1 -11   83.74    4.00 
  -2   1 -12  100.30    4.71 
  -2  -1 -12   92.78    4.36 
  -2  -1 -12   98.70    4.68 
   2   2 -12   13.96    1.46 
   2   2 -12   14.26    1.20 
   2   2 -12   11.78    2.05 
   2  -2 -12   13.20    1.53 
   2  -2 -12   12.68    1.41 
   2  -2 -12   14.18    1.16 
   2   2 -11  111.46    5.02 
   2   2 -11  118.22    5.15 
   2   2 -11  111.28    5.79 
   2  -2 -11  114.09    5.16 
   2  -2 -11  115.74    4.83 
   2  -2 -11  120.38    4.84 
   2   2 -10   36.37    2.03 
  -2   2  10   36.16    1.76 
  -2   2  10   32.23    1.72 
   2   2 -10   28.91    3.01 
   2   2 -10   37.63    1.94 
   2  -2 -10   34.59    2.14 
   2  -2 -10   34.96    1.63 
   2  -2 -10   36.62    1.67 
   2  -2 -10   33.24    1.79 
   2  -2 -10   38.85    3.42 
   2  -2 -10   35.63    1.67 
   2   2  -9    0.97    0.98 
   2   2  -9    2.86    1.33 
   2   2  -9    1.55    0.57 
   2   2  -9    0.98    0.54 
   2   2  -9    0.30    0.66 
   2   2  -9    1.67    0.92 
  -2   2   9    1.65    0.48 
  -2   2   9    1.86    0.46 
   2  -2  -9   -0.05    1.26 
   2  -2  -9    1.54    0.47 
   2  -2  -9    1.93    0.38 
   2  -2  -9    1.01    1.03 
   2  -2  -9    1.36    0.34 
   2  -2  -9    0.78    0.34 
   2   2  -8   26.78    1.52 
  -2   2   8   25.01    1.32 
  -2   2   8   27.62    1.35 
   2   2  -8   26.74    1.47 
   2   2  -8   25.91    1.81 
   2   2  -8   25.64    1.43 
   2   2  -8   26.80    1.76 
   2  -2  -8   26.44    1.22 
   2  -2  -8   25.87    1.25 
   2  -2  -8   25.21    1.64 
   2  -2  -8   27.64    1.32 
   2  -2  -8   25.73    1.93 
   2  -2  -8   25.68    1.27 
   2  -2  -8   26.91    1.37 
  -2   2   7  203.90    7.98 
   2   2  -7  195.62    8.00 
   2   2  -7  196.09    8.08 
   2   2  -7  191.43    8.02 
   2   2  -7  193.57    8.01 
  -2   2   7  199.04    8.14 
  -2   2   7  189.43    7.96 
   2   2  -7  191.14    8.10 
   2  -2  -7  203.02    8.11 
   2  -2  -7  189.22    8.11 
   2  -2  -7  203.08    7.96 
   2  -2  -7  188.87    7.93 
   2  -2  -7  197.26    7.88 
   2  -2  -7  195.71    7.94 
   2  -2  -7  197.99    7.94 
   2  -2  -7  184.07    8.10 
  -2   2   6    2.26    1.10 
   2   2  -6    3.89    0.36 
   2   2  -6    3.45    0.62 
   2   2  -6    3.24    0.58 
   2   2  -6    3.03    0.42 
  -2   2   6    3.96    0.43 
   2   2  -6    2.35    0.40 
  -2   2   6    3.31    0.37 
  -2   2   6    4.34    0.58 
   2  -2  -6    3.59    0.36 
   2  -2  -6    3.12    0.57 
   2  -2  -6    3.12    0.32 
   2  -2  -6    3.93    0.65 
   2  -2  -6    4.14    0.41 
   2  -2  -6    3.13    0.37 
   2  -2  -6    3.54    0.58 
  -2   2   5  465.35   17.72 
   2   2  -5  432.52   17.74 
   2   2  -5  439.60   17.60 
   2   2  -5  448.97   17.69 
  -2   2   5  441.13   17.71 
   2   2  -5  458.91   17.78 
   2   2  -5  462.87   17.78 
   2   2  -5  435.92   17.62 
  -2   2   5  431.62   17.80 
  -2   2   5  464.97   17.97 
  -2  -2   5  378.66   17.63 
   2  -2  -5  448.77   17.69 
   2  -2  -5  428.42   17.60 
   2  -2  -5  436.03   17.70 
   2  -2  -5  455.86   17.70 
  -2  -2   5  431.30   17.60 
   2  -2  -5  411.21   17.67 
   2  -2  -5  435.05   17.81 
   2  -2  -5  414.20   17.69 
   2  -2  -5  462.84   17.78 
   2   2  -4  134.00    5.92 
  -2   2   4  147.21    6.13 
   2   2  -4  147.95    6.02 
   2   2  -4  143.88    5.93 
   2   2  -4  143.54    5.99 
  -2   2   4  151.32    5.98 
   2   2  -4  149.89    5.90 
   2   2  -4  150.17    5.93 
  -2   2   4  150.71    5.93 
  -2   2   4  146.93    6.03 
  -2   2   4  144.66    5.97 
   2  -2  -4  141.05    5.94 
   2  -2  -4  137.76    5.94 
  -2  -2   4  139.57    5.90 
   2  -2  -4  148.80    5.96 
   2  -2  -4  143.33    6.05 
   2  -2  -4  155.38    6.02 
  -2  -2   4  145.97    5.89 
  -2  -2   4  143.92    6.04 
   2  -2  -4  148.37    5.96 
  -2   2   3  245.74    9.83 
   2   2  -3  237.39    9.80 
   2   2  -3  248.63    9.89 
   2   2  -3  245.97    9.78 
  -2   2   3  259.15    9.94 
  -2   2   3  227.19    9.85 
  -2   2   3  243.46    9.89 
   2   2  -3  239.72    9.83 
   2   2  -3  240.07    9.87 
  -2  -2   3  248.97    9.77 
   2  -2  -3  233.27    9.85 
  -2  -2   3  233.72    9.80 
   2  -2  -3  250.14    9.92 
  -2  -2   3  238.93    9.81 
  -2  -2   3  247.15    9.82 
   2  -2  -3  254.04    9.88 
   2  -2  -3  256.25    9.86 
  -2  -2   3  239.41    9.89 
   2  -2  -3  240.38    9.83 
   2  -2  -3  233.73    9.83 
  -2   2   2   28.26    1.33 
   2   2  -2   28.29    1.33 
  -2   2   2   28.07    1.32 
  -2   2   2   28.56    1.29 
   2   2  -2   29.53    1.34 
   2   2  -2   30.07    1.21 
   2   2  -2   28.57    1.27 
   2   2  -2   29.52    1.27 
   2   2  -2   28.61    1.30 
  -2   2   2   30.49    1.37 
  -2   2   2   27.64    1.33 
  -2  -2   2   29.27    1.34 
   2  -2  -2   29.08    1.31 
   2  -2  -2   27.83    1.29 
  -2  -2   2   30.48    1.28 
   2  -2  -2   30.66    1.34 
  -2  -2   2   29.74    1.29 
  -2  -2   2   27.22    1.27 
  -2  -2   2   30.76    1.34 
   2  -2  -2   27.28    1.29 
   2  -2  -2   26.72    1.31 
  -2  -2   2   29.20    1.25 
   2   2  -1  135.49    5.36 
  -2   2   1  130.09    5.34 
  -2   2   1  129.68    5.33 
  -2   2   1  126.08    5.35 
  -2   2   1  132.84    5.36 
   2   2  -1  121.18    5.34 
   2   2  -1  134.88    5.32 
   2   2  -1  130.02    5.33 
   2   2  -1  129.55    5.33 
  -2   2   1  135.63    5.28 
  -2  -2   1  131.71    5.33 
  -2  -2   1  133.07    5.31 
   2  -2  -1  127.80    5.35 
   2  -2  -1  127.59    5.33 
  -2  -2   1  127.87    5.32 
   2  -2  -1  138.97    5.35 
  -2  -2   1  131.94    5.35 
   2  -2  -1  130.18    5.35 
   2  -2  -1  126.03    5.34 
  -2   2   0   66.49    2.75 
  -2   2   0   68.41    2.72 
  -2   2   0   66.79    2.76 
   2   2   0   68.77    2.73 
  -2   2   0   59.93    2.76 
  -2   2   0   66.73    2.71 
   2   2   0   66.69    2.74 
   2   2   0   63.62    2.76 
   2   2   0   64.79    2.76 
   2   2   0   64.33    2.71 
  -2  -2   0   64.32    2.75 
   2  -2   0   63.47    2.75 
   2  -2   0   63.47    2.72 
   2  -2   0   68.65    2.74 
  -2  -2   0   63.82    2.71 
  -2  -2   0   64.58    2.75 
   2  -2   0   61.35    2.77 
  -2  -2   0   68.20    2.73 
   2  -2   0   64.66    2.74 
   2  -2   0   65.74    2.71 
  -2  -2   0   66.85    2.66 
   2  -2   0   66.29    2.72 
  -2   2  -1  365.95   13.78 
  -2   2  -1  360.57   13.78 
   2   2   1  360.43   13.77 
   2   2   1  332.23   13.80 
  -2   2  -1  286.91   13.84 
   2   2   1  338.64   13.78 
  -2   2  -1  342.69   13.77 
  -2   2  -1  348.51   13.74 
  -2   2  -1  348.79   13.79 
   2   2   1  349.29   13.74 
   2   2   1  328.04   13.83 
   2  -2   1  352.66   13.79 
  -2  -2  -1  337.73   13.80 
  -2  -2  -1  354.20   13.80 
   2  -2   1  364.69   13.78 
   2  -2   1  348.39   13.77 
  -2  -2  -1  349.92   13.77 
   2  -2   1  318.43   13.84 
  -2  -2  -1  344.99   13.76 
  -2  -2  -1  289.00   13.75 
   2  -2   1  343.48   13.74 
  -2  -2  -1  348.15   13.73 
   2  -2   1  332.12   13.74 
   2  -2   1  332.44   13.76 
   2   2   2   19.82    1.08 
  -2   2  -2   21.41    1.02 
  -2   2  -2   21.74    1.16 
  -2   2  -2   22.60    1.09 
   2   2   2   19.96    1.36 
   2   2   2   23.17    1.06 
   2   2   2   23.76    1.03 
  -2   2  -2   23.02    1.08 
  -2   2  -2   21.98    1.04 
   2   2   2   23.08    0.99 
  -2   2  -2   22.76    1.00 
  -2  -2  -2   21.49    1.05 
   2  -2   2   21.15    1.01 
  -2  -2  -2   22.07    1.09 
   2  -2   2   21.78    1.08 
   2  -2   2   21.22    1.04 
  -2  -2  -2   22.02    1.21 
   2  -2   2   22.47    1.06 
  -2  -2  -2   22.36    1.03 
  -2  -2  -2   20.90    1.04 
   2  -2   2   23.29    1.09 
  -2  -2  -2   22.33    0.98 
   2  -2   2   22.05    1.04 
   2  -2   2   23.08    0.99 
  -2   2  -3  364.93   14.28 
  -2   2  -3  333.88   14.35 
   2   2   3  371.00   14.28 
  -2   2  -3  342.86   14.29 
   2   2   3  297.55   14.45 
  -2   2  -3  344.61   14.34 
  -2   2  -3  365.33   14.26 
   2   2   3  351.67   14.34 
   2   2   3  347.92   14.27 
  -2   2  -3  380.16   14.34 
   2   2   3  359.94   14.33 
   2  -2   3  360.96   14.35 
   2  -2   3  357.29   14.31 
   2  -2   3  354.00   14.27 
  -2  -2  -3  376.42   14.34 
  -2  -2  -3  350.69   14.47 
   2  -2   3  365.18   14.24 
   2  -2   3  355.04   14.35 
  -2  -2  -3  343.84   14.31 
   2  -2   3  351.82   14.29 
   2  -2   3  348.28   14.29 
  -2  -2  -3  363.62   14.33 
  -2  -2  -3  357.41   14.29 
   2   2   4   15.70    0.79 
   2   2   4   14.14    1.07 
  -2   2  -4   14.48    0.90 
  -2   2  -4   15.47    0.78 
   2   2   4   16.12    0.84 
   2   2   4   14.63    0.91 
  -2   2  -4   15.27    0.78 
  -2   2  -4   14.88    1.00 
  -2   2  -4   14.20    0.80 
  -2   2  -4   15.11    1.00 
   2   2   4   15.14    0.92 
  -2  -2  -4   14.52    0.74 
   2  -2   4   14.64    0.69 
   2  -2   4   15.68    0.89 
   2  -2   4   15.75    0.94 
   2  -2   4   15.29    0.79 
  -2  -2  -4   17.65    1.52 
   2  -2   4   14.92    0.84 
  -2  -2  -4   15.39    0.89 
   2  -2   4   15.41    0.81 
  -2  -2  -4   14.71    0.83 
  -2  -2  -4   15.39    0.80 
   2   2   5   12.24    0.96 
   2   2   5   13.71    1.09 
   2   2   5   13.39    0.88 
  -2   2  -5   13.34    1.04 
   2   2   5   12.97    0.70 
  -2   2  -5   12.67    0.69 
  -2   2  -5   14.10    0.73 
  -2   2  -5   12.13    0.77 
  -2   2  -5   11.55    0.87 
  -2   2  -5   12.24    1.25 
   2  -2   5   13.10    0.92 
  -2  -2  -5   12.79    0.82 
  -2  -2  -5   11.98    0.96 
  -2  -2  -5   12.84    0.69 
  -2  -2  -5   12.88    0.80 
   2  -2   5   12.52    0.70 
  -2  -2  -5   11.01    0.84 
  -2  -2  -5   12.16    1.25 
   2  -2   5   11.50    0.96 
  -2  -2  -5   11.86    0.74 
   2  -2   5   14.09    0.88 
  -2   2  -6    1.12    0.32 
  -2   2  -6    0.93    0.25 
   2   2   6    0.76    0.25 
  -2   2  -6    1.29    0.33 
  -2   2  -6    0.75    0.50 
   2   2   6    0.91    0.68 
   2   2   6    0.88    0.45 
  -2   2  -6    0.94    0.64 
   2   2   6    0.42    0.27 
   2   2   6    1.37    0.43 
  -2   2  -6    1.50    0.42 
  -2  -2  -6    1.04    0.52 
   2  -2   6    0.94    0.23 
  -2  -2  -6    0.98    0.37 
  -2  -2  -6    0.99    0.28 
  -2  -2  -6    0.82    1.06 
   2  -2   6    0.79    0.33 
  -2  -2  -6    1.33    0.41 
   2  -2   6    1.29    0.49 
  -2  -2  -6    0.89    0.38 
  -2  -2  -6    0.78    0.27 
   2   2   7  181.03    7.34 
  -2   2  -7  186.69    7.47 
  -2   2  -7  174.90    7.33 
  -2   2  -7  186.32    7.24 
   2   2   7  168.13    7.43 
  -2   2  -7  185.17    7.60 
  -2   2  -7  183.46    7.32 
   2   2   7  185.11    7.44 
   2   2   7  177.00    7.26 
  -2   2  -7  174.36    7.26 
   2  -2   7  185.76    7.24 
  -2  -2  -7  172.88    7.44 
  -2  -2  -7  175.22    7.29 
  -2  -2  -7  176.54    7.34 
  -2  -2  -7  183.63    7.38 
   2  -2   7  177.39    7.23 
  -2  -2  -7  177.60    7.95 
  -2  -2  -7  169.64    7.51 
  -2  -2  -7  183.71    7.36 
  -2   2  -8  115.35    5.03 
  -2   2  -8  114.12    4.94 
   2   2   8  117.13    4.77 
   2   2   8  110.36    4.92 
  -2   2  -8  115.58    4.76 
   2   2   8  120.75    4.90 
  -2   2  -8  105.41    4.73 
  -2   2  -8  109.82    5.16 
  -2  -2  -8  118.06    4.85 
  -2  -2  -8  112.15    4.92 
  -2  -2  -8  119.11    5.71 
  -2  -2  -8  115.52    4.73 
  -2  -2  -8  116.84    4.79 
  -2  -2  -8  112.41    4.77 
   2   2   9  166.34    7.52 
  -2   2  -9  178.32    7.64 
  -2   2  -9  169.83    7.28 
  -2   2  -9  183.66    7.35 
   2   2   9  183.11    7.46 
  -2   2  -9  181.66    7.55 
   2   2   9  185.89    7.33 
  -2  -2  -9  182.09    7.34 
  -2  -2  -9  177.24    7.30 
  -2  -2  -9  177.62    7.47 
  -2  -2  -9  178.10    7.52 
  -2  -2  -9  178.24    7.39 
  -2  -2  -9  181.85    7.37 
  -2  -2  -9  176.83    8.29 
   2   2  10    0.60    0.44 
  -2   2 -10    0.54    0.86 
  -2   2 -10    0.54    0.35 
  -2   2 -10    3.03    0.96 
   2   2  10    0.83    1.02 
   2   2  10    0.10    0.70 
  -2  -2 -10   -0.02    1.19 
  -2  -2 -10    0.10    0.52 
  -2  -2 -10    1.15    0.78 
  -2  -2 -10    0.69    0.48 
  -2  -2 -10    0.58    0.51 
  -2  -2 -10   -1.09    2.58 
  -2   2 -11    6.96    1.07 
   2   2  11    5.40    1.25 
  -2   2 -11    4.99    0.44 
   2   2  11    6.19    0.59 
  -2   2 -11    4.88    1.15 
  -2  -2 -11    4.81    0.79 
  -2  -2 -11    5.21    1.04 
   2   3 -11   43.76    2.50 
  -2   3  11   37.50    2.18 
   2   3 -11   42.09    2.32 
  -2   3  11   38.99    2.39 
   2   3 -11   39.16    3.14 
   2  -3 -11   44.67    2.07 
   2  -3 -11   42.93    2.50 
  -2   3  10    2.40    0.66 
   2   3 -10    1.49    0.69 
  -2   3  10    1.71    0.66 
   2   3 -10    3.06    1.83 
   2   3 -10    2.99    0.83 
   2  -3 -10    0.44    0.97 
   2  -3 -10    3.39    0.55 
   2  -3 -10    3.72    1.06 
   2  -3 -10    1.44    0.52 
   2   3  -9  317.42   13.39 
   2   3  -9  326.25   13.36 
  -2   3   9  318.10   13.32 
  -2   3   9  364.06   13.34 
   2   3  -9  306.49   13.50 
   2  -3  -9  336.66   13.28 
   2  -3  -9  325.56   13.28 
   2  -3  -9  313.95   13.17 
   2  -3  -9  319.68   13.40 
   2  -3  -9  342.41   13.31 
   2   3  -8   25.77    1.49 
   2   3  -8   26.80    1.80 
   2   3  -8   26.47    1.47 
  -2   3   8   27.46    2.37 
   2   3  -8   26.65    1.47 
   2   3  -8   25.29    1.97 
  -2   3   8   19.99    1.89 
  -2   3   8   26.84    1.43 
   2   3  -8   27.17    1.12 
   2  -3  -8   24.26    1.59 
   2  -3  -8   25.56    1.34 
   2  -3  -8   27.09    1.40 
   2  -3  -8   24.45    1.66 
   2  -3  -8   22.58    1.45 
   2   3  -7  107.25    4.37 
   2   3  -7  106.51    4.50 
   2   3  -7  110.81    4.74 
   2   3  -7  108.79    4.59 
  -2   3   7  103.34    4.68 
  -2   3   7  109.50    5.25 
   2   3  -7  106.31    4.52 
  -2   3   7  113.37    4.55 
  -2   3   7  104.25    4.53 
   2   3  -7  106.25    4.65 
   2  -3  -7  107.39    4.51 
   2  -3  -7  110.37    4.50 
   2  -3  -7  110.71    4.53 
   2  -3  -7  107.03    4.71 
   2  -3  -7  104.92    4.48 
   2  -3  -7  102.56    4.62 
   2   3  -6    0.52    0.33 
   2   3  -6    1.08    0.26 
  -2   3   6    0.87    0.35 
  -2   3   6    0.59    0.52 
   2   3  -6    1.60    0.38 
   2   3  -6    0.65    0.55 
   2   3  -6    0.82    0.20 
   2   3  -6    1.27    0.43 
   2   3  -6    0.20    0.56 
  -2   3   6    1.30    0.90 
  -2   3   6    0.61    0.35 
   2   3  -6    0.75    0.33 
   2  -3  -6    0.60    0.34 
  -2  -3   6    0.71    0.19 
  -2  -3   6    1.13    0.25 
   2  -3  -6    0.71    0.33 
  -2  -3   6    0.51    0.59 
   2  -3  -6    0.92    0.29 
   2  -3  -6    0.73    0.40 
   2  -3  -6    1.08    0.58 
   2  -3  -6    0.41    0.49 
   2   3  -5   16.03    0.81 
   2   3  -5   15.47    0.77 
  -2   3   5   15.37    0.94 
   2   3  -5   17.52    0.83 
   2   3  -5   15.54    0.86 
  -2   3   5   14.89    0.95 
  -2   3   5   15.65    1.39 
  -2   3   5   16.41    1.09 
   2   3  -5   14.83    0.98 
   2   3  -5   13.92    1.07 
   2   3  -5   14.95    0.85 
   2  -3  -5   16.37    1.12 
  -2  -3   5   16.90    1.10 
   2  -3  -5   15.55    0.89 
   2  -3  -5   15.34    0.95 
   2  -3  -5   15.82    0.92 
  -2  -3   5   15.60    0.78 
   2  -3  -5   15.77    1.04 
   2  -3  -5   16.16    0.87 
  -2  -3   5   16.24    0.78 
  -2   3   4    2.81    0.34 
  -2   3   4    2.01    0.49 
  -2   3   4    3.29    0.39 
   2   3  -4    2.88    0.35 
   2   3  -4    2.61    0.25 
   2   3  -4    2.33    0.45 
   2   3  -4    3.27    0.28 
  -2   3   4    2.00    0.38 
   2   3  -4    2.68    0.30 
   2   3  -4    2.04    0.35 
  -2  -3   4    2.74    0.30 
   2  -3  -4    2.91    0.41 
  -2  -3   4    2.21    0.41 
  -2  -3   4    3.05    0.30 
   2  -3  -4    2.44    0.43 
   2  -3  -4    2.79    0.34 
  -2  -3   4    2.68    0.28 
   2  -3  -4    2.55    0.34 
   2  -3  -4    2.43    0.45 
   2  -3  -4    2.60    0.34 
  -2   3   3  659.51   27.42 
  -2   3   3  718.74   27.43 
   2   3  -3  682.09   27.41 
   2   3  -3  679.90   27.38 
  -2   3   3  703.57   27.45 
   2   3  -3  652.88   27.41 
  -2   3   3  682.06   27.42 
   2   3  -3  686.64   27.35 
   2   3  -3  684.13   27.29 
  -2   3   3  695.08   27.39 
   2   3  -3  672.05   27.29 
   2   3  -3  701.99   27.36 
   2  -3  -3  652.82   27.41 
   2  -3  -3  684.07   27.39 
   2  -3  -3  683.92   27.38 
  -2  -3   3  677.84   27.33 
  -2  -3   3  652.74   27.41 
  -2  -3   3  685.37   27.34 
   2  -3  -3  719.19   27.42 
  -2  -3   3  676.54   27.36 
  -2  -3   3  658.07   27.35 
   2  -3  -3  659.91   27.42 
   2  -3  -3  690.85   27.41 
  -2   3   2   76.14    3.26 
   2   3  -2   77.21    3.20 
  -2   3   2   77.37    3.25 
  -2   3   2   78.87    3.14 
  -2   3   2   67.37    3.33 
   2   3  -2   75.42    3.26 
   2   3  -2   74.33    3.25 
   2   3  -2   73.98    3.23 
  -2   3   2   80.13    3.13 
  -2   3   2   76.32    3.26 
  -2   3   2   78.45    3.23 
   2   3  -2   79.31    3.21 
  -2  -3   2   78.01    3.19 
  -2  -3   2   76.65    3.21 
  -2  -3   2   67.41    3.29 
   2  -3  -2   74.32    3.22 
   2  -3  -2   82.83    3.27 
  -2  -3   2   78.91    3.20 
  -2  -3   2   76.11    3.24 
  -2  -3   2   77.59    3.22 
   2  -3  -2   79.45    3.26 
   2  -3  -2   75.76    3.26 
   2  -3  -2   77.01    3.23 
  -2   3   1  279.92   11.20 
  -2   3   1  280.62   11.16 
  -2   3   1  254.92   11.28 
   2   3  -1  281.04   11.25 
   2   3  -1  280.62   11.22 
  -2   3   1  285.86   11.16 
  -2   3   1  265.75   11.22 
  -2   3   1  285.92   11.25 
  -2   3   1  286.77   11.26 
   2   3  -1  264.02   11.23 
  -2   3   1  270.59   11.22 
   2   3  -1  281.23   11.20 
   2  -3  -1  284.24   11.24 
   2  -3  -1  243.56   11.29 
   2  -3  -1  276.79   11.21 
  -2  -3   1  277.21   11.20 
  -2  -3   1  271.36   11.21 
  -2  -3   1  278.56   11.20 
  -2  -3   1  266.98   11.21 
   2  -3  -1  279.52   11.22 
  -2  -3   1  287.88   11.23 
   2  -3  -1  282.48   11.23 
   2  -3  -1  292.09   11.25 
  -2  -3   1  285.33   11.24 
   2   3   0    2.76    0.32 
  -2   3   0    3.23    0.36 
  -2   3   0    3.04    0.34 
  -2   3   0    3.14    0.31 
  -2   3   0    3.40    0.37 
  -2   3   0    4.30    0.38 
  -2   3   0    2.52    0.31 
   2   3   0    2.45    0.35 
   2   3   0    3.88    0.45 
   2   3   0    3.98    0.36 
  -2   3   0    3.28    0.36 
  -2  -3   0    3.54    0.33 
  -2  -3   0    2.63    0.32 
   2  -3   0    3.92    0.44 
  -2  -3   0    3.73    0.36 
  -2  -3   0    3.30    0.25 
   2  -3   0    2.92    0.41 
  -2  -3   0    3.36    0.36 
  -2  -3   0    3.77    0.40 
   2  -3   0    3.07    0.34 
   2  -3   0    3.86    0.38 
  -2  -3   0    2.99    0.31 
  -2  -3   0    3.69    0.27 
   2  -3   0    2.22    0.29 
  -2   3  -1  156.38    6.37 
   2   3   1  157.38    6.37 
  -2   3  -1  159.06    6.34 
  -2   3  -1  146.09    6.37 
  -2   3  -1  163.87    6.33 
   2   3   1  149.26    6.41 
   2   3   1  157.65    6.34 
  -2   3  -1  160.40    6.36 
   2   3   1  161.44    6.33 
  -2   3  -1  153.37    6.34 
   2   3   1  152.11    6.38 
  -2  -3  -1  151.06    6.33 
   2  -3   1  154.75    6.33 
  -2  -3  -1  151.32    6.31 
  -2  -3  -1  153.61    6.36 
   2  -3   1  148.83    6.45 
   2  -3   1  158.94    6.35 
  -2  -3  -1  155.55    6.38 
  -2  -3  -1  152.13    6.34 
   2  -3   1  156.81    6.34 
  -2  -3  -1  156.77    6.29 
   2  -3   1  151.94    6.31 
  -2  -3  -1  147.44    6.35 
  -2   3  -2    0.22    0.24 
   2   3   2    0.08    0.24 
   2   3   2   -0.11    0.26 
   2   3   2    0.06    0.24 
  -2   3  -2    0.04    0.23 
  -2   3  -2   -0.18    0.24 
   2   3   2   -0.52    0.42 
  -2   3  -2    0.58    0.31 
  -2   3  -2   -0.28    0.30 
  -2   3  -2    0.03    0.39 
  -2  -3  -2    0.80    0.29 
  -2  -3  -2    0.07    0.24 
   2  -3   2    0.03    0.23 
   2  -3   2    0.02    0.25 
  -2  -3  -2    0.32    0.21 
  -2  -3  -2    0.16    0.27 
   2  -3   2    0.14    0.34 
   2  -3   2    0.01    0.18 
  -2  -3  -2    0.32    0.25 
  -2  -3  -2    0.40    0.33 
  -2  -3  -2   -0.10    0.23 
   2  -3   2   -0.16    0.22 
  -2   3  -3  332.81   13.38 
  -2   3  -3  349.92   13.45 
   2   3   3  325.33   13.37 
  -2   3  -3  324.87   13.50 
  -2   3  -3  352.85   13.43 
   2   3   3  277.99   13.61 
   2   3   3  322.50   13.45 
  -2   3  -3  326.46   13.38 
  -2   3  -3  347.18   13.37 
  -2  -3  -3  326.88   13.41 
   2  -3   3  318.11   13.39 
  -2  -3  -3  317.15   13.34 
   2  -3   3  324.44   13.38 
   2  -3   3  340.53   13.40 
   2  -3   3  331.47   13.38 
   2  -3   3  337.08   13.39 
  -2  -3  -3  341.89   13.46 
   2  -3   3  333.79   13.33 
  -2  -3  -3  331.87   13.40 
  -2  -3  -3  333.45   13.39 
  -2  -3  -3  351.16   13.44 
  -2   3  -4   29.73    1.39 
  -2   3  -4   29.32    1.38 
  -2   3  -4   25.11    1.62 
   2   3   4   29.28    1.40 
   2   3   4   31.33    1.46 
  -2   3  -4   31.63    1.58 
  -2   3  -4   31.06    1.50 
   2   3   4   30.87    1.51 
   2   3   4   29.85    1.45 
  -2   3  -4   28.37    1.54 
   2   3   4   27.58    1.79 
   2  -3   4   31.58    1.44 
   2  -3   4   29.87    1.52 
  -2  -3  -4   29.60    1.41 
   2  -3   4   30.15    1.31 
  -2  -3  -4   29.39    1.35 
  -2  -3  -4   29.02    1.44 
  -2  -3  -4   29.97    1.65 
   2  -3   4   30.47    1.53 
   2  -3   4   30.60    1.41 
  -2  -3  -4   32.27    1.44 
  -2  -3  -4   30.24    1.51 
  -2  -3  -4   31.59    1.50 
   2  -3   4   28.82    1.37 
  -2   3  -5  153.27    6.25 
  -2   3  -5  155.58    6.38 
   2   3   5  152.78    6.32 
  -2   3  -5  155.78    6.27 
  -2   3  -5  147.73    6.26 
   2   3   5  155.76    6.39 
   2   3   5  153.31    6.45 
   2   3   5  147.78    6.38 
  -2   3  -5  149.44    6.38 
  -2   3  -5  152.41    6.42 
   2   3   5  155.37    6.27 
   2  -3   5  153.35    6.30 
  -2  -3  -5  158.66    6.39 
   2  -3   5  148.69    6.24 
  -2  -3  -5  148.50    6.29 
  -2  -3  -5  149.95    6.24 
   2  -3   5  149.24    6.32 
   2  -3   5  154.32    6.22 
  -2  -3  -5  154.35    6.33 
  -2  -3  -5  150.27    6.30 
  -2  -3  -5  157.88    6.35 
   2  -3   5  159.43    6.18 
   2   3   6   17.27    1.19 
  -2   3  -6   16.22    1.37 
  -2   3  -6   17.49    0.90 
   2   3   6   16.99    0.99 
  -2   3  -6   16.55    1.01 
  -2   3  -6   16.11    1.59 
   2   3   6   15.39    0.95 
  -2   3  -6   15.58    0.90 
   2   3   6   15.35    1.44 
   2   3   6   15.95    1.14 
  -2   3  -6   15.81    1.15 
  -2  -3  -6   16.72    0.92 
  -2  -3  -6   19.01    1.32 
   2  -3   6   17.51    1.19 
  -2  -3  -6   16.66    1.09 
   2  -3   6   17.80    1.22 
   2  -3   6   17.09    0.85 
  -2  -3  -6   17.35    1.75 
  -2  -3  -6   17.39    1.01 
  -2  -3  -6   16.33    0.98 
  -2  -3  -6   18.74    1.06 
  -2   3  -7   89.38    3.63 
  -2   3  -7   84.72    3.99 
  -2   3  -7   85.66    3.76 
  -2   3  -7   82.95    3.56 
   2   3   7   87.94    3.74 
   2   3   7   82.96    3.57 
   2   3   7   93.19    4.09 
   2   3   7   80.84    3.75 
  -2   3  -7   87.98    3.52 
   2   3   7   78.12    3.79 
  -2   3  -7   80.99    3.74 
  -2  -3  -7   83.85    3.67 
  -2  -3  -7   82.67    3.86 
  -2  -3  -7   85.40    3.74 
  -2  -3  -7   89.19    3.70 
   2  -3   7   85.00    3.61 
  -2  -3  -7   86.92    3.57 
   2  -3   7   85.12    3.84 
   2  -3   7   86.73    3.50 
  -2  -3  -7   83.57    3.63 
  -2  -3  -7   86.56    3.63 
  -2  -3  -7   81.98    4.21 
   2   3   8    0.87    0.59 
  -2   3  -8    0.42    0.53 
  -2   3  -8    0.57    0.62 
   2   3   8    1.06    0.46 
  -2   3  -8    0.61    0.41 
   2   3   8    0.17    0.55 
  -2   3  -8    0.67    0.91 
  -2  -3  -8    0.43    0.42 
  -2  -3  -8    1.60    1.39 
  -2  -3  -8    0.53    0.39 
  -2  -3  -8    0.36    0.39 
  -2  -3  -8   -0.27    0.57 
   2   3   9   45.75    2.22 
   2   3   9   44.79    2.11 
  -2   3  -9   45.59    2.24 
   2   3   9   42.54    2.33 
  -2   3  -9   43.55    2.36 
  -2   3  -9   43.98    1.93 
  -2  -3  -9   44.83    2.12 
  -2  -3  -9   41.98    2.30 
  -2  -3  -9   43.45    3.77 
  -2  -3  -9   40.82    2.44 
  -2  -3  -9   43.14    2.10 
  -2  -3  -9   43.34    2.02 
  -2   3 -10    6.30    1.05 
  -2   3 -10    3.62    1.42 
  -2   3 -10    6.07    0.49 
   2   3  10    5.11    0.71 
   2   3  10    5.70    0.84 
   2   3  10    5.27    1.05 
  -2  -3 -10    6.33    0.96 
  -2  -3 -10    5.47    0.79 
  -2  -3 -10    4.74    0.61 
  -2  -3 -10    5.76    0.74 
   2   3  11   90.18    4.62 
  -2   3 -11   95.88    3.90 
   2   3  11   99.37    4.13 
  -2   3 -11  101.67    4.75 
  -2   3 -11   95.79    4.56 
  -2  -3 -11   93.14    4.21 
  -2  -3 -11   89.49    4.44 
   2   4 -11   48.36    2.86 
   2   4 -11   45.60    4.58 
   2   4 -11   49.24    2.72 
  -2   4  11   47.01    2.60 
   2  -4 -11   44.80    2.40 
   2  -4 -11   51.03    2.72 
  -2   4  10   50.38    2.53 
   2   4 -10   48.80    2.64 
   2   4 -10   50.34    2.61 
  -2   4  10   45.35    2.53 
   2  -4 -10   51.56    2.66 
   2  -4 -10   50.74    2.39 
  -2   4   9    1.47    0.68 
   2   4  -9    2.27    0.77 
  -2   4   9    0.97    0.62 
   2   4  -9    0.56    0.63 
   2   4  -9    0.73    0.84 
   2  -4  -9    1.90    0.93 
   2  -4  -9    1.57    0.52 
   2  -4  -9    1.22    0.75 
   2   4  -8   31.42    2.63 
  -2   4   8   37.54    1.94 
   2   4  -8   38.40    1.76 
   2   4  -8   38.75    1.94 
   2   4  -8   34.98    1.83 
  -2   4   8   39.18    1.95 
   2  -4  -8   37.34    1.97 
   2  -4  -8   37.67    2.01 
   2  -4  -8   35.94    1.84 
   2  -4  -8   37.16    1.82 
   2   4  -7   84.07    3.63 
  -2   4   7   88.58    4.32 
   2   4  -7   83.64    3.81 
  -2   4   7   90.83    3.70 
  -2   4   7   84.42    3.70 
  -2   4   7   82.53    3.83 
   2   4  -7   82.19    3.73 
   2   4  -7   86.80    3.50 
   2   4  -7   82.52    3.51 
   2   4  -7   85.77    3.56 
   2   4  -7   85.59    3.55 
   2  -4  -7   82.96    3.66 
  -2  -4   7   84.87    3.46 
  -2  -4   7   80.11    3.47 
   2  -4  -7   84.18    3.62 
   2  -4  -7   83.57    3.61 
  -2  -4   7   81.82    3.86 
   2  -4  -7   83.27    3.73 
   2   4  -6  110.48    4.64 
   2   4  -6  112.31    4.58 
   2   4  -6  115.50    4.62 
   2   4  -6  113.12    4.58 
   2   4  -6  118.03    4.64 
  -2   4   6  104.03    4.81 
  -2   4   6  110.33    4.74 
   2   4  -6  114.03    4.81 
  -2   4   6  112.18    5.01 
   2   4  -6  109.25    4.88 
  -2   4   6  114.56    4.73 
   2   4  -6  106.08    4.75 
   2  -4  -6  107.85    4.73 
   2  -4  -6  112.25    4.71 
   2  -4  -6  105.44    4.66 
  -2  -4   6  109.47    4.57 
   2  -4  -6  112.86    4.83 
  -2  -4   6  102.28    4.80 
   2  -4  -6  114.77    4.77 
   2  -4  -6  112.92    4.68 
  -2  -4   6  117.81    4.59 
   2   4  -5  203.71    8.28 
   2   4  -5  208.52    8.33 
   2   4  -5  190.45    8.40 
  -2   4   5  208.13    8.52 
  -2   4   5  203.00    8.44 
  -2   4   5  207.65    8.52 
   2   4  -5  202.02    8.23 
  -2   4   5  195.66    8.40 
   2   4  -5  204.22    8.42 
   2   4  -5  208.17    8.30 
   2  -4  -5  209.10    8.39 
   2  -4  -5  200.45    8.35 
   2  -4  -5  199.96    8.41 
  -2  -4   5  198.22    8.42 
   2  -4  -5  210.40    8.37 
   2  -4  -5  201.84    8.38 
  -2  -4   5  211.83    8.25 
  -2  -4   5  199.99    8.28 
  -2  -4   5  208.77    8.29 
   2  -4  -5  202.89    8.44 
  -2  -4   5  204.09    8.22 
   2   4  -4  141.04    6.03 
  -2   4   4  146.47    6.04 
   2   4  -4  138.16    5.91 
  -2   4   4  145.31    5.98 
   2   4  -4  147.25    5.98 
   2   4  -4  141.96    5.88 
   2   4  -4  147.79    5.93 
   2   4  -4  146.93    5.95 
  -2   4   4  140.56    6.04 
  -2   4   4  146.97    6.09 
  -2   4   4  136.99    6.03 
   2   4  -4  146.89    5.82 
   2   4  -4  146.65    6.04 
  -2  -4   4  148.42    5.90 
   2  -4  -4  147.79    6.03 
  -2  -4   4  141.53    5.93 
   2  -4  -4  140.58    5.97 
   2  -4  -4  147.88    6.02 
  -2  -4   4  142.70    6.16 
  -2  -4   4  150.29    5.92 
   2  -4  -4  143.63    5.99 
  -2  -4   4  143.02    6.04 
   2  -4  -4  151.38    6.06 
   2  -4  -4  140.03    6.03 
  -2   4   3   52.44    2.17 
  -2   4   3   45.84    2.25 
  -2   4   3   51.06    2.29 
   2   4  -3   48.70    2.17 
   2   4  -3   48.82    2.17 
   2   4  -3   50.91    2.21 
  -2   4   3   51.13    2.08 
  -2   4   3   50.46    2.23 
  -2   4   3   49.71    2.30 
   2   4  -3   48.41    2.22 
  -2   4   3   48.09    2.27 
   2   4  -3   49.10    2.28 
   2   4  -3   49.77    2.29 
   2  -4  -3   53.38    2.30 
  -2  -4   3   53.66    2.17 
   2  -4  -3   50.46    2.26 
  -2  -4   3   49.82    2.20 
   2  -4  -3   51.25    2.28 
  -2  -4   3   48.20    2.18 
   2  -4  -3   49.03    2.21 
   2  -4  -3   47.88    2.26 
   2  -4  -3   50.67    2.24 
  -2  -4   3   53.20    2.17 
  -2   4   2   68.32    3.08 
   2   4  -2   68.44    3.05 
  -2   4   2   69.72    3.06 
  -2   4   2   69.61    3.08 
  -2   4   2   70.78    2.94 
  -2   4   2   72.26    3.06 
  -2   4   2   71.15    3.03 
   2   4  -2   72.19    3.01 
  -2   4   2   73.19    3.10 
   2   4  -2   72.21    3.04 
   2  -4  -2   69.83    3.03 
  -2  -4   2   68.33    3.05 
   2  -4  -2   72.81    3.08 
   2  -4  -2   74.32    3.09 
  -2  -4   2   70.26    3.00 
  -2  -4   2   75.34    3.10 
   2  -4  -2   69.10    3.07 
   2  -4  -2   71.93    3.06 
  -2  -4   2   69.33    3.02 
  -2  -4   2   71.27    3.00 
   2  -4  -2   70.41    3.07 
  -2   4   1   18.70    0.99 
  -2   4   1   19.09    1.06 
  -2   4   1   17.33    1.03 
  -2   4   1   17.49    0.96 
   2   4  -1   18.27    1.04 
   2   4  -1   19.59    1.07 
  -2   4   1   18.43    0.92 
   2   4  -1   17.08    1.02 
  -2   4   1   19.85    0.92 
  -2   4   1   18.34    1.00 
   2   4  -1   15.08    1.05 
   2   4  -1   17.63    0.95 
  -2   4   1   18.66    1.04 
   2  -4  -1   16.88    0.96 
   2  -4  -1   18.82    1.06 
   2  -4  -1   18.30    1.07 
  -2  -4   1   18.00    1.02 
   2  -4  -1   18.68    1.01 
   2  -4  -1   19.23    1.03 
  -2  -4   1   19.00    1.00 
  -2  -4   1   18.72    0.97 
  -2  -4   1   19.22    0.96 
  -2  -4   1   18.82    0.98 
  -2  -4   1   18.61    1.07 
   2  -4  -1   18.37    1.02 
  -2   4   0   70.24    2.98 
   2   4   0   69.21    2.99 
  -2   4   0   68.76    2.95 
  -2   4   0   69.04    2.94 
   2   4   0   70.93    2.98 
  -2   4   0   70.80    2.95 
   2   4   0   69.68    3.02 
  -2   4   0   68.58    3.02 
   2   4   0   65.25    3.01 
  -2   4   0   68.68    2.94 
  -2   4   0   65.90    2.97 
   2   4   0   68.12    2.96 
  -2  -4   0   69.34    2.96 
   2  -4   0   67.63    2.97 
  -2  -4   0   72.22    2.86 
  -2  -4   0   70.77    2.96 
  -2  -4   0   65.24    2.97 
   2  -4   0   72.06    2.99 
  -2  -4   0   71.73    3.02 
  -2  -4   0   72.93    3.00 
  -2  -4   0   67.35    2.95 
   2  -4   0   73.21    3.05 
   2  -4   0   72.86    3.01 
   2  -4   0   70.41    2.95 
   2  -4   0   64.21    2.98 
  -2   4  -1  267.31   10.95 
   2   4   1  284.48   10.99 
  -2   4  -1  254.91   10.93 
  -2   4  -1  279.33   10.95 
   2   4   1  269.66   10.94 
  -2   4  -1  269.23   10.97 
  -2   4  -1  280.93   10.94 
   2   4   1  265.67   11.00 
   2   4   1  266.86   10.94 
   2   4   1  261.79   11.00 
  -2   4  -1  269.86   10.94 
  -2   4  -1  273.43   10.92 
   2  -4   1  251.42   11.05 
  -2  -4  -1  265.98   10.94 
   2  -4   1  276.24   10.95 
   2  -4   1  256.66   10.94 
  -2  -4  -1  283.08   11.00 
   2  -4   1  279.24   10.97 
   2  -4   1  250.58   10.95 
   2  -4   1  273.54   10.92 
  -2  -4  -1  265.65   10.95 
  -2  -4  -1  278.61   10.95 
  -2  -4  -1  265.87   10.96 
  -2  -4  -1  263.34   10.92 
  -2  -4  -1  276.87   10.88 
  -2   4  -2  275.50   11.20 
   2   4   2  287.93   11.24 
  -2   4  -2  260.98   11.22 
  -2   4  -2  268.25   11.15 
   2   4   2  263.17   11.17 
  -2   4  -2  272.07   11.23 
  -2   4  -2  280.83   11.19 
   2   4   2  268.89   11.30 
   2   4   2  280.50   11.19 
  -2   4  -2  284.08   11.18 
   2   4   2  273.55   11.26 
  -2   4  -2  279.22   11.23 
   2  -4   2  261.05   11.18 
  -2  -4  -2  288.94   11.16 
  -2  -4  -2  270.83   11.20 
  -2  -4  -2  277.45   11.22 
  -2  -4  -2  285.19   11.25 
   2  -4   2  283.66   11.20 
   2  -4   2  286.30   11.20 
   2  -4   2  270.10   11.23 
   2  -4   2  264.86   11.19 
  -2  -4  -2  278.51   11.20 
  -2  -4  -2  269.71   11.16 
  -2   4  -3   69.97    3.01 
  -2   4  -3   69.07    2.96 
  -2   4  -3   65.15    3.10 
   2   4   3   68.88    3.32 
  -2   4  -3   70.41    2.97 
   2   4   3   64.45    2.95 
   2   4   3   66.65    3.04 
  -2   4  -3   68.84    2.95 
   2   4   3   69.40    2.98 
   2   4   3   71.13    3.02 
   2  -4   3   67.02    2.95 
   2  -4   3   69.82    2.97 
   2  -4   3   68.86    2.97 
  -2  -4  -3   68.03    3.03 
  -2  -4  -3   70.91    2.99 
  -2  -4  -3   65.31    2.91 
  -2  -4  -3   71.64    2.97 
   2  -4   3   70.37    2.96 
   2  -4   3   70.88    2.90 
  -2  -4  -3   68.31    2.96 
   2  -4   3   68.26    2.97 
   2   4   4   14.82    1.02 
  -2   4  -4   14.26    1.11 
   2   4   4   13.32    1.03 
  -2   4  -4   13.14    0.83 
  -2   4  -4   12.53    0.94 
   2   4   4   14.31    0.91 
   2   4   4   14.99    0.93 
   2   4   4   12.16    1.26 
  -2   4  -4   13.33    1.02 
  -2   4  -4   14.53    0.88 
  -2   4  -4   14.81    1.29 
  -2  -4  -4   12.95    1.19 
   2  -4   4   14.43    0.95 
  -2  -4  -4   13.54    0.89 
   2  -4   4   13.07    0.82 
   2  -4   4   13.97    0.75 
   2  -4   4   14.13    0.98 
  -2  -4  -4   13.28    0.94 
   2  -4   4   14.27    0.90 
  -2  -4  -4   13.91    1.03 
  -2  -4  -4   13.41    0.82 
  -2  -4  -4   14.25    0.96 
  -2  -4  -4   13.63    1.00 
   2  -4   4   14.57    0.88 
  -2   4  -5    2.04    0.50 
  -2   4  -5    1.53    0.63 
   2   4   5    1.89    0.78 
   2   4   5    2.10    0.47 
   2   4   5    2.46    0.64 
   2   4   5    1.90    0.54 
  -2   4  -5    2.71    0.39 
  -2   4  -5    2.04    0.55 
   2   4   5    1.60    0.40 
  -2   4  -5    1.47    0.66 
  -2   4  -5    2.54    0.38 
  -2  -4  -5    1.94    0.43 
  -2  -4  -5    2.65    0.44 
  -2  -4  -5    3.82    0.62 
  -2  -4  -5    2.35    0.37 
   2  -4   5    2.77    0.53 
   2  -4   5    3.02    0.65 
   2  -4   5    2.56    0.29 
   2  -4   5    2.09    0.34 
  -2  -4  -5    2.31    0.54 
  -2  -4  -5    3.07    0.61 
   2  -4   5    1.92    0.44 
  -2  -4  -5    1.97    0.43 
   2  -4   5    1.90    0.43 
   2   4   6   52.82    2.53 
   2   4   6   45.44    2.18 
   2   4   6   47.57    2.34 
  -2   4  -6   47.98    2.23 
   2   4   6   49.92    2.40 
  -2   4  -6   46.63    2.39 
  -2   4  -6   46.44    2.39 
  -2   4  -6   48.37    2.13 
  -2   4  -6   49.26    2.53 
  -2   4  -6   46.23    2.12 
  -2  -4  -6   47.68    2.31 
  -2  -4  -6   46.56    2.12 
   2  -4   6   46.04    2.30 
  -2  -4  -6   48.97    2.22 
  -2  -4  -6   47.09    2.19 
  -2  -4  -6   50.19    2.43 
  -2  -4  -6   44.86    2.22 
   2  -4   6   49.58    2.22 
   2  -4   6   48.03    2.08 
  -2  -4  -6   45.40    2.40 
   2   4   7  131.28    5.53 
  -2   4  -7  132.18    5.62 
   2   4   7  123.94    5.61 
   2   4   7  131.85    5.50 
  -2   4  -7  133.07    5.37 
  -2   4  -7  131.02    5.48 
   2   4   7  121.91    5.81 
  -2  -4  -7  134.39    5.40 
   2  -4   7  128.55    5.33 
  -2  -4  -7  128.00    5.64 
  -2  -4  -7  132.99    5.51 
   2  -4   7  128.86    5.54 
  -2  -4  -7  130.20    5.47 
   2  -4   7  130.67    5.60 
  -2  -4  -7  133.38    5.48 
  -2   4  -8  167.26    7.12 
  -2   4  -8  168.43    6.81 
   2   4   8  166.15    7.10 
  -2   4  -8  164.79    6.96 
   2   4   8  176.79    7.03 
   2   4   8  176.15    7.53 
   2   4   8  171.25    6.99 
  -2   4  -8  168.40    7.13 
  -2   4  -8  168.12    6.85 
  -2  -4  -8  164.49    6.96 
  -2  -4  -8  168.81    7.06 
  -2  -4  -8  154.82    7.18 
   2  -4   8  167.83    7.20 
   2  -4   8  162.27    6.85 
   2  -4   8  168.17    6.77 
  -2  -4  -8  161.30    6.95 
  -2  -4  -8  167.13    7.03 
  -2  -4  -8  169.09    6.88 
   2   4   9   46.96    2.17 
  -2   4  -9   43.70    1.92 
   2   4   9   41.94    2.17 
  -2   4  -9   41.95    2.36 
   2   4   9   39.41    2.37 
  -2   4  -9   42.96    2.49 
  -2  -4  -9   39.26    2.31 
  -2  -4  -9   40.67    2.17 
  -2  -4  -9   40.48    3.90 
  -2  -4  -9   42.31    2.01 
  -2  -4  -9   40.39    2.11 
   2   4  10   24.40    1.62 
  -2   4 -10   24.34    1.22 
  -2   4 -10   23.40    2.14 
   2   4  10   21.43    1.99 
  -2  -4 -10   21.54    1.89 
  -2  -4 -10   22.81    1.42 
  -2  -4 -10   25.10    1.63 
  -2   4 -11    3.21    0.45 
   2   4  11    4.01    1.34 
  -2   4 -11    3.02    1.16 
  -2   4 -11    2.99    1.36 
  -2  -4 -11    2.19    0.87 
  -2  -4 -11    2.43    1.06 
  -2   5  10  113.58    5.33 
   2   5 -10  126.17    5.43 
   2  -5 -10  119.13    5.21 
   2  -5 -10  124.84    5.36 
  -2   5   9    0.05    0.77 
   2   5  -9    0.52    0.93 
   2   5  -9    0.76    0.77 
   2  -5  -9    0.61    0.83 
   2  -5  -9    0.87    0.63 
   2   5  -8  145.46    6.15 
  -2   5   8  143.73    6.13 
   2   5  -8  145.74    5.87 
  -2   5   8  148.28    6.11 
   2   5  -8  142.03    5.91 
   2   5  -8  147.48    6.09 
   2  -5  -8  143.31    6.13 
   2  -5  -8  138.53    6.09 
   2  -5  -8  136.54    6.04 
   2  -5  -8  140.74    6.02 
  -2  -5   8  139.71    6.28 
   2   5  -7   28.29    1.34 
  -2   5   7   27.92    1.68 
   2   5  -7   26.68    1.70 
  -2   5   7   25.70    1.83 
   2   5  -7   26.02    1.36 
   2   5  -7   26.21    1.67 
   2   5  -7   29.20    1.56 
  -2   5   7   28.52    1.66 
  -2  -5   7   25.67    2.03 
   2  -5  -7   27.52    1.61 
   2  -5  -7   27.78    1.66 
  -2  -5   7   28.57    1.37 
   2  -5  -7   28.97    1.68 
  -2  -5   7   26.15    1.33 
   2  -5  -7   28.22    1.54 
   2   5  -6   33.04    1.91 
  -2   5   6   35.39    1.99 
   2   5  -6   36.18    1.79 
   2   5  -6   36.21    1.55 
  -2   5   6   37.19    2.44 
  -2   5   6   38.04    1.90 
   2   5  -6   35.07    1.65 
  -2   5   6   36.07    1.92 
   2  -5  -6   34.82    1.81 
   2  -5  -6   35.63    1.89 
  -2  -5   6   35.64    2.00 
  -2  -5   6   34.42    1.65 
  -2  -5   6   36.38    1.69 
   2  -5  -6   37.28    1.97 
   2  -5  -6   34.77    1.78 
   2  -5  -6   33.37    1.83 
  -2   5   5    6.88    0.92 
   2   5  -5    5.73    0.66 
   2   5  -5    6.47    0.63 
  -2   5   5    5.17    0.67 
   2   5  -5    7.83    0.88 
   2   5  -5    6.54    0.63 
   2   5  -5    5.62    0.58 
  -2   5   5    5.95    0.70 
  -2   5   5    7.96    0.78 
  -2  -5   5    7.25    0.65 
   2  -5  -5    7.14    0.70 
  -2  -5   5    7.32    0.66 
  -2  -5   5    7.16    0.69 
   2  -5  -5    5.26    0.57 
  -2  -5   5    6.81    0.74 
  -2  -5   5    7.36    0.77 
   2  -5  -5    6.14    0.71 
   2  -5  -5    8.73    0.78 
   2  -5  -5    6.39    0.82 
  -2   5   4  118.35    5.18 
  -2   5   4  129.02    5.04 
  -2   5   4  123.62    5.34 
   2   5  -4  124.13    5.15 
  -2   5   4  126.00    5.21 
   2   5  -4  119.87    5.21 
   2   5  -4  122.36    5.27 
   2   5  -4  121.80    5.14 
  -2   5   4  123.68    5.28 
   2   5  -4  125.22    5.20 
  -2   5   4  128.03    5.29 
  -2   5   4  120.57    5.26 
  -2  -5   4  127.72    5.14 
  -2  -5   4  121.96    5.27 
  -2  -5   4  121.69    5.16 
  -2  -5   4  127.38    5.19 
   2  -5  -4  115.35    5.24 
  -2  -5   4  125.72    5.15 
   2  -5  -4  132.78    5.30 
   2  -5  -4  130.74    5.29 
   2  -5  -4  121.26    5.23 
   2  -5  -4  123.63    5.21 
  -2   5   3    9.25    0.86 
  -2   5   3    8.87    0.59 
  -2   5   3    9.70    0.85 
   2   5  -3    9.76    0.86 
  -2   5   3    8.55    0.85 
   2   5  -3    9.53    0.82 
   2   5  -3   10.27    0.85 
  -2   5   3    9.28    0.83 
  -2   5   3    8.97    0.91 
  -2   5   3    8.60    0.92 
   2   5  -3    8.86    0.71 
   2   5  -3    9.27    0.89 
  -2   5   3    9.23    0.82 
   2  -5  -3    8.87    0.78 
   2  -5  -3    9.08    0.95 
   2  -5  -3    9.34    0.87 
   2  -5  -3    8.53    0.87 
  -2  -5   3   10.03    0.88 
  -2  -5   3   10.32    0.72 
  -2  -5   3    9.11    0.73 
   2  -5  -3    8.63    0.86 
   2  -5  -3    9.12    0.99 
  -2  -5   3    9.47    0.77 
  -2  -5   3    8.77    0.80 
   2   5  -2  236.28    9.55 
  -2   5   2  234.91    9.58 
  -2   5   2  240.78    9.48 
   2   5  -2  241.87    9.59 
  -2   5   2  245.01    9.65 
   2   5  -2  233.07    9.61 
  -2   5   2  233.07    9.63 
  -2   5   2  232.26    9.51 
   2   5  -2  239.76    9.63 
  -2   5   2  230.59    9.56 
   2   5  -2  238.43    9.61 
  -2   5   2  234.80    9.60 
  -2  -5   2  239.74    9.55 
   2  -5  -2  233.34    9.61 
  -2  -5   2  234.49    9.57 
  -2  -5   2  230.13    9.59 
   2  -5  -2  226.27    9.59 
   2  -5  -2  234.96    9.57 
   2  -5  -2  200.54    9.70 
   2  -5  -2  244.91    9.60 
  -2  -5   2  220.54    9.60 
  -2  -5   2  238.48    9.59 
   2  -5  -2  234.69    9.59 
   2   5  -1   13.71    1.05 
   2   5  -1   12.35    0.99 
   2   5  -1   14.64    0.98 
  -2   5   1   13.88    0.88 
  -2   5   1   13.30    1.03 
  -2   5   1   14.15    0.85 
   2   5  -1   13.54    0.99 
  -2   5   1   14.10    0.87 
  -2   5   1   15.68    1.09 
   2   5  -1   13.88    0.89 
  -2   5   1   12.77    1.01 
  -2   5   1   13.74    0.93 
   2  -5  -1   13.46    0.89 
  -2  -5   1   13.59    0.87 
  -2  -5   1   14.85    1.05 
  -2  -5   1   14.41    0.96 
   2  -5  -1   13.76    1.04 
   2  -5  -1   12.56    1.02 
  -2  -5   1   14.12    0.95 
  -2  -5   1   14.29    0.91 
   2  -5  -1   13.06    0.95 
   2  -5  -1   15.63    1.05 
  -2  -5   1   13.87    0.92 
  -2   5   0  122.72    5.11 
   2   5   0  121.92    5.14 
   2   5   0  123.15    5.12 
  -2   5   0  122.39    5.07 
  -2   5   0  125.52    5.06 
  -2   5   0  127.48    5.10 
   2   5   0  123.23    5.08 
  -2   5   0  123.74    5.15 
   2   5   0  123.34    5.16 
  -2   5   0  121.29    5.14 
  -2   5   0  120.26    5.04 
  -2   5   0  123.47    5.06 
   2   5   0  123.40    5.11 
  -2  -5   0  115.16    5.09 
  -2  -5   0  122.83    5.09 
   2  -5   0  122.78    5.13 
   2  -5   0  120.64    5.10 
   2  -5   0  114.33    5.10 
  -2  -5   0  121.65    5.13 
   2  -5   0  122.73    5.07 
   2  -5   0  121.37    5.19 
  -2  -5   0  120.53    5.07 
  -2  -5   0  106.95    5.13 
  -2  -5   0  125.15    5.11 
   2  -5   0  120.39    5.10 
  -2  -5   0  121.36    4.97 
   2   5   1    0.67    0.48 
   2   5   1    0.69    0.44 
   2   5   1   -0.01    0.39 
  -2   5  -1    0.44    0.40 
  -2   5  -1    0.52    0.36 
  -2   5  -1    0.10    0.46 
  -2   5  -1    0.53    0.43 
  -2   5  -1    0.27    0.31 
   2   5   1    1.01    0.36 
  -2   5  -1    0.14    0.43 
  -2   5  -1    0.19    0.34 
  -2   5  -1    0.60    0.33 
   2   5   1    0.21    0.41 
  -2  -5  -1    0.12    0.39 
   2  -5   1    0.15    0.38 
   2  -5   1   -0.76    0.59 
  -2  -5  -1    0.93    0.46 
   2  -5   1    0.48    0.41 
   2  -5   1    0.16    0.31 
   2  -5   1    0.02    0.31 
  -2  -5  -1    0.12    0.44 
   2  -5   1    0.43    0.36 
  -2  -5  -1    0.48    0.35 
  -2  -5  -1   -0.04    0.37 
  -2  -5  -1    0.30    0.37 
  -2  -5  -1    0.54    0.30 
  -2   5  -2   58.26    2.53 
  -2   5  -2   56.50    2.51 
  -2   5  -2   59.81    2.60 
  -2   5  -2   54.16    2.54 
  -2   5  -2   57.00    2.56 
  -2   5  -2   55.33    2.48 
   2   5   2   56.54    2.65 
  -2   5  -2   56.67    2.56 
   2   5   2   56.88    2.57 
   2   5   2   56.03    2.68 
   2   5   2   56.41    2.53 
  -2   5  -2   58.34    2.61 
   2   5   2   56.17    2.59 
  -2  -5  -2   55.66    2.52 
  -2  -5  -2   55.89    2.56 
  -2  -5  -2   55.74    2.54 
   2  -5   2   56.23    2.60 
   2  -5   2   60.65    2.56 
   2  -5   2   58.45    2.55 
  -2  -5  -2   55.18    2.72 
  -2  -5  -2   55.57    2.56 
   2  -5   2   55.67    2.55 
   2  -5   2   56.04    2.54 
  -2  -5  -2   54.61    2.48 
   2   5   3    0.73    0.42 
  -2   5  -3    2.09    0.51 
  -2   5  -3    1.63    0.48 
  -2   5  -3    1.61    0.56 
  -2   5  -3    1.60    0.44 
   2   5   3    2.25    0.80 
  -2   5  -3    0.44    0.49 
  -2   5  -3    0.60    0.44 
  -2   5  -3    1.30    0.40 
   2   5   3    1.84    0.55 
   2   5   3    0.93    0.46 
   2   5   3    0.90    0.45 
   2  -5   3    1.46    0.38 
  -2  -5  -3    2.45    0.47 
  -2  -5  -3    1.11    0.39 
  -2  -5  -3    1.14    0.48 
  -2  -5  -3    1.11    0.49 
   2  -5   3    0.84    0.45 
  -2  -5  -3    1.37    0.53 
   2  -5   3    0.87    0.46 
   2  -5   3    1.08    0.38 
  -2  -5  -3    1.06    0.48 
  -2  -5  -3    1.76    0.45 
   2  -5   3    1.03    0.49 
   2  -5   3    1.36    0.33 
  -2   5  -4  337.18   13.46 
  -2   5  -4  325.59   13.44 
   2   5   4  326.73   13.45 
  -2   5  -4  340.78   13.52 
   2   5   4  291.94   13.77 
   2   5   4  317.21   13.56 
   2   5   4  339.84   13.53 
  -2   5  -4  331.53   13.52 
  -2   5  -4  341.56   13.56 
  -2   5  -4  337.03   13.45 
   2   5   4  323.50   13.49 
  -2   5  -4  326.04   13.54 
  -2  -5  -4  336.04   13.48 
   2  -5   4  320.92   13.44 
   2  -5   4  336.28   13.41 
  -2  -5  -4  343.12   13.53 
   2  -5   4  321.66   13.48 
  -2  -5  -4  331.09   13.50 
   2  -5   4  321.74   13.46 
   2  -5   4  337.71   13.38 
  -2  -5  -4  327.38   13.45 
  -2  -5  -4  325.82   13.48 
   2  -5   4  348.17   13.47 
  -2  -5  -4  351.48   13.49 
  -2  -5  -4  329.75   13.42 
  -2   5  -5   32.98    2.03 
  -2   5  -5   32.59    1.63 
   2   5   5   34.34    1.88 
  -2   5  -5   30.47    1.96 
   2   5   5   30.60    1.85 
  -2   5  -5   34.33    1.88 
   2   5   5   32.20    1.75 
  -2   5  -5   34.44    1.81 
   2   5   5   34.11    1.78 
   2   5   5   30.83    2.29 
  -2   5  -5   34.07    1.68 
  -2  -5  -5   33.42    1.76 
  -2  -5  -5   32.58    1.83 
   2  -5   5   35.71    1.66 
  -2  -5  -5   33.41    1.87 
  -2  -5  -5   32.32    1.74 
   2  -5   5   33.29    1.80 
  -2  -5  -5   33.20    1.69 
  -2  -5  -5   34.70    1.64 
   2  -5   5   33.20    1.60 
   2  -5   5   34.55    1.54 
  -2  -5  -5   32.66    1.74 
   2  -5   5   35.21    1.71 
   2  -5   5   32.95    1.79 
   2   5   6  186.65    7.31 
  -2   5  -6  181.67    7.18 
  -2   5  -6  177.97    7.46 
   2   5   6  183.17    7.42 
  -2   5  -6  178.43    7.25 
  -2   5  -6  150.37    7.26 
   2   5   6  167.22    7.34 
   2   5   6  179.57    7.39 
  -2  -5  -6  175.88    7.16 
  -2  -5  -6  170.32    7.31 
   2  -5   6  155.64    7.16 
  -2  -5  -6  172.70    7.22 
  -2  -5  -6  175.24    7.34 
  -2  -5  -6  180.72    7.28 
   2  -5   6  147.13    7.22 
   2  -5   6  186.76    7.05 
  -2  -5  -6  174.06    7.25 
   2  -5   6  176.61    7.30 
  -2  -5  -6  177.83    7.24 
   2  -5   6  181.41    7.21 
   2   5   7    4.31    1.26 
  -2   5  -7    4.28    0.51 
  -2   5  -7    4.52    1.22 
  -2   5  -7    3.55    0.79 
   2   5   7    4.35    0.82 
  -2   5  -7    4.95    0.65 
   2   5   7    3.83    0.82 
  -2  -5  -7    3.33    0.57 
  -2  -5  -7    3.81    0.56 
  -2  -5  -7    3.85    0.71 
   2  -5   7    4.17    0.72 
  -2  -5  -7    4.50    0.85 
  -2  -5  -7    4.15    0.78 
   2  -5   7    3.62    0.89 
  -2   5  -8    2.81    1.07 
   2   5   8    2.30    0.72 
  -2   5  -8    0.82    1.13 
  -2   5  -8    1.39    0.72 
  -2   5  -8    1.74    0.46 
   2   5   8    2.73    0.73 
   2   5   8   -1.12    1.79 
   2   5   8    1.91    0.87 
  -2   5  -8    1.13    0.77 
  -2  -5  -8    2.56    0.93 
  -2  -5  -8    1.55    0.54 
  -2  -5  -8    1.21    0.74 
   2  -5   8    2.00    0.89 
  -2  -5  -8    2.41    0.65 
  -2  -5  -8    1.93    1.51 
   2  -5   8    1.80    0.39 
  -2  -5  -8    2.58    0.98 
   2  -5   8    3.58    1.06 
  -2   5  -9    0.82    1.13 
  -2   5  -9    1.04    0.47 
   2   5   9    2.52    0.74 
   2   5   9   -0.34    0.97 
  -2   5  -9    2.33    1.02 
  -2  -5  -9    1.71    0.66 
  -2  -5  -9    0.64    0.80 
  -2  -5  -9    1.16    0.98 
  -2   5 -10  106.62    4.98 
  -2   5 -10  106.62    4.29 
   2   5  10   98.76    4.81 
  -2   5 -10  101.88    4.83 
  -2  -5 -10  103.84    4.46 
  -2  -5 -10   99.49    4.74 
  -2  -5 -10   97.09    4.55 
  -2   6   9   -0.04    0.99 
   2   6  -9    0.40    1.02 
   2  -6  -9    1.77    0.96 
   2  -6  -9   -0.22    0.76 
   2   6  -8    7.91    1.04 
  -2   6   8   12.30    1.21 
   2   6  -8   10.47    0.94 
   2   6  -8    8.02    1.37 
  -2  -6   8   10.25    1.34 
   2  -6  -8    8.98    1.04 
  -2  -6   8   11.16    0.99 
  -2  -6   8    9.64    0.89 
   2  -6  -8    8.14    0.92 
  -2   6   7   26.26    1.92 
   2   6  -7   29.85    1.53 
   2   6  -7   29.34    1.90 
  -2   6   7   29.32    1.99 
  -2   6   7   31.12    1.98 
   2   6  -7   29.65    1.98 
  -2  -6   7   28.95    1.54 
   2  -6  -7   27.98    1.90 
   2  -6  -7   27.50    1.94 
  -2  -6   7   28.50    1.50 
   2  -6  -7   31.40    1.84 
   2  -6  -7   29.54    1.76 
  -2  -6   7   26.54    2.02 
  -2   6   6  255.67   10.18 
   2   6  -6  242.64    9.97 
  -2   6   6  250.70   10.19 
   2   6  -6  237.52   10.31 
   2   6  -6  241.48   10.16 
  -2   6   6  215.74   10.30 
   2  -6  -6  256.08   10.14 
  -2  -6   6  243.89    9.98 
   2  -6  -6  249.77   10.29 
   2  -6  -6  238.00   10.26 
   2  -6  -6  232.45   10.09 
  -2  -6   6  256.21    9.91 
  -2  -6   6  241.56   10.17 
  -2  -6   6  257.31   10.02 
   2   6  -5   71.14    3.06 
  -2   6   5   71.74    3.31 
  -2   6   5   73.88    3.31 
  -2   6   5   70.45    3.27 
   2   6  -5   73.30    3.20 
  -2  -6   5   67.31    3.07 
   2  -6  -5   70.83    3.32 
   2  -6  -5   68.79    3.21 
   2  -6  -5   60.06    3.52 
   2  -6  -5   69.15    3.17 
  -2  -6   5   75.62    3.06 
  -2  -6   5   73.91    3.14 
   2  -6  -5   68.28    3.23 
  -2  -6   5   65.77    3.29 
   2   6  -4   79.39    3.39 
   2   6  -4   80.06    3.61 
   2   6  -4   78.67    3.55 
  -2   6   4   82.03    3.52 
  -2   6   4   81.58    3.60 
   2   6  -4   76.10    3.48 
  -2   6   4   68.33    3.55 
  -2   6   4   76.50    3.58 
  -2   6   4   80.73    3.26 
  -2   6   4   82.12    3.53 
   2  -6  -4   82.27    3.62 
   2  -6  -4   78.90    3.51 
  -2  -6   4   83.30    3.40 
  -2  -6   4   76.19    3.53 
  -2  -6   4   76.04    3.40 
   2  -6  -4   75.74    3.57 
   2  -6  -4   75.01    3.51 
   2  -6  -4   76.03    3.46 
  -2  -6   4   81.92    3.45 
   2   6  -3   16.21    1.21 
  -2   6   3   15.36    1.22 
  -2   6   3   16.00    1.44 
   2   6  -3   17.66    1.28 
   2   6  -3   18.63    1.07 
  -2   6   3   17.46    1.34 
   2   6  -3   16.03    1.47 
  -2   6   3   15.85    1.19 
  -2   6   3   18.23    0.97 
   2   6  -3   17.54    1.27 
  -2   6   3   16.44    1.32 
  -2   6   3   17.34    1.20 
  -2   6   3   17.56    1.17 
   2  -6  -3   16.11    1.24 
   2  -6  -3   17.20    1.16 
  -2  -6   3   15.31    1.22 
  -2  -6   3   16.54    1.20 
   2  -6  -3   15.51    1.29 
   2  -6  -3   19.59    1.38 
   2  -6  -3   16.66    1.23 
   2  -6  -3   17.59    1.35 
  -2  -6   3   16.22    1.10 
  -2  -6   3   18.49    1.19 
  -2  -6   3   17.12    1.07 
  -2   6   2   13.51    1.18 
   2   6  -2   14.38    1.19 
  -2   6   2   15.63    1.24 
   2   6  -2   12.63    1.12 
   2   6  -2   15.08    1.15 
  -2   6   2   13.33    1.01 
   2   6  -2   14.32    1.00 
  -2   6   2   15.16    0.93 
  -2   6   2   14.99    1.11 
  -2   6   2   14.36    1.03 
   2   6  -2   12.93    1.35 
  -2   6   2   13.33    1.33 
  -2   6   2   14.59    1.10 
   2  -6  -2   15.82    1.23 
  -2  -6   2   13.89    1.07 
   2  -6  -2   15.20    1.20 
   2  -6  -2   14.37    1.05 
  -2  -6   2   13.21    1.14 
   2  -6  -2   14.47    1.25 
  -2  -6   2   13.47    1.02 
   2  -6  -2   14.76    1.15 
   2  -6  -2   14.49    1.10 
  -2  -6   2   12.63    1.08 
   2   6  -1    1.66    0.49 
  -2   6   1    1.21    0.58 
   2   6  -1    0.94    0.56 
  -2   6   1    1.77    0.46 
  -2   6   1    1.56    0.42 
  -2   6   1    1.80    0.54 
   2   6  -1    1.50    0.54 
   2   6  -1    1.90    0.57 
  -2   6   1    1.58    0.62 
   2   6  -1    2.28    0.71 
  -2   6   1    1.12    0.41 
  -2   6   1    1.49    0.68 
  -2   6   1    1.86    0.45 
  -2  -6   1    2.26    0.56 
   2  -6  -1    1.25    0.51 
   2  -6  -1    0.92    0.41 
  -2  -6   1    1.06    0.44 
   2  -6  -1    1.67    0.56 
  -2  -6   1    1.23    0.51 
   2  -6  -1    2.11    0.62 
   2  -6  -1    1.15    0.47 
  -2  -6   1    1.64    0.44 
   2  -6  -1    2.01    0.63 
  -2  -6   1    1.97    0.52 
  -2   6   0  249.51   10.16 
   2   6   0  248.49   10.30 
   2   6   0  242.96   10.27 
   2   6   0  250.24   10.22 
  -2   6   0  253.10   10.20 
  -2   6   0  257.63   10.20 
  -2   6   0  257.13   10.30 
   2   6   0  240.89   10.24 
  -2   6   0  254.02   10.21 
   2   6   0  253.68   10.28 
  -2   6   0  246.60   10.24 
  -2   6   0  251.82   10.23 
  -2   6   0  241.46   10.27 
   2  -6   0  240.75   10.23 
  -2  -6   0  233.21   10.20 
   2  -6   0  245.59   10.32 
   2  -6   0  248.81   10.20 
   2  -6   0  263.05   10.28 
  -2  -6   0  249.31   10.23 
  -2  -6   0  259.74   10.22 
  -2  -6   0  258.70   10.28 
   2  -6   0  247.30   10.26 
  -2  -6   0  244.82   10.24 
  -2  -6   0  246.76   10.23 
   2  -6   0  243.27   10.24 
  -2  -6   0  249.65   10.11 
  -2   6  -1  114.99    4.81 
  -2   6  -1  111.58    4.95 
   2   6   1  115.66    4.99 
  -2   6  -1  115.48    4.90 
   2   6   1  116.53    5.01 
   2   6   1  114.24    4.96 
   2   6   1  117.49    4.91 
  -2   6  -1  117.25    4.88 
   2   6   1  114.72    4.96 
  -2   6  -1  117.53    4.90 
  -2   6  -1  119.20    4.91 
  -2   6  -1  116.44    4.99 
  -2   6  -1  115.94    4.95 
   2  -6   1  113.73    4.91 
  -2  -6  -1  119.35    4.94 
  -2  -6  -1  116.95    4.92 
   2  -6   1  109.96    5.06 
   2  -6   1  123.40    4.95 
   2  -6   1  110.61    4.92 
  -2  -6  -1  108.75    4.86 
  -2  -6  -1  117.44    4.80 
  -2  -6  -1  117.51    4.89 
   2  -6   1  113.87    4.85 
  -2  -6  -1  120.89    4.98 
   2  -6   1  109.32    4.90 
  -2  -6  -1  110.05    4.91 
  -2   6  -2  144.33    6.29 
  -2   6  -2  151.20    6.24 
  -2   6  -2  150.40    6.20 
  -2   6  -2  149.72    6.30 
   2   6   2  148.81    6.39 
   2   6   2  152.28    6.30 
   2   6   2  149.40    6.33 
  -2   6  -2  149.92    6.36 
  -2   6  -2  150.29    6.32 
   2   6   2  148.94    6.41 
   2   6   2  161.26    6.38 
  -2   6  -2  153.56    6.28 
  -2   6  -2  150.06    6.33 
  -2  -6  -2  148.82    6.35 
  -2  -6  -2  145.39    6.27 
  -2  -6  -2  154.14    6.21 
   2  -6   2  160.70    6.32 
   2  -6   2  150.95    6.23 
   2  -6   2  145.11    6.28 
  -2  -6  -2  145.93    6.32 
   2  -6   2  150.20    6.30 
  -2  -6  -2  146.25    6.27 
   2  -6   2  144.72    6.29 
   2  -6   2  149.67    6.30 
  -2  -6  -2  149.99    6.33 
  -2  -6  -2  149.85    6.25 
  -2   6  -3   42.63    2.26 
   2   6   3   45.21    2.23 
  -2   6  -3   40.99    2.10 
  -2   6  -3   40.96    2.14 
   2   6   3   45.81    2.27 
  -2   6  -3   41.82    2.05 
   2   6   3   44.00    2.49 
   2   6   3   41.30    2.16 
  -2   6  -3   42.84    2.01 
  -2   6  -3   41.30    2.27 
  -2   6  -3   43.06    2.20 
   2   6   3   42.15    2.25 
  -2  -6  -3   41.72    2.03 
   2  -6   3   40.83    2.14 
   2  -6   3   42.87    1.99 
  -2  -6  -3   43.31    2.12 
   2  -6   3   40.06    2.05 
   2  -6   3   43.12    2.14 
   2  -6   3   44.83    2.04 
  -2  -6  -3   45.17    2.25 
  -2  -6  -3   42.17    2.19 
  -2  -6  -3   43.99    2.17 
  -2  -6  -3   42.97    2.10 
  -2  -6  -3   48.27    2.10 
  -2   6  -4   53.29    2.54 
  -2   6  -4   50.75    2.53 
   2   6   4   49.08    2.52 
   2   6   4   52.64    2.65 
  -2   6  -4   51.00    2.42 
  -2   6  -4   51.93    2.40 
   2   6   4   54.77    2.60 
   2   6   4   44.82    3.16 
  -2   6  -4   50.28    2.45 
   2   6   4   50.17    2.62 
  -2  -6  -4   52.80    2.46 
  -2  -6  -4   50.97    2.39 
  -2  -6  -4   56.65    2.53 
   2  -6   4   49.43    2.39 
  -2  -6  -4   50.09    2.51 
  -2  -6  -4   51.64    2.43 
  -2  -6  -4   51.45    2.60 
   2  -6   4   55.70    2.46 
   2  -6   4   53.98    2.34 
   2  -6   4   52.53    2.34 
   2  -6   4   51.44    2.52 
   2   6   5    2.64    0.77 
   2   6   5    2.66    1.25 
   2   6   5    3.20    0.84 
  -2   6  -5    3.10    0.55 
  -2   6  -5    2.58    0.97 
   2   6   5    0.80    0.92 
  -2   6  -5    2.79    0.73 
  -2   6  -5    2.76    0.63 
  -2  -6  -5    3.29    0.85 
  -2  -6  -5    2.34    0.56 
  -2  -6  -5    2.45    0.90 
  -2  -6  -5    3.34    0.75 
   2  -6   5    3.03    0.56 
  -2  -6  -5    2.33    0.73 
  -2  -6  -5    2.61    0.65 
   2  -6   5    3.19    0.63 
  -2  -6  -5    2.90    0.64 
   2  -6   5    3.34    0.76 
   2  -6   5    2.07    0.49 
   2  -6   5    2.36    0.63 
   2   6   6  109.32    5.01 
  -2   6  -6  107.07    4.90 
   2   6   6  111.43    4.88 
  -2   6  -6  109.30    4.75 
   2   6   6  106.80    5.08 
  -2   6  -6  115.41    4.89 
  -2   6  -6  108.87    4.67 
   2   6   6  109.17    4.94 
   2  -6   6  112.03    4.57 
   2  -6   6  110.53    4.73 
   2  -6   6  110.59    4.87 
  -2  -6  -6  109.83    4.87 
  -2  -6  -6  112.60    4.70 
  -2  -6  -6  113.84    5.02 
  -2  -6  -6  110.47    4.86 
  -2  -6  -6  103.50    4.73 
  -2   6  -7   26.98    1.86 
   2   6   7   25.15    1.84 
   2   6   7   25.06    1.98 
  -2   6  -7   25.51    1.80 
  -2   6  -7   22.71    2.10 
  -2   6  -7   25.04    1.43 
  -2  -6  -7   24.55    1.64 
  -2  -6  -7   26.44    1.56 
   2  -6   7   25.62    2.00 
  -2  -6  -7   27.46    2.00 
   2  -6   7   26.77    1.67 
  -2  -6  -7   22.48    2.13 
   2  -6   7   25.19    1.41 
   2   6   8  113.28    4.82 
  -2   6  -8  105.95    5.03 
  -2   6  -8  110.70    5.20 
  -2   6  -8  109.64    4.69 
   2   6   8  109.62    5.11 
   2  -6   8  109.04    4.64 
  -2  -6  -8  114.86    4.92 
  -2  -6  -8  110.85    4.86 
   2  -6   8  109.07    5.18 
  -2  -6  -8  112.64    4.77 
   2  -6   8  112.43    4.89 
  -2   6  -9   20.64    2.17 
  -2   6  -9   20.95    1.38 
   2   6   9   18.24    1.72 
  -2   6  -9   26.39    2.19 
  -2  -6  -9   21.34    1.92 
   2  -6   9   20.52    1.69 
   2  -6   9   21.97    2.04 
  -2  -6  -9   23.73    1.64 
  -2  -6  -9   23.65    1.75 
   2  -6   9   20.91    1.17 
  -2   7   8   46.76    2.96 
   2   7  -8   49.60    2.91 
   2  -7  -8   46.43    2.68 
  -2  -7   8   44.08    2.23 
   2  -7  -8   45.45    2.63 
  -2  -7   8   49.97    3.04 
  -2   7   7   62.42    3.29 
   2   7  -7   63.92    3.29 
   2  -7  -7   63.73    3.10 
  -2  -7   7   62.53    2.91 
   2  -7  -7   63.05    3.11 
  -2  -7   7   60.58    3.30 
  -2  -7   7   59.83    2.83 
  -2   7   6   -0.15    0.83 
   2   7  -6    0.27    0.62 
   2   7  -6    2.18    0.92 
  -2   7   6    0.77    0.87 
   2  -7  -6    1.05    0.78 
  -2  -7   6    0.79    0.56 
   2  -7  -6    1.62    0.77 
   2  -7  -6    1.21    0.94 
  -2  -7   6    0.21    0.90 
  -2  -7   6    1.63    0.75 
  -2  -7   6    2.20    0.70 
  -2   7   5   10.37    1.27 
  -2   7   5   11.49    0.79 
  -2   7   5   12.68    1.25 
   2   7  -5   12.42    1.18 
  -2   7   5   11.42    1.25 
   2   7  -5   12.08    1.21 
   2   7  -5   13.90    1.16 
  -2  -7   5   13.36    1.18 
   2  -7  -5   17.42    1.40 
   2  -7  -5   13.35    1.29 
  -2  -7   5   12.32    1.29 
  -2  -7   5   12.48    1.12 
  -2  -7   5   11.53    1.15 
   2  -7  -5   12.02    1.09 
   2   7  -4   35.47    2.19 
   2   7  -4   38.52    1.96 
   2   7  -4   38.99    2.18 
  -2   7   4   39.04    2.08 
  -2   7   4   35.15    2.25 
  -2   7   4   39.84    1.78 
  -2   7   4   36.08    2.27 
  -2   7   4   40.31    2.10 
   2  -7  -4   39.36    2.17 
   2  -7  -4   38.61    2.09 
  -2  -7   4   38.19    1.96 
  -2  -7   4   37.28    1.96 
   2  -7  -4   37.55    2.07 
   2  -7  -4   37.00    2.28 
  -2  -7   4   38.87    2.07 
   2  -7  -4   40.02    2.37 
  -2  -7   4   37.70    2.15 
  -2   7   3  129.15    5.46 
  -2   7   3  131.79    5.33 
  -2   7   3  129.74    5.50 
   2   7  -3  122.81    5.43 
   2   7  -3  125.42    5.53 
   2   7  -3  119.67    5.89 
  -2   7   3  135.33    5.50 
  -2   7   3  129.34    5.62 
  -2   7   3  131.74    5.65 
   2  -7  -3  130.42    5.60 
   2  -7  -3  132.38    5.60 
   2  -7  -3  126.21    5.56 
  -2  -7   3  119.19    5.50 
   2  -7  -3  127.28    5.55 
  -2  -7   3  126.25    5.45 
   2  -7  -3  126.22    5.52 
  -2  -7   3  132.80    5.42 
   2  -7  -3  130.11    5.50 
  -2   7   2   71.15    3.29 
  -2   7   2   68.09    3.40 
   2   7  -2   72.18    3.37 
  -2   7   2   71.97    3.45 
   2   7  -2   75.57    3.48 
  -2   7   2   68.71    3.24 
  -2   7   2   71.72    3.29 
  -2   7   2   70.88    3.40 
   2   7  -2   70.50    3.25 
  -2   7   2   72.98    3.22 
   2   7  -2   70.58    3.33 
   2  -7  -2   72.38    3.30 
   2  -7  -2   74.65    3.42 
   2  -7  -2   74.53    3.38 
  -2  -7   2   74.29    3.34 
  -2  -7   2   71.51    3.30 
   2  -7  -2   74.29    3.43 
   2   7  -1  222.92    9.37 
   2   7  -1  218.50    9.34 
  -2   7   1  230.78    9.30 
  -2   7   1  223.43    9.20 
  -2   7   1  225.33    9.25 
  -2   7   1  223.68    9.37 
   2   7  -1  227.64    9.27 
  -2   7   1  229.21    9.21 
  -2   7   1  230.13    9.39 
   2   7  -1  215.96    9.34 
  -2   7   1  217.66    9.26 
   2  -7  -1  224.81    9.32 
  -2  -7   1  221.18    9.29 
  -2  -7   1  212.72    9.28 
   2  -7  -1  230.68    9.39 
  -2  -7   1  232.45    9.33 
  -2  -7   1  216.69    9.27 
   2  -7  -1  240.39    9.37 
   2  -7  -1  219.53    9.26 
   2  -7  -1  225.08    9.33 
  -2  -7   1  226.44    9.24 
   2  -7  -1  217.25    9.32 
   2   7   0   21.78    1.53 
  -2   7   0   18.02    1.39 
  -2   7   0   18.83    1.39 
   2   7   0   21.05    1.43 
  -2   7   0   20.72    1.53 
  -2   7   0   22.90    1.40 
   2   7   0   20.92    1.68 
  -2   7   0   20.26    1.35 
   2   7   0   19.54    1.60 
  -2   7   0   20.76    1.21 
  -2   7   0   20.34    1.65 
   2  -7   0   19.98    1.66 
   2  -7   0   20.03    2.01 
  -2  -7   0   19.67    1.63 
  -2  -7   0   18.14    1.39 
  -2  -7   0   19.35    1.51 
  -2  -7   0   20.30    0.97 
   2  -7   0   19.80    1.41 
   2  -7   0   20.88    1.58 
   2  -7   0   19.52    1.34 
  -2  -7   0   19.52    1.36 
  -2  -7   0   19.77    1.39 
  -2  -7   0   18.30    1.31 
   2  -7   0   22.29    1.44 
  -2   7  -1    1.03    0.45 
   2   7   1    0.37    0.73 
  -2   7  -1    0.55    0.68 
   2   7   1    1.45    0.76 
  -2   7  -1    1.01    0.58 
   2   7   1    0.63    0.68 
  -2   7  -1    0.75    0.59 
  -2   7  -1    0.02    0.73 
  -2   7  -1    1.57    0.61 
  -2   7  -1   -0.54    0.41 
   2   7   1    0.25    0.77 
  -2  -7  -1    0.35    0.53 
   2  -7   1    0.66    0.88 
  -2  -7  -1    0.60    0.57 
  -2  -7  -1    0.24    0.59 
   2  -7   1    0.63    0.47 
  -2  -7  -1    0.79    0.68 
   2  -7   1    0.69    0.60 
  -2  -7  -1   -0.53    0.72 
   2  -7   1    0.56    0.60 
   2  -7   1    0.73    0.69 
   2  -7   1    0.76    0.75 
  -2  -7  -1    0.25    0.74 
  -2  -7  -1    0.73    0.55 
   2   7   2    5.34    0.80 
  -2   7  -2    3.86    0.84 
   2   7   2    5.19    0.91 
  -2   7  -2    4.37    0.53 
  -2   7  -2    2.64    0.52 
   2   7   2    3.12    0.81 
   2   7   2    3.95    0.93 
  -2   7  -2    6.59    1.01 
  -2   7  -2    5.11    0.76 
  -2   7  -2    3.66    0.63 
  -2   7  -2    5.94    0.79 
  -2  -7  -2    4.31    0.68 
  -2  -7  -2    4.79    0.93 
   2  -7   2    4.91    0.76 
   2  -7   2    4.19    0.63 
  -2  -7  -2    4.56    0.65 
  -2  -7  -2    5.19    0.86 
   2  -7   2    4.07    0.68 
   2  -7   2    4.42    0.89 
   2  -7   2    4.04    0.79 
  -2  -7  -2    4.05    0.65 
  -2  -7  -2    3.58    0.71 
  -2  -7  -2    3.57    0.78 
   2   7   3   37.14    2.16 
   2   7   3   40.50    2.29 
   2   7   3   38.06    2.55 
  -2   7  -3   40.17    2.13 
  -2   7  -3   39.17    2.12 
  -2   7  -3   32.85    2.53 
   2   7   3   40.08    2.30 
  -2   7  -3   38.11    1.85 
  -2  -7  -3   36.57    2.25 
  -2  -7  -3   39.37    2.18 
  -2  -7  -3   39.81    2.05 
   2  -7   3   38.15    1.92 
  -2  -7  -3   41.45    2.06 
  -2  -7  -3   38.29    2.09 
   2  -7   3   35.23    2.30 
   2  -7   3   40.36    2.08 
  -2  -7  -3   39.58    1.99 
   2  -7   3   37.99    2.00 
  -2  -7  -3   37.01    2.29 
   2  -7   3   39.83    1.93 
  -2   7  -4   42.63    2.29 
   2   7   4   39.78    2.42 
  -2   7  -4   40.30    2.09 
  -2   7  -4   40.44    1.97 
   2   7   4   44.07    2.52 
  -2   7  -4   40.54    2.23 
   2   7   4   42.31    3.14 
  -2  -7  -4   40.64    2.21 
  -2  -7  -4   39.19    2.28 
   2  -7   4   40.04    2.27 
   2  -7   4   41.07    2.04 
   2  -7   4   41.72    2.17 
  -2  -7  -4   44.25    2.48 
  -2  -7  -4   41.28    2.19 
  -2  -7  -4   41.76    2.34 
  -2  -7  -4   41.82    2.50 
  -2  -7  -4   41.43    2.08 
   2  -7   4   41.88    1.98 
   2   7   5  174.95    8.56 
  -2   7  -5  193.80    8.03 
  -2   7  -5  194.13    7.97 
   2   7   5  193.07    8.31 
  -2   7  -5  195.97    8.17 
   2   7   5  201.75    8.27 
  -2   7  -5  198.70    8.19 
   2  -7   5  200.46    8.12 
  -2  -7  -5  188.93    8.21 
  -2  -7  -5  199.11    8.17 
   2  -7   5  190.16    8.03 
   2  -7   5  188.02    8.15 
  -2  -7  -5  186.37    8.03 
  -2  -7  -5  196.72    8.12 
   2  -7   5  196.83    7.97 
  -2  -7  -5  191.57    8.38 
   2   7   6   13.65    1.58 
  -2   7  -6   15.58    1.38 
  -2   7  -6   14.73    1.26 
   2   7   6   14.63    1.46 
  -2   7  -6   15.14    1.35 
   2  -7   6   14.84    1.36 
   2  -7   6   13.50    1.23 
   2  -7   6   15.02    1.52 
  -2  -7  -6   13.63    1.37 
  -2  -7  -6   13.94    1.46 
  -2  -7  -6   16.30    1.38 
   2   7   7   11.39    1.43 
  -2   7  -7   13.11    1.24 
   2   7   7   16.51    1.39 
  -2   7  -7   15.00    1.32 
  -2   7  -7   10.67    1.30 
   2  -7   7   12.72    1.46 
  -2  -7  -7   15.44    1.46 
  -2  -7  -7   15.15    1.27 
   2  -7   7   12.46    1.22 
  -2  -7  -7   13.25    1.19 
   2  -7   7   14.69    1.43 
  -2   7  -8   -0.02    0.63 
   2   7   8    0.56    1.23 
  -2   7  -8    1.18    1.19 
   2  -7   8    0.49    0.63 
  -2  -7  -8   -1.68    0.90 
  -2  -7  -8    0.34    0.82 
   2  -7   8    1.96    1.48 
  -2  -7  -8   -0.03    0.81 
   2   8  -7   93.41    4.49 
  -2   8   7   88.02    4.61 
   2  -8  -7   94.47    4.35 
  -2  -8   7   85.97    4.03 
  -2  -8   7   87.94    4.54 
   2  -8  -7   96.24    4.36 
  -2   8   6    4.40    1.21 
  -2   8   6    7.87    1.20 
   2   8  -6    5.43    1.14 
  -2  -8   6    5.96    1.24 
   2  -8  -6    5.58    1.11 
   2  -8  -6    7.39    1.14 
  -2  -8   6    6.68    0.86 
  -2   8   5  172.96    7.39 
   2   8  -5  166.04    7.29 
  -2   8   5  169.88    7.23 
   2  -8  -5  173.90    7.40 
  -2  -8   5  165.00    7.27 
  -2  -8   5  165.78    7.08 
   2  -8  -5  165.71    7.22 
   2   8  -4    8.10    1.08 
  -2   8   4    5.99    0.98 
  -2   8   4    7.35    1.21 
  -2   8   4    6.56    1.33 
  -2  -8   4    5.46    0.82 
   2  -8  -4    5.12    1.01 
  -2  -8   4    5.42    1.00 
   2  -8  -4    6.26    0.98 
   2  -8  -4    7.98    1.05 
  -2   8   3   33.27    2.26 
  -2   8   3   31.56    2.06 
   2   8  -3   31.22    2.14 
  -2   8   3   32.06    2.20 
  -2   8   3   32.17    1.91 
  -2   8   3   32.92    2.59 
   2  -8  -3   33.66    2.02 
   2  -8  -3   27.43    2.39 
   2  -8  -3   33.40    2.08 
  -2  -8   3   32.05    1.90 
  -2  -8   3   33.16    2.06 
   2  -8  -3   28.20    2.09 
   2  -8  -3   30.90    2.48 
  -2   8   2    1.96    0.67 
  -2   8   2    2.37    1.00 
  -2   8   2    1.93    0.85 
  -2   8   2    2.54    0.78 
   2   8  -2    2.91    0.87 
   2   8  -2    0.10    0.95 
  -2   8   2    1.62    0.82 
   2   8  -2    1.83    0.84 
  -2   8   2    2.33    1.17 
   2  -8  -2    1.27    1.02 
  -2  -8   2    1.35    0.70 
  -2  -8   2    2.83    0.83 
   2  -8  -2    1.70    0.74 
   2  -8  -2    0.65    1.06 
   2  -8  -2    1.11    0.71 
  -2  -8   2    2.33    0.93 
   2  -8  -2    1.82    1.34 
   2  -8  -2    2.23    0.83 
  -2   8   1   50.54    2.54 
  -2   8   1   46.66    2.33 
   2   8  -1   43.71    2.63 
   2   8  -1   49.37    2.64 
  -2   8   1   48.53    2.94 
  -2   8   1   46.27    2.70 
  -2   8   1   48.28    2.51 
  -2   8   1   47.65    2.51 
   2   8  -1   47.36    2.60 
  -2  -8   1   52.11    2.71 
   2  -8  -1   47.98    2.80 
  -2  -8   1   47.61    2.50 
   2  -8  -1   46.30    3.16 
   2  -8  -1   46.52    2.57 
   2  -8  -1   49.17    2.56 
   2  -8  -1   51.22    2.51 
  -2  -8   1   49.31    2.43 
  -2  -8   1   49.24    2.53 
  -2   8   0   13.64    1.10 
  -2   8   0   13.31    1.38 
  -2   8   0   14.54    1.44 
  -2   8   0   13.58    1.17 
   2   8   0   13.34    1.22 
   2   8   0   14.72    1.31 
  -2   8   0   14.24    1.66 
  -2   8   0   12.45    1.26 
   2  -8   0   12.60    1.21 
   2  -8   0   14.28    1.19 
  -2  -8   0   11.05    1.07 
  -2  -8   0    9.52    1.00 
  -2  -8   0   14.15    1.41 
  -2  -8   0   12.05    2.17 
  -2  -8   0   13.54    1.13 
   2  -8   0   10.31    1.06 
   2  -8   0   13.73    1.74 
   2  -8   0   13.64    1.35 
   2   8   1  186.93    8.11 
   2   8   1  188.51    8.11 
   2   8   1  192.37    8.19 
  -2   8  -1  195.74    7.99 
   2   8   1  186.56    8.14 
  -2   8  -1  189.89    8.08 
  -2   8  -1  197.28    7.99 
  -2   8  -1  190.68    7.80 
   2  -8   1  190.65    8.00 
  -2  -8  -1  191.81    8.11 
  -2  -8  -1  198.53    7.98 
   2  -8   1  193.82    8.05 
  -2  -8  -1  187.18    7.93 
  -2  -8  -1  186.69    7.71 
   2  -8   1  178.43    7.98 
   2  -8   1  173.69    8.05 
  -2  -8  -1  193.99    8.03 
  -2   8  -2    1.37    0.81 
   2   8   2    2.36    1.08 
   2   8   2   -0.11    1.19 
   2   8   2    0.95    1.11 
   2   8   2    1.36    1.03 
  -2   8  -2    1.11    0.76 
  -2   8  -2    1.37    0.94 
  -2   8  -2    1.99    0.54 
  -2  -8  -2    1.50    0.97 
   2  -8   2    0.87    0.76 
  -2  -8  -2    0.39    1.12 
  -2  -8  -2   -0.25    1.07 
  -2  -8  -2    1.51    0.68 
   2  -8   2    1.19    0.64 
  -2  -8  -2    0.67    0.77 
   2  -8   2    1.22    0.80 
  -2  -8  -2    1.26    0.80 
   2  -8   2    0.77    0.83 
   2  -8   2   -0.18    0.83 
  -2   8  -3   63.28    3.18 
  -2   8  -3   62.47    3.07 
   2   8   3   62.41    3.37 
   2   8   3   62.78    3.63 
   2   8   3   65.41    3.58 
  -2   8  -3   65.69    2.80 
  -2  -8  -3   63.19    3.12 
   2  -8   3   60.95    3.06 
  -2  -8  -3   60.68    3.56 
   2  -8   3   60.38    3.17 
  -2  -8  -3   67.52    3.23 
  -2  -8  -3   67.25    3.53 
  -2  -8  -3   62.53    3.18 
  -2  -8  -3   64.51    3.04 
  -2   8  -4    2.28    0.95 
   2   8   4    3.27    1.79 
  -2   8  -4    2.46    0.57 
  -2   8  -4    2.02    0.75 
   2   8   4    2.22    1.42 
   2  -8   4    1.78    0.95 
  -2  -8  -4    2.55    0.78 
  -2  -8  -4    1.79    0.93 
   2  -8   4    1.99    0.75 
  -2  -8  -4    2.62    0.92 
  -2   8  -5    6.25    1.13 
   2   8   5    6.57    1.97 
  -2   8  -5    5.00    0.85 
   2   8   5    5.81    1.30 
   2  -8   5    4.86    0.85 
   2  -8   5    6.15    1.16 
  -2  -8  -5    4.45    0.91 
  -2  -8  -5    5.20    0.91 
   2   8   6    4.58    1.36 
  -2   8  -6    4.86    0.89 
  -2   8  -6    2.98    1.10 
   2  -8   6    4.25    0.87 
  -2  -8  -6    2.98    1.09 
  -2  -8  -6    5.51    0.95 
  -2  -8  -6    3.53    0.92 
   2  -8   6    3.22    1.25 
  -2   8  -7   90.36    4.74 
   2   8   7   91.78    4.97 
  -2   8  -7  104.49    4.64 
  -2  -8  -7  104.83    4.45 
  -2  -8  -7   97.68    4.57 
   2  -8   7   98.46    4.87 
  -2  -8  -7   95.88    4.49 
   2   9  -5   -1.35    1.21 
  -2   9   5    1.14    1.32 
  -2  -9   5    0.61    1.29 
  -2  -9   5    0.22    0.95 
   2  -9  -5    1.46    1.23 
   2  -9  -5   -0.69    1.22 
  -2   9   4   30.53    2.21 
   2   9  -4   27.82    2.46 
  -2   9   4   30.56    2.68 
  -2  -9   4   30.42    2.39 
   2  -9  -4   31.23    2.41 
  -2  -9   4   30.60    2.08 
   2  -9  -4   31.83    2.38 
  -2   9   3  106.42    4.63 
   2   9  -3  103.57    4.87 
  -2   9   3  100.30    4.99 
   2  -9  -3  104.60    4.79 
   2  -9  -3  104.47    4.81 
   2  -9  -3  100.83    4.85 
  -2  -9   3  101.76    4.74 
  -2  -9   3  101.68    4.67 
   2   9  -2   75.90    3.90 
  -2   9   2   76.51    3.82 
  -2   9   2   73.58    4.02 
  -2   9   2   77.24    3.75 
  -2   9   2   78.30    3.87 
   2  -9  -2   76.89    3.78 
  -2  -9   2   76.05    3.71 
   2  -9  -2   78.95    3.79 
  -2  -9   2   77.52    3.76 
  -2   9   1   61.74    3.67 
   2   9  -1   70.82    3.57 
  -2   9   1   69.25    3.43 
  -2   9   1   68.72    3.11 
  -2   9   1   66.25    3.47 
  -2  -9   1   70.68    3.38 
   2  -9  -1   69.12    3.41 
  -2  -9   1   61.80    3.36 
   2  -9  -1   64.83    3.42 
  -2   9   0   15.52    1.34 
   2   9   0   16.68    1.61 
  -2   9   0   15.20    1.37 
  -2   9   0   14.63    1.39 
   2  -9   0   14.88    1.35 
  -2  -9   0   17.55    1.87 
  -2  -9   0   15.53    1.32 
   2  -9   0   13.95    1.33 
  -2   9  -1    8.76    1.32 
  -2   9  -1    5.35    1.04 
   2   9   1    5.72    1.36 
  -2   9  -1    5.36    1.07 
   2   9   1    4.03    1.36 
  -2  -9  -1    3.73    1.00 
   2  -9   1    6.25    1.17 
  -2  -9  -1    3.66    1.22 
   2  -9   1    6.97    1.15 
   2   9   2    7.52    1.66 
  -2   9  -2    8.72    1.20 
  -2   9  -2    7.52    1.11 
   2   9   2   10.63    1.54 
   2  -9   2    8.99    1.21 
  -2  -9  -2    8.15    1.19 
   2  -9   2    9.13    1.30 
  -2  -9  -2    7.80    1.12 
   2   9   3   48.56    3.40 
   2   9   3   54.17    3.99 
  -2   9  -3   58.92    2.99 
  -2   9  -3   57.51    3.14 
   2  -9   3   57.83    2.98 
   2  -9   3   56.28    3.15 
  -2  -9  -3   53.97    3.16 
  -2  -9  -3   54.24    3.03 
  -2  -9  -3   53.72    2.89 
  -2   9  -4   45.43    2.94 
  -2   9  -4   44.31    2.62 
   2   9   4   42.71    3.22 
  -2  -9  -4   44.64    2.34 
   2  -9   4   45.02    2.89 
   2  -9   4   44.21    2.63 
  -2  -9  -4   42.84    2.74 
  -2  -9  -4   44.70    2.57 
   3   0 -12  106.96    5.40 
   3   0 -12  112.50    5.11 
   3   0 -11    0.13    0.57 
   3   0 -11   -0.10    1.30 
   3   0 -10  210.57    9.29 
   3   0 -10  209.40    8.72 
   3   0 -10  218.68    9.15 
   3   0 -10  216.58    8.84 
   3   0 -10  221.94    8.69 
   3   0  -9    0.16    0.29 
   3   0  -9    0.78    1.03 
   3   0  -9    0.07    0.37 
   3   0  -9    0.01    0.20 
   3   0  -9   -0.73    1.08 
   3   0  -9   -0.23    0.73 
   3   0  -8   20.31    0.92 
   3   0  -8   17.54    1.83 
   3   0  -8   20.09    0.97 
   3   0  -8   18.66    1.35 
   3   0  -8   21.27    1.44 
   3   0  -8   22.72    1.95 
   3   0  -8   20.41    1.09 
   3   0  -7    0.45    0.48 
   3   0  -7   -0.34    0.45 
   3   0  -7   -0.04    0.21 
   3   0  -7    0.16    0.18 
   3   0  -7    0.28    0.29 
   3   0  -7    0.11    0.80 
   3   0  -7    0.06    0.80 
   3   0  -6  162.54    6.72 
   3   0  -6  147.98    7.04 
  -3   0   6  153.29    6.75 
   3   0  -6  169.07    6.68 
   3   0  -6  170.46    7.01 
  -3   0   6  167.62    6.64 
   3   0  -6  173.89    6.77 
   3   0  -6  174.06    6.81 
   3   0  -6  157.47    6.70 
   3   0  -6  165.83    6.64 
  -3   0   6  167.98    6.84 
   3   0  -5    0.16    0.25 
  -3   0   5    0.15    0.17 
   3   0  -5   -0.13    0.20 
  -3   0   5    0.12    0.46 
   3   0  -5    0.06    0.17 
   3   0  -5    0.96    0.64 
   3   0  -5    0.85    0.35 
   3   0  -5    0.02    0.17 
  -3   0   5   -0.14    0.33 
   3   0  -5   -0.13    0.37 
   3   0  -4  879.64   33.13 
   3   0  -4  809.87   33.04 
  -3   0   4  836.92   33.11 
  -3   0   4  813.53   33.07 
   3   0  -4  817.62   33.18 
  -3   0   4  758.81   33.18 
   3   0  -4  838.19   33.09 
  -3   0   4  901.13   33.06 
   3   0  -4  825.52   33.11 
   3   0  -4  753.57   33.28 
  -3   0   3    0.26    0.35 
   3   0  -3    0.02    0.17 
   3   0  -3    0.68    0.17 
  -3   0   3    0.16    0.20 
   3   0  -3    0.02    0.19 
  -3   0   3    0.17    0.16 
   3   0  -3    0.97    0.48 
   3   0  -3    0.23    0.21 
  -3   0   3    0.34    0.16 
   3   0  -3    0.43    0.29 
  -3   0   2   -0.07    0.32 
   3   0  -2   -0.49    0.18 
  -3   0   2    0.10    0.17 
  -3   0   2    0.30    0.22 
   3   0  -2   -0.25    0.26 
   3   0  -2    0.03    0.19 
   3   0  -2    0.37    0.31 
  -3   0   2   -0.24    0.17 
   3   0  -2    0.29    0.22 
   3   0  -2    0.73    0.44 
  -3   0   2   -0.19    0.22 
  -3   0   1   -0.95    0.37 
   3   0  -1   -0.69    0.20 
  -3   0   1   -0.65    0.18 
   3   0  -1    0.11    0.27 
   3   0  -1   -0.38    0.30 
   3   0  -1   -1.00    0.20 
   3   0  -1   -1.02    0.26 
  -3   0   1   -0.57    0.19 
  -3   0   1   -0.11    0.23 
   3   0  -1   -0.82    0.30 
   3   0   0  164.58    6.83 
  -3   0   0  168.26    6.85 
  -3   0   0  170.70    6.93 
   3   0   0  171.55    6.79 
   3   0   0  162.03    6.93 
  -3   0   0  182.76    6.91 
  -3   0   0  166.94    6.84 
   3   0   0  147.24    6.88 
  -3   0   0  166.32    6.81 
   3   0   0  161.31    6.84 
   3   0   1   -0.02    0.33 
   3   0   1    0.64    0.24 
   3   0   1   -0.06    0.25 
   3   0   1    0.30    0.32 
  -3   0  -1   -0.02    0.33 
  -3   0  -1    0.01    0.24 
  -3   0  -1    0.24    0.19 
   3   0   1    0.16    0.13 
  -3   0  -1    0.21    0.32 
   3   0   1    0.40    0.24 
  -3   0  -2  697.21   28.95 
  -3   0  -2  750.66   29.05 
  -3   0  -2  695.11   28.93 
  -3   0  -2  757.79   29.03 
   3   0   2  746.07   28.93 
   3   0   2  753.60   29.04 
   3   0   2  700.34   28.93 
  -3   0  -2  652.64   28.99 
  -3   0  -3    0.86    0.32 
  -3   0  -3    0.36    0.36 
  -3   0  -3    0.77    0.42 
   3   0   3    0.28    0.33 
   3   0   3   -0.07    0.46 
  -3   0  -3    0.01    0.24 
   3   0   3    1.08    0.26 
  -3   0  -3    0.45    0.24 
   3   0   3    0.24    0.20 
   3   0   3    0.21    0.26 
   3   0   4   65.68    2.73 
   3   0   4   65.44    2.84 
  -3   0  -4   61.06    2.73 
   3   0   4   56.33    2.96 
  -3   0  -4   65.22    2.90 
  -3   0  -4   64.59    2.78 
  -3   0  -4   62.86    2.58 
  -3   0  -4   63.98    2.76 
  -3   0  -4   64.27    2.85 
   3   0   4   66.44    2.66 
  -3   0  -4   64.53    2.58 
  -3   0  -5   -0.40    0.46 
   3   0   5   -0.31    0.57 
  -3   0  -5    0.02    0.32 
  -3   0  -5    0.05    0.29 
   3   0   5    0.51    0.20 
  -3   0  -5   -0.20    0.14 
   3   0   5   -0.33    0.37 
  -3   0  -5    0.07    0.17 
  -3   0  -5   -0.42    0.30 
  -3   0  -5    0.74    0.67 
  -3   0  -6   45.74    1.98 
   3   0   6   48.79    1.94 
  -3   0  -6   44.81    2.11 
   3   0   6   46.21    2.24 
  -3   0  -6   47.92    2.10 
   3   0   6   47.50    2.05 
  -3   0  -6   48.01    2.44 
  -3   0  -6   44.65    2.18 
   3   0   6   44.76    2.44 
  -3   0  -6   48.27    2.27 
  -3   0  -6   47.70    1.96 
  -3   0  -7   -0.21    0.37 
  -3   0  -7    0.83    0.43 
  -3   0  -7    0.27    0.46 
  -3   0  -7    0.18    0.56 
  -3   0  -7   -0.27    0.23 
  -3   0  -7    0.33    0.37 
   3   0   7    0.35    0.71 
  -3   0  -7    0.50    0.74 
  -3   0  -7    0.73    0.82 
   3   0   7    0.59    0.52 
   3   0   7    0.29    0.29 
   3   0   8  350.69   13.98 
  -3   0  -8  349.30   13.79 
  -3   0  -8  332.58   13.74 
  -3   0  -8  333.28   13.88 
  -3   0  -8  335.99   13.85 
  -3   0  -8  342.85   13.73 
   3   0   8  334.67   13.95 
  -3   0  -8  335.18   14.15 
   3   0   8  353.90   13.76 
  -3   0  -8  341.87   13.96 
  -3   0  -9    0.62    0.68 
  -3   0  -9    0.25    0.36 
   3   0   9    0.14    0.52 
  -3   0  -9    0.92    0.41 
  -3   0  -9    0.23    0.55 
   3   0   9    0.83    0.66 
   3   0   9    0.30    0.28 
  -3   0  -9    1.21    0.61 
  -3   0 -10   79.12    3.72 
   3   0  10   79.24    3.70 
  -3   0 -10   77.21    3.29 
  -3   0 -10   77.37    3.62 
  -3   0 -11    0.44    0.94 
  -3   0 -11    0.69    0.99 
  -3   0 -12    8.27    1.43 
  -3   0 -12    8.48    1.20 
   3   1 -12    1.11    1.77 
   3   1 -12    2.20    0.80 
   3   1 -12    1.80    1.12 
   3  -1 -12    0.39    1.28 
   3  -1 -12    1.21    0.46 
   3  -1 -12    1.05    0.54 
   3   1 -11    0.40    0.86 
   3   1 -11    1.32    1.52 
   3   1 -11    0.97    0.66 
   3  -1 -11    1.06    0.44 
   3  -1 -11    1.60    1.16 
   3  -1 -11    0.63    0.51 
   3  -1 -11    0.60    0.37 
   3   1 -10   47.12    2.28 
   3   1 -10   47.46    2.89 
   3  -1 -10   50.66    3.07 
   3  -1 -10   50.01    2.12 
   3  -1 -10   48.43    2.08 
   3  -1 -10   46.39    2.16 
   3  -1 -10   45.09    3.09 
   3   1  -9  101.50    4.80 
   3   1  -9  105.97    4.45 
   3   1  -9  104.90    4.60 
   3   1  -9   97.85    5.05 
   3   1  -9  104.36    4.66 
   3  -1  -9  109.31    4.64 
   3  -1  -9  107.52    4.32 
   3  -1  -9   99.38    5.01 
   3  -1  -9  107.65    4.35 
   3  -1  -9  105.01    4.36 
   3  -1  -9  105.99    4.82 
   3   1  -8  238.42    9.68 
   3   1  -8  244.03    9.78 
   3   1  -8  233.42    9.73 
   3   1  -8  223.40   10.08 
   3   1  -8  217.74    9.56 
   3   1  -8  242.76    9.88 
  -3   1   8  234.46    9.56 
  -3   1   8  253.10    9.67 
   3  -1  -8  241.25    9.79 
   3  -1  -8  250.16    9.56 
   3  -1  -8  234.19    9.59 
   3  -1  -8  227.91    9.97 
   3  -1  -8  240.42    9.71 
   3  -1  -8  226.73    9.60 
   3  -1  -8  236.78    9.58 
   3  -1  -8  241.39    9.59 
  -3   1   7   46.52    2.27 
  -3   1   7   46.80    1.97 
   3   1  -7   50.62    2.18 
   3   1  -7   41.72    2.03 
   3   1  -7   46.54    2.21 
   3   1  -7   44.79    2.45 
   3   1  -7   46.46    2.09 
   3   1  -7   42.03    2.68 
  -3   1   7   47.26    2.09 
   3  -1  -7   44.79    1.97 
   3  -1  -7   42.29    2.15 
   3  -1  -7   49.10    2.12 
   3  -1  -7   48.57    1.99 
   3  -1  -7   43.51    2.46 
   3  -1  -7   44.57    2.03 
   3  -1  -7   47.51    2.27 
   3  -1  -7   46.56    1.98 
  -3   1   6   51.15    2.19 
   3   1  -6   53.29    2.53 
  -3   1   6   52.53    2.40 
  -3   1   6   53.43    2.28 
   3   1  -6   47.85    2.71 
   3   1  -6   53.46    2.30 
   3   1  -6   50.72    2.26 
   3   1  -6   48.37    2.27 
   3   1  -6   50.00    2.32 
   3  -1  -6   55.86    2.40 
   3  -1  -6   49.13    2.59 
   3  -1  -6   52.07    2.19 
   3  -1  -6   51.76    2.19 
   3  -1  -6   51.62    2.23 
   3  -1  -6   50.11    2.18 
   3  -1  -6   51.80    2.17 
   3  -1  -6   52.88    2.23 
   3   1  -5   29.65    1.28 
   3   1  -5   30.94    1.31 
  -3   1   5   28.84    1.35 
  -3   1   5   32.90    1.58 
   3   1  -5   29.50    1.47 
   3   1  -5   31.77    1.69 
  -3   1   5   28.46    1.51 
   3   1  -5   31.78    1.44 
   3   1  -5   31.14    1.42 
   3  -1  -5   31.63    1.52 
   3  -1  -5   31.70    1.37 
   3  -1  -5   29.66    1.31 
  -3  -1   5   32.32    1.30 
   3  -1  -5   30.71    1.39 
   3  -1  -5   28.77    1.36 
   3  -1  -5   31.87    1.35 
   3  -1  -5   28.16    1.75 
  -3  -1   5   30.91    1.46 
  -3  -1   5   28.81    1.28 
  -3   1   4   57.19    2.45 
  -3   1   4   60.75    2.90 
  -3   1   4   59.54    2.50 
   3   1  -4   60.12    2.64 
  -3   1   4   58.58    2.54 
   3   1  -4   60.78    2.47 
   3   1  -4   58.31    2.51 
  -3   1   4   61.36    2.41 
   3   1  -4   55.58    2.41 
   3   1  -4   56.93    2.47 
   3   1  -4   53.78    2.51 
   3  -1  -4   58.80    2.39 
   3  -1  -4   57.67    2.45 
  -3  -1   4   56.50    2.45 
   3  -1  -4   58.65    2.39 
  -3  -1   4   60.41    2.48 
  -3  -1   4   59.54    2.44 
   3  -1  -4   55.93    2.43 
   3  -1  -4   51.21    2.69 
   3  -1  -4   60.35    2.53 
  -3   1   3  310.65   12.97 
   3   1  -3  277.27   12.95 
   3   1  -3  322.81   12.91 
   3   1  -3  324.49   12.91 
   3   1  -3  306.90   13.03 
  -3   1   3  324.76   12.93 
  -3   1   3  337.21   13.13 
   3   1  -3  319.08   12.93 
  -3   1   3  316.17   12.90 
   3   1  -3  333.81   13.02 
  -3   1   3  336.07   12.97 
   3  -1  -3  318.48   12.94 
   3  -1  -3  331.20   12.94 
   3  -1  -3  311.61   12.87 
   3  -1  -3  335.79   12.96 
  -3  -1   3  333.51   12.94 
  -3  -1   3  334.58   12.89 
  -3  -1   3  302.27   12.97 
   3  -1  -3  319.98   12.91 
  -3  -1   3  321.28   12.94 
   3  -1  -3  309.42   13.08 
   3   1  -2  120.03    4.97 
  -3   1   2  125.65    4.91 
  -3   1   2  117.57    4.96 
   3   1  -2  125.02    4.93 
   3   1  -2  118.61    5.01 
  -3   1   2  124.95    4.99 
   3   1  -2  120.18    4.96 
  -3   1   2  127.32    5.08 
   3   1  -2  113.55    5.04 
   3   1  -2  125.44    5.02 
  -3  -1   2  122.70    4.97 
  -3  -1   2  118.02    4.99 
   3  -1  -2  119.62    4.98 
  -3  -1   2  118.95    5.00 
   3  -1  -2  118.46    4.95 
   3  -1  -2  112.45    4.97 
  -3  -1   2  123.70    4.93 
   3  -1  -2  121.72    4.97 
   3  -1  -2  125.54    4.99 
  -3  -1   2  118.99    5.00 
   3  -1  -2  121.08    5.07 
   3   1  -1   96.87    4.17 
  -3   1   1   97.37    4.20 
  -3   1   1  101.83    4.27 
  -3   1   1   98.69    4.18 
  -3   1   1   96.17    4.14 
   3   1  -1  103.20    4.22 
   3   1  -1  101.70    4.17 
   3   1  -1  102.14    4.16 
  -3   1   1   99.89    4.18 
  -3   1   1  103.07    4.21 
   3   1  -1  106.77    4.17 
   3   1  -1  101.73    4.19 
   3  -1  -1  102.33    4.17 
   3  -1  -1   97.72    4.15 
  -3  -1   1  106.70    4.18 
   3  -1  -1  100.63    4.20 
   3  -1  -1  103.05    4.17 
  -3  -1   1  103.17    4.13 
  -3  -1   1   98.36    4.17 
  -3  -1   1   94.85    4.15 
  -3   1   0  254.15   10.18 
   3   1   0  250.22   10.18 
  -3   1   0  248.75   10.19 
  -3   1   0  253.97   10.22 
   3   1   0  252.12   10.15 
   3   1   0  249.78   10.13 
  -3   1   0  242.26   10.23 
   3   1   0  243.96   10.23 
   3   1   0  258.53   10.19 
  -3   1   0  253.90   10.19 
   3   1   0  243.09   10.22 
  -3   1   0  245.29   10.13 
  -3  -1   0  270.84   10.25 
  -3  -1   0  246.15   10.22 
   3  -1   0  264.46   10.15 
  -3  -1   0  246.81   10.17 
   3  -1   0  259.43   10.23 
   3  -1   0  262.09   10.25 
  -3  -1   0  247.34   10.16 
  -3  -1   0  241.72   10.12 
   3  -1   0  251.48   10.18 
   3  -1   0  247.51   10.18 
  -3  -1   0  239.29   10.17 
   3  -1   0  253.42   10.18 
   3   1   1  122.62    4.86 
   3   1   1  127.76    4.94 
   3   1   1  122.18    4.92 
   3   1   1  114.87    5.01 
  -3   1  -1  118.12    4.96 
  -3   1  -1  120.50    4.87 
  -3   1  -1  121.18    5.04 
   3   1   1  118.31    4.95 
  -3   1  -1  118.08    4.97 
  -3   1  -1  121.57    4.99 
  -3   1  -1  118.75    5.02 
   3  -1   1  114.06    5.01 
   3  -1   1  118.68    5.02 
  -3  -1  -1  114.46    5.09 
   3  -1   1  118.85    4.87 
  -3  -1  -1  117.39    4.95 
  -3  -1  -1  122.17    4.86 
   3  -1   1  122.86    4.97 
  -3  -1  -1  127.50    4.95 
   3  -1   1  118.94    4.97 
  -3  -1  -1  121.13    4.99 
  -3   1  -2   10.98    0.72 
   3   1   2   11.20    0.65 
   3   1   2   11.45    0.48 
  -3   1  -2    9.58    0.68 
   3   1   2   10.95    0.62 
  -3   1  -2    9.47    0.74 
  -3   1  -2   10.66    0.73 
  -3   1  -2   10.41    0.85 
  -3   1  -2   10.52    0.50 
   3   1   2   11.30    0.63 
  -3  -1  -2   10.57    0.47 
  -3  -1  -2   10.88    0.62 
   3  -1   2   10.76    0.51 
   3  -1   2    9.94    0.80 
   3  -1   2   10.05    0.79 
   3  -1   2   11.45    0.71 
  -3  -1  -2   10.45    0.71 
  -3  -1  -2    9.81    0.63 
   3  -1   2   10.15    0.70 
  -3  -1  -2   10.24    0.63 
  -3  -1  -2    9.72    1.06 
   3   1   3  329.51   14.86 
  -3   1  -3  346.19   15.02 
   3   1   3  349.02   15.02 
  -3   1  -3  381.65   15.00 
  -3   1  -3  378.12   14.85 
   3   1   3  384.28   14.93 
  -3   1  -3  392.45   15.14 
   3   1   3  374.31   15.13 
  -3   1  -3  345.26   14.97 
  -3   1  -3  404.22   15.04 
   3  -1   3  365.25   15.06 
   3  -1   3  382.26   14.98 
  -3  -1  -3  380.84   15.19 
   3  -1   3  370.67   14.97 
  -3  -1  -3  369.59   14.95 
  -3  -1  -3  359.17   14.96 
  -3  -1  -3  377.94   14.96 
   3  -1   3  377.48   15.05 
  -3  -1  -3  369.40   14.99 
   3  -1   3  382.12   15.02 
   3  -1   3  359.58   14.86 
  -3  -1  -3  366.87   14.83 
   3   1   4  331.15   12.67 
  -3   1  -4  304.85   12.85 
   3   1   4  316.26   12.85 
  -3   1  -4  320.30   12.74 
  -3   1  -4  336.50   12.82 
  -3   1  -4  310.68   12.80 
  -3   1  -4  309.27   12.75 
   3   1   4  319.00   12.71 
   3   1   4  292.86   12.79 
  -3   1  -4  317.42   12.60 
   3  -1   4  314.83   12.66 
   3  -1   4  314.82   12.81 
  -3  -1  -4  310.28   12.74 
   3  -1   4  317.17   12.65 
   3  -1   4  326.48   12.75 
   3  -1   4  319.56   12.80 
  -3  -1  -4  320.70   12.71 
  -3  -1  -4  305.97   12.72 
  -3  -1  -4  309.00   12.73 
  -3  -1  -4  307.73   12.58 
   3  -1   4  285.97   12.76 
  -3   1  -5   70.52    3.02 
  -3   1  -5   71.12    3.19 
   3   1   5   72.45    2.98 
  -3   1  -5   67.23    3.06 
   3   1   5   71.84    2.92 
  -3   1  -5   71.48    3.12 
  -3   1  -5   72.50    3.11 
  -3   1  -5   70.20    2.87 
   3   1   5   70.83    3.15 
   3   1   5   66.65    3.11 
  -3  -1  -5   71.48    3.02 
  -3  -1  -5   67.47    3.03 
   3  -1   5   68.36    3.11 
   3  -1   5   72.04    3.03 
  -3  -1  -5   70.95    3.35 
   3  -1   5   73.25    2.88 
  -3  -1  -5   68.70    3.04 
  -3  -1  -5   69.05    2.98 
  -3  -1  -5   68.11    2.85 
   3  -1   5   66.60    3.08 
  -3   1  -6  140.46    6.00 
  -3   1  -6  141.28    5.90 
   3   1   6  144.20    6.03 
  -3   1  -6  150.55    6.12 
  -3   1  -6  144.86    5.98 
  -3   1  -6  140.48    5.92 
  -3   1  -6  144.48    5.78 
   3   1   6  148.48    5.87 
  -3   1  -6  144.99    5.88 
   3   1   6  148.17    5.80 
   3   1   6  132.07    6.02 
  -3  -1  -6  140.78    5.96 
   3  -1   6  139.10    6.01 
  -3  -1  -6  138.42    5.76 
  -3  -1  -6  139.23    5.78 
   3  -1   6  137.08    5.93 
  -3  -1  -6  144.86    6.04 
  -3  -1  -6  149.61    6.25 
   3  -1   6  141.01    5.85 
  -3  -1  -6  145.52    5.90 
  -3  -1  -6  141.73    5.88 
  -3  -1  -6  139.89    5.95 
  -3   1  -7  145.03    5.86 
   3   1   7  150.79    5.93 
   3   1   7  146.60    6.10 
  -3   1  -7  148.33    6.29 
  -3   1  -7  140.00    6.07 
  -3   1  -7  138.14    5.92 
   3   1   7  137.51    6.17 
  -3   1  -7  140.79    5.92 
   3   1   7  147.21    5.83 
  -3   1  -7  141.31    6.08 
  -3   1  -7  141.30    5.97 
  -3  -1  -7  140.23    5.87 
   3  -1   7  139.67    5.95 
  -3  -1  -7  141.81    6.38 
  -3  -1  -7  147.14    6.16 
  -3  -1  -7  143.76    6.06 
   3  -1   7  142.97    6.10 
  -3  -1  -7  143.82    6.06 
   3  -1   7  150.36    5.89 
  -3  -1  -7  146.78    5.86 
  -3  -1  -7  150.55    5.97 
  -3  -1  -7  144.52    5.97 
   3   1   8   24.92    1.63 
  -3   1  -8   23.69    1.59 
  -3   1  -8   26.50    1.27 
  -3   1  -8   26.89    2.18 
  -3   1  -8   25.95    1.62 
  -3   1  -8   25.92    1.28 
   3   1   8   26.55    1.29 
   3   1   8   24.26    1.98 
  -3   1  -8   26.83    1.24 
  -3   1  -8   25.52    1.98 
  -3   1  -8   25.27    1.39 
  -3  -1  -8   25.81    1.57 
  -3  -1  -8   24.90    1.20 
  -3  -1  -8   26.24    1.39 
  -3  -1  -8   25.24    2.53 
  -3  -1  -8   24.52    1.75 
   3  -1   8   26.60    1.20 
   3  -1   8   24.93    1.26 
  -3  -1  -8   26.40    1.23 
   3  -1   8   27.27    1.65 
   3   1   9   15.79    1.40 
  -3   1  -9   13.21    1.33 
  -3   1  -9   13.00    1.04 
   3   1   9   18.27    1.82 
  -3   1  -9   14.50    1.40 
   3   1   9   14.07    0.90 
  -3  -1  -9   12.39    1.36 
  -3  -1  -9   14.23    1.10 
  -3  -1  -9   15.14    1.56 
  -3  -1  -9   14.38    0.95 
  -3  -1  -9   14.56    0.83 
  -3  -1  -9   13.28    1.84 
   3  -1   9   14.59    1.40 
  -3   1 -10   48.88    2.72 
  -3   1 -10   59.11    2.94 
   3   1  10   59.54    2.47 
  -3   1 -10   56.79    2.54 
   3   1  10   56.92    2.92 
   3   1  10   57.70    2.86 
  -3  -1 -10   54.99    2.68 
  -3  -1 -10   58.64    2.42 
  -3  -1 -10   51.87    2.86 
  -3  -1 -10   58.21    2.90 
   3   1  11   20.75    1.90 
  -3   1 -11   21.56    2.09 
  -3   1 -11   20.55    1.54 
  -3  -1 -11   21.19    1.39 
  -3  -1 -11   22.26    1.71 
  -3  -1 -11   22.12    2.00 
   3   2 -12   46.60    2.57 
   3   2 -12   50.37    2.89 
   3   2 -12   43.65    4.00 
   3  -2 -12   45.80    2.22 
   3  -2 -12   49.56    3.01 
   3   2 -11  114.17    6.32 
   3   2 -11  127.35    5.45 
   3   2 -11  128.28    5.56 
   3  -2 -11  124.68    5.67 
   3  -2 -11  128.84    5.26 
   3  -2 -11  129.09    5.28 
   3   2 -10    2.29    1.58 
   3   2 -10    2.97    0.74 
  -3   2  10    2.32    0.69 
   3   2 -10    2.02    0.64 
  -3   2  10    1.50    0.49 
   3  -2 -10    1.43    0.47 
   3  -2 -10    1.98    0.60 
   3  -2 -10    2.20    0.39 
   3  -2 -10    2.80    0.46 
   3  -2 -10    3.37    1.00 
   3   2  -9   12.61    1.30 
   3   2  -9   11.79    1.68 
   3   2  -9   12.76    1.36 
   3   2  -9   13.17    1.06 
  -3   2   9   11.91    0.91 
  -3   2   9   13.66    1.08 
   3   2  -9   14.59    1.19 
   3  -2  -9   13.96    0.96 
   3  -2  -9   12.06    1.31 
   3  -2  -9   12.78    0.84 
   3  -2  -9   10.64    1.14 
   3  -2  -9   12.14    0.87 
   3  -2  -9   12.62    0.76 
  -3   2   8   11.88    0.96 
   3   2  -8   11.27    1.11 
   3   2  -8    9.87    1.40 
   3   2  -8   12.71    1.20 
   3   2  -8   11.60    1.09 
  -3   2   8   14.09    1.30 
   3   2  -8   11.16    0.94 
  -3   2   8   12.78    0.97 
   3  -2  -8   12.13    0.80 
   3  -2  -8   12.45    1.06 
   3  -2  -8   11.99    0.83 
   3  -2  -8    9.62    1.05 
   3  -2  -8   12.40    0.97 
   3  -2  -8   12.30    0.76 
  -3   2   7  103.45    4.60 
   3   2  -7  109.51    4.30 
   3   2  -7  107.02    4.59 
   3   2  -7   99.90    4.64 
   3   2  -7  107.37    4.48 
   3   2  -7  109.55    4.47 
  -3   2   7  110.39    4.46 
  -3   2   7  101.82    4.41 
   3  -2  -7   97.06    4.48 
   3  -2  -7  103.04    4.67 
   3  -2  -7  103.54    4.38 
   3  -2  -7  107.23    4.40 
   3  -2  -7  107.32    4.30 
   3  -2  -7  107.71    4.43 
   3  -2  -7  111.95    4.62 
   3   2  -6   64.31    2.87 
  -3   2   6   59.85    2.88 
   3   2  -6   62.67    2.93 
   3   2  -6   66.59    2.74 
  -3   2   6   62.52    2.72 
  -3   2   6   64.68    3.49 
  -3   2   6   67.13    2.77 
   3   2  -6   63.65    2.62 
   3   2  -6   62.32    2.78 
   3  -2  -6   62.43    2.70 
   3  -2  -6   64.90    2.74 
   3  -2  -6   60.36    2.97 
   3  -2  -6   62.47    2.88 
   3  -2  -6   64.53    2.72 
   3  -2  -6   61.80    2.69 
   3   2  -5  260.60   10.41 
  -3   2   5  266.01   10.33 
   3   2  -5  260.57   10.27 
  -3   2   5  249.15   10.58 
   3   2  -5  257.83   10.20 
  -3   2   5  249.45   10.29 
   3   2  -5  240.75   10.33 
   3   2  -5  251.25   10.33 
  -3   2   5  260.52   10.25 
   3   2  -5  244.51   10.23 
  -3   2   5  244.19   10.38 
   3  -2  -5  264.60   10.37 
   3  -2  -5  260.52   10.30 
   3  -2  -5  260.16   10.30 
  -3  -2   5  233.58   10.27 
   3  -2  -5  250.68   10.28 
  -3  -2   5  255.19   10.21 
   3  -2  -5  251.19   10.27 
   3  -2  -5  252.66   10.46 
  -3   2   4    2.90    0.30 
   3   2  -4    2.94    0.27 
   3   2  -4    3.86    0.42 
  -3   2   4    3.03    0.64 
  -3   2   4    2.50    0.37 
  -3   2   4    2.19    0.30 
  -3   2   4    1.70    0.38 
   3   2  -4    2.16    0.27 
   3   2  -4    3.16    0.39 
   3   2  -4    2.61    0.25 
   3   2  -4    2.68    0.47 
  -3  -2   4    3.08    0.25 
  -3  -2   4    2.45    0.45 
  -3  -2   4    3.00    0.33 
   3  -2  -4    1.85    0.30 
   3  -2  -4    2.86    0.43 
   3  -2  -4    3.64    0.53 
  -3  -2   4    2.80    0.29 
   3  -2  -4    2.56    0.30 
   3  -2  -4    3.03    0.34 
   3  -2  -4    2.98    0.33 
   3   2  -3  207.61    9.47 
   3   2  -3  226.75    9.37 
   3   2  -3  240.87    9.32 
  -3   2   3  228.02    9.36 
   3   2  -3  217.58    9.36 
   3   2  -3  227.30    9.32 
   3   2  -3  236.44    9.28 
  -3   2   3  237.34    9.40 
   3  -2  -3  229.41    9.34 
  -3  -2   3  241.29    9.28 
  -3  -2   3  216.99    9.32 
   3  -2  -3  224.12    9.34 
   3  -2  -3  246.24    9.36 
   3  -2  -3  212.33    9.46 
  -3  -2   3  243.90    9.39 
  -3  -2   3  230.89    9.36 
   3  -2  -3  225.38    9.44 
  -3  -2   3  229.54    9.40 
   3  -2  -3  230.39    9.36 
  -3  -2   3  246.93    9.34 
  -3  -2   3  233.73    9.28 
   3   2  -2   19.88    0.90 
  -3   2   2   19.69    1.06 
  -3   2   2   20.07    0.94 
   3   2  -2   19.12    0.96 
  -3   2   2   20.24    0.96 
  -3   2   2   20.41    1.02 
  -3   2   2   20.66    1.03 
   3   2  -2   19.28    1.01 
   3   2  -2   18.73    0.95 
  -3   2   2   18.53    0.98 
   3   2  -2   18.00    1.02 
   3   2  -2   19.61    1.00 
   3  -2  -2   20.13    1.04 
  -3  -2   2   19.07    0.97 
  -3  -2   2   18.16    0.95 
  -3  -2   2   19.56    0.86 
  -3  -2   2   20.13    1.02 
   3  -2  -2   19.81    1.00 
   3  -2  -2   18.90    0.96 
  -3  -2   2   19.41    0.91 
  -3  -2   2   18.56    0.99 
   3  -2  -2   21.61    1.00 
   3  -2  -2   20.57    1.07 
  -3  -2   2   19.67    0.98 
  -3   2   1  153.74    6.53 
   3   2  -1  161.28    6.50 
  -3   2   1  162.72    6.46 
  -3   2   1  155.28    6.54 
  -3   2   1  164.02    6.51 
   3   2  -1  161.54    6.50 
   3   2  -1  157.17    6.42 
   3   2  -1  159.41    6.53 
   3   2  -1  156.80    6.50 
  -3   2   1  166.66    6.51 
  -3   2   1  155.68    6.52 
   3   2  -1  147.56    6.53 
  -3  -2   1  160.38    6.53 
  -3  -2   1  155.27    6.50 
   3  -2  -1  154.03    6.52 
  -3  -2   1  164.94    6.53 
   3  -2  -1  161.95    6.54 
  -3  -2   1  158.59    6.43 
   3  -2  -1  156.96    6.44 
  -3  -2   1  159.45    6.49 
   3  -2  -1  155.86    6.53 
   3  -2  -1  167.61    6.52 
  -3   2   0   63.85    2.88 
   3   2   0   65.97    2.88 
  -3   2   0   66.34    2.85 
  -3   2   0   69.94    2.92 
  -3   2   0   66.27    2.94 
   3   2   0   69.18    2.85 
   3   2   0   70.15    2.88 
   3   2   0   67.10    2.92 
  -3   2   0   71.12    2.87 
  -3   2   0   63.73    2.95 
   3   2   0   68.69    2.80 
   3   2   0   65.42    2.96 
  -3  -2   0   65.85    2.88 
  -3  -2   0   70.55    2.93 
  -3  -2   0   69.38    2.82 
  -3  -2   0   72.53    2.88 
  -3  -2   0   69.18    2.92 
   3  -2   0   67.78    2.92 
   3  -2   0   71.40    2.89 
  -3  -2   0   67.13    2.84 
   3  -2   0   70.32    2.98 
   3  -2   0   67.99    2.87 
  -3   2  -1  278.81   11.80 
  -3   2  -1  281.59   11.81 
   3   2   1  300.65   11.80 
  -3   2  -1  295.12   11.75 
   3   2   1  304.32   11.82 
   3   2   1  289.91   11.92 
  -3   2  -1  269.39   11.89 
   3   2   1  286.72   11.75 
  -3   2  -1  297.35   11.85 
   3   2   1  266.78   11.85 
  -3   2  -1  309.21   11.82 
   3  -2   1  287.96   11.81 
  -3  -2  -1  286.75   11.81 
   3  -2   1  285.31   11.76 
  -3  -2  -1  306.51   11.85 
   3  -2   1  293.48   11.82 
   3  -2   1  288.42   11.91 
   3  -2   1  302.62   11.82 
  -3  -2  -1  306.91   11.90 
   3  -2   1  287.43   11.83 
  -3   2  -2   11.31    0.80 
  -3   2  -2   11.20    0.72 
   3   2   2   12.86    0.71 
  -3   2  -2   11.69    0.70 
  -3   2  -2   12.59    0.80 
  -3   2  -2   11.13    0.61 
   3   2   2   12.49    0.73 
  -3   2  -2   11.00    0.92 
   3   2   2   10.63    0.78 
   3   2   2   11.90    0.61 
   3  -2   2   11.63    0.75 
  -3  -2  -2   11.67    0.58 
  -3  -2  -2   11.76    0.69 
   3  -2   2   11.92    0.76 
   3  -2   2   12.82    0.65 
  -3  -2  -2   11.28    0.79 
  -3  -2  -2   11.56    0.65 
  -3  -2  -2   12.20    0.72 
   3  -2   2   10.81    0.83 
  -3  -2  -2   10.60    1.03 
   3  -2   2   11.13    0.77 
  -3   2  -3  388.70   15.07 
   3   2   3  378.95   15.21 
  -3   2  -3  362.41   15.16 
  -3   2  -3  346.69   15.19 
  -3   2  -3  399.19   15.21 
   3   2   3  398.49   15.13 
  -3   2  -3  379.26   15.14 
   3   2   3  376.54   15.15 
   3   2   3  368.65   15.07 
   3  -2   3  337.20   15.30 
  -3  -2  -3  379.02   15.15 
   3  -2   3  363.34   15.16 
   3  -2   3  381.29   15.20 
  -3  -2  -3  398.58   15.20 
   3  -2   3  376.31   15.08 
   3  -2   3  366.37   15.16 
   3  -2   3  375.74   15.08 
  -3  -2  -3  373.36   15.14 
  -3  -2  -3  346.05   15.35 
  -3  -2  -3  381.43   15.14 
  -3  -2  -3  374.53   15.05 
   3  -2   3  385.17   15.18 
  -3   2  -4   78.79    3.24 
   3   2   4   72.21    3.39 
  -3   2  -4   76.39    3.36 
   3   2   4   78.61    3.60 
  -3   2  -4   74.09    3.39 
   3   2   4   79.87    3.29 
  -3   2  -4   79.90    3.51 
   3   2   4   78.83    3.30 
  -3   2  -4   81.09    3.31 
  -3   2  -4   82.58    3.45 
  -3  -2  -4   76.87    3.34 
   3  -2   4   77.85    3.33 
   3  -2   4   81.12    3.41 
  -3  -2  -4   74.35    4.02 
  -3  -2  -4   77.62    3.31 
  -3  -2  -4   79.14    3.40 
   3  -2   4   80.98    3.37 
   3  -2   4   81.51    3.29 
  -3  -2  -4   76.74    3.34 
   3  -2   4   77.46    3.36 
  -3  -2  -4   77.65    3.21 
   3  -2   4   79.26    3.23 
   3  -2   4   74.85    3.40 
  -3  -2  -4   83.84    3.39 
   3   2   5    7.12    0.82 
  -3   2  -5   10.53    0.86 
   3   2   5    9.77    0.73 
   3   2   5    8.91    0.65 
   3   2   5    9.92    0.87 
  -3   2  -5   10.67    0.93 
  -3   2  -5    9.05    0.67 
  -3   2  -5    7.91    0.79 
  -3   2  -5   10.74    1.03 
   3   2   5   11.28    0.92 
  -3   2  -5   10.66    0.61 
   3  -2   5    8.84    0.69 
  -3  -2  -5    9.42    1.27 
   3  -2   5   10.06    0.88 
   3  -2   5    9.87    0.58 
  -3  -2  -5    9.99    0.69 
   3  -2   5    9.15    0.76 
   3  -2   5    8.99    0.50 
   3  -2   5    9.39    0.86 
  -3  -2  -5   10.91    0.79 
   3  -2   5    9.80    1.02 
  -3  -2  -5    9.37    0.78 
  -3  -2  -5    8.66    0.80 
  -3  -2  -5    9.10    0.52 
  -3  -2  -5   10.49    0.96 
  -3   2  -6   68.17    3.04 
   3   2   6   72.30    2.94 
   3   2   6   67.83    3.11 
  -3   2  -6   65.69    2.99 
   3   2   6   65.71    2.86 
   3   2   6   63.51    3.04 
  -3   2  -6   68.51    2.87 
  -3   2  -6   71.29    3.23 
  -3   2  -6   69.57    2.84 
  -3   2  -6   64.18    3.12 
  -3  -2  -6   67.04    2.92 
   3  -2   6   67.98    3.08 
   3  -2   6   66.58    2.88 
  -3  -2  -6   67.30    3.00 
  -3  -2  -6   66.40    3.11 
  -3  -2  -6   67.94    2.80 
  -3  -2  -6   70.98    3.76 
  -3  -2  -6   67.59    2.98 
  -3  -2  -6   69.49    2.99 
   3  -2   6   67.70    2.99 
  -3   2  -7  148.50    6.25 
  -3   2  -7  144.49    6.28 
   3   2   7  144.30    6.38 
  -3   2  -7  151.62    6.36 
   3   2   7  151.56    6.16 
  -3   2  -7  152.65    6.18 
  -3   2  -7  154.10    6.57 
   3   2   7  158.86    6.39 
  -3   2  -7  157.07    6.16 
  -3  -2  -7  152.68    6.25 
  -3  -2  -7  152.40    6.98 
   3  -2   7  148.94    6.16 
  -3  -2  -7  150.42    6.27 
  -3  -2  -7  149.16    6.33 
   3  -2   7  153.21    6.25 
  -3  -2  -7  152.42    6.13 
   3  -2   7  151.57    6.40 
  -3  -2  -7  142.59    6.42 
  -3  -2  -7  149.37    6.29 
  -3   2  -8   20.39    1.03 
  -3   2  -8   16.96    1.33 
  -3   2  -8   22.15    1.68 
   3   2   8   16.90    1.96 
   3   2   8   21.73    1.08 
  -3   2  -8   19.44    1.09 
   3   2   8   20.40    1.17 
   3   2   8   21.47    1.45 
  -3   2  -8   19.26    1.47 
  -3   2  -8   21.04    1.11 
  -3  -2  -8   20.05    1.15 
   3  -2   8   20.54    0.97 
  -3  -2  -8   17.03    2.19 
  -3  -2  -8   20.72    1.38 
   3  -2   8   20.92    0.99 
  -3  -2  -8   22.25    1.45 
  -3  -2  -8   21.75    1.03 
  -3  -2  -8   18.62    1.64 
   3   2   9  185.52    8.03 
  -3   2  -9  181.17    8.47 
  -3   2  -9  184.65    7.88 
   3   2   9  196.33    7.91 
   3   2   9  201.13    7.76 
  -3   2  -9  182.65    7.76 
  -3   2  -9  193.63    7.70 
  -3  -2  -9  183.74    7.93 
  -3  -2  -9  165.84    7.78 
  -3  -2  -9  192.49    7.65 
  -3  -2  -9  195.86    7.77 
  -3  -2  -9  190.35    7.93 
  -3  -2  -9  193.57    7.81 
  -3  -2  -9  190.18    8.85 
   3   2  10   49.47    3.16 
   3   2  10   50.07    2.60 
  -3   2 -10   51.02    2.75 
  -3   2 -10   47.10    2.28 
  -3   2 -10   48.56    2.51 
   3   2  10   50.25    2.30 
  -3  -2 -10   49.35    2.69 
  -3  -2 -10   52.71    2.37 
  -3  -2 -10   50.67    2.44 
  -3  -2 -10   49.78    2.18 
  -3   2 -11   37.83    1.83 
   3   2  11   37.71    2.36 
  -3   2 -11   42.03    2.60 
   3   2  11   37.81    2.82 
  -3  -2 -11   37.13    2.16 
  -3  -2 -11   37.72    2.53 
   3   3 -11   40.57    2.37 
   3   3 -11   38.10    2.26 
   3   3 -11   39.12    3.16 
  -3   3  11   34.03    2.02 
  -3   3  11   38.92    2.16 
   3  -3 -11   38.36    2.54 
   3  -3 -11   39.19    1.96 
   3   3 -10    7.47    1.13 
   3   3 -10    5.11    1.97 
   3   3 -10    8.84    0.97 
   3   3 -10   10.46    0.97 
  -3   3  10    7.64    0.80 
  -3   3  10    8.69    0.88 
   3  -3 -10    6.89    0.71 
   3  -3 -10    6.94    1.11 
   3  -3 -10    9.93    0.99 
   3   3  -9  154.48    6.68 
  -3   3   9  162.37    6.55 
   3   3  -9  150.58    6.54 
  -3   3   9  153.03    6.51 
   3   3  -9  157.98    6.56 
   3  -3  -9  152.63    6.47 
   3  -3  -9  159.69    6.46 
   3  -3  -9  158.87    6.72 
   3  -3  -9  156.76    6.50 
   3   3  -8    7.18    0.46 
  -3   3   8    6.71    1.20 
  -3   3   8    7.29    0.67 
   3   3  -8    6.08    1.08 
   3   3  -8    7.31    0.70 
   3   3  -8    7.60    0.69 
  -3   3   8    7.41    0.73 
   3   3  -8    6.14    0.70 
  -3   3   8    7.88    1.93 
   3  -3  -8    7.57    0.98 
   3  -3  -8    7.17    0.70 
   3  -3  -8    8.05    0.84 
   3  -3  -8    6.55    0.61 
   3   3  -7  284.17   11.66 
   3   3  -7  287.91   11.83 
  -3   3   7  278.61   11.70 
   3   3  -7  285.16   11.56 
  -3   3   7  286.78   11.84 
   3   3  -7  289.52   11.82 
  -3   3   7  306.18   11.73 
   3   3  -7  289.68   11.65 
   3   3  -7  277.81   11.74 
  -3   3   7  295.84   12.22 
   3  -3  -7  281.91   11.80 
   3  -3  -7  277.21   11.66 
   3  -3  -7  291.70   11.67 
   3  -3  -7  286.42   11.68 
   3  -3  -7  288.56   11.84 
   3  -3  -7  287.74   11.69 
   3   3  -6    2.95    0.40 
  -3   3   6    2.12    0.43 
   3   3  -6    2.80    0.29 
  -3   3   6    2.90    1.10 
  -3   3   6    1.78    0.55 
   3   3  -6    2.40    0.58 
   3   3  -6    2.77    0.30 
   3   3  -6    2.90    0.73 
  -3   3   6    2.57    0.47 
   3   3  -6    2.90    0.37 
   3   3  -6    1.94    0.47 
   3  -3  -6    1.63    0.61 
   3  -3  -6    2.77    0.39 
   3  -3  -6    2.47    0.44 
   3  -3  -6    2.43    0.36 
   3  -3  -6    2.15    0.67 
  -3  -3   6    2.55    0.39 
  -3  -3   6    2.75    0.28 
   3  -3  -6    2.88    0.48 
  -3   3   5   13.52    0.94 
   3   3  -5   15.13    0.99 
   3   3  -5   14.71    0.79 
  -3   3   5   14.26    1.40 
   3   3  -5   15.66    0.79 
  -3   3   5   13.18    0.91 
   3   3  -5   15.34    0.78 
   3   3  -5   15.12    0.79 
   3   3  -5   15.19    1.14 
   3   3  -5   15.62    0.95 
  -3   3   5   15.39    0.85 
  -3   3   5   15.36    1.05 
   3  -3  -5   15.46    0.91 
   3  -3  -5   13.58    1.13 
   3  -3  -5   14.56    0.87 
   3  -3  -5   14.97    1.13 
  -3  -3   5   14.92    0.78 
   3  -3  -5   15.15    0.94 
  -3  -3   5   15.32    0.82 
  -3  -3   5   14.73    1.07 
   3  -3  -5   15.97    0.89 
  -3   3   4    0.19    0.25 
   3   3  -4   -0.01    0.30 
   3   3  -4    0.87    0.50 
  -3   3   4    0.19    0.34 
   3   3  -4    0.23    0.17 
   3   3  -4    0.03    0.30 
   3   3  -4    0.34    0.19 
   3   3  -4    0.05    0.23 
  -3   3   4    0.26    0.34 
  -3   3   4    0.67    0.51 
   3   3  -4    0.31    0.22 
  -3  -3   4    0.09    0.32 
   3  -3  -4    2.52    0.48 
  -3  -3   4    0.04    0.38 
   3  -3  -4    0.50    0.43 
  -3  -3   4    0.28    0.24 
   3  -3  -4    0.05    0.29 
   3  -3  -4    0.16    0.26 
   3  -3  -4    0.22    0.25 
  -3  -3   4    0.34    0.27 
  -3  -3   4    0.24    0.19 
   3  -3  -4    0.21    0.30 
   3   3  -3  159.20    6.49 
  -3   3   3  152.65    6.47 
   3   3  -3  156.51    6.41 
   3   3  -3  150.19    6.45 
  -3   3   3  159.60    6.44 
  -3   3   3  151.69    6.51 
  -3   3   3  153.65    6.49 
  -3   3   3  161.85    6.50 
   3   3  -3  155.89    6.48 
   3   3  -3  161.11    6.42 
  -3  -3   3  151.88    6.41 
  -3  -3   3  164.88    6.50 
   3  -3  -3  158.92    6.45 
   3  -3  -3  165.93    6.50 
  -3  -3   3  160.40    6.38 
  -3  -3   3  161.61    6.42 
   3  -3  -3  145.26    6.43 
  -3  -3   3  162.38    6.43 
  -3  -3   3  153.49    6.48 
   3  -3  -3  151.24    6.47 
   3  -3  -3  156.37    6.52 
  -3   3   2   34.87    1.65 
  -3   3   2   37.41    1.67 
  -3   3   2   35.75    1.65 
  -3   3   2   34.31    1.60 
   3   3  -2   36.26    1.65 
  -3   3   2   35.81    1.48 
   3   3  -2   33.68    1.57 
   3   3  -2   36.50    1.66 
   3   3  -2   33.32    1.62 
  -3   3   2   34.17    1.66 
  -3   3   2   36.61    1.49 
   3  -3  -2   33.11    1.59 
   3  -3  -2   33.47    1.60 
   3  -3  -2   34.96    1.66 
  -3  -3   2   33.56    1.57 
   3  -3  -2   37.65    1.65 
  -3  -3   2   33.86    1.58 
  -3  -3   2   35.08    1.60 
  -3  -3   2   35.68    1.66 
  -3  -3   2   32.52    1.61 
   3  -3  -2   34.91    1.66 
   3  -3  -2   36.21    1.64 
  -3  -3   2   34.86    1.55 
   3   3  -1  792.03   31.08 
   3   3  -1  787.00   31.10 
  -3   3   1  703.78   31.10 
  -3   3   1  752.14   31.11 
   3   3  -1  699.66   31.11 
  -3   3   1  851.60   31.22 
  -3   3   1  825.83   31.14 
   3   3  -1  714.60   31.14 
  -3   3   1  776.81   31.12 
   3   3  -1  751.75   31.12 
   3  -3  -1  730.04   31.11 
   3  -3  -1  783.67   31.10 
  -3  -3   1  795.32   31.08 
   3  -3  -1  812.18   31.11 
   3  -3  -1  816.43   31.09 
   3  -3  -1  780.03   31.11 
  -3  -3   1  791.54   31.07 
  -3  -3   1  743.59   31.07 
  -3  -3   1  751.29   31.08 
  -3  -3   1  795.56   31.12 
   3  -3  -1  808.69   31.13 
  -3  -3   1  742.84   31.13 
   3   3   0    0.68    0.24 
  -3   3   0    0.69    0.27 
   3   3   0    1.14    0.33 
  -3   3   0    1.27    0.28 
   3   3   0    1.30    0.33 
  -3   3   0    2.14    0.40 
  -3   3   0    0.88    0.25 
   3   3   0    0.77    0.33 
  -3   3   0    0.47    0.26 
  -3   3   0    0.79    0.33 
   3   3   0    0.82    0.28 
   3  -3   0    0.67    0.28 
   3  -3   0    0.70    0.25 
  -3  -3   0    0.79    0.24 
  -3  -3   0    1.19    0.28 
  -3  -3   0    0.82    0.22 
  -3  -3   0    0.58    0.22 
  -3  -3   0    0.77    0.29 
   3  -3   0    0.82    0.42 
   3  -3   0    0.48    0.21 
  -3  -3   0    0.87    0.17 
  -3  -3   0    0.50    0.30 
   3  -3   0    0.87    0.25 
  -3  -3   0    1.10    0.18 
   3  -3   0    1.08    0.25 
   3   3   1   55.76    2.37 
   3   3   1   53.24    2.51 
  -3   3  -1   54.26    2.42 
  -3   3  -1   54.65    2.40 
   3   3   1   58.47    2.44 
  -3   3  -1   56.72    2.37 
  -3   3  -1   54.99    2.51 
  -3   3  -1   56.53    2.41 
   3   3   1   53.59    2.46 
  -3   3  -1   53.56    2.45 
   3   3   1   57.38    2.41 
  -3  -3  -1   55.31    2.40 
  -3  -3  -1   53.41    2.41 
   3  -3   1   55.07    2.43 
  -3  -3  -1   56.11    2.46 
  -3  -3  -1   54.22    2.34 
   3  -3   1   53.88    2.38 
   3  -3   1   54.38    2.37 
   3  -3   1   56.83    2.41 
   3  -3   1   59.60    2.63 
   3  -3   1   58.54    2.42 
  -3  -3  -1   55.77    2.35 
   3  -3   1   54.18    2.40 
  -3  -3  -1   52.48    2.47 
  -3  -3  -1   55.96    2.32 
   3   3   2    2.45    0.41 
  -3   3  -2    2.36    0.39 
  -3   3  -2    2.78    0.55 
  -3   3  -2    3.32    0.40 
   3   3   2    2.88    0.34 
   3   3   2    3.04    0.38 
  -3   3  -2    3.67    0.42 
  -3   3  -2    2.62    0.33 
   3   3   2    3.05    0.44 
   3   3   2    3.43    0.69 
  -3  -3  -2    2.21    0.32 
   3  -3   2    3.34    0.55 
   3  -3   2    2.80    0.40 
  -3  -3  -2    3.20    0.47 
   3  -3   2    3.67    0.43 
  -3  -3  -2    3.16    0.31 
  -3  -3  -2    3.66    0.42 
   3  -3   2    2.57    0.39 
   3  -3   2    3.36    0.37 
  -3  -3  -2    1.40    0.49 
  -3  -3  -2    3.37    0.54 
   3  -3   2    2.51    0.35 
  -3  -3  -2    4.12    0.41 
  -3   3  -3   35.08    1.53 
   3   3   3   35.87    1.64 
   3   3   3   35.91    1.59 
   3   3   3   29.93    2.08 
  -3   3  -3   33.46    1.58 
   3   3   3   34.52    1.54 
  -3   3  -3   37.36    1.71 
   3   3   3   34.25    1.69 
  -3   3  -3   33.66    1.58 
  -3   3  -3   31.31    1.84 
  -3   3  -3   35.67    1.68 
   3  -3   3   34.01    1.65 
  -3  -3  -3   33.24    1.48 
   3  -3   3   34.01    1.59 
   3  -3   3   34.30    1.51 
   3  -3   3   33.21    1.65 
   3  -3   3   32.50    1.55 
   3  -3   3   34.15    1.59 
  -3  -3  -3   34.26    1.56 
  -3  -3  -3   31.99    1.57 
  -3  -3  -3   36.43    1.64 
  -3  -3  -3   32.86    1.59 
  -3  -3  -3   30.28    1.97 
  -3   3  -4    4.20    0.58 
   3   3   4    5.47    0.49 
  -3   3  -4    4.64    0.43 
  -3   3  -4    5.29    0.58 
   3   3   4    6.62    0.58 
  -3   3  -4    4.66    0.46 
  -3   3  -4    5.89    0.66 
  -3   3  -4    4.68    0.61 
   3   3   4    5.82    0.51 
   3   3   4    4.66    0.93 
   3   3   4    6.84    0.66 
  -3  -3  -4    5.03    0.85 
  -3  -3  -4    4.93    0.48 
  -3  -3  -4    6.41    0.63 
   3  -3   4    5.41    0.50 
   3  -3   4    6.92    0.74 
  -3  -3  -4    4.51    0.53 
  -3  -3  -4    5.27    0.50 
   3  -3   4    5.13    0.56 
   3  -3   4    5.11    0.52 
   3  -3   4    3.95    0.51 
   3  -3   4    4.95    0.48 
  -3  -3  -4    6.09    0.62 
  -3  -3  -4    4.94    0.46 
   3  -3   4    5.70    0.45 
  -3   3  -5  486.85   20.56 
  -3   3  -5  549.10   20.61 
   3   3   5  496.97   20.49 
  -3   3  -5  510.15   20.44 
  -3   3  -5  526.97   20.61 
   3   3   5  482.24   20.67 
   3   3   5  519.48   20.45 
  -3   3  -5  520.52   20.41 
   3   3   5  490.74   20.56 
  -3   3  -5  478.11   20.46 
   3  -3   5  497.52   20.45 
  -3  -3  -5  501.29   20.50 
  -3  -3  -5  542.26   20.54 
  -3  -3  -5  490.91   20.38 
  -3  -3  -5  496.80   20.49 
   3  -3   5  484.95   20.46 
  -3  -3  -5  494.17   20.72 
   3  -3   5  516.12   20.58 
   3  -3   5  500.53   20.47 
   3  -3   5  526.62   20.51 
  -3  -3  -5  544.39   20.56 
  -3  -3  -5  505.67   20.48 
   3  -3   5  520.73   20.36 
   3  -3   5  490.05   20.50 
   3   3   6    8.37    0.81 
   3   3   6    9.36    0.93 
   3   3   6    8.57    0.76 
  -3   3  -6    8.59    1.27 
   3   3   6    7.10    0.75 
  -3   3  -6   10.02    1.03 
   3   3   6    7.96    0.90 
  -3   3  -6    7.34    0.70 
  -3   3  -6    7.80    0.69 
  -3   3  -6    8.03    0.74 
  -3   3  -6    7.51    0.79 
  -3  -3  -6    8.17    1.31 
  -3  -3  -6    8.07    0.88 
  -3  -3  -6    7.97    0.74 
   3  -3   6    7.47    0.84 
  -3  -3  -6    8.69    0.58 
   3  -3   6    8.02    0.64 
  -3  -3  -6    8.42    0.80 
  -3  -3  -6    5.80    0.64 
  -3  -3  -6    7.60    0.87 
  -3  -3  -6    7.08    0.70 
   3  -3   6    9.06    0.75 
   3   3   7  103.70    4.46 
   3   3   7  111.94    4.68 
  -3   3  -7  107.82    4.67 
  -3   3  -7  103.88    4.48 
   3   3   7  113.16    4.55 
   3   3   7  104.01    4.66 
  -3   3  -7   96.55    4.73 
  -3   3  -7  112.35    4.43 
  -3   3  -7  111.49    4.46 
  -3  -3  -7  110.50    4.59 
  -3  -3  -7  110.93    4.40 
  -3  -3  -7  106.22    4.52 
   3  -3   7  101.47    4.72 
  -3  -3  -7  108.83    4.60 
  -3  -3  -7  104.81    4.58 
   3  -3   7  107.28    4.41 
   3  -3   7   98.49    4.60 
  -3  -3  -7  109.99    5.23 
  -3  -3  -7  105.51    4.52 
   3   3   8    3.08    0.74 
   3   3   8    2.39    0.55 
   3   3   8    2.27    0.75 
  -3   3  -8    1.16    0.70 
  -3   3  -8    3.11    0.42 
  -3   3  -8    2.26    0.53 
  -3   3  -8    2.07    0.44 
   3  -3   8    3.07    0.45 
  -3  -3  -8    3.15    0.71 
  -3  -3  -8    1.54    1.62 
   3  -3   8    2.30    0.39 
  -3  -3  -8    3.08    0.39 
  -3  -3  -8    3.31    0.56 
  -3  -3  -8    3.03    0.87 
  -3  -3  -8    1.93    0.51 
   3   3   9    0.43    0.74 
   3   3   9    0.67    0.83 
  -3   3  -9    1.75    0.71 
  -3   3  -9    0.77    0.43 
   3   3   9    0.33    0.54 
  -3  -3  -9    1.35    0.68 
  -3  -3  -9    0.68    0.37 
  -3  -3  -9    0.74    0.57 
  -3  -3  -9    2.70    2.11 
  -3  -3  -9    0.08    1.15 
  -3  -3  -9    0.59    0.53 
   3   3  10    7.04    1.01 
   3   3  10    7.91    1.18 
  -3   3 -10    9.23    1.34 
  -3   3 -10    9.87    1.21 
   3   3  10    9.17    0.85 
  -3   3 -10    7.73    0.82 
  -3  -3 -10    7.14    0.98 
  -3  -3 -10    8.44    0.87 
  -3  -3 -10    8.34    0.64 
  -3   3 -11  164.27    7.06 
  -3   3 -11  162.68    6.51 
   3   3  11  150.18    7.17 
  -3  -3 -11  160.64    6.76 
  -3  -3 -11  155.68    6.95 
   3   4 -11   75.04    3.57 
   3   4 -11   64.24    5.23 
  -3   4  11   67.06    3.40 
   3  -4 -11   69.53    3.28 
   3  -4 -11   77.99    3.67 
  -3   4  10   41.45    2.27 
  -3   4  10   36.41    2.15 
   3   4 -10   39.35    2.26 
   3   4 -10   38.53    2.24 
   3  -4 -10   39.36    2.00 
   3  -4 -10   37.31    2.48 
  -3   4   9    3.17    0.71 
   3   4  -9    2.31    0.72 
  -3   4   9    3.58    0.77 
   3   4  -9    3.23    0.37 
   3   4  -9    2.99    0.78 
   3   4  -9    2.83    0.74 
   3  -4  -9    2.57    0.93 
   3  -4  -9    3.79    0.67 
   3  -4  -9    3.13    0.58 
   3   4  -8    4.15    0.61 
   3   4  -8    3.58    0.79 
  -3   4   8    2.68    0.92 
   3   4  -8    3.99    0.65 
  -3   4   8    4.48    0.76 
   3   4  -8    5.37    0.51 
  -3   4   8    4.88    0.69 
   3  -4  -8    4.01    0.70 
   3  -4  -8    4.66    0.61 
   3  -4  -8    3.54    0.55 
   3  -4  -8    4.22    0.89 
   3   4  -7   20.40    1.44 
  -3   4   7   20.77    1.32 
   3   4  -7   19.13    1.18 
  -3   4   7   18.40    1.87 
   3   4  -7   20.23    1.10 
   3   4  -7   20.78    1.08 
  -3   4   7   20.49    1.30 
  -3   4   7   18.55    1.56 
   3   4  -7   21.20    1.02 
   3   4  -7   19.40    1.37 
   3  -4  -7   19.96    1.18 
   3  -4  -7   20.00    1.19 
   3  -4  -7   20.59    1.51 
  -3  -4   7   19.57    1.09 
   3  -4  -7   20.98    1.29 
  -3  -4   7   21.47    0.98 
   3   4  -6  140.76    5.74 
  -3   4   6  134.46    6.00 
   3   4  -6  141.03    5.79 
   3   4  -6  143.10    5.79 
  -3   4   6  140.90    6.21 
   3   4  -6  142.64    5.77 
   3   4  -6  143.71    5.86 
   3   4  -6  137.26    5.97 
  -3   4   6  140.33    5.92 
  -3   4   6  141.04    5.93 
   3   4  -6  138.21    6.00 
   3  -4  -6  138.07    5.86 
  -3  -4   6  135.25    5.78 
   3  -4  -6  142.52    6.02 
   3  -4  -6  144.18    5.88 
   3  -4  -6  143.71    5.92 
   3  -4  -6  142.59    6.00 
  -3  -4   6  138.26    6.00 
  -3  -4   6  145.27    5.78 
   3  -4  -6  145.17    5.90 
  -3   4   5  240.40    9.82 
   3   4  -5  246.84    9.84 
  -3   4   5  242.43    9.74 
  -3   4   5  237.67    9.91 
   3   4  -5  246.51    9.64 
   3   4  -5  243.39    9.69 
  -3   4   5  234.54    9.80 
   3   4  -5  247.08    9.75 
   3   4  -5  239.84    9.68 
  -3   4   5  225.39    9.83 
   3   4  -5  247.10    9.60 
   3   4  -5  238.66    9.81 
  -3  -4   5  242.79    9.69 
  -3  -4   5  223.28    9.81 
   3  -4  -5  233.01    9.75 
   3  -4  -5  243.40    9.78 
  -3  -4   5  231.28    9.69 
   3  -4  -5  227.53    9.82 
   3  -4  -5  235.07    9.74 
   3  -4  -5  244.83    9.83 
  -3  -4   5  236.48    9.68 
  -3  -4   5  234.53    9.61 
   3  -4  -5  241.61    9.78 
   3   4  -4   70.21    2.99 
   3   4  -4   68.82    3.04 
   3   4  -4   72.25    2.97 
  -3   4   4   72.90    3.03 
  -3   4   4   66.19    3.17 
   3   4  -4   70.11    3.14 
  -3   4   4   70.32    3.09 
  -3   4   4   73.29    3.12 
  -3   4   4   68.77    3.08 
   3   4  -4   62.29    3.06 
   3  -4  -4   72.73    3.03 
  -3  -4   4   75.01    2.94 
  -3  -4   4   65.53    2.97 
  -3  -4   4   67.60    3.09 
   3  -4  -4   66.78    3.06 
   3  -4  -4   70.74    3.05 
   3  -4  -4   72.21    3.08 
   3  -4  -4   73.19    3.14 
  -3  -4   4   69.69    2.97 
   3  -4  -4   68.19    3.12 
  -3   4   3   81.90    3.63 
  -3   4   3   86.46    3.59 
  -3   4   3   84.64    3.42 
   3   4  -3   86.44    3.57 
  -3   4   3   82.09    3.64 
   3   4  -3   82.26    3.53 
  -3   4   3   86.07    3.63 
   3   4  -3   81.77    3.60 
  -3   4   3   88.12    3.45 
  -3   4   3   82.71    3.67 
   3   4  -3   82.58    3.63 
   3   4  -3   83.25    3.63 
   3  -4  -3   82.49    3.59 
  -3  -4   3   85.70    3.54 
   3  -4  -3   88.20    3.65 
  -3  -4   3   81.40    3.61 
  -3  -4   3   85.24    3.66 
   3  -4  -3   82.55    3.65 
  -3  -4   3   86.19    3.57 
  -3  -4   3   84.51    3.52 
   3  -4  -3   85.36    3.62 
   3  -4  -3   82.72    3.58 
   3  -4  -3   83.15    3.62 
  -3  -4   3   80.52    3.54 
  -3   4   2   61.15    2.46 
   3   4  -2   55.82    2.59 
   3   4  -2   58.59    2.57 
   3   4  -2   57.66    2.62 
   3   4  -2   58.87    2.54 
   3   4  -2   59.75    2.62 
  -3   4   2   59.30    2.59 
  -3   4   2   60.22    2.63 
  -3   4   2   61.61    2.64 
  -3   4   2   56.51    2.60 
  -3   4   2   56.94    2.46 
  -3   4   2   58.88    2.62 
   3  -4  -2   58.38    2.57 
   3  -4  -2   59.68    2.61 
  -3  -4   2   59.52    2.65 
  -3  -4   2   58.72    2.58 
  -3  -4   2   59.63    2.53 
  -3  -4   2   61.70    2.54 
   3  -4  -2   60.97    2.64 
   3  -4  -2   54.16    2.60 
   3  -4  -2   55.19    2.57 
   3  -4  -2   56.13    2.60 
  -3  -4   2   58.76    2.55 
  -3   4   1   13.26    0.91 
  -3   4   1   14.36    0.89 
  -3   4   1   14.20    0.92 
   3   4  -1   14.48    0.91 
   3   4  -1   14.41    0.85 
  -3   4   1   13.39    0.74 
   3   4  -1   12.99    0.93 
   3   4  -1   13.88    0.89 
  -3   4   1   14.83    0.95 
  -3   4   1   13.47    0.87 
  -3   4   1   14.18    0.76 
  -3  -4   1   12.88    0.90 
  -3  -4   1   12.97    0.84 
   3  -4  -1   13.50    0.84 
  -3  -4   1   13.89    0.97 
  -3  -4   1   13.57    0.81 
   3  -4  -1   12.98    0.88 
  -3  -4   1   14.23    0.84 
   3  -4  -1   13.55    0.90 
   3  -4  -1   13.84    1.01 
  -3  -4   1   12.87    0.83 
   3  -4  -1   12.94    0.88 
   3  -4  -1   11.74    0.87 
  -3   4   0  208.91    8.24 
  -3   4   0  211.54    8.27 
   3   4   0  197.82    8.33 
  -3   4   0  202.03    8.32 
  -3   4   0  203.72    8.28 
   3   4   0  207.31    8.27 
   3   4   0  209.11    8.27 
  -3   4   0  197.02    8.28 
   3   4   0  176.34    8.40 
  -3   4   0  200.35    8.31 
  -3  -4   0  203.78    8.25 
   3  -4   0  189.04    8.26 
  -3  -4   0  204.38    8.32 
  -3  -4   0  192.88    8.29 
  -3  -4   0  213.13    8.27 
  -3  -4   0  205.28    8.14 
   3  -4   0  197.47    8.39 
  -3  -4   0  211.88    8.15 
   3  -4   0  214.72    8.30 
   3  -4   0  199.88    8.28 
   3  -4   0  201.76    8.31 
  -3  -4   0  193.36    8.27 
  -3   4  -1  246.11    9.99 
  -3   4  -1  249.89    9.98 
   3   4   1  230.59   10.02 
  -3   4  -1  235.69   10.00 
  -3   4  -1  252.52    9.95 
  -3   4  -1  249.07   10.02 
   3   4   1  242.62    9.96 
   3   4   1  231.29   10.04 
   3   4   1  254.22    9.95 
  -3   4  -1  244.04    9.96 
  -3  -4  -1  244.51   10.00 
  -3  -4  -1  232.37    9.91 
   3  -4   1  235.93    9.96 
  -3  -4  -1  254.41    9.89 
  -3  -4  -1  245.62    9.98 
  -3  -4  -1  239.99    9.86 
   3  -4   1  238.99    9.99 
  -3  -4  -1  246.44   10.02 
   3  -4   1  244.79    9.98 
  -3  -4  -1  246.62    9.96 
   3  -4   1  249.59    9.98 
   3  -4   1  249.64    9.94 
  -3  -4  -1  252.67    9.97 
   3   4   2  119.61    5.22 
  -3   4  -2  125.36    5.15 
   3   4   2  127.05    5.16 
  -3   4  -2  123.64    5.17 
   3   4   2  120.16    5.32 
  -3   4  -2  125.39    5.21 
  -3   4  -2  128.19    5.12 
  -3   4  -2  120.59    5.25 
  -3   4  -2  126.72    5.18 
   3   4   2  124.06    5.13 
  -3  -4  -2  121.93    5.07 
   3  -4   2  119.08    5.16 
  -3  -4  -2  122.49    5.17 
  -3  -4  -2  126.39    5.16 
  -3  -4  -2  132.52    5.11 
   3  -4   2  116.19    5.13 
  -3  -4  -2  123.67    5.14 
  -3  -4  -2  138.41    5.24 
   3  -4   2  125.18    5.16 
   3  -4   2  105.60    5.36 
  -3  -4  -2  126.24    5.20 
  -3  -4  -2  119.66    5.08 
   3  -4   2  118.41    5.16 
  -3   4  -3  101.12    4.66 
  -3   4  -3  108.45    4.57 
   3   4   3  106.70    4.48 
   3   4   3  112.88    4.52 
  -3   4  -3  105.37    4.50 
   3   4   3  114.85    4.57 
  -3   4  -3  112.95    4.59 
   3   4   3  100.23    4.87 
  -3   4  -3  104.35    4.46 
   3   4   3  105.74    4.60 
  -3   4  -3  107.09    4.51 
   3  -4   3  105.31    4.49 
  -3  -4  -3  105.99    4.52 
   3  -4   3  109.49    4.51 
   3  -4   3  106.97    4.56 
  -3  -4  -3  114.49    4.51 
   3  -4   3  102.72    4.50 
  -3  -4  -3  107.26    4.58 
  -3  -4  -3  103.19    4.52 
  -3  -4  -3  103.09    4.42 
  -3  -4  -3  109.61    4.58 
  -3  -4  -3  106.38    4.46 
   3  -4   3  109.18    4.44 
  -3  -4  -3  106.12    4.51 
   3  -4   3  105.60    4.52 
   3   4   4  108.50    4.55 
   3   4   4  100.18    4.96 
  -3   4  -4  109.38    4.58 
   3   4   4  108.54    4.50 
  -3   4  -4  108.14    4.72 
   3   4   4  104.85    4.50 
   3   4   4  106.83    4.61 
  -3   4  -4  104.42    4.48 
  -3   4  -4  107.86    4.62 
  -3   4  -4  108.99    4.47 
  -3   4  -4  105.51    4.49 
  -3  -4  -4  107.11    4.51 
  -3  -4  -4  112.55    4.60 
   3  -4   4  105.39    4.50 
   3  -4   4  108.77    4.53 
  -3  -4  -4  109.80    4.55 
   3  -4   4  108.91    4.51 
  -3  -4  -4  105.29    4.62 
   3  -4   4  107.60    4.41 
   3  -4   4  103.29    4.55 
  -3  -4  -4  107.78    4.42 
  -3  -4  -4  106.25    4.52 
   3  -4   4  100.08    4.47 
  -3  -4  -4  103.93    4.53 
  -3  -4  -4  107.37    4.49 
  -3   4  -5   11.72    1.28 
  -3   4  -5   12.51    1.33 
   3   4   5   10.47    0.86 
  -3   4  -5   11.57    0.91 
   3   4   5    9.51    0.90 
  -3   4  -5    9.33    0.94 
  -3   4  -5   11.75    0.86 
   3   4   5   11.11    1.23 
   3   4   5   11.97    0.91 
  -3   4  -5   10.69    0.82 
   3   4   5   10.15    1.07 
   3  -4   5   10.81    0.95 
   3  -4   5   11.54    0.67 
   3  -4   5   11.92    0.99 
   3  -4   5   12.23    1.02 
  -3  -4  -5   11.53    0.88 
  -3  -4  -5   11.31    0.90 
  -3  -4  -5   10.85    1.10 
   3  -4   5    9.77    0.78 
  -3  -4  -5   10.70    0.93 
  -3  -4  -5   10.31    0.94 
  -3  -4  -5   10.92    0.74 
  -3  -4  -5   11.05    1.16 
   3  -4   5   11.61    0.97 
  -3  -4  -5   11.02    1.05 
  -3   4  -6   66.12    3.28 
  -3   4  -6   64.32    3.20 
   3   4   6   70.28    3.32 
  -3   4  -6   75.64    4.05 
  -3   4  -6   65.32    2.94 
   3   4   6   65.34    2.98 
   3   4   6   66.00    3.15 
  -3   4  -6   66.72    2.93 
   3   4   6   67.27    3.21 
  -3   4  -6   66.82    2.97 
   3  -4   6   69.92    3.09 
  -3  -4  -6   65.61    3.03 
   3  -4   6   72.70    2.80 
  -3  -4  -6   67.33    3.03 
   3  -4   6   68.16    3.07 
  -3  -4  -6   65.78    3.36 
  -3  -4  -6   68.64    3.04 
  -3  -4  -6   67.25    3.13 
  -3  -4  -6   69.53    2.89 
  -3  -4  -6   65.87    2.99 
  -3  -4  -6   69.98    3.22 
   3  -4   6   68.92    2.90 
   3  -4   6   66.85    2.91 
  -3   4  -7   81.55    3.46 
   3   4   7   82.33    3.88 
  -3   4  -7   79.45    3.71 
  -3   4  -7   77.82    3.42 
   3   4   7   68.94    3.89 
   3   4   7   80.20    3.69 
  -3   4  -7   84.02    3.42 
   3   4   7   82.58    3.54 
   3  -4   7   77.88    3.68 
  -3  -4  -7   82.50    3.98 
  -3  -4  -7   79.19    3.51 
   3  -4   7   79.01    3.65 
  -3  -4  -7   78.74    3.58 
   3  -4   7   78.39    3.36 
  -3  -4  -7   80.57    3.56 
  -3  -4  -7   80.23    3.37 
  -3  -4  -7   80.94    3.57 
   3   4   8  125.26    5.55 
   3   4   8  113.71    5.21 
  -3   4  -8  121.22    4.92 
  -3   4  -8  117.19    5.01 
   3   4   8  122.65    5.30 
  -3   4  -8  116.04    4.94 
  -3   4  -8  125.52    5.27 
   3   4   8  122.60    5.16 
   3  -4   8  115.02    4.85 
  -3  -4  -8  112.94    5.10 
   3  -4   8  112.54    5.03 
  -3  -4  -8  116.89    5.15 
  -3  -4  -8  121.89    5.08 
  -3  -4  -8  113.80    5.61 
  -3  -4  -8  119.46    4.90 
   3  -4   8  118.03    5.28 
  -3  -4  -8  117.05    5.04 
  -3   4  -9   70.01    4.02 
  -3   4  -9   73.03    3.17 
   3   4   9   78.61    3.73 
   3   4   9   69.22    3.57 
   3   4   9   79.20    3.38 
  -3   4  -9   65.17    4.06 
  -3  -4  -9   74.73    3.34 
  -3  -4  -9   74.08    3.47 
  -3  -4  -9   71.33    3.13 
  -3   4 -10  111.99    4.59 
  -3   4 -10  112.49    5.16 
   3   4  10  105.05    5.09 
   3   4  10  115.26    4.86 
  -3  -4 -10  105.72    4.94 
  -3  -4 -10  107.28    4.80 
   3   5 -10   67.65    3.46 
  -3   5  10   63.82    3.36 
   3  -5 -10   69.02    3.54 
   3  -5 -10   71.82    3.23 
   3   5  -9   11.82    1.18 
   3   5  -9    8.43    1.02 
  -3   5   9   10.42    1.09 
   3   5  -9   10.37    0.81 
   3  -5  -9    8.73    1.15 
   3  -5  -9   10.05    0.92 
   3   5  -8  158.95    6.91 
  -3   5   8  167.44    6.89 
   3   5  -8  169.28    6.65 
  -3   5   8  163.60    6.89 
  -3   5   8  155.93    7.02 
   3   5  -8  167.71    6.79 
   3   5  -8  159.81    6.78 
   3  -5  -8  160.84    6.79 
   3  -5  -8  157.71    6.82 
   3  -5  -8  159.27    6.93 
   3  -5  -8  163.44    6.93 
  -3  -5   8  160.97    6.57 
   3   5  -7    1.71    0.70 
  -3   5   7    0.72    0.81 
   3   5  -7    1.70    0.70 
  -3   5   7    0.50    0.66 
  -3   5   7    0.46    0.61 
   3   5  -7    0.39    0.37 
   3   5  -7    0.73    0.36 
   3  -5  -7    2.52    1.21 
   3  -5  -7    1.50    0.70 
  -3  -5   7    1.02    0.41 
   3  -5  -7    0.55    0.55 
  -3  -5   7    0.80    0.40 
  -3  -5   7    0.44    0.82 
   3  -5  -7    1.12    0.50 
   3   5  -6   78.61    3.54 
  -3   5   6   77.17    3.60 
   3   5  -6   78.89    3.32 
   3   5  -6   79.83    3.46 
  -3   5   6   77.07    3.52 
  -3   5   6   80.35    3.53 
  -3  -5   6   80.82    3.35 
   3  -5  -6   77.84    3.43 
   3  -5  -6   77.66    3.57 
  -3  -5   6   76.03    3.58 
   3  -5  -6   76.62    3.44 
   3  -5  -6   74.62    3.53 
   3   5  -5    7.21    0.72 
   3   5  -5    6.19    0.87 
   3   5  -5    8.25    0.88 
  -3   5   5    8.50    1.11 
  -3   5   5    7.31    0.78 
  -3   5   5    8.40    0.82 
   3   5  -5    5.77    0.70 
  -3   5   5    7.54    0.69 
  -3   5   5    7.69    0.81 
   3  -5  -5    6.85    0.69 
   3  -5  -5    8.38    0.97 
  -3  -5   5    7.12    0.64 
   3  -5  -5    8.39    0.84 
  -3  -5   5    6.42    0.70 
  -3  -5   5    7.18    0.69 
   3  -5  -5    7.26    0.80 
   3  -5  -5    6.35    0.66 
  -3  -5   5    7.27    0.78 
  -3  -5   5    7.67    0.83 
   3  -5  -5    7.48    0.71 
   3   5  -4   31.79    1.71 
   3   5  -4   32.49    1.68 
   3   5  -4   32.79    1.87 
   3   5  -4   33.47    1.57 
  -3   5   4   32.89    1.95 
  -3   5   4   30.47    1.72 
  -3   5   4   31.39    1.74 
  -3   5   4   31.74    1.64 
   3   5  -4   32.40    1.65 
  -3   5   4   32.22    1.77 
  -3  -5   4   35.40    1.58 
  -3  -5   4   31.62    1.73 
   3  -5  -4   32.80    1.85 
  -3  -5   4   32.61    1.58 
  -3  -5   4   31.63    1.57 
   3  -5  -4   32.02    1.64 
  -3  -5   4   32.93    1.60 
   3  -5  -4   33.15    1.76 
   3  -5  -4   30.84    1.69 
   3  -5  -4   33.09    1.75 
  -3   5   3   10.70    0.94 
   3   5  -3   11.01    0.96 
  -3   5   3   10.55    0.98 
  -3   5   3   12.97    1.08 
   3   5  -3   10.08    0.94 
   3   5  -3   11.34    1.16 
  -3   5   3   10.72    0.92 
  -3   5   3   11.99    0.64 
  -3   5   3   10.80    0.96 
  -3   5   3   10.66    0.88 
   3   5  -3   11.11    0.92 
   3   5  -3   11.76    0.82 
  -3  -5   3   11.51    0.88 
   3  -5  -3   11.52    1.01 
   3  -5  -3   10.09    1.11 
  -3  -5   3   10.95    0.80 
  -3  -5   3   11.07    0.83 
  -3  -5   3    9.99    0.97 
   3  -5  -3   11.29    0.96 
  -3  -5   3   10.86    0.86 
   3  -5  -3   10.92    0.87 
   3  -5  -3   11.41    0.99 
   3  -5  -3   10.99    0.95 
  -3   5   2  287.28   11.47 
  -3   5   2  278.33   11.63 
  -3   5   2  293.70   11.65 
  -3   5   2  282.35   11.58 
   3   5  -2  289.70   11.59 
  -3   5   2  279.29   11.48 
   3   5  -2  283.38   11.63 
  -3   5   2  282.60   11.58 
   3   5  -2  276.76   11.61 
   3   5  -2  275.58   11.60 
   3   5  -2  292.05   11.55 
   3  -5  -2  291.96   11.62 
  -3  -5   2  280.72   11.58 
  -3  -5   2  293.94   11.72 
   3  -5  -2  279.47   11.62 
   3  -5  -2  286.22   11.57 
   3  -5  -2  271.81   11.61 
  -3  -5   2  284.51   11.59 
   3  -5  -2  297.12   11.62 
  -3  -5   2  286.09   11.62 
  -3  -5   2  272.66   11.55 
  -3  -5   2  274.41   11.53 
  -3   5   1    2.25    0.51 
  -3   5   1    2.63    0.45 
   3   5  -1    2.80    0.52 
   3   5  -1    2.45    0.56 
   3   5  -1    2.98    0.57 
  -3   5   1    3.16    0.59 
  -3   5   1    3.20    0.56 
  -3   5   1    3.23    0.42 
   3   5  -1    2.83    0.54 
  -3   5   1    2.83    0.38 
  -3   5   1    3.37    0.52 
   3   5  -1    2.42    0.41 
   3  -5  -1    2.97    0.47 
  -3  -5   1    1.70    0.39 
  -3  -5   1    3.00    0.62 
  -3  -5   1    2.78    0.49 
  -3  -5   1    2.50    0.44 
  -3  -5   1    2.79    0.49 
   3  -5  -1    3.16    0.55 
   3  -5  -1    3.15    0.60 
   3  -5  -1    2.02    0.46 
   3  -5  -1    2.27    0.48 
   3  -5  -1    1.86    0.43 
  -3  -5   1    2.34    0.39 
   3   5   0  124.05    5.30 
  -3   5   0  126.20    5.19 
   3   5   0  124.22    5.30 
  -3   5   0  127.22    5.24 
  -3   5   0  125.80    5.30 
   3   5   0  124.64    5.22 
  -3   5   0  123.12    5.28 
   3   5   0  122.66    5.24 
  -3   5   0  119.94    5.23 
   3   5   0  126.67    5.27 
  -3   5   0  122.61    5.21 
  -3   5   0  124.89    5.18 
   3  -5   0  118.16    5.23 
   3  -5   0  128.91    5.27 
  -3  -5   0  123.78    5.22 
   3  -5   0  123.55    5.21 
   3  -5   0  127.80    5.37 
  -3  -5   0  125.49    5.28 
  -3  -5   0  128.61    5.07 
   3  -5   0  127.42    5.27 
  -3  -5   0  121.18    5.26 
   3  -5   0  120.20    5.23 
  -3  -5   0  119.76    5.23 
  -3  -5   0  133.61    5.08 
  -3  -5   0  121.13    5.19 
   3   5   1    1.39    0.56 
  -3   5  -1    0.78    0.40 
   3   5   1    1.29    0.53 
  -3   5  -1    0.50    0.36 
  -3   5  -1    1.65    0.44 
  -3   5  -1    0.87    0.42 
   3   5   1    0.73    0.43 
  -3   5  -1    1.70    0.42 
  -3   5  -1    0.67    0.48 
   3   5   1    1.47    0.52 
   3   5   1    1.15    0.42 
  -3   5  -1    1.24    0.51 
   3  -5   1    0.79    0.35 
  -3  -5  -1    0.67    0.33 
  -3  -5  -1    0.71    0.40 
  -3  -5  -1    1.08    0.31 
  -3  -5  -1    0.67    0.50 
   3  -5   1    1.13    0.40 
   3  -5   1    1.35    0.45 
  -3  -5  -1    1.04    0.25 
  -3  -5  -1    1.19    0.49 
   3  -5   1    1.44    0.49 
  -3  -5  -1    2.15    0.51 
   3  -5   1    1.23    0.75 
   3  -5   1    1.15    0.45 
  -3  -5  -1    0.53    0.36 
  -3   5  -2   28.98    1.54 
   3   5   2   28.78    1.55 
  -3   5  -2   28.99    1.57 
  -3   5  -2   28.32    1.49 
   3   5   2   31.38    1.60 
  -3   5  -2   28.13    1.52 
   3   5   2   28.14    1.77 
  -3   5  -2   31.07    1.64 
  -3   5  -2   29.92    1.56 
   3   5   2   27.89    1.65 
   3   5   2   30.75    1.56 
  -3  -5  -2   22.61    1.75 
   3  -5   2   28.91    1.73 
   3  -5   2   30.96    1.52 
  -3  -5  -2   29.53    1.42 
   3  -5   2   27.80    1.55 
   3  -5   2   28.43    1.50 
  -3  -5  -2   27.29    1.49 
  -3  -5  -2   29.20    1.36 
  -3  -5  -2   30.65    1.55 
  -3  -5  -2   29.24    1.60 
   3  -5   2   26.98    1.50 
   3  -5   2   28.75    1.42 
  -3   5  -3   36.07    1.95 
  -3   5  -3   38.82    2.01 
   3   5   3   35.54    2.00 
   3   5   3   39.43    2.38 
   3   5   3   37.08    1.86 
   3   5   3   36.86    1.91 
  -3   5  -3   39.92    1.84 
  -3   5  -3   36.89    1.86 
   3   5   3   36.78    1.90 
  -3   5  -3   37.79    1.87 
  -3   5  -3   35.07    1.98 
  -3  -5  -3   40.02    1.86 
  -3  -5  -3   38.91    1.90 
   3  -5   3   38.46    1.75 
  -3  -5  -3   40.28    1.92 
   3  -5   3   36.91    1.83 
   3  -5   3   37.10    1.92 
  -3  -5  -3   37.21    1.76 
   3  -5   3   36.87    1.91 
  -3  -5  -3   38.93    1.76 
  -3  -5  -3   36.87    1.94 
  -3  -5  -3   40.57    1.84 
  -3  -5  -3   39.63    2.03 
   3  -5   3   36.05    1.85 
  -3   5  -4  188.67    8.03 
   3   5   4  184.79    8.17 
  -3   5  -4  193.38    8.18 
   3   5   4  203.65    8.14 
   3   5   4  196.53    8.08 
  -3   5  -4  200.81    8.17 
  -3   5  -4  195.28    8.05 
   3   5   4  193.03    8.54 
  -3   5  -4  185.21    8.20 
  -3   5  -4  201.49    8.07 
   3   5   4  197.05    8.09 
  -3  -5  -4  197.54    8.08 
   3  -5   4  193.66    8.08 
  -3  -5  -4  203.50    8.17 
  -3  -5  -4  187.18    8.10 
  -3  -5  -4  205.85    8.09 
  -3  -5  -4  193.06    8.03 
   3  -5   4  197.98    7.98 
  -3  -5  -4  197.21    8.00 
  -3  -5  -4  196.99    8.11 
  -3  -5  -4  191.19    8.09 
   3  -5   4  200.48    8.07 
   3  -5   4  203.26    8.08 
   3  -5   4  188.01    8.05 
   3  -5   4  187.44    8.09 
  -3   5  -5    0.93    0.79 
   3   5   5    1.28    1.12 
  -3   5  -5    1.83    0.46 
   3   5   5    2.57    0.60 
   3   5   5    1.49    0.64 
   3   5   5    1.08    0.70 
  -3   5  -5    2.12    0.62 
   3   5   5    2.29    0.63 
  -3   5  -5    1.52    0.51 
  -3   5  -5    0.87    0.70 
  -3  -5  -5    1.52    0.48 
  -3  -5  -5    1.52    0.65 
  -3  -5  -5    1.84    0.72 
  -3  -5  -5    0.74    0.58 
   3  -5   5    1.22    0.53 
   3  -5   5    1.31    0.42 
   3  -5   5    1.93    0.61 
  -3  -5  -5    0.64    0.64 
  -3  -5  -5    2.22    0.59 
  -3  -5  -5    1.23    0.46 
   3  -5   5    0.82    0.59 
  -3  -5  -5    0.88    0.40 
   3  -5   5    1.45    0.36 
   3  -5   5    2.04    0.76 
   3   5   6  247.46   10.34 
  -3   5  -6  244.56   10.11 
  -3   5  -6  249.36   10.13 
   3   5   6  258.35   10.24 
   3   5   6  253.85   10.30 
  -3   5  -6  246.89   10.39 
  -3   5  -6  240.95   10.13 
   3   5   6  241.34   10.42 
   3  -5   6  248.62   10.22 
  -3  -5  -6  243.48   10.19 
  -3  -5  -6  249.14   10.21 
  -3  -5  -6  252.18   10.18 
  -3  -5  -6  241.08   10.17 
   3  -5   6  250.72   10.18 
  -3  -5  -6  243.77   10.07 
   3  -5   6  260.04   10.00 
   3  -5   6  240.65   10.09 
  -3  -5  -6  238.51   10.22 
  -3   5  -7    8.33    0.87 
   3   5   7    6.84    0.98 
  -3   5  -7   10.44    0.95 
   3   5   7    9.79    1.12 
   3   5   7    8.42    1.40 
  -3   5  -7   10.27    0.87 
  -3   5  -7   11.31    1.34 
  -3  -5  -7    6.78    0.87 
  -3  -5  -7    9.97    1.06 
  -3  -5  -7    8.81    0.95 
   3  -5   7    7.88    0.79 
   3  -5   7   11.04    1.01 
  -3  -5  -7    7.05    1.14 
   3  -5   7    7.50    1.04 
  -3  -5  -7    9.68    0.89 
  -3  -5  -7    8.91    0.72 
   3   5   8    8.46    1.02 
  -3   5  -8    7.28    0.86 
   3   5   8    6.29    1.88 
  -3   5  -8    8.00    0.70 
   3   5   8    8.12    1.15 
  -3   5  -8    5.99    1.30 
   3   5   8    6.09    0.93 
  -3  -5  -8    7.42    0.70 
   3  -5   8    6.33    1.22 
  -3  -5  -8    7.20    0.91 
   3  -5   8    8.41    1.26 
  -3  -5  -8    6.75    0.80 
  -3  -5  -8    9.57    1.43 
   3   5   9    3.15    1.09 
  -3   5  -9    3.33    0.61 
   3   5   9    5.06    0.96 
  -3   5  -9    3.71    1.35 
  -3  -5  -9    3.66    0.81 
  -3  -5  -9    4.57    0.99 
   3  -5   9    4.18    0.44 
   3  -5   9    3.31    0.69 
  -3  -5  -9    4.30    0.67 
   3   5  10   40.76    2.89 
  -3   5 -10   41.94    2.80 
  -3   5 -10   42.75    3.13 
  -3   5 -10   43.62    2.05 
  -3  -5 -10   39.64    2.59 
  -3  -5 -10   41.56    2.46 
  -3   6   9    1.71    1.04 
   3   6  -9    4.10    1.49 
   3  -6  -9    2.65    1.11 
   3  -6  -9    1.59    0.79 
  -3   6   8    5.09    1.00 
  -3   6   8    5.11    1.18 
   3   6  -8    6.33    1.09 
   3   6  -8    6.86    0.66 
  -3  -6   8    6.64    0.65 
   3  -6  -8    5.96    0.89 
  -3  -6   8    5.12    0.66 
  -3  -6   8    6.83    1.31 
   3  -6  -8    5.80    1.08 
  -3   6   7   24.67    1.92 
   3   6  -7   23.58    1.79 
   3   6  -7   24.39    1.35 
  -3   6   7   23.17    1.79 
   3   6  -7   22.55    2.03 
  -3   6   7   26.46    1.88 
  -3  -6   7   28.37    1.98 
   3  -6  -7   23.84    1.59 
   3  -6  -7   22.38    1.79 
  -3  -6   7   22.22    1.37 
  -3  -6   7   24.40    1.39 
   3  -6  -7   21.80    1.80 
   3   6  -6   88.43    3.76 
  -3   6   6   89.97    4.02 
  -3   6   6   84.28    4.00 
   3   6  -6   94.64    4.02 
   3   6  -6   89.87    4.06 
  -3   6   6   90.13    4.04 
   3  -6  -6   82.53    3.95 
  -3  -6   6   94.84    3.81 
   3  -6  -6   87.52    3.97 
  -3  -6   6   90.14    3.76 
   3  -6  -6   72.50    4.04 
  -3  -6   6   86.95    4.03 
  -3  -6   6   88.26    3.77 
   3  -6  -6   84.55    3.98 
   3   6  -5   83.85    3.53 
   3   6  -5   76.75    3.71 
  -3   6   5   82.07    3.73 
   3   6  -5   85.79    3.75 
  -3   6   5   82.56    3.63 
  -3   6   5   80.56    3.74 
  -3   6   5   86.73    3.79 
  -3  -6   5   78.84    3.73 
  -3  -6   5   86.66    3.55 
  -3  -6   5   81.87    3.55 
   3  -6  -5   83.72    3.65 
   3  -6  -5   68.59    4.25 
  -3  -6   5   82.68    3.60 
   3  -6  -5   80.82    3.76 
   3  -6  -5   80.00    3.69 
  -3   6   4  252.88   10.31 
  -3   6   4  241.82   10.23 
   3   6  -4  250.51   10.28 
  -3   6   4  258.24    9.99 
   3   6  -4  246.73   10.22 
  -3   6   4  240.19   10.28 
  -3   6   4  245.81   10.09 
  -3   6   4  253.35   10.22 
   3   6  -4  249.77   10.14 
  -3  -6   4  255.33   10.14 
   3  -6  -4  245.09   10.27 
   3  -6  -4  245.32   10.20 
   3  -6  -4  247.13   10.25 
   3  -6  -4  248.56   10.29 
  -3  -6   4  241.12   10.23 
   3  -6  -4  246.93   10.23 
  -3  -6   4  255.35   10.19 
  -3  -6   4  237.59   10.15 
   3  -6  -4  248.58   10.27 
  -3   6   3    9.94    0.99 
   3   6  -3   10.33    1.10 
  -3   6   3   10.32    0.95 
  -3   6   3   10.03    0.72 
   3   6  -3   10.58    1.16 
   3   6  -3   10.41    0.90 
  -3   6   3    9.70    1.03 
   3   6  -3   10.42    1.08 
  -3   6   3   12.02    1.17 
  -3   6   3   10.71    1.08 
   3  -6  -3    9.57    0.91 
   3  -6  -3   10.18    1.11 
  -3  -6   3   11.29    0.96 
  -3  -6   3   11.09    0.93 
  -3  -6   3   10.89    1.05 
   3  -6  -3   10.48    1.08 
  -3  -6   3    8.27    0.84 
   3  -6  -3   10.42    1.17 
  -3  -6   3   10.53    0.91 
   3  -6  -3    9.57    1.00 
   3  -6  -3    9.35    0.98 
  -3   6   2    0.66    0.68 
   3   6  -2    0.91    0.56 
   3   6  -2    1.81    0.72 
   3   6  -2    0.87    0.47 
  -3   6   2    0.61    0.52 
  -3   6   2    1.10    0.49 
  -3   6   2    1.35    0.43 
  -3   6   2    0.93    0.58 
  -3   6   2    0.45    0.64 
   3   6  -2    0.69    0.61 
   3   6  -2    0.82    0.54 
   3  -6  -2    0.84    0.55 
   3  -6  -2    0.56    0.64 
   3  -6  -2    1.18    0.52 
   3  -6  -2    0.73    0.65 
  -3  -6   2    1.30    0.55 
  -3  -6   2    0.57    0.45 
   3  -6  -2    0.94    0.48 
   3  -6  -2    1.11    0.53 
  -3  -6   2    0.70    0.55 
  -3  -6   2    0.96    0.44 
  -3   6   1    1.49    0.60 
   3   6  -1    0.55    0.56 
  -3   6   1    0.59    0.45 
  -3   6   1    0.36    0.46 
  -3   6   1    1.11    0.58 
  -3   6   1   -0.31    0.63 
  -3   6   1    0.71    0.43 
   3   6  -1    0.48    0.50 
  -3   6   1    0.39    0.52 
   3   6  -1    0.15    0.50 
   3   6  -1    1.94    0.69 
   3   6  -1    0.09    0.67 
  -3  -6   1    0.17    0.58 
   3  -6  -1    0.62    0.48 
  -3  -6   1    1.75    0.47 
  -3  -6   1   -0.09    0.40 
   3  -6  -1    0.79    0.53 
  -3  -6   1    2.35    0.72 
  -3  -6   1    0.70    0.56 
   3  -6  -1    0.88    0.65 
   3  -6  -1    0.32    0.72 
   3  -6  -1    0.92    0.53 
  -3  -6   1    1.02    0.49 
   3   6   0   63.84    2.91 
   3   6   0   61.99    2.99 
  -3   6   0   67.47    2.86 
   3   6   0   64.50    3.02 
  -3   6   0   65.24    2.89 
  -3   6   0   66.32    3.05 
  -3   6   0   62.14    2.85 
   3   6   0   66.11    3.00 
   3   6   0   64.50    3.01 
  -3   6   0   64.33    3.00 
  -3   6   0   64.72    2.93 
  -3   6   0   61.18    2.99 
  -3  -6   0   66.16    2.65 
  -3  -6   0   65.36    2.90 
   3  -6   0   67.85    3.20 
  -3  -6   0   61.99    2.98 
   3  -6   0   63.58    2.89 
  -3  -6   0   62.69    2.87 
  -3  -6   0   63.66    2.92 
  -3  -6   0   65.72    2.99 
   3  -6   0   61.50    2.93 
   3  -6   0   63.09    2.94 
  -3  -6   0   65.34    2.72 
  -3  -6   0   62.26    2.93 
   3  -6   0   61.64    2.94 
   3  -6   0   67.06    2.98 
  -3   6  -1   86.77    3.94 
   3   6   1   93.45    3.93 
   3   6   1   86.85    3.97 
  -3   6  -1   86.83    3.78 
  -3   6  -1   89.04    3.88 
  -3   6  -1   91.75    3.85 
  -3   6  -1   88.57    3.90 
  -3   6  -1   93.63    3.86 
  -3   6  -1   86.93    3.80 
   3   6   1   83.83    3.83 
   3   6   1   88.11    3.96 
   3   6   1   85.29    3.88 
   3  -6   1   88.16    3.78 
   3  -6   1   84.54    3.84 
   3  -6   1   86.86    4.10 
  -3  -6  -1   84.15    3.87 
  -3  -6  -1   88.44    3.82 
  -3  -6  -1   92.10    3.93 
  -3  -6  -1   82.46    3.88 
   3  -6   1   85.42    3.87 
  -3  -6  -1   85.70    3.85 
  -3  -6  -1   92.11    3.70 
  -3  -6  -1   86.11    3.78 
  -3  -6  -1   87.56    3.64 
   3  -6   1   91.60    3.87 
   3  -6   1   86.95    3.86 
  -3   6  -2  290.54   11.80 
   3   6   2  286.34   11.82 
   3   6   2  278.13   11.95 
  -3   6  -2  272.53   11.75 
   3   6   2  288.11   11.92 
  -3   6  -2  285.80   11.81 
  -3   6  -2  296.62   11.85 
   3   6   2  299.79   11.88 
  -3   6  -2  291.63   11.83 
   3   6   2  300.27   11.82 
  -3   6  -2  283.38   11.79 
  -3   6  -2  286.18   11.88 
  -3  -6  -2  300.56   11.71 
   3  -6   2  289.80   11.75 
   3  -6   2  283.92   11.81 
   3  -6   2  301.75   11.83 
   3  -6   2  279.34   11.82 
   3  -6   2  272.04   11.86 
  -3  -6  -2  296.72   11.88 
  -3  -6  -2  287.24   11.80 
  -3  -6  -2  282.74   11.81 
  -3  -6  -2  287.46   11.67 
  -3  -6  -2  280.37   11.82 
  -3  -6  -2  286.40   11.75 
  -3  -6  -2  298.60   11.85 
   3  -6   2  286.34   11.82 
  -3   6  -3   37.98    1.95 
   3   6   3   39.73    2.50 
  -3   6  -3   39.61    2.18 
  -3   6  -3   37.67    2.03 
  -3   6  -3   40.61    2.16 
  -3   6  -3   37.51    2.02 
   3   6   3   39.13    2.11 
  -3   6  -3   38.93    1.99 
   3   6   3   40.71    2.18 
  -3   6  -3   36.45    1.98 
  -3  -6  -3   38.58    1.82 
  -3  -6  -3   39.40    1.99 
  -3  -6  -3   38.67    2.07 
  -3  -6  -3   40.58    2.14 
   3  -6   3   38.14    2.01 
  -3  -6  -3   36.33    2.05 
  -3  -6  -3   39.50    1.88 
   3  -6   3   37.41    1.86 
   3  -6   3   41.61    1.98 
   3  -6   3   37.31    1.94 
  -3  -6  -3   43.34    1.96 
   3  -6   3   38.34    2.10 
  -3  -6  -3   37.82    2.05 
   3  -6   3   39.11    2.03 
  -3   6  -4   20.10    1.45 
  -3   6  -4   17.07    1.49 
   3   6   4   20.30    1.50 
  -3   6  -4   20.85    1.34 
   3   6   4   20.84    1.53 
   3   6   4   20.01    1.61 
   3   6   4   18.81    1.92 
  -3   6  -4   18.31    1.41 
  -3   6  -4   17.46    1.26 
   3   6   4   20.08    1.57 
  -3  -6  -4   20.56    1.49 
  -3  -6  -4   17.22    1.43 
  -3  -6  -4   20.76    1.43 
   3  -6   4   18.60    1.38 
  -3  -6  -4   18.03    1.30 
   3  -6   4   17.51    1.40 
   3  -6   4   18.59    1.32 
  -3  -6  -4   18.89    1.56 
   3  -6   4   18.49    1.33 
  -3  -6  -4   18.59    1.18 
   3  -6   4   20.21    1.16 
  -3  -6  -4   18.72    1.19 
  -3  -6  -4   18.19    1.43 
   3   6   5    0.75    0.75 
   3   6   5    1.00    0.90 
   3   6   5    2.07    1.39 
  -3   6  -5    0.57    0.80 
  -3   6  -5    0.25    0.69 
   3   6   5    0.38    0.77 
  -3   6  -5    1.20    0.66 
  -3   6  -5    1.28    0.54 
   3  -6   5    1.00    0.72 
  -3  -6  -5    1.61    0.55 
  -3  -6  -5    0.70    0.62 
   3  -6   5    1.13    0.47 
   3  -6   5    1.04    0.77 
  -3  -6  -5    0.57    0.53 
  -3  -6  -5    1.26    0.76 
  -3  -6  -5    2.25    0.83 
   3  -6   5    1.41    0.73 
  -3  -6  -5    1.15    0.49 
   3  -6   5    1.62    0.50 
  -3  -6  -5    2.15    0.76 
  -3  -6  -5    0.36    0.75 
   3   6   6    7.35    1.03 
   3   6   6    9.72    1.40 
  -3   6  -6    7.49    1.19 
   3   6   6    8.73    1.40 
  -3   6  -6    7.46    0.90 
   3   6   6    8.13    1.03 
  -3   6  -6    7.07    0.75 
  -3   6  -6    5.79    0.97 
   3  -6   6    7.19    0.99 
  -3  -6  -6    6.85    0.70 
  -3  -6  -6    8.27    1.03 
  -3  -6  -6    7.14    1.06 
   3  -6   6    7.41    0.88 
   3  -6   6    7.84    0.64 
  -3  -6  -6    7.52    1.07 
  -3  -6  -6    7.03    0.80 
   3  -6   6    5.88    0.68 
  -3  -6  -6    7.23    1.08 
  -3   6  -7    3.86    1.26 
   3   6   7    5.95    1.16 
  -3   6  -7    3.56    0.90 
  -3   6  -7    4.40    0.64 
   3   6   7    6.69    1.60 
   3   6   7    2.68    1.10 
  -3  -6  -7    4.35    0.66 
   3  -6   7    5.72    0.92 
  -3  -6  -7    4.80    0.78 
  -3  -6  -7    3.15    0.70 
  -3   6  -8  167.13    7.29 
   3   6   8  163.78    7.37 
   3   6   8  166.80    7.19 
  -3   6  -8  176.76    7.46 
  -3   6  -8  168.23    7.01 
   3  -6   8  164.50    6.94 
  -3  -6  -8  162.82    7.13 
  -3  -6  -8  170.38    6.98 
   3  -6   8  170.14    7.39 
   3  -6   8  169.17    7.23 
  -3  -6  -8  171.51    7.16 
   3   6   9   16.28    1.65 
  -3   6  -9   19.47    2.03 
  -3   6  -9   17.32    1.33 
  -3   6  -9   15.23    1.57 
  -3  -6  -9   18.19    1.79 
   3  -6   9   17.19    1.88 
   3  -6   9   17.75    1.15 
  -3  -6  -9   19.58    1.92 
  -3  -6  -9   16.90    1.68 
   3  -6   9   20.78    1.96 
  -3   7   8   41.08    2.79 
   3   7  -8   42.59    2.68 
   3  -7  -8   40.21    2.71 
  -3  -7   8   44.22    2.90 
   3  -7  -8   41.91    2.46 
  -3  -7   8   39.54    2.11 
  -3   7   7   50.55    3.16 
   3   7  -7   57.11    3.09 
  -3   7   7   56.41    3.10 
   3  -7  -7   57.94    2.95 
  -3  -7   7   57.21    2.69 
  -3  -7   7   63.32    2.77 
  -3  -7   7   55.04    3.16 
   3  -7  -7   60.45    3.10 
  -3   7   6   10.52    1.22 
  -3   7   6   11.54    1.26 
   3   7  -6   10.72    1.15 
  -3  -7   6   11.92    1.15 
  -3  -7   6   11.80    1.29 
   3  -7  -6   16.53    1.59 
  -3  -7   6   13.29    1.06 
   3  -7  -6   11.87    1.13 
   3  -7  -6   10.08    1.62 
  -3  -7   6   11.94    1.34 
  -3   7   5    5.02    0.98 
  -3   7   5    6.95    0.93 
   3   7  -5    4.72    0.71 
   3   7  -5    6.12    1.15 
  -3   7   5    4.48    1.05 
  -3   7   5    7.03    0.95 
   3   7  -5    6.21    0.91 
  -3  -7   5    6.31    0.95 
  -3  -7   5    5.56    0.72 
  -3  -7   5    5.73    0.86 
   3  -7  -5    5.03    0.93 
  -3  -7   5    7.20    0.84 
   3  -7  -5    6.77    1.16 
   3  -7  -5    5.28    0.82 
   3  -7  -5    6.79    0.98 
  -3   7   4    6.83    0.94 
  -3   7   4    5.80    0.85 
   3   7  -4    8.38    1.00 
  -3   7   4    6.50    0.94 
  -3   7   4    7.39    0.73 
   3   7  -4    6.32    1.09 
  -3   7   4    6.07    1.20 
   3   7  -4    6.41    0.76 
  -3   7   4    6.50    0.84 
  -3  -7   4    7.77    0.86 
  -3  -7   4    6.07    0.87 
   3  -7  -4    7.21    1.08 
  -3  -7   4    7.25    0.77 
   3  -7  -4    6.85    1.00 
  -3  -7   4    7.74    0.79 
   3  -7  -4    6.04    0.90 
   3  -7  -4    5.54    0.79 
  -3   7   3  187.73    7.47 
  -3   7   3  182.36    7.38 
   3   7  -3  179.19    7.60 
  -3   7   3  182.28    7.54 
   3   7  -3  178.84    7.61 
  -3   7   3  183.40    7.67 
   3   7  -3  175.64    7.48 
  -3   7   3  183.21    7.52 
  -3   7   3  178.23    7.64 
  -3  -7   3  183.56    7.47 
   3  -7  -3  183.29    7.63 
   3  -7  -3  181.59    7.53 
  -3  -7   3  176.98    7.48 
   3  -7  -3  174.75    7.63 
   3  -7  -3  172.98    7.56 
   3  -7  -3  173.83    7.56 
  -3  -7   3  175.11    7.54 
   3  -7  -3  176.31    7.59 
   3   7  -2   64.76    3.04 
  -3   7   2   63.67    2.86 
  -3   7   2   60.33    2.87 
  -3   7   2   66.78    3.00 
   3   7  -2   59.13    3.04 
  -3   7   2   65.96    3.13 
   3   7  -2   61.13    2.91 
  -3   7   2   59.40    3.07 
  -3   7   2   63.66    2.78 
  -3  -7   2   60.02    2.93 
   3  -7  -2   61.88    3.05 
   3  -7  -2   60.59    3.15 
  -3  -7   2   59.58    2.88 
   3  -7  -2   63.51    2.94 
   3  -7  -2   61.39    2.99 
   3  -7  -2   64.52    3.08 
   3  -7  -2   63.83    3.00 
  -3  -7   2   61.71    2.97 
   3   7  -1  143.90    6.40 
  -3   7   1  157.41    6.25 
  -3   7   1  152.72    6.46 
   3   7  -1  152.80    6.42 
   3   7  -1  152.24    6.44 
  -3   7   1  153.29    6.26 
  -3   7   1  150.22    6.43 
  -3   7   1  149.98    6.34 
  -3   7   1  149.26    6.26 
   3  -7  -1  139.86    6.82 
   3  -7  -1  149.36    6.38 
  -3  -7   1  145.28    6.32 
   3  -7  -1  149.77    6.32 
   3  -7  -1  142.60    6.40 
  -3  -7   1  154.97    6.39 
   3  -7  -1  158.67    6.41 
  -3  -7   1  152.19    6.29 
   3  -7  -1  151.12    6.55 
  -3  -7   1  126.55    6.57 
  -3   7   0   52.83    2.48 
   3   7   0   47.42    2.59 
  -3   7   0   49.72    2.40 
  -3   7   0   49.95    2.67 
  -3   7   0   53.79    2.60 
  -3   7   0   46.13    2.32 
   3   7   0   49.87    2.63 
  -3   7   0   48.51    2.42 
   3   7   0   49.74    2.46 
   3   7   0   48.90    2.60 
   3  -7   0   52.04    2.57 
   3  -7   0   37.28    3.05 
   3  -7   0   52.83    3.02 
  -3  -7   0   49.50    2.58 
  -3  -7   0   49.93    2.46 
  -3  -7   0   50.96    2.42 
  -3  -7   0   53.20    2.85 
  -3  -7   0   47.18    2.18 
   3  -7   0   50.35    2.48 
  -3  -7   0   51.22    2.06 
  -3  -7   0   47.90    2.58 
   3  -7   0   49.45    2.41 
   3  -7   0   46.88    2.58 
  -3  -7   0   49.07    2.39 
  -3   7  -1   49.89    2.53 
   3   7   1   49.26    2.63 
  -3   7  -1   49.05    2.39 
  -3   7  -1   46.18    2.46 
   3   7   1   49.61    2.49 
  -3   7  -1   50.56    2.44 
   3   7   1   50.84    2.64 
   3   7   1   50.19    2.61 
  -3   7  -1   47.03    2.64 
  -3   7  -1   50.06    2.30 
  -3  -7  -1   49.23    2.58 
  -3  -7  -1   48.06    2.38 
  -3  -7  -1   50.57    2.27 
  -3  -7  -1   46.12    2.58 
   3  -7   1   47.35    2.43 
  -3  -7  -1   48.25    2.58 
   3  -7   1   47.64    2.48 
   3  -7   1   48.31    2.85 
   3  -7   1   43.09    2.91 
  -3  -7  -1   46.18    2.43 
  -3  -7  -1   49.95    2.11 
   3  -7   1   49.82    2.58 
  -3  -7  -1   47.46    2.34 
   3  -7   1   51.27    2.51 
   3   7   2   -0.44    0.78 
  -3   7  -2    0.36    0.69 
   3   7   2    1.01    0.85 
  -3   7  -2    1.60    0.95 
   3   7   2    0.21    0.75 
   3   7   2    1.20    0.94 
  -3   7  -2    0.48    0.62 
  -3   7  -2    0.48    0.51 
  -3   7  -2   -0.47    0.58 
  -3  -7  -2    1.17    0.92 
  -3  -7  -2    0.26    0.69 
   3  -7   2    0.58    0.66 
  -3  -7  -2    0.78    0.83 
   3  -7   2    0.45    0.55 
   3  -7   2    0.64    0.85 
  -3  -7  -2    1.19    0.59 
  -3  -7  -2    0.69    0.37 
   3  -7   2    0.01    0.59 
  -3  -7  -2    0.63    0.50 
  -3  -7  -2   -0.32    0.77 
  -3  -7  -2    0.43    0.54 
  -3   7  -3   66.42    3.16 
  -3   7  -3   65.48    3.18 
   3   7   3   67.29    3.64 
   3   7   3   68.45    3.32 
  -3   7  -3   65.20    3.00 
   3   7   3   64.47    3.22 
   3   7   3   67.02    3.34 
  -3   7  -3   65.57    3.19 
   3  -7   3   63.33    3.16 
   3  -7   3   66.24    3.13 
  -3  -7  -3   62.66    3.19 
  -3  -7  -3   72.04    3.11 
  -3  -7  -3   68.63    3.01 
  -3  -7  -3   63.86    3.18 
   3  -7   3   64.46    3.09 
  -3  -7  -3   65.69    3.32 
  -3  -7  -3   69.07    2.92 
   3  -7   3   67.68    3.13 
   3  -7   3   69.78    3.03 
  -3  -7  -3   63.03    3.26 
  -3  -7  -3   69.61    3.13 
   3   7   4   43.26    2.46 
   3   7   4   43.99    2.51 
  -3   7  -4   39.68    2.27 
  -3   7  -4   38.67    2.51 
  -3   7  -4   38.50    2.10 
  -3   7  -4   38.02    2.04 
   3   7   4   33.30    3.30 
  -3  -7  -4   37.74    2.50 
   3  -7   4   41.27    2.10 
  -3  -7  -4   40.21    1.98 
   3  -7   4   42.70    2.21 
  -3  -7  -4   39.86    2.25 
  -3  -7  -4   39.21    2.28 
   3  -7   4   40.24    2.13 
   3  -7   4   37.74    2.26 
  -3  -7  -4   40.28    2.02 
   3  -7   4   43.34    2.04 
  -3  -7  -4   39.98    2.15 
  -3  -7  -4   35.69    2.31 
  -3  -7  -4   39.79    2.52 
   3   7   5  154.67    6.71 
   3   7   5  150.79    7.19 
  -3   7  -5  152.27    6.59 
   3   7   5  157.72    7.32 
  -3   7  -5  152.88    6.45 
  -3   7  -5  153.61    6.44 
   3  -7   5  155.58    6.44 
   3  -7   5  152.84    6.41 
   3  -7   5  151.21    6.57 
  -3  -7  -5  153.20    6.52 
  -3  -7  -5  156.58    6.58 
  -3  -7  -5  144.54    6.52 
  -3  -7  -5  153.99    6.40 
  -3  -7  -5  149.30    6.53 
  -3  -7  -5  148.30    6.69 
  -3   7  -6   42.19    2.60 
  -3   7  -6   43.87    2.26 
  -3   7  -6   47.02    2.51 
   3   7   6   39.62    3.27 
   3   7   6   48.10    2.81 
  -3  -7  -6   43.97    2.29 
   3  -7   6   41.15    2.61 
   3  -7   6   42.23    2.76 
  -3  -7  -6   41.21    2.39 
  -3  -7  -6   45.06    2.22 
  -3   7  -7   75.66    3.93 
  -3   7  -7   76.74    3.57 
  -3   7  -7   78.22    3.92 
   3   7   7   80.69    4.14 
   3   7   7   89.08    4.14 
  -3  -7  -7   78.02    3.55 
  -3  -7  -7   79.06    3.68 
  -3  -7  -7   77.21    3.73 
   3  -7   7   76.58    3.52 
   3  -7   7   80.58    4.03 
  -3   7  -8    5.21    1.29 
  -3   7  -8    4.22    0.79 
   3   7   8    7.60    1.52 
  -3  -7  -8    6.64    1.11 
  -3  -7  -8    6.33    0.88 
  -3  -7  -8    4.39    1.06 
   3  -7   8    6.73    1.56 
   3  -7   8    4.97    0.80 
   3   8  -7   46.45    3.01 
  -3   8   7   44.42    3.12 
  -3   8   7   47.52    3.05 
   3  -8  -7   49.32    2.86 
  -3  -8   7   43.38    3.13 
  -3  -8   7   44.74    2.72 
   3  -8  -7   46.53    2.84 
  -3   8   6    0.35    1.07 
   3   8  -6    1.26    1.09 
  -3   8   6    0.08    1.21 
  -3  -8   6   -0.39    0.72 
   3  -8  -6    1.01    0.97 
   3  -8  -6   -0.94    1.01 
  -3  -8   6    1.92    1.16 
  -3   8   5  147.95    6.59 
   3   8  -5  148.19    6.53 
  -3   8   5  153.78    6.48 
  -3  -8   5  153.72    6.51 
  -3  -8   5  140.89    6.29 
   3  -8  -5  144.08    6.46 
   3  -8  -5  148.39    6.47 
  -3   8   4    5.14    1.01 
  -3   8   4    6.38    0.97 
   3   8  -4    5.22    1.02 
  -3   8   4    6.04    1.19 
   3  -8  -4    5.99    1.15 
   3  -8  -4    7.42    1.08 
   3  -8  -4    4.25    1.02 
  -3  -8   4    5.70    0.81 
  -3  -8   4    7.17    1.05 
  -3   8   3   45.82    2.81 
  -3   8   3   50.75    2.53 
  -3   8   3   47.37    2.60 
  -3   8   3   45.46    3.03 
   3   8  -3   48.73    2.70 
  -3   8   3   50.37    2.61 
   3  -8  -3   44.49    3.03 
   3  -8  -3   49.64    2.59 
  -3  -8   3   47.95    2.61 
  -3  -8   3   49.08    2.47 
   3  -8  -3   47.37    2.65 
   3  -8  -3   45.76    2.96 
   3  -8  -3   46.95    2.64 
  -3   8   2    0.82    0.68 
  -3   8   2    0.91    0.96 
  -3   8   2    1.96    1.25 
  -3   8   2   -0.31    0.78 
   3   8  -2    0.34    0.90 
  -3   8   2   -0.61    0.73 
   3   8  -2    0.96    1.04 
  -3   8   2    0.78    0.78 
   3  -8  -2    2.56    1.21 
  -3  -8   2   -0.01    0.77 
  -3  -8   2    0.50    0.73 
   3  -8  -2   -0.84    0.84 
   3  -8  -2   -0.32    0.81 
   3  -8  -2    0.36    1.09 
   3  -8  -2    0.94    1.44 
  -3   8   1    8.00    0.86 
   3   8  -1    7.39    1.05 
   3   8  -1    5.44    1.14 
   3   8  -1    8.09    1.20 
  -3   8   1    7.74    0.93 
  -3   8   1    4.87    0.94 
  -3   8   1    7.70    1.31 
  -3   8   1    7.66    0.98 
  -3   8   1    6.90    0.96 
   3  -8  -1    6.34    1.03 
  -3  -8   1    5.72    1.13 
  -3  -8   1    6.99    0.97 
  -3  -8   1    7.20    0.95 
   3  -8  -1    6.11    1.64 
   3  -8  -1    5.96    1.11 
   3  -8  -1    5.57    0.84 
  -3  -8   1    5.52    0.80 
   3  -8  -1    7.78    1.05 
  -3   8   0    2.54    0.99 
  -3   8   0    2.16    0.76 
   3   8   0    1.78    1.11 
  -3   8   0    2.21    0.86 
   3   8   0    2.21    0.97 
  -3   8   0    1.49    0.91 
   3   8   0    1.90    1.01 
  -3   8   0    2.06    0.64 
   3  -8   0    2.42    0.89 
   3  -8   0    0.73    0.76 
  -3  -8   0    2.42    0.78 
   3  -8   0    2.80    1.61 
  -3  -8   0    1.96    0.78 
   3  -8   0    3.57    0.78 
   3  -8   0    2.97    1.00 
  -3   8  -1  190.76    8.08 
  -3   8  -1  191.44    7.80 
  -3   8  -1  193.64    8.05 
   3   8   1  167.40    8.31 
   3   8   1  187.68    8.17 
  -3   8  -1  193.69    7.94 
   3   8   1  184.89    8.10 
   3   8   1  194.34    8.06 
  -3  -8  -1  187.67    7.92 
   3  -8   1  199.36    8.07 
  -3  -8  -1  192.08    7.89 
   3  -8   1  192.76    7.99 
  -3  -8  -1  196.59    8.11 
   3  -8   1  194.47    7.93 
   3  -8   1  175.41    7.95 
  -3  -8  -1  189.91    7.97 
  -3  -8  -1  186.94    7.64 
   3  -8   1  167.82    8.15 
  -3  -8  -1  187.61    8.15 
   3   8   2   17.97    1.60 
  -3   8  -2   15.34    1.21 
  -3   8  -2   15.96    1.62 
  -3   8  -2   15.36    1.53 
   3   8   2   13.80    1.39 
   3   8   2   16.15    1.58 
  -3   8  -2   17.13    1.80 
   3   8   2   14.22    1.61 
   3  -8   2   14.63    1.39 
  -3  -8  -2   20.05    1.71 
   3  -8   2   13.61    1.52 
  -3  -8  -2   15.52    1.35 
  -3  -8  -2   16.34    1.40 
   3  -8   2   16.74    1.63 
  -3  -8  -2   16.29    1.54 
   3  -8   2   17.00    1.45 
  -3  -8  -2   15.52    1.03 
   3   8   3  160.57    7.25 
   3   8   3  161.37    6.97 
  -3   8  -3  158.74    6.81 
   3   8   3  150.69    7.18 
  -3   8  -3  158.57    6.58 
  -3   8  -3  158.74    6.75 
  -3  -8  -3  160.04    6.78 
   3  -8   3  154.32    6.81 
  -3  -8  -3  148.36    6.95 
   3  -8   3  160.04    6.75 
  -3  -8  -3  162.62    6.55 
  -3  -8  -3  157.56    6.82 
  -3  -8  -3  159.94    7.04 
  -3  -8  -3  159.97    6.67 
  -3   8  -4    4.00    0.89 
  -3   8  -4    2.98    0.70 
   3   8   4    2.05    1.12 
  -3   8  -4    2.74    0.94 
   3   8   4    3.87    2.05 
   3  -8   4    2.54    1.04 
  -3  -8  -4    2.35    0.79 
  -3  -8  -4    2.19    0.83 
  -3  -8  -4    3.61    0.66 
  -3  -8  -4    2.50    0.95 
  -3   8  -5    1.18    1.10 
  -3   8  -5    1.84    0.83 
   3   8   5    0.40    2.07 
   3   8   5    1.16    1.23 
   3  -8   5   -0.05    0.80 
  -3  -8  -5    1.69    0.87 
  -3  -8  -5    1.78    0.86 
  -3  -8  -5    1.31    0.76 
   3  -8   5    0.69    1.12 
   3   8   6   -0.15    1.36 
   3   8   6   -0.54    1.94 
  -3   8  -6    2.71    0.83 
  -3   8  -6    2.25    1.19 
  -3  -8  -6    1.11    0.83 
   3  -8   6    2.39    1.30 
  -3  -8  -6    1.93    0.85 
  -3  -8  -6    2.73    1.04 
   3  -8   6    0.77    0.82 
   3   9  -4    6.13    1.29 
  -3   9   4    7.56    1.18 
  -3   9   4    7.03    1.60 
   3  -9  -4    9.14    1.40 
   3  -9  -4    6.93    1.36 
  -3  -9   4    6.30    1.00 
  -3  -9   4    5.46    1.22 
  -3   9   3   35.42    2.20 
   3   9  -3   34.75    2.55 
  -3   9   3   33.99    2.68 
   3  -9  -3   30.92    2.60 
  -3  -9   3   30.17    2.18 
   3  -9  -3   36.98    2.51 
   3  -9  -3   30.56    2.50 
  -3  -9   3   35.30    2.40 
  -3   9   2   54.35    3.37 
  -3   9   2   57.77    3.16 
  -3   9   2   52.31    2.83 
  -3   9   2   60.70    3.11 
   3   9  -2   54.54    3.26 
   3  -9  -2   54.13    3.13 
  -3  -9   2   57.12    2.99 
   3  -9  -2   53.19    3.15 
  -3  -9   2   53.26    2.93 
  -3   9   1   92.11    4.66 
  -3   9   1   96.38    4.36 
  -3   9   1   95.74    4.16 
  -3   9   1   92.34    4.37 
   3   9  -1   93.35    4.55 
   3  -9  -1   88.27    4.39 
   3  -9  -1   93.42    4.42 
  -3  -9   1   90.57    4.30 
  -3  -9   1   87.52    4.30 
  -3   9   0   32.33    1.90 
  -3   9   0   33.33    2.25 
  -3   9   0   30.88    2.29 
   3   9   0   34.81    2.71 
   3  -9   0   33.04    2.32 
  -3  -9   0   31.07    2.15 
   3  -9   0   30.31    2.34 
  -3  -9   0   30.37    2.25 
  -3   9  -1    4.93    1.08 
   3   9   1    6.83    1.54 
  -3   9  -1    6.35    0.84 
  -3   9  -1    5.66    1.07 
  -3  -9  -1    6.07    1.04 
   3  -9   1    6.85    1.18 
   3  -9   1    4.33    0.96 
  -3  -9  -1    5.48    1.17 
  -3   9  -2    0.41    1.05 
   3   9   2    3.00    1.60 
   3   9   2    1.39    1.30 
  -3   9  -2    0.82    1.07 
   3  -9   2    0.00    1.13 
  -3  -9  -2    0.21    1.03 
   3  -9   2   -1.09    1.00 
  -3  -9  -2    0.69    0.97 
  -3   9  -3   12.02    1.37 
   3   9   3   15.17    2.25 
  -3   9  -3   16.37    1.55 
   3   9   3   11.71    1.64 
  -3  -9  -3   14.45    1.26 
   3  -9   3   14.22    1.58 
   3  -9   3   15.57    1.43 
  -3   9  -4   29.16    2.50 
   3   9   4   32.17    3.21 
  -3   9  -4   27.91    2.22 
   3   9   4   27.37    2.79 
  -3  -9  -4   31.57    2.54 
  -3  -9  -4   25.37    2.05 
   3  -9   4   26.84    2.59 
   3  -9   4   22.63    2.17 
   4   0 -12  179.02    8.16 
   4   0 -11   -2.42    1.41 
   4   0 -11    0.31    0.28 
   4   0 -11    0.38    0.56 
   4   0 -10  107.25    4.97 
   4   0 -10  110.27    4.58 
   4   0 -10  104.78    5.23 
   4   0 -10  113.32    4.42 
   4   0 -10  104.02    4.53 
   4   0  -9    0.06    0.73 
   4   0  -9   -0.43    0.38 
   4   0  -9    0.59    1.09 
   4   0  -9    0.31    0.25 
   4   0  -9   -0.07    0.42 
   4   0  -8   16.41    0.97 
   4   0  -8   16.72    1.40 
   4   0  -8   17.49    1.56 
   4   0  -8   15.21    1.16 
   4   0  -8   15.71    0.92 
   4   0  -8   15.98    0.80 
   4   0  -8   11.10    1.34 
   4   0  -7    0.67    0.51 
   4   0  -7    0.07    0.29 
  -4   0   7    0.25    0.19 
   4   0  -7   -0.41    0.84 
   4   0  -7    0.20    0.21 
   4   0  -7   -0.22    0.46 
   4   0  -7    0.02    0.38 
  -4   0   7    0.11    0.50 
   4   0  -7   -0.21    1.06 
   4   0  -7    0.31    0.30 
  -4   0   7    0.45    0.40 
   4   0  -6  220.89    9.23 
  -4   0   6  229.09    9.31 
   4   0  -6  224.06    9.20 
   4   0  -6  216.10    9.53 
   4   0  -6  232.49    9.14 
   4   0  -6  239.64    9.27 
   4   0  -6  216.54    9.17 
  -4   0   6  232.85    9.30 
   4   0  -6  222.09    9.17 
  -4   0   6  225.88    9.13 
   4   0  -5    0.09    0.34 
   4   0  -5    1.17    0.29 
  -4   0   5    0.32    0.57 
   4   0  -5   -0.12    0.66 
   4   0  -5   -0.18    0.23 
  -4   0   5    0.36    0.33 
   4   0  -5    0.02    0.23 
  -4   0   5    0.33    0.21 
   4   0  -5   -0.21    0.44 
   4   0  -4  419.76   17.33 
  -4   0   4  393.95   17.07 
   4   0  -4  431.11   17.11 
   4   0  -4  410.38   17.06 
  -4   0   4  425.74   17.03 
  -4   0   4  454.91   17.29 
  -4   0   4  436.48   17.06 
   4   0  -4  429.82   17.11 
  -4   0   4  411.08   17.12 
   4   0  -4  434.67   17.19 
   4   0  -4  408.97   17.09 
  -4   0   3    0.48    0.21 
   4   0  -3    0.98    0.55 
   4   0  -3    0.09    0.23 
   4   0  -3    0.31    0.40 
   4   0  -3    0.57    0.34 
  -4   0   3    0.91    0.28 
   4   0  -3    0.03    0.22 
  -4   0   3    0.91    0.50 
   4   0  -3    0.48    0.27 
  -4   0   3    0.57    0.19 
  -4   0   3    0.52    0.27 
   4   0  -2  213.02    9.42 
  -4   0   2  230.35    9.39 
   4   0  -2  239.23    9.37 
  -4   0   2  248.53    9.36 
  -4   0   2  214.37    9.41 
  -4   0   2  236.25    9.37 
   4   0  -2  226.72    9.41 
   4   0  -2  247.49    9.49 
   4   0  -2  217.40    9.48 
   4   0  -1    1.21    0.35 
   4   0  -1   -0.82    0.38 
  -4   0   1   -0.61    0.31 
   4   0  -1   -0.23    0.36 
  -4   0   1   -0.44    0.24 
   4   0  -1   -0.51    0.38 
   4   0  -1   -0.96    0.30 
  -4   0   1   -0.38    0.25 
  -4   0   1   -0.75    0.27 
   4   0  -1   -0.45    0.35 
  -4   0   1   -1.02    0.47 
   4   0   0  121.74    4.89 
  -4   0   0  111.99    4.80 
   4   0   0  115.60    4.77 
   4   0   0  101.58    4.91 
   4   0   0  116.64    4.84 
  -4   0   0  119.56    4.98 
   4   0   0  109.34    4.85 
  -4   0   0  120.37    4.85 
   4   0   0  106.18    4.95 
  -4   0   0  123.72    4.92 
  -4   0  -1    0.21    0.36 
   4   0   1    0.25    0.37 
  -4   0  -1    0.33    0.50 
   4   0   1   -0.15    0.40 
  -4   0  -1    0.13    0.28 
  -4   0  -1   -0.10    0.41 
   4   0   1    0.75    0.22 
   4   0   1    0.86    0.46 
  -4   0  -1    0.53    0.37 
   4   0   1    0.05    0.29 
   4   0   1    0.31    0.36 
   4   0   2  168.47    7.50 
   4   0   2  171.05    7.59 
   4   0   2  187.26    7.38 
   4   0   2  180.78    7.20 
  -4   0  -2  179.88    7.42 
  -4   0  -2  187.28    7.51 
  -4   0  -2  166.67    7.35 
   4   0   2  183.54    7.40 
  -4   0  -2  183.25    7.47 
   4   0   2  181.72    7.21 
  -4   0  -2  176.74    7.53 
   4   0   2  177.73    7.45 
  -4   0  -3    0.30    0.34 
  -4   0  -3    0.48    0.38 
  -4   0  -3    0.24    0.39 
   4   0   3    0.00    0.27 
  -4   0  -3   -0.07    0.46 
  -4   0  -3   -0.22    0.25 
   4   0   3    0.33    0.44 
   4   0   3    0.93    0.61 
   4   0   3    0.06    0.29 
  -4   0  -4  440.10   18.11 
  -4   0  -4  430.31   18.11 
  -4   0  -4  445.67   18.22 
   4   0   4  417.08   18.31 
  -4   0  -4  474.63   18.18 
   4   0   4  451.04   18.03 
   4   0   4  449.21   18.11 
   4   0   4  446.98   18.21 
   4   0   4  464.12   18.11 
  -4   0  -4  453.95   18.19 
   4   0   5   -0.09    0.47 
  -4   0  -5   -0.09    0.52 
   4   0   5    0.10    0.62 
  -4   0  -5    0.07    0.44 
   4   0   5   -0.07    0.26 
  -4   0  -5    0.28    0.74 
  -4   0  -5    0.31    0.37 
  -4   0  -5    1.49    0.42 
   4   0   5   -0.28    0.31 
   4   0   6    0.24    0.25 
  -4   0  -6    0.07    0.80 
   4   0   6   -0.30    0.72 
  -4   0  -6    0.57    0.42 
  -4   0  -6    0.57    0.60 
  -4   0  -6    0.81    0.43 
   4   0   6    1.09    0.38 
  -4   0  -6    1.18    0.45 
   4   0   6    0.50    0.55 
  -4   0  -7    0.19    0.15 
  -4   0  -7    0.11    0.14 
  -4   0  -7    0.57    0.65 
  -4   0  -7    1.09    1.01 
  -4   0  -7    0.00    0.47 
   4   0   7    0.16    0.20 
   4   0   7    0.19    0.78 
  -4   0  -7    0.12    0.49 
   4   0   7    0.28    0.61 
  -4   0  -7    0.26    0.51 
   4   0   7    0.48    0.39 
   4   0   8  143.37    5.61 
   4   0   8  119.84    6.08 
   4   0   8  143.35    5.89 
  -4   0  -8  137.61    5.82 
  -4   0  -8  129.93    6.17 
  -4   0  -8  130.72    5.77 
  -4   0  -8  139.06    5.48 
  -4   0  -8  138.32    5.51 
   4   0   9    0.89    0.74 
   4   0   9    1.40    0.82 
  -4   0  -9    0.14    0.23 
  -4   0  -9    0.67    0.80 
  -4   0  -9    1.55    0.75 
  -4   0  -9    0.65    0.73 
  -4   0  -9    0.35    0.26 
   4   0  10  169.02    7.19 
  -4   0 -10  169.05    7.17 
   4   0  10  165.68    6.91 
  -4   0 -10  152.46    6.90 
  -4   0 -10  171.49    7.19 
   4   0  10  176.12    6.81 
   4   0  11    0.07    1.06 
  -4   0 -11    1.12    1.05 
  -4   0 -11    0.67    1.07 
   4   1 -12   21.24    2.41 
   4   1 -12   20.80    1.69 
   4   1 -12   18.08    1.63 
   4  -1 -12   19.86    1.14 
   4  -1 -12   19.14    1.41 
   4  -1 -12   19.17    2.05 
   4   1 -11    1.05    0.95 
   4   1 -11    2.09    1.64 
   4   1 -11    1.16    0.68 
   4  -1 -11    1.20    0.40 
   4  -1 -11    0.82    1.37 
   4  -1 -11    0.75    0.54 
   4   1 -10   27.48    2.88 
   4   1 -10   32.42    2.51 
   4   1 -10   32.83    1.81 
   4  -1 -10   36.07    1.56 
   4  -1 -10   38.79    3.94 
   4  -1 -10   32.84    1.63 
   4  -1 -10   31.43    2.60 
   4  -1 -10   33.31    1.62 
   4   1  -9   23.36    1.85 
   4   1  -9   23.72    1.73 
  -4   1   9   21.57    1.39 
   4   1  -9   24.25    1.39 
   4   1  -9   21.48    1.93 
   4   1  -9   24.15    1.22 
   4  -1  -9   25.02    2.49 
   4  -1  -9   23.83    1.21 
   4  -1  -9   24.45    1.13 
   4  -1  -9   25.18    1.24 
   4  -1  -9   24.87    1.17 
   4   1  -8  210.12    8.59 
   4   1  -8  205.01    9.00 
  -4   1   8  205.39    8.43 
   4   1  -8  215.01    8.54 
  -4   1   8  214.28    8.71 
   4   1  -8  213.66    8.84 
   4   1  -8  177.53    8.47 
  -4   1   8  225.46    8.64 
   4   1  -8  214.85    8.63 
   4  -1  -8  210.08    8.44 
   4  -1  -8  209.78    8.43 
   4  -1  -8  210.28    8.53 
   4  -1  -8  205.69    8.44 
   4  -1  -8  210.07    8.66 
   4  -1  -8  208.46    8.47 
   4  -1  -8  200.64    8.53 
   4  -1  -8  199.94    8.85 
   4   1  -7   67.93    3.11 
   4   1  -7   70.49    3.17 
   4   1  -7   68.51    3.64 
  -4   1   7   72.68    3.25 
   4   1  -7   72.04    3.51 
   4   1  -7   71.84    3.09 
  -4   1   7   73.82    3.18 
   4   1  -7   75.83    3.15 
  -4   1   7   71.76    2.99 
   4  -1  -7   71.00    2.98 
   4  -1  -7   71.15    3.23 
   4  -1  -7   72.83    3.02 
   4  -1  -7   73.15    3.05 
   4  -1  -7   69.68    2.99 
   4  -1  -7   65.11    3.46 
   4  -1  -7   71.46    3.03 
   4  -1  -7   70.30    3.10 
  -4   1   6  142.73    5.85 
   4   1  -6  133.68    5.77 
  -4   1   6  139.16    5.79 
   4   1  -6  138.02    5.73 
   4   1  -6  139.21    5.63 
   4   1  -6  136.27    5.62 
   4   1  -6  129.02    6.11 
   4   1  -6  144.56    6.00 
  -4   1   6  138.39    5.68 
   4   1  -6  143.87    5.75 
   4  -1  -6  135.61    5.65 
  -4  -1   6  135.34    5.61 
   4  -1  -6  146.62    5.83 
   4  -1  -6  141.31    5.69 
   4  -1  -6  139.95    5.69 
  -4  -1   6  141.74    5.63 
   4  -1  -6  141.91    5.67 
   4  -1  -6  123.47    6.01 
   4  -1  -6  136.66    5.73 
  -4  -1   6  142.84    5.79 
   4   1  -5    3.40    0.53 
   4   1  -5    3.35    0.38 
  -4   1   5    3.13    0.58 
   4   1  -5    4.78    0.47 
  -4   1   5    3.66    0.52 
  -4   1   5    4.07    0.37 
  -4   1   5    3.37    0.36 
   4   1  -5    4.28    0.44 
   4   1  -5    4.60    0.78 
   4  -1  -5    4.12    0.40 
   4  -1  -5    4.76    0.47 
  -4  -1   5    3.77    0.40 
  -4  -1   5    3.50    0.36 
   4  -1  -5    4.01    0.37 
   4  -1  -5    2.59    0.74 
   4  -1  -5    3.56    0.39 
   4  -1  -5    3.91    0.38 
   4  -1  -5    3.42    0.49 
  -4  -1   5    2.93    0.42 
   4   1  -4    2.22    0.33 
   4   1  -4    2.28    0.33 
  -4   1   4    1.98    0.26 
   4   1  -4    2.11    0.62 
  -4   1   4    1.78    0.35 
  -4   1   4    2.37    0.39 
  -4   1   4    2.42    0.32 
   4   1  -4    2.00    0.31 
   4   1  -4    2.73    0.49 
  -4   1   4    5.16    0.81 
   4   1  -4    3.53    0.47 
  -4  -1   4    2.36    0.41 
  -4  -1   4    2.35    0.38 
  -4  -1   4    2.51    0.33 
   4  -1  -4    2.50    0.33 
   4  -1  -4    1.90    0.28 
   4  -1  -4    3.25    0.43 
   4  -1  -4    2.14    0.26 
  -4  -1   4    3.33    0.39 
  -4  -1   4    3.04    0.24 
   4  -1  -4    1.31    0.57 
   4  -1  -4    2.31    0.35 
  -4   1   3   51.87    2.29 
   4   1  -3   50.08    2.24 
   4   1  -3   50.61    2.45 
   4   1  -3   52.97    2.27 
  -4   1   3   50.92    2.24 
   4   1  -3   54.55    2.22 
   4   1  -3   47.77    2.34 
  -4   1   3   52.41    2.33 
  -4   1   3   52.83    2.16 
  -4   1   3   52.18    2.21 
   4  -1  -3   49.54    2.27 
   4  -1  -3   49.83    2.23 
  -4  -1   3   51.85    2.33 
   4  -1  -3   45.27    2.43 
   4  -1  -3   49.50    2.24 
  -4  -1   3   53.61    2.22 
   4  -1  -3   54.00    2.29 
   4  -1  -3   54.40    2.27 
  -4  -1   3   53.92    2.26 
  -4  -1   3   52.02    2.33 
  -4  -1   3   56.41    2.26 
   4   1  -2  358.88   16.64 
   4   1  -2  412.26   16.57 
  -4   1   2  421.05   16.69 
   4   1  -2  416.89   16.63 
   4   1  -2  421.13   16.65 
  -4   1   2  405.13   16.61 
  -4   1   2  404.09   16.61 
  -4   1   2  429.58   16.67 
   4   1  -2  413.93   16.60 
  -4   1   2  430.97   16.57 
   4   1  -2  392.78   16.72 
   4  -1  -2  414.39   16.64 
  -4  -1   2  430.13   16.61 
  -4  -1   2  416.22   16.65 
  -4  -1   2  395.02   16.65 
   4  -1  -2  418.95   16.61 
  -4  -1   2  413.72   16.69 
   4  -1  -2  401.06   16.64 
   4  -1  -2  414.38   16.60 
   4  -1  -2  396.84   16.70 
   4  -1  -2  423.64   16.62 
   4   1  -1  161.03    6.46 
   4   1  -1  153.36    6.46 
  -4   1   1  160.07    6.44 
  -4   1   1  149.54    6.47 
   4   1  -1  167.54    6.44 
  -4   1   1  154.44    6.46 
  -4   1   1  162.40    6.46 
  -4   1   1  169.83    6.51 
  -4   1   1  159.88    6.51 
   4   1  -1  155.07    6.48 
   4   1  -1  144.26    6.52 
   4   1  -1  145.33    6.45 
   4  -1  -1  149.93    6.48 
  -4  -1   1  152.78    6.43 
   4  -1  -1  153.72    6.48 
  -4  -1   1  152.62    6.48 
   4  -1  -1  163.54    6.47 
   4  -1  -1  153.51    6.43 
   4  -1  -1  160.88    6.51 
  -4  -1   1  160.53    6.47 
  -4  -1   1  153.09    6.46 
   4  -1  -1  162.60    6.45 
  -4   1   0  414.37   16.21 
   4   1   0  387.63   16.25 
   4   1   0  404.26   16.12 
   4   1   0  375.99   16.16 
   4   1   0  405.14   16.20 
  -4   1   0  415.42   16.22 
  -4   1   0  407.19   16.21 
   4   1   0  367.99   16.26 
  -4   1   0  390.97   16.12 
   4   1   0  399.05   16.20 
  -4   1   0  368.85   16.22 
  -4   1   0  411.30   16.27 
   4  -1   0  426.25   16.28 
  -4  -1   0  432.15   16.28 
   4  -1   0  396.93   16.15 
  -4  -1   0  375.04   16.18 
  -4  -1   0  386.57   16.19 
   4  -1   0  418.71   16.24 
   4  -1   0  410.11   16.20 
  -4  -1   0  405.84   16.26 
   4  -1   0  403.98   16.20 
  -4  -1   0  397.27   16.19 
   4  -1   0  400.50   16.27 
   4   1   1   34.49    1.69 
  -4   1  -1   36.76    1.58 
   4   1   1   33.87    1.97 
  -4   1  -1   33.76    1.78 
  -4   1  -1   32.33    1.74 
   4   1   1   35.16    1.79 
   4   1   1   39.42    1.74 
  -4   1  -1   38.92    1.88 
   4   1   1   37.45    1.56 
  -4   1  -1   37.11    1.75 
  -4   1  -1   36.98    1.77 
   4   1   1   35.63    1.65 
   4  -1   1   40.85    1.78 
  -4  -1  -1   35.39    1.92 
   4  -1   1   35.87    1.86 
   4  -1   1   33.96    1.79 
  -4  -1  -1   38.28    1.80 
   4  -1   1   37.56    1.58 
  -4  -1  -1   37.57    1.71 
  -4  -1  -1   36.93    1.65 
   4  -1   1   37.77    1.75 
   4  -1   1   38.19    1.84 
  -4  -1  -1   39.49    1.70 
   4   1   2    4.57    0.76 
  -4   1  -2    6.55    0.71 
  -4   1  -2    6.31    0.66 
   4   1   2    5.88    0.56 
  -4   1  -2    6.70    0.40 
   4   1   2    7.07    0.61 
  -4   1  -2    5.45    0.72 
  -4   1  -2    6.11    0.64 
   4   1   2    7.16    0.35 
   4   1   2    7.35    0.61 
  -4   1  -2    6.94    0.71 
   4   1   2    6.59    0.74 
  -4  -1  -2    6.88    0.61 
   4  -1   2    6.96    0.72 
   4  -1   2    6.90    0.39 
  -4  -1  -2    6.20    0.54 
   4  -1   2    6.45    0.63 
  -4  -1  -2    7.70    0.60 
  -4  -1  -2    7.12    0.76 
   4  -1   2    7.38    0.71 
  -4  -1  -2    8.40    0.95 
   4  -1   2    6.26    0.71 
   4  -1   2    4.94    0.56 
   4   1   3    3.16    0.71 
   4   1   3    4.91    0.52 
  -4   1  -3    5.03    0.52 
  -4   1  -3    2.12    0.42 
  -4   1  -3    3.66    0.78 
  -4   1  -3    2.36    0.45 
  -4   1  -3    3.33    0.25 
  -4   1  -3    1.55    0.43 
   4   1   3    3.09    0.52 
   4   1   3    2.98    0.38 
   4   1   3    3.73    0.44 
   4  -1   3    1.72    0.42 
  -4  -1  -3    3.45    0.42 
  -4  -1  -3    2.38    0.35 
  -4  -1  -3    3.73    0.45 
   4  -1   3    2.96    0.28 
   4  -1   3    3.52    0.65 
   4  -1   3    2.31    0.46 
   4  -1   3    3.01    0.52 
  -4  -1  -3    3.18    0.51 
  -4  -1  -3    4.35    0.88 
  -4   1  -4  145.21    5.90 
   4   1   4  142.06    6.19 
  -4   1  -4  146.95    6.17 
   4   1   4  147.71    6.28 
  -4   1  -4  142.89    6.10 
  -4   1  -4  143.10    6.13 
   4   1   4  153.40    6.07 
  -4   1  -4  153.00    6.29 
  -4   1  -4  151.45    6.19 
   4   1   4  148.72    6.01 
   4  -1   4  149.01    6.04 
  -4  -1  -4  149.22    6.06 
   4  -1   4  145.34    6.09 
   4  -1   4  146.10    5.93 
  -4  -1  -4  144.87    6.06 
  -4  -1  -4  144.24    6.11 
   4  -1   4  146.19    6.16 
  -4  -1  -4  144.00    6.10 
  -4  -1  -4  149.05    6.38 
   4  -1   4  138.65    6.24 
   4  -1   4  144.00    6.17 
  -4   1  -5  223.41    8.95 
  -4   1  -5  222.33    9.00 
  -4   1  -5  228.42    9.05 
   4   1   5  202.92    9.03 
   4   1   5  217.12    9.06 
  -4   1  -5  207.69    8.93 
   4   1   5  221.18    8.88 
  -4   1  -5  225.68    9.05 
   4   1   5  224.50    8.82 
  -4   1  -5  214.44    8.71 
   4  -1   5  220.87    8.80 
  -4  -1  -5  216.89    8.91 
   4  -1   5  209.71    9.04 
   4  -1   5  220.84    8.94 
  -4  -1  -5  215.47    8.88 
  -4  -1  -5  215.94    9.20 
  -4  -1  -5  216.70    8.92 
  -4  -1  -5  217.05    8.93 
   4  -1   5  209.34    8.96 
   4  -1   5  206.45    8.98 
   4   1   6  252.98    9.90 
   4   1   6  245.79   10.15 
  -4   1  -6  243.13    9.89 
  -4   1  -6  246.49   10.11 
   4   1   6  253.57    9.98 
  -4   1  -6  251.93   10.03 
  -4   1  -6  243.45   10.06 
   4   1   6  224.76   10.17 
  -4   1  -6  234.17   10.18 
  -4   1  -6  251.01   10.08 
  -4   1  -6  245.93    9.82 
  -4  -1  -6  248.76   10.36 
   4  -1   6  244.75    9.99 
   4  -1   6  248.54   10.13 
   4  -1   6  236.31   10.11 
   4  -1   6  249.94    9.86 
  -4  -1  -6  254.79   10.02 
  -4  -1  -6  239.83    9.99 
  -4  -1  -6  235.47   10.06 
  -4  -1  -6  234.38   10.03 
  -4   1  -7   80.68    3.76 
   4   1   7   85.31    3.84 
   4   1   7   85.72    3.51 
  -4   1  -7   86.29    4.06 
   4   1   7   75.73    3.96 
  -4   1  -7   85.97    3.81 
  -4   1  -7   87.51    3.45 
   4   1   7   84.75    3.61 
  -4   1  -7   88.14    3.68 
  -4   1  -7   80.29    3.66 
   4  -1   7   83.19    3.73 
  -4  -1  -7   85.77    3.42 
   4  -1   7   82.51    3.83 
  -4  -1  -7   84.27    3.91 
  -4  -1  -7   85.67    3.66 
  -4  -1  -7   83.12    3.81 
  -4  -1  -7   84.58    3.67 
  -4  -1  -7   85.04    3.41 
  -4  -1  -7   85.51    3.74 
  -4  -1  -7   87.87    4.34 
   4  -1   7   86.59    3.60 
  -4   1  -8   71.61    3.19 
  -4   1  -8   71.36    2.82 
  -4   1  -8   63.46    3.40 
   4   1   8   62.99    2.78 
   4   1   8   61.53    3.72 
  -4   1  -8   65.66    3.07 
   4   1   8   72.36    2.97 
   4   1   8   69.85    3.24 
  -4   1  -8   69.06    2.98 
  -4  -1  -8   70.16    2.76 
  -4  -1  -8   66.51    3.14 
  -4  -1  -8   62.46    3.08 
   4  -1   8   62.91    3.10 
  -4  -1  -8   73.75    3.31 
  -4  -1  -8   63.00    2.81 
   4  -1   8   71.86    2.91 
   4  -1   8   71.52    3.24 
  -4  -1  -8   65.08    4.04 
  -4   1  -9   30.59    1.92 
   4   1   9   30.20    1.50 
  -4   1  -9   29.39    1.38 
  -4   1  -9   27.96    1.36 
   4   1   9   29.39    1.97 
  -4   1  -9   29.19    1.53 
  -4   1  -9   31.26    1.91 
   4   1   9   32.65    2.35 
   4  -1   9   31.44    1.40 
  -4  -1  -9   27.59    1.87 
   4  -1   9   28.03    1.95 
   4  -1   9   28.12    1.48 
  -4  -1  -9   28.58    1.71 
  -4  -1  -9   30.78    2.19 
  -4   1 -10   22.82    1.94 
   4   1  10   23.86    1.28 
   4   1  10   23.18    1.89 
  -4   1 -10   20.24    1.77 
   4   1  10   22.84    2.13 
  -4  -1 -10   22.01    1.88 
  -4  -1 -10   21.85    1.66 
  -4  -1 -10   25.25    2.64 
   4  -1  10   22.09    1.93 
   4   1  11   39.88    2.25 
  -4   1 -11   33.80    2.28 
  -4   1 -11   43.59    2.70 
   4   1  11   43.01    2.61 
   4   1  11   40.82    1.83 
  -4  -1 -11   37.48    2.41 
  -4  -1 -11   39.02    2.60 
   4   2 -11  128.87    5.28 
   4   2 -11  118.44    6.19 
   4   2 -11  113.59    5.44 
   4  -2 -11  124.42    5.10 
   4  -2 -11  120.99    5.06 
   4  -2 -11  116.65    5.64 
   4   2 -10   25.86    1.63 
   4   2 -10   19.37    2.17 
  -4   2  10   28.53    1.85 
  -4   2  10   23.30    1.32 
   4   2 -10   25.08    1.72 
   4  -2 -10   27.29    1.39 
   4  -2 -10   23.76    1.45 
   4  -2 -10   23.48    2.20 
   4  -2 -10   25.85    1.34 
   4   2  -9   64.12    2.90 
   4   2  -9   61.61    3.28 
  -4   2   9   66.46    2.95 
   4   2  -9   60.69    2.98 
  -4   2   9   62.61    2.76 
  -4   2   9   58.50    3.16 
   4  -2  -9   64.10    2.77 
   4  -2  -9   64.00    2.64 
   4  -2  -9   64.34    2.78 
   4  -2  -9   63.87    2.74 
   4  -2  -9   65.95    3.31 
   4   2  -8    0.36    0.23 
   4   2  -8    0.81    0.58 
  -4   2   8    1.29    0.70 
   4   2  -8    0.43    0.79 
  -4   2   8    0.17    0.55 
  -4   2   8    0.68    0.38 
   4   2  -8   -0.66    1.14 
   4   2  -8   -0.09    0.45 
   4   2  -8    0.88    1.21 
   4  -2  -8    1.06    0.90 
   4  -2  -8    0.18    0.37 
   4  -2  -8    0.16    0.41 
   4  -2  -8    0.36    0.37 
   4   2  -7   38.73    1.90 
   4   2  -7   38.46    1.71 
  -4   2   7   41.17    2.09 
  -4   2   7   40.01    1.92 
  -4   2   7   39.84    1.81 
   4   2  -7   35.46    2.27 
   4   2  -7   41.44    2.09 
   4   2  -7   39.85    1.88 
   4  -2  -7   39.25    1.89 
   4  -2  -7   38.78    2.29 
   4  -2  -7   40.15    2.14 
   4  -2  -7   37.46    1.80 
   4  -2  -7   38.69    1.79 
   4  -2  -7   39.08    1.77 
   4   2  -6    2.40    0.44 
  -4   2   6    2.41    0.57 
  -4   2   6    2.14    0.49 
   4   2  -6    2.10    0.33 
   4   2  -6    1.67    0.41 
  -4   2   6    2.78    1.27 
  -4   2   6    1.51    0.35 
   4   2  -6    2.10    0.41 
   4   2  -6    1.51    0.75 
  -4   2   6    1.99    0.29 
   4  -2  -6    1.36    0.31 
   4  -2  -6    1.78    0.71 
   4  -2  -6    2.39    0.64 
   4  -2  -6    1.75    0.32 
  -4  -2   6    2.04    0.25 
  -4  -2   6    2.04    0.31 
   4  -2  -6    2.11    0.44 
   4  -2  -6    2.18    0.38 
  -4   2   5  328.58   13.71 
  -4   2   5  348.66   13.58 
   4   2  -5  316.94   13.71 
  -4   2   5  326.55   13.62 
   4   2  -5  342.19   13.55 
   4   2  -5  325.37   13.59 
  -4   2   5  353.02   13.95 
   4   2  -5  349.55   13.58 
  -4   2   5  359.82   13.69 
   4   2  -5  353.76   13.77 
   4   2  -5  327.71   13.65 
   4  -2  -5  318.77   13.60 
   4  -2  -5  331.30   13.62 
  -4  -2   5  329.87   13.56 
   4  -2  -5  337.35   13.61 
   4  -2  -5  340.68   13.69 
  -4  -2   5  340.22   13.61 
   4  -2  -5  328.07   13.83 
  -4  -2   5  313.19   13.63 
   4  -2  -5  357.41   13.65 
  -4   2   4  179.63    7.41 
  -4   2   4  166.19    7.19 
  -4   2   4  178.98    7.16 
   4   2  -4  178.56    7.30 
   4   2  -4  173.10    7.13 
   4   2  -4  175.15    7.18 
  -4   2   4  180.67    7.24 
  -4   2   4  180.68    7.26 
   4   2  -4  167.19    7.28 
   4   2  -4  166.08    7.20 
   4   2  -4  180.87    7.13 
  -4  -2   4  177.49    7.14 
   4  -2  -4  172.99    7.20 
  -4  -2   4  180.33    7.22 
  -4  -2   4  180.70    7.14 
  -4  -2   4  164.74    7.20 
   4  -2  -4  174.06    7.17 
  -4  -2   4  177.44    7.16 
  -4  -2   4  175.98    7.08 
   4  -2  -4  170.34    7.23 
   4  -2  -4  173.61    7.37 
   4  -2  -4  181.93    7.20 
   4   2  -3  266.39   10.57 
   4   2  -3  258.86   10.60 
   4   2  -3  260.53   10.67 
   4   2  -3  270.38   10.67 
  -4   2   3  260.43   10.70 
   4   2  -3  264.27   10.53 
   4   2  -3  262.76   10.62 
  -4   2   3  255.79   10.64 
  -4   2   3  259.21   10.62 
  -4   2   3  269.89   10.69 
   4  -2  -3  253.87   10.64 
  -4  -2   3  266.88   10.64 
  -4  -2   3  260.32   10.60 
   4  -2  -3  256.50   10.59 
   4  -2  -3  258.73   10.72 
   4  -2  -3  271.03   10.64 
  -4  -2   3  270.26   10.63 
   4  -2  -3  239.39   10.68 
  -4  -2   3  243.88   10.59 
  -4  -2   3  259.11   10.64 
  -4  -2   3  260.29   10.53 
  -4  -2   3  269.81   10.52 
   4   2  -2    9.78    0.66 
  -4   2   2    8.84    0.61 
   4   2  -2    7.85    0.63 
   4   2  -2    8.43    0.75 
   4   2  -2    9.32    0.63 
  -4   2   2   10.02    0.71 
  -4   2   2    8.48    0.69 
   4   2  -2    8.29    0.71 
  -4   2   2    7.97    0.66 
  -4   2   2    8.95    0.71 
  -4  -2   2    8.28    0.66 
   4  -2  -2    8.85    0.68 
   4  -2  -2   10.48    0.71 
  -4  -2   2    9.21    0.67 
  -4  -2   2    9.55    0.52 
   4  -2  -2    9.85    0.51 
  -4  -2   2    8.72    0.64 
   4  -2  -2    9.28    0.64 
  -4  -2   2    7.83    0.67 
  -4  -2   2   10.71    0.72 
   4   2  -1   24.94    1.16 
  -4   2   1   23.99    1.23 
   4   2  -1   24.36    1.27 
  -4   2   1   24.50    1.29 
  -4   2   1   24.26    1.20 
  -4   2   1   24.65    1.22 
   4   2  -1   24.94    1.21 
  -4   2   1   24.42    1.29 
   4   2  -1   24.18    1.21 
   4   2  -1   26.11    1.22 
   4  -2  -1   25.57    1.25 
   4  -2  -1   24.91    1.21 
  -4  -2   1   24.55    1.16 
   4  -2  -1   24.13    1.26 
  -4  -2   1   24.00    1.20 
   4  -2  -1   25.54    1.30 
   4  -2  -1   24.57    1.22 
  -4  -2   1   23.95    1.27 
  -4  -2   1   22.55    1.17 
   4  -2  -1   25.30    1.15 
  -4  -2   1   25.09    1.26 
  -4  -2   1   25.00    1.21 
   4   2   0   24.02    1.34 
   4   2   0   23.37    1.28 
  -4   2   0   24.53    1.35 
  -4   2   0   24.18    1.23 
  -4   2   0   23.12    1.26 
   4   2   0   25.14    1.23 
  -4   2   0   26.47    1.20 
   4   2   0   26.16    1.25 
   4   2   0   24.84    1.15 
   4   2   0   23.87    1.22 
  -4   2   0   25.44    1.33 
   4  -2   0   24.29    1.21 
  -4  -2   0   26.60    1.31 
   4  -2   0   23.81    1.24 
  -4  -2   0   26.01    1.16 
  -4  -2   0   26.57    1.24 
   4  -2   0   25.64    1.25 
   4  -2   0   23.10    1.29 
  -4  -2   0   26.62    1.36 
   4  -2   0   26.38    1.42 
  -4  -2   0   26.66    1.25 
   4  -2   0   25.03    1.22 
  -4  -2   0   25.06    1.19 
  -4   2  -1  558.00   22.22 
   4   2   1  572.58   22.29 
   4   2   1  554.22   22.21 
   4   2   1  525.06   22.44 
  -4   2  -1  599.60   22.51 
  -4   2  -1  604.22   22.32 
  -4   2  -1  547.19   22.31 
  -4   2  -1  513.92   22.38 
  -4   2  -1  535.42   22.30 
   4   2   1  537.94   22.30 
   4   2   1  543.70   22.23 
   4   2   1  513.33   22.34 
  -4  -2  -1  543.29   22.34 
  -4  -2  -1  573.33   22.29 
  -4  -2  -1  546.86   22.29 
  -4  -2  -1  570.29   22.42 
   4  -2   1  562.43   22.42 
   4  -2   1  560.50   22.32 
   4  -2   1  553.39   22.30 
  -4  -2  -1  551.82   22.24 
  -4  -2  -1  550.43   22.20 
   4  -2   1  532.91   22.34 
   4  -2   1  547.91   22.23 
   4  -2   1  572.46   22.31 
   4   2   2  152.15    6.40 
  -4   2  -2  146.25    6.35 
   4   2   2  159.60    6.34 
  -4   2  -2  145.09    6.44 
   4   2   2  158.33    6.31 
  -4   2  -2  150.48    6.22 
  -4   2  -2  158.44    6.43 
   4   2   2  145.73    6.63 
   4   2   2  155.57    6.21 
  -4   2  -2  156.79    6.34 
  -4  -2  -2  156.05    6.20 
   4  -2   2  154.09    6.39 
   4  -2   2  153.56    6.39 
  -4  -2  -2  151.50    6.33 
  -4  -2  -2  150.29    6.28 
   4  -2   2  151.42    6.23 
  -4  -2  -2  150.34    6.37 
   4  -2   2  155.95    6.36 
  -4  -2  -2  158.70    6.32 
   4  -2   2  150.66    6.34 
  -4   2  -3  524.40   22.46 
  -4   2  -3  574.88   22.53 
  -4   2  -3  599.87   22.47 
  -4   2  -3  570.97   22.41 
  -4   2  -3  542.64   22.28 
  -4   2  -3  550.71   22.45 
   4   2   3  487.27   22.64 
   4   2   3  548.95   22.27 
   4   2   3  573.56   22.38 
   4   2   3  526.46   22.46 
   4   2   3  557.10   22.40 
   4  -2   3  581.09   22.46 
  -4  -2  -3  592.97   22.68 
  -4  -2  -3  561.91   22.37 
  -4  -2  -3  540.72   22.47 
   4  -2   3  543.88   22.45 
   4  -2   3  568.80   22.30 
  -4  -2  -3  545.20   22.26 
   4  -2   3  546.42   22.43 
   4  -2   3  555.13   22.45 
  -4  -2  -3  537.09   22.40 
  -4  -2  -3  570.05   22.39 
   4  -2   3  562.10   22.50 
  -4   2  -4   31.06    1.55 
   4   2   4   29.14    1.64 
  -4   2  -4   29.94    1.63 
   4   2   4   29.95    1.99 
   4   2   4   31.92    1.55 
   4   2   4   31.32    1.44 
  -4   2  -4   29.09    1.64 
   4   2   4   34.34    1.57 
  -4   2  -4   30.21    1.37 
  -4   2  -4   31.87    1.74 
  -4   2  -4   31.59    1.96 
   4  -2   4   32.48    1.61 
  -4  -2  -4   32.92    1.57 
  -4  -2  -4   32.56    1.53 
   4  -2   4   31.32    1.66 
   4  -2   4   29.76    1.65 
   4  -2   4   33.03    1.63 
   4  -2   4   31.27    1.43 
  -4  -2  -4   31.93    1.63 
   4  -2   4   32.55    1.42 
  -4  -2  -4   31.75    1.33 
  -4  -2  -4   31.63    2.21 
   4  -2   4   33.65    1.73 
  -4  -2  -4   30.90    1.52 
   4   2   5   68.73    3.20 
   4   2   5   71.37    2.99 
   4   2   5   73.58    2.98 
  -4   2  -5   70.24    3.25 
  -4   2  -5   63.59    3.13 
  -4   2  -5   75.99    3.44 
  -4   2  -5   70.02    3.04 
   4   2   5   68.82    3.36 
  -4   2  -5   69.08    2.90 
  -4   2  -5   66.97    3.13 
   4   2   5   69.88    3.05 
  -4  -2  -5   69.92    3.07 
  -4  -2  -5   72.45    3.09 
   4  -2   5   70.34    2.91 
  -4  -2  -5   69.60    2.85 
   4  -2   5   67.62    3.17 
  -4  -2  -5   70.16    3.04 
   4  -2   5   68.85    2.99 
   4  -2   5   67.05    3.07 
   4  -2   5   72.51    3.01 
   4  -2   5   60.45    3.49 
  -4  -2  -5   70.71    3.11 
   4  -2   5   71.32    3.13 
  -4  -2  -5   81.20    3.81 
  -4   2  -6   -0.51    0.48 
  -4   2  -6    0.67    0.86 
  -4   2  -6    0.13    0.77 
   4   2   6    0.61    0.67 
  -4   2  -6    0.63    0.49 
   4   2   6    0.67    0.53 
   4   2   6    0.61    0.36 
  -4   2  -6    0.13    0.40 
   4   2   6    0.47    0.39 
  -4   2  -6    0.63    0.27 
  -4  -2  -6   -0.63    0.61 
   4  -2   6    0.56    0.20 
   4  -2   6    0.58    0.28 
  -4  -2  -6    0.45    0.17 
   4  -2   6    0.87    0.56 
  -4  -2  -6    0.32    1.26 
   4  -2   6    0.21    0.56 
  -4  -2  -6    0.46    0.37 
  -4  -2  -6    0.08    0.49 
   4  -2   6    0.44    0.40 
  -4  -2  -6    0.31    0.45 
  -4  -2  -6    0.33    0.49 
   4   2   7   83.90    3.55 
  -4   2  -7   88.72    3.80 
  -4   2  -7   82.84    4.04 
   4   2   7   85.16    3.66 
   4   2   7   80.88    3.86 
   4   2   7   88.10    3.88 
  -4   2  -7   79.28    3.74 
  -4   2  -7   83.79    3.81 
  -4   2  -7   85.14    3.49 
  -4  -2  -7   85.41    3.74 
  -4  -2  -7   89.37    4.69 
  -4  -2  -7   82.65    3.72 
   4  -2   7   86.24    3.66 
  -4  -2  -7   85.18    3.66 
   4  -2   7   83.21    3.82 
  -4  -2  -7   83.60    3.45 
   4  -2   7   82.69    3.61 
  -4  -2  -7   81.79    3.71 
  -4  -2  -7   86.67    3.47 
  -4   2  -8   53.53    2.29 
  -4   2  -8   51.96    2.36 
  -4   2  -8   54.98    2.67 
   4   2   8   52.86    2.71 
  -4   2  -8   51.15    2.57 
  -4   2  -8   56.05    2.56 
   4   2   8   47.37    2.78 
  -4  -2  -8   53.21    2.24 
  -4  -2  -8   49.29    2.67 
  -4  -2  -8   51.42    2.60 
  -4  -2  -8   58.46    4.15 
   4  -2   8   53.46    2.35 
   4  -2   8   56.43    2.37 
  -4  -2  -8   56.81    2.51 
   4  -2   8   53.19    2.73 
  -4   2  -9  199.61    8.32 
   4   2   9  209.96    8.24 
  -4   2  -9  198.84    8.46 
   4   2   9  189.09    8.58 
  -4   2  -9  201.60    8.22 
   4   2   9  202.39    8.44 
  -4   2  -9  190.74    8.12 
  -4  -2  -9  193.69    8.48 
   4  -2   9  204.63    8.49 
   4  -2   9  199.38    8.11 
  -4  -2  -9  197.82    8.07 
  -4  -2  -9  197.16    8.39 
   4  -2   9  209.47    8.11 
  -4  -2  -9  205.08    8.31 
   4   2  10    9.47    1.24 
  -4   2 -10   10.13    0.92 
   4   2  10   11.05    1.63 
   4   2  10   11.35    1.07 
  -4   2 -10   10.10    1.01 
  -4   2 -10   11.02    1.29 
  -4  -2 -10   10.88    1.03 
  -4  -2 -10   11.42    1.21 
  -4   2 -11   82.46    4.08 
  -4   2 -11   76.20    3.49 
   4   2  11   79.31    4.52 
   4   2  11   80.74    3.60 
   4   2  11   79.07    3.87 
  -4  -2 -11   77.60    3.75 
  -4  -2 -11   78.02    3.96 
   4   3 -11   -2.13    2.13 
   4   3 -11    2.11    0.93 
  -4   3  11    2.28    0.71 
  -4   3  11    2.84    1.00 
   4   3 -11    1.63    0.93 
   4  -3 -11    1.51    0.62 
   4  -3 -11    2.89    1.29 
   4   3 -10    5.37    0.86 
  -4   3  10    4.83    0.71 
   4   3 -10    4.59    0.85 
   4   3 -10    3.35    1.85 
  -4   3  10    5.24    0.88 
   4  -3 -10    4.38    0.70 
   4  -3 -10    3.55    1.21 
   4  -3 -10    5.01    0.62 
   4   3  -9  142.97    7.31 
  -4   3   9  172.20    6.86 
  -4   3   9  159.46    6.78 
  -4   3   9  161.00    7.06 
   4   3  -9  160.04    6.82 
   4   3  -9  168.24    6.59 
   4   3  -9  162.92    6.81 
   4  -3  -9  164.14    6.79 
   4  -3  -9  160.77    6.76 
   4  -3  -9  173.66    7.09 
   4  -3  -9  165.81    6.75 
   4   3  -8   18.85    0.92 
  -4   3   8   18.24    1.18 
  -4   3   8   20.64    1.34 
   4   3  -8   19.55    1.34 
   4   3  -8   20.87    2.16 
   4   3  -8   19.80    1.25 
  -4   3   8   20.59    1.60 
   4   3  -8   17.59    1.20 
   4  -3  -8   19.30    1.25 
   4  -3  -8   17.42    1.19 
   4  -3  -8   17.79    1.72 
   4  -3  -8   17.67    1.11 
   4   3  -7  173.48    7.03 
  -4   3   7  161.79    7.29 
  -4   3   7  172.67    7.82 
   4   3  -7  171.98    7.20 
   4   3  -7  176.17    7.09 
   4   3  -7  170.34    7.35 
   4   3  -7  167.42    7.09 
  -4   3   7  179.68    7.21 
   4   3  -7  175.95    7.32 
  -4   3   7  172.49    7.15 
   4  -3  -7  172.45    7.15 
   4  -3  -7  179.13    7.39 
   4  -3  -7  173.37    7.11 
   4  -3  -7  173.43    7.16 
   4  -3  -7  171.72    7.12 
  -4   3   6   25.40    1.24 
   4   3  -6   24.09    1.75 
  -4   3   6   23.07    2.21 
   4   3  -6   25.40    1.18 
  -4   3   6   26.47    1.41 
   4   3  -6   27.01    1.25 
   4   3  -6   23.03    1.38 
  -4   3   6   24.62    1.33 
   4   3  -6   24.85    1.19 
  -4   3   6   23.11    1.51 
   4   3  -6   25.18    1.68 
   4  -3  -6   23.59    1.65 
   4  -3  -6   25.46    1.38 
  -4  -3   6   25.76    1.34 
   4  -3  -6   22.97    1.28 
  -4  -3   6   24.98    1.16 
   4  -3  -6   23.94    1.27 
   4  -3  -6   25.36    1.33 
   4  -3  -6   24.42    1.57 
  -4   3   5   44.55    1.91 
  -4   3   5   40.12    1.97 
   4   3  -5   41.91    2.19 
  -4   3   5   41.86    2.01 
   4   3  -5   41.12    2.00 
  -4   3   5   40.84    2.38 
   4   3  -5   41.83    2.06 
  -4   3   5   40.99    2.08 
   4   3  -5   44.70    1.85 
   4   3  -5   41.99    1.88 
   4  -3  -5   42.80    1.95 
  -4  -3   5   44.19    1.88 
   4  -3  -5   42.52    1.98 
  -4  -3   5   41.51    2.09 
   4  -3  -5   47.00    2.13 
   4  -3  -5   43.76    2.00 
   4  -3  -5   44.25    2.22 
  -4  -3   5   41.59    1.92 
   4  -3  -5   40.46    1.93 
  -4   3   4   -0.16    0.36 
  -4   3   4    0.31    0.31 
  -4   3   4    0.57    0.60 
   4   3  -4   -0.05    0.28 
   4   3  -4    0.08    0.28 
   4   3  -4    0.14    0.54 
   4   3  -4   -0.15    0.21 
  -4   3   4    0.50    0.39 
   4   3  -4   -0.26    0.36 
   4   3  -4    0.13    0.39 
  -4   3   4    0.43    0.38 
   4  -3  -4   -0.25    0.27 
  -4  -3   4   -0.48    0.40 
  -4  -3   4    0.12    0.42 
   4  -3  -4    0.29    0.36 
  -4  -3   4   -0.15    0.37 
   4  -3  -4    0.05    0.43 
  -4  -3   4   -0.13    0.42 
  -4  -3   4    0.08    0.29 
   4  -3  -4   -0.05    0.28 
  -4  -3   4    0.33    0.23 
   4  -3  -4    0.09    0.34 
   4  -3  -4    0.51    0.54 
  -4   3   3  223.28    8.87 
   4   3  -3  207.33    8.84 
  -4   3   3  221.06    8.90 
   4   3  -3  213.21    8.85 
   4   3  -3  217.18    8.71 
  -4   3   3  212.12    8.84 
   4   3  -3  218.42    8.79 
   4   3  -3  227.09    8.88 
  -4   3   3  220.32    8.81 
   4   3  -3  213.95    8.79 
  -4   3   3  213.84    8.87 
  -4  -3   3  221.98    8.75 
   4  -3  -3  220.92    8.84 
  -4  -3   3  219.44    8.81 
   4  -3  -3  201.93    8.88 
  -4  -3   3  212.91    8.80 
  -4  -3   3  212.51    8.86 
  -4  -3   3  221.16    8.82 
   4  -3  -3  229.53    8.88 
   4  -3  -3  209.36    8.81 
  -4  -3   3  202.33    8.83 
   4  -3  -3  213.38    8.81 
   4  -3  -3  207.24    8.84 
   4   3  -2   42.53    1.90 
   4   3  -2   38.92    1.80 
  -4   3   2   42.71    1.92 
  -4   3   2   37.61    1.86 
   4   3  -2   40.60    1.83 
  -4   3   2   42.21    1.75 
  -4   3   2   39.59    1.89 
  -4   3   2   40.74    1.83 
   4   3  -2   41.03    1.90 
  -4   3   2   38.50    1.89 
   4   3  -2   38.06    1.87 
  -4  -3   2   40.46    1.77 
  -4  -3   2   40.07    1.90 
  -4  -3   2   39.15    1.81 
  -4  -3   2   41.40    1.82 
  -4  -3   2   38.99    1.84 
   4  -3  -2   40.45    1.83 
   4  -3  -2   41.68    1.93 
   4  -3  -2   40.14    1.83 
   4  -3  -2   40.01    1.91 
   4  -3  -2   38.87    1.86 
   4  -3  -2   38.61    1.85 
  -4   3   1  508.83   19.23 
  -4   3   1  471.77   19.19 
  -4   3   1  486.25   19.17 
   4   3  -1  482.92   19.17 
  -4   3   1  494.15   19.11 
   4   3  -1  471.28   19.15 
  -4   3   1  447.14   19.19 
   4   3  -1  458.90   19.20 
   4   3  -1  476.57   19.15 
  -4   3   1  485.16   19.15 
   4   3  -1  462.87   19.20 
  -4  -3   1  460.54   19.13 
   4  -3  -1  469.58   19.21 
   4  -3  -1  484.73   19.17 
  -4  -3   1  496.88   19.16 
  -4  -3   1  481.80   19.19 
   4  -3  -1  494.16   19.18 
  -4  -3   1  472.16   19.19 
   4  -3  -1  466.34   19.20 
   4  -3  -1  466.34   19.18 
  -4  -3   1  450.80   19.15 
   4  -3  -1  478.22   19.15 
   4  -3  -1  472.69   19.08 
  -4  -3   1  439.48   19.05 
  -4   3   0   18.27    1.14 
  -4   3   0   17.96    1.01 
   4   3   0   20.25    1.16 
   4   3   0   19.47    1.07 
   4   3   0   17.53    1.00 
  -4   3   0   20.12    1.13 
   4   3   0   18.53    1.04 
  -4   3   0   18.39    1.03 
  -4   3   0   19.80    1.02 
   4   3   0   18.88    1.10 
  -4   3   0   19.05    1.07 
  -4  -3   0   19.77    0.92 
  -4  -3   0   18.87    1.15 
  -4  -3   0   18.75    1.03 
   4  -3   0   18.42    1.03 
  -4  -3   0   19.81    1.02 
   4  -3   0   18.55    1.27 
   4  -3   0   17.93    1.04 
   4  -3   0   18.44    1.09 
  -4  -3   0   19.96    1.11 
  -4  -3   0   17.61    0.96 
   4  -3   0   19.42    0.98 
   4  -3   0   18.36    1.04 
   4   3   1  368.13   15.44 
  -4   3  -1  397.29   15.45 
   4   3   1  390.62   15.41 
  -4   3  -1  376.29   15.39 
   4   3   1  387.15   15.33 
   4   3   1  369.46   15.51 
  -4   3  -1  376.74   15.32 
  -4   3  -1  376.17   15.40 
  -4   3  -1  399.95   15.39 
   4   3   1  393.61   15.38 
  -4   3  -1  354.03   15.48 
  -4  -3  -1  372.08   15.31 
   4  -3   1  367.38   15.39 
   4  -3   1  376.45   15.53 
  -4  -3  -1  399.68   15.44 
   4  -3   1  400.88   15.40 
   4  -3   1  376.72   15.42 
  -4  -3  -1  377.37   15.37 
   4  -3   1  361.12   15.34 
  -4  -3  -1  379.54   15.31 
   4  -3   1  388.61   15.36 
  -4  -3  -1  388.18   15.47 
  -4  -3  -1  368.69   15.38 
   4  -3   1  368.89   15.37 
   4   3   2   22.10    1.29 
   4   3   2   22.53    1.65 
   4   3   2   22.20    1.19 
   4   3   2   22.45    1.09 
  -4   3  -2   23.53    1.27 
  -4   3  -2   22.75    1.21 
  -4   3  -2   19.88    1.17 
  -4   3  -2   21.24    1.09 
   4   3   2   22.86    1.23 
  -4   3  -2   20.99    1.42 
  -4   3  -2   22.74    1.32 
   4  -3   2   21.65    1.19 
   4  -3   2   21.30    1.12 
  -4  -3  -2   21.94    1.04 
  -4  -3  -2   23.35    1.11 
   4  -3   2   22.10    1.22 
  -4  -3  -2   24.79    1.49 
  -4  -3  -2   23.21    1.18 
  -4  -3  -2   22.28    1.28 
   4  -3   2   21.54    1.21 
   4  -3   2   21.98    1.25 
  -4  -3  -2   20.99    1.19 
   4  -3   2   20.42    1.41 
   4  -3   2   20.95    1.11 
   4   3   3  107.63    4.43 
   4   3   3   99.58    4.59 
  -4   3  -3  109.00    4.59 
  -4   3  -3  106.84    4.70 
  -4   3  -3  104.21    4.52 
  -4   3  -3  113.02    4.64 
   4   3   3  111.17    4.55 
  -4   3  -3  108.69    4.43 
   4   3   3  105.73    4.50 
  -4   3  -3  105.65    4.52 
   4   3   3  104.09    4.97 
   4  -3   3  111.79    4.63 
   4  -3   3  106.35    4.45 
   4  -3   3  104.38    4.54 
  -4  -3  -3  110.53    4.79 
  -4  -3  -3  107.79    4.53 
  -4  -3  -3  104.95    4.39 
   4  -3   3  105.82    4.59 
  -4  -3  -3  107.50    4.47 
  -4  -3  -3  105.49    4.58 
   4  -3   3  107.28    4.55 
   4  -3   3  103.13    4.56 
   4  -3   3  109.77    4.45 
  -4  -3  -3  109.44    4.53 
  -4  -3  -3  109.47    4.51 
   4   3   4   32.48    1.74 
  -4   3  -4   32.44    1.87 
   4   3   4   34.96    1.68 
   4   3   4   34.53    1.58 
  -4   3  -4   35.76    1.64 
   4   3   4   31.24    2.25 
  -4   3  -4   30.08    1.81 
  -4   3  -4   30.78    1.64 
  -4   3  -4   33.44    1.84 
   4   3   4   35.25    1.62 
  -4   3  -4   34.23    1.52 
  -4  -3  -4   32.83    1.45 
   4  -3   4   32.85    1.69 
   4  -3   4   33.51    1.74 
   4  -3   4   33.03    1.57 
  -4  -3  -4   32.94    1.60 
   4  -3   4   35.43    1.77 
   4  -3   4   31.97    1.63 
  -4  -3  -4   33.63    1.74 
  -4  -3  -4   33.91    1.62 
   4  -3   4   32.88    1.51 
  -4  -3  -4   32.20    2.21 
  -4  -3  -4   33.96    1.75 
  -4  -3  -4   32.76    1.66 
   4  -3   4   34.56    1.90 
  -4   3  -5  194.25    8.15 
  -4   3  -5  210.94    8.32 
  -4   3  -5  207.19    8.38 
  -4   3  -5  195.50    8.26 
   4   3   5  204.23    8.17 
   4   3   5  190.99    8.46 
   4   3   5  202.23    8.11 
   4   3   5  193.39    8.25 
   4   3   5  195.09    8.11 
  -4   3  -5  199.98    8.11 
  -4  -3  -5  200.87    8.15 
  -4  -3  -5  197.61    8.00 
  -4  -3  -5  196.86    8.17 
   4  -3   5  181.58    8.32 
   4  -3   5  200.51    8.19 
   4  -3   5  194.46    8.13 
   4  -3   5  190.31    8.18 
   4  -3   5  200.65    8.10 
  -4  -3  -5  185.10    8.50 
   4  -3   5  186.94    8.23 
  -4  -3  -5  196.25    8.14 
  -4  -3  -5  206.64    8.23 
   4  -3   5  204.76    8.03 
  -4  -3  -5  207.32    8.22 
   4   3   6    4.43    0.58 
  -4   3  -6    5.69    0.58 
  -4   3  -6    5.82    0.78 
   4   3   6    4.92    0.56 
   4   3   6    5.45    0.74 
   4   3   6    5.47    0.93 
  -4   3  -6    4.61    0.58 
  -4   3  -6    5.34    0.50 
  -4   3  -6    6.12    1.19 
   4   3   6    4.46    0.75 
  -4   3  -6    5.49    0.99 
   4  -3   6    5.74    0.86 
  -4  -3  -6    7.67    1.46 
  -4  -3  -6    5.46    0.75 
  -4  -3  -6    6.06    0.67 
   4  -3   6    5.33    0.54 
  -4  -3  -6    5.47    0.48 
   4  -3   6    5.48    0.46 
   4  -3   6    5.91    0.69 
   4  -3   6    5.75    0.51 
  -4  -3  -6    4.52    0.78 
  -4  -3  -6    4.64    0.54 
   4  -3   6    6.02    0.79 
  -4  -3  -6    5.64    0.64 
   4  -3   6    4.66    0.72 
   4   3   7  283.44   11.91 
  -4   3  -7  290.33   11.89 
  -4   3  -7  295.64   11.63 
  -4   3  -7  257.33   11.81 
  -4   3  -7  292.91   11.67 
   4   3   7  288.93   11.93 
   4  -3   7  286.71   11.68 
   4  -3   7  287.31   11.90 
  -4  -3  -7  307.94   12.32 
  -4  -3  -7  292.26   11.76 
   4  -3   7  270.18   11.77 
   4  -3   7  278.76   11.81 
  -4  -3  -7  298.36   11.59 
  -4  -3  -7  287.00   11.81 
  -4  -3  -7  296.25   11.80 
  -4   3  -8    5.27    0.93 
   4   3   8    0.14    0.56 
  -4   3  -8    0.73    0.49 
  -4   3  -8    0.96    0.49 
   4   3   8    1.56    0.79 
  -4   3  -8   -0.14    0.49 
   4   3   8    0.21    0.78 
   4  -3   8    0.65    0.57 
  -4  -3  -8    0.65    0.65 
   4  -3   8    1.14    0.37 
  -4  -3  -8    1.77    0.62 
  -4  -3  -8    0.81    0.31 
  -4  -3  -8    0.61    0.80 
  -4  -3  -8    0.27    0.53 
  -4  -3  -8    2.67    1.79 
   4   3   9    1.91    0.64 
   4   3   9    2.38    0.91 
  -4   3  -9    3.01    0.57 
   4   3   9    0.96    0.98 
  -4   3  -9    1.58    0.59 
  -4   3  -9    0.84    0.92 
   4  -3   9    1.45    0.33 
  -4  -3  -9    2.11    0.64 
  -4  -3  -9    1.56    1.09 
   4  -3   9    2.47    0.43 
  -4  -3  -9    1.63    0.37 
  -4  -3  -9    2.58    0.86 
   4   3  10    2.91    0.92 
   4   3  10    1.67    1.21 
  -4   3 -10    1.63    0.60 
  -4   3 -10    0.21    1.12 
  -4  -3 -10    1.55    0.75 
  -4  -3 -10    1.74    0.97 
  -4   3 -11   33.46    1.80 
   4   3  11   37.96    2.49 
   4   3  11   40.75    3.49 
  -4   3 -11   34.63    2.84 
  -4  -3 -11   32.73    2.22 
  -4  -3 -11   35.81    2.56 
   4   4 -11   72.10    3.49 
   4   4 -11   61.27    5.07 
  -4   4  11   61.40    3.27 
   4  -4 -11   73.49    3.27 
   4  -4 -11   72.35    3.78 
   4   4 -10  107.61    4.71 
  -4   4  10   97.29    4.59 
   4   4 -10  102.38    4.61 
   4   4 -10  106.87    4.27 
  -4   4  10  108.54    4.73 
   4  -4 -10  103.33    4.51 
   4  -4 -10  104.63    4.88 
   4   4  -9   16.41    0.86 
  -4   4   9   17.43    1.84 
   4   4  -9   15.68    1.49 
  -4   4   9   16.68    1.54 
   4   4  -9   15.06    1.31 
  -4   4   9   13.00    1.29 
   4  -4  -9   12.19    1.34 
   4  -4  -9   14.19    1.37 
   4  -4  -9   16.44    1.20 
   4   4  -8   -0.12    0.54 
   4   4  -8    0.73    0.58 
  -4   4   8    0.90    0.81 
  -4   4   8    0.17    0.56 
   4   4  -8    1.23    0.67 
   4   4  -8    0.26    0.34 
  -4   4   8    0.26    0.69 
   4  -4  -8    0.32    0.54 
   4  -4  -8    0.32    0.89 
   4  -4  -8    0.62    0.48 
   4  -4  -8    0.30    0.65 
   4   4  -7    9.65    0.79 
  -4   4   7    7.90    0.90 
  -4   4   7    6.31    1.01 
   4   4  -7    8.41    0.84 
   4   4  -7    9.57    1.08 
   4   4  -7   10.36    1.08 
   4   4  -7   10.25    0.70 
  -4   4   7   11.25    1.08 
   4  -4  -7    9.89    1.09 
   4  -4  -7    9.32    1.00 
  -4  -4   7    9.65    0.66 
  -4  -4   7    8.19    0.91 
   4  -4  -7    7.99    1.12 
   4  -4  -7    7.63    0.70 
   4   4  -6   26.58    1.56 
  -4   4   6   28.91    2.34 
   4   4  -6   25.92    1.33 
   4   4  -6   28.12    1.30 
   4   4  -6   27.87    1.64 
   4   4  -6   27.44    1.39 
   4   4  -6   27.93    1.42 
  -4   4   6   29.63    1.44 
   4   4  -6   28.26    1.98 
  -4   4   6   26.44    1.54 
  -4   4   6   28.44    1.59 
  -4   4   6   27.33    1.69 
   4  -4  -6   28.48    1.48 
   4  -4  -6   28.49    1.50 
  -4  -4   6   27.05    1.39 
  -4  -4   6   28.15    1.73 
  -4  -4   6   28.85    1.35 
   4  -4  -6   27.63    1.46 
   4  -4  -6   26.46    1.80 
   4  -4  -6   26.98    1.75 
   4  -4  -6   28.99    1.58 
  -4   4   5  173.01    7.18 
   4   4  -5  179.36    7.03 
  -4   4   5  161.14    7.27 
  -4   4   5  181.14    7.16 
   4   4  -5  173.08    6.91 
   4   4  -5  171.50    7.02 
   4   4  -5  166.69    7.13 
   4   4  -5  171.59    7.10 
   4   4  -5  170.00    6.90 
   4   4  -5  165.64    7.19 
  -4   4   5  168.23    7.12 
  -4   4   5  177.37    7.07 
  -4  -4   5  163.70    7.02 
   4  -4  -5  170.11    7.21 
  -4  -4   5  179.95    7.03 
  -4  -4   5  173.25    7.02 
  -4  -4   5  171.43    6.93 
   4  -4  -5  172.56    7.09 
  -4  -4   5  162.83    7.15 
   4  -4  -5  164.74    7.06 
   4  -4  -5  168.72    7.17 
   4  -4  -5  175.97    7.12 
   4  -4  -5  169.73    7.11 
   4   4  -4  205.89    8.70 
   4   4  -4  202.40    8.72 
   4   4  -4  210.05    8.75 
   4   4  -4  213.87    8.63 
  -4   4   4  202.30    8.71 
   4   4  -4  209.91    8.64 
  -4   4   4  216.73    8.67 
  -4   4   4  212.94    8.80 
  -4   4   4  217.39    8.75 
  -4   4   4  208.01    8.74 
  -4  -4   4  218.09    8.65 
   4  -4  -4  215.74    8.75 
   4  -4  -4  209.64    8.68 
  -4  -4   4  215.79    8.64 
  -4  -4   4  203.16    8.72 
   4  -4  -4  198.42    8.75 
   4  -4  -4  214.70    8.67 
  -4  -4   4  217.05    8.59 
   4  -4  -4  217.69    8.72 
  -4  -4   4  206.28    8.64 
   4  -4  -4  220.74    8.71 
  -4   4   3   99.59    4.35 
  -4   4   3  100.22    4.40 
   4   4  -3  101.46    4.27 
   4   4  -3   95.70    4.34 
  -4   4   3  103.73    4.14 
  -4   4   3  102.45    4.37 
  -4   4   3   92.02    4.34 
   4   4  -3  106.65    4.39 
  -4   4   3  107.27    4.32 
   4   4  -3   98.53    4.33 
   4  -4  -3  108.29    4.35 
   4  -4  -3  102.16    4.30 
  -4  -4   3  103.89    4.30 
   4  -4  -3   97.14    4.36 
  -4  -4   3   98.68    4.27 
   4  -4  -3  101.02    4.32 
  -4  -4   3  105.88    4.28 
   4  -4  -3  109.92    4.40 
  -4  -4   3   97.63    4.32 
   4  -4  -3  102.06    4.39 
  -4  -4   3  100.97    4.23 
  -4   4   2   19.86    1.20 
  -4   4   2   20.59    1.17 
  -4   4   2   21.57    1.01 
  -4   4   2   17.85    1.26 
   4   4  -2   20.98    1.17 
   4   4  -2   21.84    1.26 
   4   4  -2   20.60    1.11 
   4   4  -2   19.75    1.21 
  -4   4   2   18.89    1.18 
  -4   4   2   22.09    1.27 
   4   4  -2   19.62    1.19 
   4  -4  -2   19.13    1.28 
  -4  -4   2   19.32    1.09 
  -4  -4   2   19.94    1.27 
  -4  -4   2   20.39    1.15 
   4  -4  -2   20.10    1.14 
   4  -4  -2   20.06    1.13 
   4  -4  -2   21.67    1.25 
  -4  -4   2   21.21    1.10 
  -4  -4   2   19.63    1.24 
  -4  -4   2   20.33    1.11 
   4  -4  -2   18.61    1.16 
  -4   4   1    1.10    0.39 
  -4   4   1    1.43    0.34 
  -4   4   1    1.28    0.46 
   4   4  -1    1.78    0.45 
   4   4  -1    1.59    0.46 
  -4   4   1    0.73    0.44 
   4   4  -1    1.67    0.43 
   4   4  -1    1.50    0.47 
  -4   4   1    1.21    0.45 
  -4   4   1    0.48    0.34 
   4   4  -1    1.05    0.35 
  -4  -4   1    0.86    0.36 
   4  -4  -1    0.77    0.32 
   4  -4  -1    1.18    0.58 
   4  -4  -1    1.28    0.42 
  -4  -4   1    1.10    0.32 
  -4  -4   1    1.65    0.42 
  -4  -4   1    1.22    0.35 
   4  -4  -1    1.21    0.43 
   4  -4  -1    1.73    0.42 
   4  -4  -1    0.66    0.33 
  -4  -4   1    0.75    0.45 
  -4  -4   1    1.55    0.38 
   4   4   0    4.84    0.50 
  -4   4   0    4.06    0.54 
  -4   4   0    3.32    0.46 
   4   4   0    3.41    0.57 
  -4   4   0    4.03    0.59 
   4   4   0    4.53    0.55 
  -4   4   0    4.91    0.54 
  -4   4   0    5.55    0.54 
  -4   4   0    4.52    0.47 
   4   4   0    3.04    0.51 
  -4  -4   0    3.68    0.42 
  -4  -4   0    3.45    0.44 
   4  -4   0    4.44    0.53 
  -4  -4   0    3.99    0.55 
   4  -4   0    4.44    0.53 
  -4  -4   0    2.89    0.42 
   4  -4   0    3.73    0.45 
  -4  -4   0    4.35    0.49 
  -4  -4   0    4.10    0.39 
  -4  -4   0    4.66    0.40 
  -4  -4   0    5.29    0.63 
   4  -4   0    3.67    0.46 
   4  -4   0    5.21    0.77 
   4   4   1   85.41    3.96 
  -4   4  -1   95.02    3.91 
  -4   4  -1   93.51    3.93 
  -4   4  -1   91.84    3.89 
  -4   4  -1   91.03    4.00 
   4   4   1   96.81    3.95 
   4   4   1   92.23    3.86 
  -4   4  -1   91.69    3.85 
  -4   4  -1   91.30    3.96 
   4   4   1   86.48    4.03 
   4   4   1   91.67    3.89 
   4  -4   1   88.85    3.91 
   4  -4   1   97.74    4.15 
   4  -4   1   91.17    3.91 
  -4  -4  -1   87.53    3.87 
  -4  -4  -1   95.84    3.97 
  -4  -4  -1   90.25    3.98 
  -4  -4  -1   92.99    3.79 
   4  -4   1   91.18    3.85 
  -4  -4  -1   94.03    3.89 
  -4  -4  -1   85.25    3.88 
  -4  -4  -1   93.85    3.77 
  -4  -4  -1   90.34    3.82 
   4  -4   1   86.80    3.92 
   4  -4   1   87.34    3.86 
   4   4   2  374.05   14.82 
  -4   4  -2  365.67   14.79 
   4   4   2  360.49   14.86 
  -4   4  -2  360.15   14.80 
   4   4   2  372.51   14.74 
  -4   4  -2  345.13   14.89 
  -4   4  -2  366.35   14.72 
  -4   4  -2  381.68   14.81 
   4   4   2  364.25   14.78 
   4   4   2  342.25   14.97 
  -4   4  -2  382.40   14.87 
  -4  -4  -2  350.40   14.69 
  -4  -4  -2  372.04   14.78 
  -4  -4  -2  355.93   14.78 
  -4  -4  -2  381.47   14.86 
  -4  -4  -2  348.13   14.69 
  -4  -4  -2  368.66   14.86 
   4  -4   2  384.63   14.81 
   4  -4   2  357.98   14.75 
   4  -4   2  337.98   14.89 
   4  -4   2  360.03   14.80 
   4  -4   2  361.42   14.74 
   4  -4   2  362.40   14.81 
  -4  -4  -2  368.89   14.80 
  -4  -4  -2  375.95   14.73 
   4   4   3  255.57   10.00 
  -4   4  -3  239.42   10.11 
   4   4   3  248.95    9.94 
  -4   4  -3  247.34   10.00 
   4   4   3  237.99   10.03 
  -4   4  -3  241.69    9.87 
  -4   4  -3  251.13   10.03 
  -4   4  -3  240.73    9.95 
  -4   4  -3  245.15    9.97 
   4   4   3  226.77   10.32 
   4   4   3  240.74    9.89 
  -4  -4  -3  240.78    9.94 
   4  -4   3  238.02    9.96 
  -4  -4  -3  233.92    9.84 
  -4  -4  -3  240.50    9.88 
  -4  -4  -3  250.84   10.03 
  -4  -4  -3  243.50   10.06 
   4  -4   3  241.37    9.98 
   4  -4   3  236.70    9.91 
  -4  -4  -3  239.10    9.96 
  -4  -4  -3  242.81    9.95 
  -4  -4  -3  248.42    9.93 
   4  -4   3  247.07    9.88 
   4  -4   3  247.34   10.03 
   4   4   4   39.25    2.06 
  -4   4  -4   39.88    2.15 
  -4   4  -4   38.51    1.91 
   4   4   4   41.47    2.01 
  -4   4  -4   40.25    1.91 
   4   4   4   38.64    2.63 
   4   4   4   42.12    1.96 
  -4   4  -4   40.75    1.85 
  -4   4  -4   41.18    2.17 
  -4   4  -4   39.91    2.24 
   4   4   4   46.75    1.92 
  -4  -4  -4   41.33    2.06 
  -4  -4  -4   38.75    1.94 
   4  -4   4   38.95    1.91 
   4  -4   4   38.26    1.79 
   4  -4   4   40.22    2.05 
   4  -4   4   40.19    1.95 
  -4  -4  -4   39.33    1.96 
  -4  -4  -4   40.72    2.01 
  -4  -4  -4   39.50    2.26 
   4  -4   4   40.09    2.10 
   4  -4   4   38.15    1.91 
  -4  -4  -4   38.38    1.92 
  -4  -4  -4   39.66    1.89 
  -4  -4  -4   39.63    1.77 
   4   4   5   29.30    1.63 
  -4   4  -5   29.04    1.97 
   4   4   5   29.81    1.77 
  -4   4  -5   30.23    2.00 
   4   4   5   33.03    1.67 
  -4   4  -5   29.65    1.56 
   4   4   5   26.36    2.29 
  -4   4  -5   32.20    1.58 
  -4   4  -5   27.77    2.02 
  -4   4  -5   31.73    1.53 
   4  -4   5   29.07    1.71 
   4  -4   5   31.96    1.63 
  -4  -4  -5   29.64    1.63 
  -4  -4  -5   31.15    1.60 
   4  -4   5   31.80    1.43 
  -4  -4  -5   30.72    1.60 
  -4  -4  -5   31.09    2.24 
  -4  -4  -5   30.82    1.41 
   4  -4   5   29.48    1.56 
  -4  -4  -5   31.43    1.66 
   4  -4   5   33.50    1.99 
  -4  -4  -5   32.00    1.79 
  -4  -4  -5   29.50    1.78 
   4   4   6    3.83    0.66 
  -4   4  -6    3.57    0.56 
   4   4   6    3.29    0.54 
  -4   4  -6    4.74    0.56 
  -4   4  -6    3.71    0.54 
  -4   4  -6    3.26    0.86 
   4   4   6    3.30    0.71 
   4   4   6    3.94    1.06 
   4   4   6    3.64    0.83 
  -4  -4  -6    4.50    0.63 
  -4  -4  -6    3.71    0.77 
  -4  -4  -6    4.64    0.64 
   4  -4   6    3.05    0.49 
  -4  -4  -6    3.43    1.22 
  -4  -4  -6    4.46    0.82 
   4  -4   6    3.98    0.70 
  -4  -4  -6    4.03    0.41 
   4  -4   6    3.55    0.71 
  -4  -4  -6    4.56    0.67 
   4  -4   6    3.71    0.68 
   4  -4   6    4.33    0.39 
   4  -4   6    3.56    0.78 
  -4  -4  -6    3.25    0.62 
   4   4   7   23.20    1.94 
   4   4   7   25.57    1.51 
  -4   4  -7   23.84    1.39 
   4   4   7   23.32    1.74 
  -4   4  -7   21.29    1.35 
  -4   4  -7   24.58    1.97 
   4   4   7   23.48    2.00 
  -4   4  -7   25.04    1.42 
  -4  -4  -7   25.37    1.68 
  -4  -4  -7   25.27    1.47 
  -4  -4  -7   22.85    2.02 
   4  -4   7   23.00    1.28 
   4  -4   7   24.25    1.75 
  -4  -4  -7   23.94    1.20 
   4  -4   7   24.95    1.87 
  -4  -4  -7   25.63    1.56 
  -4  -4  -7   22.37    1.64 
  -4   4  -8  105.60    4.46 
   4   4   8  111.35    4.79 
   4   4   8  111.14    4.87 
  -4   4  -8  103.97    4.47 
  -4   4  -8   96.90    4.79 
  -4   4  -8  105.58    4.82 
   4   4   8  104.55    4.77 
   4   4   8  108.83    4.58 
   4  -4   8  103.68    4.37 
  -4  -4  -8  100.63    5.41 
  -4  -4  -8  105.52    4.34 
   4  -4   8  103.22    4.75 
  -4  -4  -8  106.38    4.56 
  -4  -4  -8  105.96    4.74 
  -4  -4  -8  103.83    4.58 
  -4  -4  -8  100.24    4.61 
   4  -4   8  102.96    4.62 
  -4   4  -9   71.89    3.20 
  -4   4  -9   72.59    3.72 
   4   4   9   72.57    3.58 
   4   4   9   70.62    3.68 
  -4  -4  -9   70.17    3.49 
   4  -4   9   75.75    3.16 
  -4  -4  -9   73.38    3.37 
  -4  -4  -9   73.67    3.08 
   4  -4   9   70.22    3.04 
  -4   4 -10   52.37    3.13 
  -4   4 -10   48.01    2.32 
   4   4  10   45.00    3.14 
  -4  -4 -10   48.48    2.82 
  -4  -4 -10   49.68    2.62 
   4   5 -10   28.43    1.39 
   4   5 -10   23.75    2.10 
  -4   5  10   27.08    2.07 
   4  -5 -10   29.83    2.43 
   4  -5 -10   26.86    1.84 
   4   5  -9    0.72    0.84 
  -4   5   9    0.45    1.05 
  -4   5   9    0.92    0.84 
   4   5  -9    0.30    0.42 
   4  -5  -9    1.00    1.06 
   4  -5  -9    0.73    0.64 
   4   5  -8  171.47    8.59 
   4   5  -8  205.40    7.98 
   4   5  -8  190.55    8.05 
   4   5  -8  197.85    8.23 
  -4   5   8  210.95    8.26 
  -4   5   8  189.51    8.35 
  -4   5   8  196.53    8.21 
   4  -5  -8  197.92    8.12 
  -4  -5   8  198.47    7.91 
   4  -5  -8  201.26    8.31 
  -4  -5   8  186.04    7.98 
  -4   5   7   26.12    1.70 
  -4   5   7   25.33    1.93 
   4   5  -7   26.45    1.91 
  -4   5   7   26.43    1.75 
   4   5  -7   28.21    1.72 
   4   5  -7   28.28    1.38 
   4  -5  -7   26.23    1.63 
  -4  -5   7   24.83    1.43 
  -4  -5   7   28.47    1.38 
   4  -5  -7   25.59    1.89 
  -4  -5   7   26.04    1.93 
   4  -5  -7   25.62    1.56 
   4   5  -6  118.71    4.79 
   4   5  -6  103.28    5.06 
  -4   5   6  121.55    5.01 
   4   5  -6  116.15    4.94 
  -4   5   6  110.31    4.96 
  -4   5   6  119.74    4.88 
  -4   5   6  110.47    5.03 
   4  -5  -6  116.94    4.93 
  -4  -5   6  111.72    4.80 
  -4  -5   6  117.55    4.85 
   4  -5  -6  113.42    4.90 
   4  -5  -6  115.45    4.89 
   4  -5  -6  111.14    5.04 
  -4   5   5   23.28    1.52 
   4   5  -5   23.58    1.53 
   4   5  -5   24.82    1.52 
  -4   5   5   27.46    1.62 
   4   5  -5   23.36    1.51 
  -4   5   5   22.82    1.59 
  -4   5   5   25.77    1.43 
   4   5  -5   23.87    1.31 
  -4  -5   5   25.52    1.39 
   4  -5  -5   25.75    1.80 
  -4  -5   5   27.23    1.42 
   4  -5  -5   26.11    1.64 
  -4  -5   5   25.59    1.28 
   4  -5  -5   27.34    1.49 
  -4  -5   5   24.86    1.33 
   4  -5  -5   22.93    1.68 
  -4  -5   5   25.43    1.60 
   4  -5  -5   24.37    1.47 
   4  -5  -5   24.58    1.43 
   4   5  -4   12.26    1.11 
   4   5  -4   14.21    0.93 
   4   5  -4   14.39    1.09 
   4   5  -4   13.48    1.09 
   4   5  -4   14.61    1.43 
  -4   5   4   16.26    1.22 
  -4   5   4   14.59    1.13 
  -4   5   4   14.89    1.20 
  -4   5   4   10.47    1.08 
  -4   5   4   16.28    1.06 
   4  -5  -4   14.10    1.16 
  -4  -5   4   11.88    0.95 
  -4  -5   4   14.81    0.98 
  -4  -5   4   14.43    0.99 
  -4  -5   4   11.94    1.14 
   4  -5  -4   15.04    1.24 
   4  -5  -4   12.69    1.01 
  -4  -5   4   13.37    0.95 
   4  -5  -4   13.56    1.20 
   4  -5  -4   14.51    1.40 
   4  -5  -4   13.51    1.11 
  -4   5   3   11.69    1.05 
  -4   5   3   11.63    0.67 
   4   5  -3    9.91    0.99 
   4   5  -3   10.33    0.84 
  -4   5   3   12.15    1.09 
   4   5  -3    9.86    0.96 
   4   5  -3   11.43    0.97 
  -4   5   3   11.14    0.67 
  -4   5   3   10.14    1.02 
  -4   5   3   11.68    1.01 
   4   5  -3   10.21    1.00 
  -4   5   3    8.69    0.94 
  -4  -5   3   11.66    0.89 
  -4  -5   3   12.82    1.27 
  -4  -5   3    9.67    0.89 
  -4  -5   3   11.12    0.88 
   4  -5  -3   10.25    0.95 
   4  -5  -3   10.21    1.05 
   4  -5  -3   10.60    0.93 
  -4  -5   3   10.80    1.01 
   4  -5  -3    9.73    0.91 
  -4  -5   3    9.38    0.84 
   4  -5  -3    9.41    1.00 
   4  -5  -3   10.53    1.07 
  -4   5   2  217.97    9.07 
   4   5  -2  214.25    9.04 
  -4   5   2  220.67    9.03 
  -4   5   2  209.66    9.02 
  -4   5   2  220.38    9.07 
  -4   5   2  220.49    8.88 
   4   5  -2  214.29    9.06 
   4   5  -2  219.26    8.98 
   4   5  -2  218.64    9.04 
  -4   5   2  215.44    9.01 
  -4   5   2  225.82    8.88 
   4   5  -2  220.21    9.01 
   4  -5  -2  206.89    9.03 
  -4  -5   2  226.25    9.03 
   4  -5  -2  227.56    9.09 
  -4  -5   2  220.11    9.00 
  -4  -5   2  219.28    9.07 
  -4  -5   2  217.57    8.98 
   4  -5  -2  211.22    9.04 
   4  -5  -2  220.06    9.02 
   4  -5  -2  222.45    9.04 
  -4  -5   2  214.01    8.95 
   4  -5  -2  226.47    9.01 
  -4   5   1   51.38    2.42 
  -4   5   1   48.16    2.22 
   4   5  -1   51.44    2.44 
   4   5  -1   50.91    2.42 
  -4   5   1   49.71    2.35 
   4   5  -1   52.61    2.34 
  -4   5   1   51.32    2.41 
   4   5  -1   48.71    2.44 
   4   5  -1   51.72    2.38 
  -4   5   1   50.67    2.24 
  -4   5   1   51.50    2.36 
  -4  -5   1   49.33    2.46 
   4  -5  -1   50.55    2.37 
  -4  -5   1   49.51    2.33 
   4  -5  -1   52.80    2.41 
  -4  -5   1   52.76    2.41 
   4  -5  -1   49.62    2.39 
  -4  -5   1   49.79    2.31 
   4  -5  -1   51.23    2.33 
   4  -5  -1   49.33    2.37 
   4  -5  -1   48.92    2.51 
  -4  -5   1   48.21    2.32 
  -4  -5   1   52.82    2.31 
  -4   5   0  311.38   12.82 
   4   5   0  326.00   12.82 
  -4   5   0  323.23   12.79 
   4   5   0  315.48   12.77 
  -4   5   0  326.80   12.85 
  -4   5   0  309.34   12.71 
  -4   5   0  323.30   12.73 
   4   5   0  303.12   12.86 
   4   5   0  317.50   12.77 
  -4   5   0  305.10   12.78 
  -4   5   0  299.56   12.74 
   4   5   0  309.26   12.84 
   4  -5   0  314.15   12.82 
   4  -5   0  311.57   12.91 
  -4  -5   0  325.41   12.83 
   4  -5   0  336.75   12.81 
  -4  -5   0  308.44   12.72 
  -4  -5   0  308.28   12.77 
  -4  -5   0  308.56   12.60 
   4  -5   0  316.51   12.79 
  -4  -5   0  295.83   12.80 
  -4  -5   0  316.88   12.60 
   4  -5   0  311.22   12.78 
  -4  -5   0  298.49   12.76 
  -4  -5   0  303.48   12.75 
   4  -5   0  314.42   12.75 
  -4   5  -1    5.54    0.67 
  -4   5  -1    5.93    0.63 
  -4   5  -1    5.25    0.73 
   4   5   1    4.01    0.62 
  -4   5  -1    4.81    0.60 
  -4   5  -1    3.27    0.56 
   4   5   1    3.99    0.62 
   4   5   1    4.69    0.62 
   4   5   1    6.28    0.68 
   4   5   1    4.24    0.77 
  -4   5  -1    3.60    0.53 
   4  -5   1    4.84    0.53 
  -4  -5  -1    4.79    0.66 
   4  -5   1    4.86    0.94 
  -4  -5  -1    3.88    0.69 
   4  -5   1    3.70    0.57 
  -4  -5  -1    3.41    0.53 
  -4  -5  -1    4.04    0.52 
  -4  -5  -1    4.85    0.51 
  -4  -5  -1    4.52    0.40 
   4  -5   1    3.75    0.53 
  -4  -5  -1    6.42    0.65 
   4  -5   1    4.10    0.66 
  -4  -5  -1    4.61    0.42 
   4  -5   1    4.78    0.60 
  -4   5  -2    7.87    0.90 
  -4   5  -2    6.92    0.79 
  -4   5  -2    8.36    0.88 
  -4   5  -2    9.63    0.95 
   4   5   2   10.12    0.82 
   4   5   2    7.24    0.97 
  -4   5  -2    9.28    0.89 
  -4   5  -2    9.99    0.85 
   4   5   2    6.43    0.71 
   4   5   2    8.82    0.89 
   4   5   2    8.80    0.84 
  -4  -5  -2    8.30    0.73 
  -4  -5  -2    8.28    0.67 
  -4  -5  -2   10.08    1.11 
  -4  -5  -2    8.52    0.78 
  -4  -5  -2    8.51    0.89 
   4  -5   2    9.10    0.89 
   4  -5   2    8.64    0.74 
  -4  -5  -2    8.77    0.88 
  -4  -5  -2    9.94    0.78 
   4  -5   2    9.20    0.92 
  -4  -5  -2    7.82    0.81 
   4  -5   2    7.99    0.78 
   4  -5   2    8.43    1.00 
   4  -5   2    7.86    0.73 
   4   5   3    1.49    1.03 
  -4   5  -3    0.81    0.48 
  -4   5  -3   -0.55    0.59 
  -4   5  -3    0.02    0.66 
  -4   5  -3    0.01    0.47 
   4   5   3   -0.39    0.56 
   4   5   3    0.54    0.55 
  -4   5  -3    0.60    0.48 
   4   5   3   -0.39    0.52 
  -4   5  -3   -0.08    0.64 
   4   5   3    0.07    0.50 
  -4  -5  -3   -0.16    0.50 
   4  -5   3    0.73    0.69 
   4  -5   3   -0.32    0.46 
  -4  -5  -3   -0.18    0.66 
   4  -5   3   -0.02    0.38 
   4  -5   3   -0.08    0.63 
  -4  -5  -3    0.28    0.52 
  -4  -5  -3    0.11    0.64 
   4  -5   3    0.25    0.35 
   4  -5   3   -0.40    0.46 
  -4  -5  -3   -0.28    0.34 
  -4  -5  -3    0.23    0.32 
  -4  -5  -3    0.10    0.45 
  -4  -5  -3    0.27    0.47 
  -4   5  -4  127.27    5.56 
   4   5   4  129.11    5.44 
   4   5   4  133.92    5.51 
   4   5   4  131.30    5.44 
   4   5   4  127.20    6.01 
  -4   5  -4  130.97    5.44 
  -4   5  -4  124.26    5.57 
  -4   5  -4  129.40    5.42 
   4   5   4  126.57    5.57 
  -4   5  -4  127.82    5.64 
  -4   5  -4  123.00    5.37 
  -4  -5  -4  134.74    5.45 
   4  -5   4  126.98    5.42 
   4  -5   4  131.83    5.33 
  -4  -5  -4  129.83    5.31 
   4  -5   4  131.12    5.49 
  -4  -5  -4  128.82    5.47 
   4  -5   4  115.64    5.48 
   4  -5   4  125.39    5.42 
  -4  -5  -4  132.25    5.44 
  -4  -5  -4  125.88    5.36 
  -4  -5  -4  137.79    5.58 
   4  -5   4  125.64    5.44 
  -4  -5  -4  125.59    5.57 
  -4  -5  -4  125.49    5.46 
  -4   5  -5   24.65    1.47 
   4   5   5   26.56    1.70 
  -4   5  -5   27.09    1.95 
   4   5   5   24.58    2.50 
  -4   5  -5   26.42    1.51 
  -4   5  -5   26.41    1.53 
   4   5   5   28.12    1.80 
   4   5   5   26.64    1.64 
   4   5   5   26.15    1.60 
   4  -5   5   26.55    1.61 
  -4  -5  -5   27.36    1.59 
  -4  -5  -5   26.59    1.83 
  -4  -5  -5   24.92    1.60 
  -4  -5  -5   26.40    1.46 
   4  -5   5   27.68    1.65 
   4  -5   5   26.74    1.34 
   4  -5   5   24.92    1.82 
   4  -5   5   25.15    1.47 
  -4  -5  -5   24.27    1.96 
  -4  -5  -5   26.43    1.33 
  -4  -5  -5   26.95    1.75 
  -4  -5  -5   25.24    1.52 
   4   5   6  251.59   11.51 
  -4   5  -6  274.34   11.03 
  -4   5  -6  274.33   11.07 
  -4   5  -6  278.98   11.33 
  -4   5  -6  270.09   11.06 
   4   5   6  284.56   11.16 
   4   5   6  258.59   11.44 
   4   5   6  250.73   11.68 
   4  -5   6  269.01   11.11 
  -4  -5  -6  278.18   11.12 
  -4  -5  -6  274.48   11.10 
  -4  -5  -6  261.70   11.12 
  -4  -5  -6  277.18   10.96 
  -4  -5  -6  274.41   11.14 
   4  -5   6  267.99   11.04 
  -4  -5  -6  260.90   11.25 
   4  -5   6  274.40   11.13 
   4  -5   6  266.19   11.13 
   4  -5   6  277.22   10.93 
  -4   5  -7    2.85    1.12 
   4   5   7    0.91    0.84 
   4   5   7   -0.80    1.20 
  -4   5  -7    0.13    0.50 
   4   5   7    1.92    0.77 
   4   5   7    1.14    1.08 
  -4   5  -7    1.08    0.73 
  -4   5  -7    0.22    0.73 
   4  -5   7    0.98    0.88 
   4  -5   7    0.75    0.46 
  -4  -5  -7    0.13    0.61 
  -4  -5  -7    0.55    0.78 
  -4  -5  -7    0.43    0.66 
  -4  -5  -7    2.67    1.36 
  -4  -5  -7    0.65    0.80 
  -4  -5  -7    1.00    0.44 
   4  -5   7    0.56    0.84 
  -4   5  -8   61.48    3.38 
   4   5   8   63.67    3.29 
  -4   5  -8   62.85    3.59 
  -4   5  -8   60.08    2.81 
   4   5   8   61.30    3.27 
   4  -5   8   65.27    3.24 
   4  -5   8   58.84    3.29 
  -4  -5  -8   61.25    3.01 
   4  -5   8   60.21    2.70 
  -4  -5  -8   61.83    2.97 
  -4  -5  -8   64.12    2.70 
  -4  -5  -8   47.78    4.44 
   4   5   9    5.87    1.19 
  -4   5  -9    6.03    0.73 
  -4   5  -9    5.99    1.73 
   4   5   9    6.29    1.26 
  -4  -5  -9    6.22    1.00 
  -4  -5  -9    4.81    1.02 
  -4   5 -10   11.72    1.86 
  -4  -5 -10    9.89    1.23 
  -4  -5 -10   10.00    1.32 
   4   6  -9    3.77    1.06 
  -4   6   9    5.33    1.37 
  -4   6   9    4.58    1.13 
   4  -6  -9    5.45    0.96 
   4  -6  -9    5.73    1.29 
  -4   6   8   12.52    1.25 
  -4   6   8   12.95    1.47 
   4   6  -8   11.17    1.22 
   4   6  -8   13.45    1.15 
   4  -6  -8   11.43    1.03 
  -4  -6   8   11.86    1.00 
  -4  -6   8   12.36    1.21 
   4  -6  -8   12.64    1.34 
   4   6  -7   14.46    1.56 
  -4   6   7   10.64    1.14 
   4   6  -7   11.59    1.03 
   4   6  -7   14.17    1.25 
  -4   6   7   11.60    1.32 
   4  -6  -7    9.54    1.16 
  -4  -6   7   12.06    1.33 
  -4  -6   7   11.58    1.10 
   4  -6  -7   12.10    1.06 
  -4  -6   7   12.28    1.10 
  -4   6   6  145.01    6.29 
  -4   6   6  146.42    6.33 
   4   6  -6  140.41    6.27 
   4   6  -6  148.80    6.09 
   4   6  -6  148.64    6.31 
  -4   6   6  146.90    6.32 
  -4  -6   6  151.89    6.12 
  -4  -6   6  140.30    6.30 
  -4  -6   6  147.71    6.10 
   4  -6  -6  146.98    6.26 
   4  -6  -6  139.39    6.25 
  -4  -6   6  144.17    6.09 
   4  -6  -6  151.01    6.33 
   4  -6  -6  143.69    6.19 
  -4   6   5   56.75    2.86 
  -4   6   5   53.41    2.78 
   4   6  -5   58.29    2.81 
   4   6  -5   56.01    2.80 
  -4   6   5   55.50    2.92 
   4   6  -5   57.62    2.57 
  -4   6   5   57.76    2.69 
   4  -6  -5   55.06    2.69 
   4  -6  -5   54.41    2.79 
   4  -6  -5   56.33    3.04 
   4  -6  -5   56.60    2.85 
  -4  -6   5   58.54    2.63 
   4  -6  -5   55.58    2.77 
  -4  -6   5   57.60    2.63 
  -4  -6   5   55.77    2.58 
  -4  -6   5   56.02    2.79 
   4   6  -4  142.51    5.77 
   4   6  -4  131.15    6.04 
  -4   6   4  137.31    5.91 
  -4   6   4  136.75    5.87 
  -4   6   4  139.98    5.95 
   4   6  -4  138.88    5.88 
  -4   6   4  142.23    5.85 
   4  -6  -4  138.80    5.88 
  -4  -6   4  118.11    6.06 
  -4  -6   4  128.68    5.96 
   4  -6  -4  137.08    5.83 
   4  -6  -4  133.99    5.93 
   4  -6  -4  141.99    5.97 
  -4  -6   4  142.49    5.81 
   4  -6  -4  137.47    5.90 
  -4  -6   4  145.62    5.78 
   4   6  -3   43.91    2.14 
  -4   6   3   44.45    1.97 
  -4   6   3   42.74    2.30 
   4   6  -3   43.00    2.28 
  -4   6   3   41.73    2.22 
  -4   6   3   46.71    2.04 
   4   6  -3   44.24    2.28 
   4   6  -3   43.83    2.27 
  -4   6   3   47.64    2.41 
  -4   6   3   47.79    2.26 
   4  -6  -3   42.95    2.26 
   4  -6  -3   45.32    2.32 
   4  -6  -3   43.89    2.29 
  -4  -6   3   43.97    2.14 
  -4  -6   3   42.56    2.36 
   4  -6  -3   45.71    2.22 
   4  -6  -3   46.78    2.47 
  -4  -6   3   43.78    2.22 
  -4  -6   3   46.33    2.15 
   4  -6  -3   41.30    2.30 
  -4   6   2  103.18    4.51 
  -4   6   2   98.02    4.34 
   4   6  -2   99.84    4.55 
  -4   6   2  103.18    4.53 
   4   6  -2  104.28    4.47 
   4   6  -2  101.41    4.38 
   4   6  -2   97.19    4.48 
  -4   6   2  105.97    4.45 
  -4   6   2  104.39    4.28 
   4   6  -2  102.14    4.48 
  -4   6   2   98.96    4.41 
   4  -6  -2  110.97    4.49 
   4  -6  -2  105.00    4.57 
   4  -6  -2  100.46    4.47 
   4  -6  -2  105.19    4.48 
  -4  -6   2   99.80    4.38 
  -4  -6   2   96.45    4.53 
  -4  -6   2  100.79    4.41 
  -4  -6   2   98.51    4.38 
   4  -6  -2  101.91    4.40 
  -4  -6   2  100.84    4.43 
   4  -6  -2  102.59    4.47 
  -4   6   1    0.58    0.61 
  -4   6   1   -0.12    0.45 
  -4   6   1    0.56    0.54 
  -4   6   1    0.56    0.50 
   4   6  -1    0.14    0.77 
   4   6  -1   -0.04    0.52 
   4   6  -1    0.84    0.64 
   4   6  -1    0.06    0.55 
  -4   6   1    1.42    0.78 
  -4   6   1    1.34    0.64 
  -4   6   1    0.57    0.41 
  -4  -6   1    0.50    0.48 
  -4  -6   1   -0.05    0.44 
   4  -6  -1    0.89    0.83 
   4  -6  -1   -0.49    0.68 
  -4  -6   1    0.08    0.63 
  -4  -6   1   -0.14    0.74 
   4  -6  -1    0.54    0.48 
  -4  -6   1   -0.01    0.59 
   4  -6  -1    0.22    0.57 
   4  -6  -1    0.45    0.66 
  -4  -6   1    1.04    0.62 
   4  -6  -1    0.44    0.48 
   4   6   0   84.34    3.70 
  -4   6   0   84.14    3.63 
   4   6   0   82.43    3.64 
  -4   6   0   82.02    3.71 
  -4   6   0   79.13    3.67 
  -4   6   0   83.05    3.64 
   4   6   0   81.18    3.73 
   4   6   0   81.60    3.77 
  -4   6   0   81.82    3.55 
  -4   6   0   83.63    3.78 
  -4   6   0   86.74    3.58 
   4   6   0   78.08    3.70 
  -4  -6   0   83.47    3.36 
  -4  -6   0   76.22    3.61 
   4  -6   0   85.74    3.70 
   4  -6   0   83.69    3.68 
   4  -6   0   79.60    3.60 
  -4  -6   0   82.07    3.39 
  -4  -6   0   78.78    3.65 
  -4  -6   0   83.56    3.73 
  -4  -6   0   82.24    3.58 
  -4  -6   0   85.06    3.62 
  -4  -6   0   75.78    3.74 
   4  -6   0   82.27    3.99 
   4  -6   0   79.94    3.68 
   4  -6   0   84.61    3.68 
  -4   6  -1   48.85    2.59 
  -4   6  -1   49.64    2.33 
  -4   6  -1   47.31    2.46 
  -4   6  -1   49.42    2.38 
   4   6   1   46.31    2.52 
  -4   6  -1   50.68    2.40 
   4   6   1   50.03    2.63 
   4   6   1   50.87    2.48 
  -4   6  -1   53.08    2.42 
  -4   6  -1   50.33    2.49 
   4   6   1   50.57    2.47 
   4   6   1   48.47    2.48 
  -4  -6  -1   47.15    2.13 
  -4  -6  -1   47.23    2.36 
   4  -6   1   57.32    2.88 
   4  -6   1   52.07    2.42 
  -4  -6  -1   55.16    2.55 
  -4  -6  -1   51.76    2.19 
  -4  -6  -1   49.38    2.30 
  -4  -6  -1   47.34    2.53 
   4  -6   1   49.50    2.33 
  -4  -6  -1   46.75    2.45 
   4  -6   1   49.43    2.42 
   4  -6   1   48.19    2.41 
  -4  -6  -1   47.77    2.39 
   4  -6   1   48.45    2.49 
   4   6   2  140.04    6.21 
  -4   6  -2  146.03    6.21 
   4   6   2  140.67    6.10 
  -4   6  -2  149.94    6.15 
  -4   6  -2  143.09    6.10 
   4   6   2  140.89    6.33 
  -4   6  -2  146.65    6.09 
  -4   6  -2  140.15    6.07 
   4   6   2  149.31    6.18 
  -4   6  -2  143.03    6.08 
  -4   6  -2  144.29    6.13 
   4   6   2  145.19    6.13 
   4  -6   2  151.92    6.13 
  -4  -6  -2  146.21    5.93 
   4  -6   2  140.35    6.15 
   4  -6   2  143.82    6.18 
   4  -6   2  131.39    6.25 
  -4  -6  -2  140.91    6.00 
   4  -6   2  146.58    6.03 
  -4  -6  -2  150.90    5.98 
  -4  -6  -2  142.32    6.13 
  -4  -6  -2  143.36    6.08 
  -4  -6  -2  135.53    6.14 
  -4  -6  -2  148.65    6.13 
  -4  -6  -2  155.64    6.23 
   4  -6   2  141.08    6.10 
   4   6   3   48.22    3.05 
  -4   6  -3   49.53    2.70 
  -4   6  -3   51.65    2.44 
   4   6   3   49.38    2.50 
  -4   6  -3   49.36    2.49 
   4   6   3   52.12    2.56 
  -4   6  -3   51.83    2.50 
  -4   6  -3   51.00    2.54 
  -4   6  -3   49.01    2.64 
   4   6   3   50.73    2.54 
   4   6   3   50.60    2.65 
   4  -6   3   48.40    2.46 
   4  -6   3   52.96    2.48 
  -4  -6  -3   53.36    2.52 
  -4  -6  -3   49.82    2.44 
  -4  -6  -3   50.80    2.28 
  -4  -6  -3   51.10    2.31 
  -4  -6  -3   54.28    2.40 
  -4  -6  -3   50.86    2.64 
  -4  -6  -3   45.50    2.50 
   4  -6   3   50.69    2.64 
   4  -6   3   51.21    2.34 
  -4  -6  -3   53.52    2.69 
   4  -6   3   47.52    2.42 
  -4   6  -4  196.99    8.54 
  -4   6  -4  177.48    8.93 
  -4   6  -4  208.48    8.68 
  -4   6  -4  209.61    8.59 
   4   6   4  210.94    8.63 
   4   6   4  210.20    8.74 
   4   6   4  194.96    9.13 
   4   6   4  201.38    8.60 
  -4  -6  -4  207.02    8.48 
   4  -6   4  204.08    8.57 
  -4  -6  -4  204.66    8.61 
  -4  -6  -4  210.84    8.47 
  -4  -6  -4  218.43    8.60 
  -4  -6  -4  205.63    8.61 
   4  -6   4  213.27    8.59 
   4  -6   4  203.12    8.59 
   4  -6   4  217.24    8.49 
   4  -6   4  210.37    8.60 
  -4  -6  -4  192.87    8.63 
  -4  -6  -4  212.80    8.56 
  -4  -6  -4  217.47    8.73 
  -4   6  -5   13.53    1.19 
  -4   6  -5   16.81    1.75 
  -4   6  -5   13.66    1.41 
   4   6   5   14.43    1.54 
   4   6   5   14.50    1.83 
   4   6   5   13.59    1.26 
   4   6   5   12.93    1.28 
  -4  -6  -5   11.97    1.21 
  -4  -6  -5   11.99    1.28 
   4  -6   5   13.61    1.05 
   4  -6   5   12.40    1.29 
  -4  -6  -5   15.24    1.16 
  -4  -6  -5   12.90    1.26 
  -4  -6  -5   14.94    1.25 
  -4  -6  -5   12.93    1.36 
   4  -6   5   14.67    1.46 
  -4  -6  -5   14.70    1.57 
   4  -6   5   11.97    1.15 
   4  -6   5   13.00    1.11 
  -4  -6  -5   14.96    1.04 
  -4   6  -6   11.43    1.14 
   4   6   6   12.16    1.50 
   4   6   6   12.03    1.72 
   4   6   6   10.10    1.18 
  -4   6  -6   10.72    1.36 
  -4   6  -6    9.88    0.89 
   4   6   6   13.06    1.27 
   4  -6   6   11.85    1.10 
   4  -6   6   11.96    1.05 
  -4  -6  -6   11.23    1.34 
  -4  -6  -6    8.84    0.93 
   4  -6   6   10.57    1.08 
  -4  -6  -6   12.18    1.18 
   4  -6   6   11.69    1.13 
  -4  -6  -6    9.01    1.12 
  -4  -6  -6   10.63    1.00 
   4  -6   6   14.28    1.21 
   4   6   7    5.36    1.15 
   4   6   7    6.27    1.44 
  -4   6  -7    6.90    1.35 
  -4   6  -7    4.70    0.72 
  -4  -6  -7    5.48    0.86 
  -4  -6  -7    5.38    0.93 
   4  -6   7    6.44    0.69 
  -4  -6  -7    6.52    0.67 
   4  -6   7    6.69    1.10 
   4  -6   7    3.76    1.32 
   4   6   8   47.94    2.91 
  -4   6  -8   43.14    2.25 
   4   6   8   43.95    2.90 
  -4   6  -8   42.90    3.54 
   4  -6   8   45.97    3.05 
  -4  -6  -8   45.18    2.16 
  -4  -6  -8   43.29    2.50 
  -4  -6  -8   43.35    2.52 
   4  -6   8   46.19    3.00 
  -4   6  -9   32.45    3.22 
  -4   6  -9   35.66    2.14 
   4   6   9   31.69    2.73 
  -4   6  -9   34.52    2.63 
   4  -6   9   32.19    3.14 
   4  -6   9   31.73    1.76 
  -4  -6  -9   34.88    2.35 
  -4  -6  -9   35.28    2.41 
   4  -6   9   32.99    2.72 
  -4   7   8   31.80    2.73 
  -4   7   8   29.80    2.51 
   4   7  -8   31.43    2.51 
  -4  -7   8   32.83    1.94 
   4  -7  -8   35.85    2.56 
   4  -7  -8   33.34    2.28 
  -4  -7   8   38.32    2.83 
  -4  -7   8   32.95    2.10 
  -4   7   7  130.57    5.80 
   4   7  -7  126.04    5.77 
  -4   7   7  126.53    5.86 
  -4  -7   7  131.11    5.51 
   4  -7  -7  133.30    5.80 
  -4  -7   7  133.25    5.85 
   4  -7  -7  129.03    5.65 
  -4  -7   7  122.93    5.47 
  -4   7   6   18.38    1.91 
   4   7  -6   20.89    1.85 
  -4   7   6   21.73    1.97 
  -4  -7   6   20.82    1.45 
  -4  -7   6   22.13    1.89 
  -4  -7   6   22.81    1.86 
   4  -7  -6   18.46    1.59 
  -4  -7   6   20.56    1.64 
   4  -7  -6   20.76    1.72 
  -4   7   5    0.95    0.85 
  -4   7   5    0.01    0.71 
   4   7  -5    1.00    0.72 
   4   7  -5    2.00    0.89 
  -4   7   5    0.82    0.81 
   4  -7  -5    0.20    0.85 
  -4  -7   5    0.51    0.86 
   4  -7  -5    3.35    1.61 
  -4  -7   5    0.22    0.81 
   4  -7  -5    1.05    0.80 
  -4  -7   5    1.61    0.61 
  -4  -7   5    0.38    0.75 
   4   7  -4    0.25    0.91 
   4   7  -4   -0.32    0.66 
  -4   7   4    0.44    0.67 
  -4   7   4   -0.54    0.91 
  -4   7   4    0.12    0.75 
   4   7  -4    0.06    0.76 
  -4   7   4    0.25    0.86 
  -4  -7   4    0.55    0.68 
  -4  -7   4    0.64    0.61 
   4  -7  -4    0.25    0.64 
   4  -7  -4    0.12    0.92 
  -4  -7   4    1.00    0.64 
   4  -7  -4    1.40    0.83 
   4  -7  -4    0.28    1.08 
   4  -7  -4    1.48    0.89 
  -4  -7   4    1.01    0.83 
  -4   7   3   32.61    1.65 
  -4   7   3   31.45    1.97 
   4   7  -3   32.23    2.05 
  -4   7   3   32.04    2.06 
   4   7  -3   32.20    1.89 
  -4   7   3   36.06    2.21 
  -4   7   3   31.99    1.91 
  -4   7   3   34.16    1.79 
   4   7  -3   30.19    2.08 
   4  -7  -3   34.80    1.92 
  -4  -7   3   32.45    1.82 
  -4  -7   3   34.51    1.97 
   4  -7  -3   32.37    2.15 
   4  -7  -3   30.97    2.21 
   4  -7  -3   32.12    1.99 
  -4  -7   3   33.58    1.85 
   4  -7  -3   33.27    2.05 
  -4   7   2   42.33    2.45 
   4   7  -2   42.59    2.32 
   4   7  -2   45.32    2.47 
  -4   7   2   45.83    2.57 
   4   7  -2   43.42    2.46 
  -4   7   2   47.38    2.38 
  -4   7   2   45.63    2.13 
  -4   7   2   43.80    2.28 
  -4   7   2   46.01    2.17 
   4  -7  -2   45.38    2.39 
  -4  -7   2   45.54    2.32 
   4  -7  -2   42.07    2.45 
  -4  -7   2   48.71    2.42 
   4  -7  -2   44.88    2.48 
   4  -7  -2   44.36    2.31 
   4  -7  -2   41.46    2.75 
   4  -7  -2   43.64    2.39 
   4   7  -1  281.35   11.86 
  -4   7   1  293.25   11.73 
   4   7  -1  284.26   11.82 
  -4   7   1  285.30   11.71 
  -4   7   1  300.04   11.78 
   4   7  -1  278.67   11.73 
  -4   7   1  292.09   11.67 
   4   7  -1  283.25   11.84 
  -4   7   1  295.52   11.88 
  -4   7   1  283.51   11.83 
   4  -7  -1  278.73   11.79 
  -4  -7   1  282.22   11.74 
   4  -7  -1  273.12   11.93 
   4  -7  -1  275.21   11.79 
   4  -7  -1  295.10   11.82 
   4  -7  -1  303.16   11.83 
  -4  -7   1  280.86   11.70 
  -4  -7   1  264.39   11.77 
  -4  -7   1  289.37   11.80 
   4  -7  -1  285.39   11.73 
   4   7   0   66.15    3.26 
  -4   7   0   66.51    3.04 
   4   7   0   66.45    3.15 
  -4   7   0   67.26    3.03 
   4   7   0   66.98    3.31 
  -4   7   0   68.23    3.08 
  -4   7   0   68.60    3.24 
  -4   7   0   69.77    3.17 
  -4   7   0   64.23    3.37 
   4   7   0   65.03    3.28 
  -4  -7   0   59.50    3.16 
  -4  -7   0   66.59    3.12 
   4  -7   0   68.30    3.09 
   4  -7   0   65.91    3.15 
  -4  -7   0   65.17    3.11 
  -4  -7   0   68.81    3.09 
   4  -7   0   62.13    3.24 
  -4  -7   0   70.41    3.25 
   4  -7   0   63.66    3.18 
   4  -7   0   67.32    3.79 
   4   7   1   21.49    1.88 
  -4   7  -1   19.75    1.40 
  -4   7  -1   21.36    1.94 
   4   7   1   20.21    1.80 
  -4   7  -1   19.31    1.48 
   4   7   1   19.74    1.60 
  -4   7  -1   20.56    1.43 
  -4   7  -1   21.16    1.59 
   4   7   1   20.18    1.70 
  -4   7  -1   21.06    1.63 
  -4  -7  -1   21.95    1.74 
  -4  -7  -1   21.96    1.24 
   4  -7   1   19.85    1.62 
   4  -7   1   17.48    1.56 
  -4  -7  -1   20.61    1.47 
  -4  -7  -1   19.15    1.05 
  -4  -7  -1   21.26    1.51 
  -4  -7  -1   18.63    1.38 
   4  -7   1   20.45    1.78 
  -4  -7  -1   20.82    1.79 
   4  -7   1   19.48    1.48 
   4  -7   1   18.65    1.42 
   4   7   2    4.89    1.11 
  -4   7  -2    3.94    0.80 
  -4   7  -2    3.71    0.86 
   4   7   2    3.06    0.83 
  -4   7  -2    5.05    0.73 
   4   7   2    4.13    0.94 
  -4   7  -2    3.64    0.76 
   4   7   2    5.21    0.98 
   4  -7   2    4.35    0.83 
   4  -7   2    5.77    1.17 
   4  -7   2    3.08    0.76 
   4  -7   2    2.22    0.97 
  -4  -7  -2    5.08    0.66 
  -4  -7  -2    3.38    0.82 
  -4  -7  -2    4.23    0.94 
   4  -7   2    4.88    0.68 
  -4  -7  -2    4.23    0.51 
  -4  -7  -2    5.63    0.72 
  -4  -7  -2    3.46    0.75 
  -4  -7  -2    5.98    1.07 
   4   7   3    1.07    0.96 
   4   7   3    0.54    1.28 
  -4   7  -3    0.42    0.61 
   4   7   3    0.27    0.84 
  -4   7  -3    1.31    0.67 
  -4   7  -3    0.08    0.80 
   4   7   3   -0.02    0.80 
  -4  -7  -3    0.18    0.63 
  -4  -7  -3    1.15    0.70 
   4  -7   3    1.94    0.78 
  -4  -7  -3    2.09    0.74 
   4  -7   3    0.46    0.71 
  -4  -7  -3    1.06    1.08 
  -4  -7  -3    2.42    1.00 
   4  -7   3    0.27    0.98 
  -4  -7  -3    1.00    0.56 
   4  -7   3    0.13    0.62 
   4  -7   3    1.01    0.60 
  -4  -7  -3    0.82    0.48 
   4   7   4   20.46    2.34 
   4   7   4   23.59    2.05 
  -4   7  -4   22.45    1.72 
  -4   7  -4   21.68    1.73 
   4   7   4   23.50    1.98 
  -4   7  -4   22.52    1.86 
  -4   7  -4   21.68    1.57 
   4  -7   4   24.16    1.96 
   4  -7   4   23.34    1.85 
  -4  -7  -4   24.67    1.83 
   4  -7   4   24.72    1.74 
  -4  -7  -4   20.54    1.38 
  -4  -7  -4   21.64    1.65 
  -4  -7  -4   20.33    2.20 
   4  -7   4   21.87    1.52 
   4  -7   4   22.94    1.56 
  -4  -7  -4   21.89    2.19 
  -4  -7  -4   22.86    1.43 
  -4  -7  -4   20.81    1.72 
  -4   7  -5  207.15    8.80 
  -4   7  -5  203.82    8.71 
   4   7   5  211.23    8.98 
  -4   7  -5  209.82    8.84 
   4   7   5  207.49    9.45 
  -4  -7  -5  210.91    8.65 
   4  -7   5  203.48    8.82 
  -4  -7  -5  206.09    8.62 
  -4  -7  -5  207.63    8.81 
   4  -7   5  206.40    8.74 
  -4  -7  -5  202.15    9.04 
   4  -7   5  205.19    8.70 
   4  -7   5  240.39    9.35 
  -4   7  -6   31.99    2.32 
  -4   7  -6   34.09    1.95 
   4   7   6   29.82    2.58 
  -4   7  -6   32.71    2.37 
   4   7   6   31.06    3.39 
   4  -7   6   36.08    2.40 
   4  -7   6   31.78    1.88 
  -4  -7  -6   33.53    2.15 
  -4  -7  -6   32.26    1.96 
  -4   7  -7   74.48    4.16 
   4   7   7   84.51    4.52 
  -4   7  -7   76.24    4.00 
  -4   7  -7   79.13    3.66 
   4   7   7   75.33    4.22 
  -4  -7  -7   83.12    3.86 
  -4  -7  -7   80.93    3.55 
   4  -7   7   81.37    4.13 
  -4  -7  -7   79.80    3.75 
  -4   7  -8   13.90    1.67 
   4   7   8   14.30    1.82 
   4   8  -6    5.16    1.18 
  -4   8   6    6.96    1.42 
  -4   8   6    6.07    1.26 
   4  -8  -6    5.38    1.29 
  -4  -8   6    5.20    1.28 
  -4  -8   6    4.29    0.89 
   4  -8  -6    6.15    1.16 
   4   8  -5  116.18    5.38 
  -4   8   5  118.53    5.49 
  -4   8   5  119.93    5.33 
  -4  -8   5  116.67    5.35 
   4  -8  -5  115.35    5.29 
  -4  -8   5  118.58    5.15 
   4  -8  -5  120.15    5.39 
  -4   8   4    2.51    1.17 
   4   8  -4    1.93    1.00 
  -4   8   4    1.45    0.91 
  -4   8   4    0.84    1.31 
  -4  -8   4    2.14    0.78 
   4  -8  -4    3.99    0.98 
   4  -8  -4    2.48    1.07 
  -4  -8   4    2.14    0.97 
  -4   8   3  120.24    4.94 
  -4   8   3  110.90    5.02 
  -4   8   3  108.28    5.17 
  -4   8   3  109.67    4.97 
   4   8  -3  115.00    5.13 
   4  -8  -3  113.73    5.30 
   4  -8  -3  114.61    5.11 
   4  -8  -3  111.12    5.10 
   4  -8  -3  117.49    5.02 
   4  -8  -3  102.95    5.27 
  -4  -8   3  111.19    4.94 
  -4  -8   3  111.78    5.03 
  -4   8   2   13.77    1.45 
  -4   8   2   12.56    1.12 
  -4   8   2   10.11    1.20 
   4   8  -2    9.64    1.98 
   4   8  -2   15.26    1.42 
  -4   8   2   14.49    1.28 
  -4   8   2    9.07    1.45 
   4  -8  -2   15.55    1.37 
   4  -8  -2   13.39    1.59 
  -4  -8   2   12.28    1.16 
   4  -8  -2   10.30    1.08 
   4  -8  -2   13.88    1.35 
  -4  -8   2   12.77    1.44 
  -4   8   1    0.46    0.74 
  -4   8   1    1.02    0.91 
  -4   8   1    0.85    1.22 
  -4   8   1    1.35    1.04 
   4   8  -1    0.92    0.97 
  -4   8   1    0.97    0.80 
   4   8  -1    0.59    1.00 
  -4   8   1    1.10    0.72 
   4  -8  -1    2.04    0.86 
   4  -8  -1    1.86    0.99 
   4  -8  -1    1.98    0.86 
   4  -8  -1    2.45    1.24 
  -4  -8   1    1.83    0.79 
  -4  -8   1    1.06    0.80 
  -4  -8   1    0.88    0.77 
  -4   8   0    3.29    0.79 
   4   8   0    3.62    1.03 
   4   8   0    1.74    1.12 
  -4   8   0    0.49    0.90 
  -4   8   0    3.68    0.85 
  -4   8   0    1.51    0.91 
  -4   8   0    2.37    0.94 
   4   8   0    1.87    1.17 
  -4  -8   0    2.98    0.83 
   4  -8   0    3.50    1.77 
   4  -8   0    2.25    0.76 
   4  -8   0    1.89    0.94 
  -4  -8   0    1.65    0.78 
  -4  -8   0    1.20    0.76 
   4  -8   0    1.81    1.41 
  -4   8  -1  162.86    6.83 
  -4   8  -1  161.06    7.06 
  -4   8  -1  141.47    7.30 
   4   8   1  163.70    7.14 
   4   8   1  164.26    7.21 
  -4   8  -1  167.29    6.93 
   4  -8   1  151.78    7.37 
   4  -8   1  165.43    7.03 
  -4  -8  -1  164.12    6.62 
  -4  -8  -1  162.70    6.97 
   4  -8   1  160.18    7.01 
  -4  -8  -1  163.07    6.88 
  -4  -8  -1  172.68    6.96 
  -4  -8  -1  171.09    7.36 
   4  -8   1  165.20    6.94 
   4   8   2    7.27    1.45 
   4   8   2    7.90    1.40 
  -4   8  -2    9.68    0.92 
  -4   8  -2    7.79    1.02 
  -4   8  -2    6.82    1.30 
   4   8   2    7.26    1.43 
   4   8   2    8.46    1.33 
  -4   8  -2    6.72    1.00 
   4  -8   2    8.23    1.90 
  -4  -8  -2    7.25    0.99 
   4  -8   2    8.39    1.06 
  -4  -8  -2    8.12    0.86 
  -4  -8  -2    7.81    0.91 
  -4  -8  -2    6.18    1.49 
  -4  -8  -2    6.94    0.98 
   4  -8   2    5.94    1.10 
   4   8   3  188.54    8.11 
  -4   8  -3  185.78    7.89 
   4   8   3  184.18    8.44 
  -4   8  -3  187.32    7.74 
  -4   8  -3  189.53    7.87 
  -4  -8  -3  181.48    7.91 
  -4  -8  -3  174.82    8.27 
  -4  -8  -3  187.12    7.77 
   4  -8   3  183.61    7.91 
  -4  -8  -3  180.33    7.62 
  -4  -8  -3  189.51    7.88 
   4  -8   3  190.85    7.88 
  -4   8  -4    6.06    0.90 
   4   8   4    7.21    1.39 
  -4   8  -4    6.22    1.14 
   4   8   4    9.10    2.28 
  -4   8  -4    7.04    1.01 
  -4  -8  -4    5.11    0.98 
  -4  -8  -4    4.87    1.08 
   4  -8   4    7.59    1.02 
  -4  -8  -4    6.50    0.78 
  -4  -8  -4    6.42    0.88 
   4  -8   4    5.66    1.22 
  -4   8  -5   30.07    2.34 
   4   8   5   29.34    2.71 
   4   8   5   30.92    2.94 
  -4   8  -5   30.07    2.06 
  -4   8  -5   26.09    2.00 
   4  -8   5   29.36    2.00 
  -4  -8  -5   26.56    2.17 
  -4  -8  -5   27.13    1.85 
   4  -8   5   30.59    2.49 
  -4  -8  -5   27.72    1.87 
   4   8   6    1.86    2.19 
   4   8   6    0.91    1.56 
  -4   8  -6    1.80    0.87 
  -4   8  -6    2.91    1.33 
  -4  -8  -6    1.33    0.84 
   4  -8   6    1.98    1.42 
  -4  -8  -6    1.80    1.06 
  -4  -8  -6    1.05    0.90 
   4   9  -4    0.00    1.27 
  -4   9   4    1.49    1.39 
  -4   9   4    1.14    1.15 
   4  -9  -4   -1.59    1.19 
  -4  -9   4    0.98    0.96 
   4  -9  -4    0.85    1.39 
  -4  -9   4    1.68    1.22 
  -4   9   3   78.71    3.78 
   4   9  -3   77.03    4.07 
  -4   9   3   76.88    4.19 
  -4  -9   3   76.43    3.74 
   4  -9  -3   73.97    4.84 
  -4  -9   3   77.08    3.85 
   4  -9  -3   77.76    4.06 
   4  -9  -3   79.82    4.27 
   4   9  -2   47.37    3.15 
  -4   9   2   48.34    3.27 
  -4   9   2   50.13    2.71 
  -4   9   2   52.76    2.98 
  -4  -9   2   47.21    2.79 
   4  -9  -2   49.05    3.04 
  -4  -9   2   52.83    2.86 
   4   9  -1   65.89    3.68 
  -4   9   1   68.00    3.31 
  -4   9   1   58.65    3.11 
  -4  -9   1   63.45    3.32 
   4  -9  -1   63.80    3.48 
  -4  -9   1   62.63    3.28 
  -4   9   0   60.89    3.11 
  -4   9   0   62.06    3.26 
   4   9   0   60.17    3.64 
  -4   9   0   57.27    2.92 
  -4  -9   0   57.34    3.06 
   4  -9   0   56.81    3.30 
  -4  -9   0   59.00    3.20 
  -4   9  -1   63.58    3.02 
   4   9   1   64.51    3.95 
  -4   9  -1   57.83    3.33 
  -4   9  -1   62.59    3.26 
  -4  -9  -1   59.53    3.18 
   4  -9   1   64.41    3.43 
  -4  -9  -1   62.94    3.36 
  -4   9  -2    3.78    1.20 
  -4   9  -2    4.44    1.15 
   4   9   2    4.17    1.79 
  -4  -9  -2    5.85    1.08 
  -4  -9  -2    5.61    1.28 
   4  -9   2    3.76    1.24 
  -4   9  -3   21.92    1.76 
   4   9   3   18.29    2.63 
  -4   9  -3   18.43    1.61 
   4   9   3   21.66    2.12 
  -4  -9  -3   13.79    1.62 
   4  -9   3   20.40    1.87 
  -4  -9  -3   22.75    1.87 
   5   0 -12   76.46    4.73 
   5   0 -11    0.34    0.34 
   5   0 -11   -0.16    0.71 
   5   0 -11    0.22    0.63 
   5   0 -11    0.72    1.58 
   5   0 -10  233.38    9.73 
   5   0 -10  224.08   10.23 
   5   0 -10  237.82    9.69 
   5   0 -10  248.52    9.59 
   5   0 -10  239.05   10.21 
   5   0  -9    0.10    0.30 
   5   0  -9   -0.50    1.91 
   5   0  -9    0.32    0.79 
   5   0  -9   -0.04    0.52 
   5   0  -9    0.70    0.47 
  -5   0   8   14.98    0.92 
   5   0  -8   15.22    0.78 
   5   0  -8   15.84    1.48 
   5   0  -8   13.43    1.47 
  -5   0   8   13.84    1.35 
   5   0  -8   14.89    1.03 
   5   0  -8   13.37    1.18 
  -5   0   8   14.40    0.74 
   5   0  -8   13.63    0.89 
   5   0  -8   15.29    0.95 
  -5   0   7    0.24    0.54 
   5   0  -7   -0.01    0.39 
   5   0  -7   -0.12    0.58 
   5   0  -7    0.35    0.45 
   5   0  -7    0.07    0.33 
   5   0  -7    1.06    1.15 
   5   0  -7   -0.29    0.87 
  -5   0   7    0.11    0.57 
   5   0  -7    0.21    0.39 
  -5   0   7    0.20    0.25 
   5   0  -7    0.13    0.54 
   5   0  -6   56.60    2.55 
  -5   0   6   63.43    2.82 
   5   0  -6   58.81    2.50 
   5   0  -6   60.08    2.63 
  -5   0   6   59.70    2.64 
  -5   0   6   52.75    2.45 
   5   0  -6   58.70    2.68 
   5   0  -6   55.92    2.49 
   5   0  -6   53.64    2.96 
   5   0  -5   -0.40    0.73 
  -5   0   5    0.26    0.38 
  -5   0   5    0.29    0.27 
   5   0  -5   -0.13    0.28 
   5   0  -5   -0.28    0.40 
  -5   0   5    0.12    0.69 
   5   0  -5    0.03    0.33 
   5   0  -5    0.28    0.34 
   5   0  -5    0.55    0.55 
  -5   0   5    0.54    0.19 
  -5   0   4  915.85   35.69 
   5   0  -4  821.80   35.76 
   5   0  -4  891.66   35.76 
   5   0  -4  891.11   35.97 
  -5   0   4  830.91   35.76 
   5   0  -4  960.63   35.88 
   5   0  -4  895.78   35.81 
  -5   0   4 1000.00   35.99 
  -5   0   4  820.93   35.76 
   5   0  -4  854.91   35.72 
  -5   0   4  900.42   35.70 
   5   0  -3    0.02    0.28 
   5   0  -3    0.52    0.57 
   5   0  -3    0.30    0.47 
  -5   0   3   -0.22    0.28 
   5   0  -3    0.00    0.35 
  -5   0   3    0.17    0.56 
   5   0  -3    0.31    0.33 
  -5   0   3    0.70    0.40 
  -5   0   3   -0.14    0.25 
  -5   0   3    0.14    0.26 
   5   0  -3    0.92    0.44 
  -5   0   2  181.43    7.99 
   5   0  -2  178.19    7.94 
  -5   0   2  204.45    7.93 
   5   0  -2  173.12    8.07 
  -5   0   2  192.59    7.94 
  -5   0   2  208.54    8.20 
   5   0  -2  194.30    7.92 
   5   0  -2  191.81    8.01 
   5   0  -2  214.74    8.07 
   5   0  -1   -0.21    0.38 
   5   0  -1   -0.54    0.46 
   5   0  -1   -0.10    0.41 
  -5   0   1    0.13    0.46 
   5   0  -1    0.63    0.49 
   5   0  -1   -0.14    0.39 
  -5   0   1   -0.38    0.53 
  -5   0   1   -0.06    0.40 
  -5   0   1   -0.35    0.30 
   5   0  -1   -0.48    0.47 
  -5   0   1   -0.64    0.32 
   5   0   0  142.20    6.28 
   5   0   0  147.95    6.27 
  -5   0   0  157.30    6.29 
   5   0   0  140.76    6.37 
  -5   0   0  148.34    6.23 
   5   0   0  149.04    6.18 
  -5   0   0  164.93    6.46 
   5   0   0  158.67    6.34 
   5   0   0  124.96    6.40 
  -5   0   0  142.65    6.29 
  -5   0   0  163.22    6.36 
  -5   0  -1    0.17    0.59 
   5   0   1    0.25    0.42 
  -5   0  -1    0.24    0.57 
  -5   0  -1    0.30    0.39 
   5   0   1   -0.05    0.45 
  -5   0  -1    0.25    0.43 
  -5   0  -1   -0.14    0.45 
   5   0   1    0.20    0.54 
   5   0   1   -0.25    0.38 
   5   0   1   -0.05    0.26 
   5   0   1   -0.15    0.41 
   5   0   2  703.05   30.10 
   5   0   2  803.24   30.13 
   5   0   2  726.94   30.45 
  -5   0  -2  740.29   30.34 
  -5   0  -2  787.33   30.36 
   5   0   2  725.29   30.30 
  -5   0  -2  823.06   30.49 
   5   0   2  713.92   30.34 
  -5   0  -2  726.57   30.26 
   5   0   2  745.15   30.29 
   5   0   2  706.29   30.48 
  -5   0  -2  812.01   30.45 
   5   0   3    0.11    0.60 
  -5   0  -3    0.22    0.32 
   5   0   3    0.29    0.55 
  -5   0  -3    0.30    0.63 
   5   0   3    1.95    0.45 
  -5   0  -3    1.59    0.49 
   5   0   3    0.48    0.40 
  -5   0  -3    0.15    0.49 
  -5   0  -3    0.37    0.47 
   5   0   3    0.06    0.39 
   5   0   4  213.18    8.56 
   5   0   4  194.10    8.76 
   5   0   4  203.59    8.86 
  -5   0  -4  202.35    8.59 
  -5   0  -4  218.36    8.75 
  -5   0  -4  217.78    8.71 
  -5   0  -4  213.38    8.80 
  -5   0  -4  200.95    8.64 
   5   0   4  207.74    8.61 
   5   0   4  213.13    8.65 
   5   0   5   -0.24    0.35 
  -5   0  -5   -0.21    0.87 
  -5   0  -5   -0.16    0.63 
  -5   0  -5    0.36    0.39 
   5   0   5    1.47    0.65 
  -5   0  -5    1.60    0.49 
  -5   0  -5   -0.48    0.54 
   5   0   5   -0.03    0.78 
   5   0   5    0.15    0.44 
  -5   0  -6   61.52    2.89 
   5   0   6   61.83    3.20 
  -5   0  -6   63.14    3.32 
   5   0   6   63.39    2.67 
  -5   0  -6   57.25    2.86 
  -5   0  -6   65.17    2.98 
  -5   0  -6   59.68    2.84 
   5   0   6   63.23    3.04 
  -5   0  -7    0.03    1.20 
   5   0   7    0.24    0.32 
  -5   0  -7    0.00    0.70 
   5   0   7   -0.15    0.89 
  -5   0  -7    0.16    0.57 
   5   0   7    0.47    0.75 
   5   0   7    0.16    0.45 
  -5   0  -7    0.60    0.55 
  -5   0  -7    0.57    0.60 
   5   0   8  127.48    5.11 
   5   0   8  124.37    5.42 
  -5   0  -8  119.91    5.32 
   5   0   8  115.61    5.49 
  -5   0  -8  119.29    5.31 
   5   0   9   -0.40    0.50 
  -5   0  -9    1.27    0.90 
   5   0   9    0.11    0.95 
  -5   0  -9   -0.41    0.72 
  -5   0  -9    0.61    1.07 
   5   0   9    0.18    0.91 
  -5   0 -10   93.96    4.23 
   5   0  10   88.60    4.27 
  -5   0 -10   89.87    4.21 
   5   0  10   84.59    4.05 
  -5   0 -11   -0.20    1.12 
   5   0  11   -0.76    1.18 
   5   0  11    1.39    0.45 
  -5   0 -11    0.12    1.22 
   5   0  11    1.04    0.65 
   5   1 -12   36.63    3.04 
   5   1 -12   38.84    2.72 
   5  -1 -12   39.72    3.53 
   5  -1 -12   39.05    1.83 
   5   1 -11   19.11    1.58 
   5   1 -11   17.03    2.12 
   5  -1 -11   18.46    1.37 
   5  -1 -11   17.30    1.94 
   5  -1 -11   19.61    1.12 
   5   1 -10    6.84    0.76 
   5   1 -10    5.83    1.32 
   5   1 -10    7.15    0.53 
   5   1 -10    7.45    0.59 
   5   1 -10    5.48    1.61 
   5  -1 -10    6.80    1.48 
   5  -1 -10    5.74    0.69 
   5  -1 -10    6.07    0.62 
   5  -1 -10    6.96    0.72 
   5   1  -9   58.32    3.06 
  -5   1   9   60.82    3.17 
  -5   1   9   64.61    2.93 
  -5   1   9   63.14    2.62 
   5   1  -9   61.68    3.04 
   5   1  -9   61.45    2.81 
   5   1  -9   63.42    3.61 
   5   1  -9   56.67    2.76 
   5  -1  -9   60.25    2.63 
   5  -1  -9   62.77    2.67 
   5  -1  -9   61.68    3.45 
   5  -1  -9   63.13    2.95 
   5  -1  -9   63.91    2.75 
   5  -1  -9   64.29    2.67 
   5   1  -8  204.58    8.69 
  -5   1   8  236.14    8.85 
  -5   1   8  208.64    8.54 
  -5   1   8  206.45    8.80 
   5   1  -8  213.06    8.63 
   5   1  -8  204.89    8.65 
   5   1  -8  218.13    8.72 
   5   1  -8  199.02    9.09 
   5  -1  -8  212.33    8.60 
   5  -1  -8  206.29    8.57 
   5  -1  -8  212.43    8.54 
   5  -1  -8  195.65    8.99 
   5  -1  -8  211.09    8.54 
   5  -1  -8  210.61    8.59 
  -5   1   7   16.38    1.41 
   5   1  -7   15.38    1.50 
   5   1  -7   16.32    1.01 
  -5   1   7   15.47    0.89 
   5   1  -7   16.10    1.21 
   5   1  -7   16.65    0.84 
  -5   1   7   15.19    1.28 
   5   1  -7   15.39    1.22 
   5   1  -7   13.83    1.54 
   5   1  -7   15.62    1.20 
   5   1  -7   14.78    0.84 
  -5  -1   7   13.90    1.17 
   5  -1  -7   16.10    1.45 
  -5  -1   7   15.98    0.84 
   5  -1  -7   15.16    0.96 
   5  -1  -7   15.40    0.97 
  -5  -1   7   15.79    0.77 
   5  -1  -7   16.75    0.89 
   5  -1  -7   15.09    1.35 
   5  -1  -7   15.60    0.95 
   5  -1  -7   16.15    1.29 
  -5   1   6  177.86    7.01 
   5   1  -6  173.41    7.39 
   5   1  -6  180.11    7.10 
   5   1  -6  169.21    7.08 
   5   1  -6  168.90    7.17 
  -5   1   6  170.37    7.04 
   5   1  -6  169.07    7.02 
  -5   1   6  176.63    7.23 
   5   1  -6  181.25    7.05 
   5   1  -6  169.29    7.46 
  -5   1   6  171.75    7.18 
   5  -1  -6  169.94    7.13 
   5  -1  -6  173.57    7.00 
   5  -1  -6  172.97    7.07 
   5  -1  -6  160.16    7.39 
  -5  -1   6  172.43    7.06 
   5  -1  -6  176.84    7.16 
   5  -1  -6  171.68    7.06 
  -5  -1   6  172.31    7.12 
   5  -1  -6  171.26    7.01 
  -5  -1   6  162.80    7.01 
   5   1  -5   86.77    3.58 
   5   1  -5   81.50    3.88 
  -5   1   5   79.36    3.54 
  -5   1   5   76.73    3.63 
  -5   1   5   87.99    3.49 
   5   1  -5   86.06    3.57 
   5   1  -5   84.92    3.56 
   5   1  -5   82.33    3.70 
   5   1  -5   85.07    3.66 
  -5   1   5   87.86    3.72 
  -5  -1   5   84.93    3.58 
  -5  -1   5   86.66    3.42 
   5  -1  -5   85.05    3.58 
   5  -1  -5   82.79    3.62 
  -5  -1   5   79.81    3.56 
  -5  -1   5   87.18    3.65 
   5  -1  -5   87.10    3.57 
   5  -1  -5   75.96    3.86 
   5  -1  -5   85.27    3.64 
  -5   1   4   20.86    0.96 
  -5   1   4   19.88    0.89 
   5   1  -4   18.16    1.22 
   5   1  -4   18.24    1.01 
   5   1  -4   22.85    1.52 
   5   1  -4   18.49    1.11 
  -5   1   4   19.14    1.01 
   5   1  -4   16.36    1.30 
  -5   1   4   17.82    1.20 
  -5   1   4   19.43    1.10 
   5   1  -4   19.42    1.03 
   5  -1  -4   19.36    1.13 
   5  -1  -4   19.74    1.45 
   5  -1  -4   18.73    1.10 
   5  -1  -4   17.79    1.02 
  -5  -1   4   18.81    1.21 
  -5  -1   4   19.55    0.97 
   5  -1  -4   17.27    0.99 
  -5  -1   4   16.04    1.10 
  -5  -1   4   18.44    1.00 
   5  -1  -4   17.81    1.07 
   5   1  -3  131.71    5.72 
   5   1  -3  136.21    5.59 
  -5   1   3  131.92    5.55 
   5   1  -3  123.86    5.61 
  -5   1   3  128.98    5.53 
  -5   1   3  135.17    5.49 
  -5   1   3  142.11    5.78 
  -5   1   3  143.84    5.45 
   5   1  -3  134.19    5.49 
   5   1  -3  134.54    5.66 
   5   1  -3  121.37    5.51 
   5  -1  -3  123.52    5.57 
  -5  -1   3  137.12    5.54 
  -5  -1   3  141.34    5.53 
   5  -1  -3  129.91    5.55 
  -5  -1   3  138.02    5.67 
   5  -1  -3  133.51    5.71 
   5  -1  -3  129.59    5.51 
  -5  -1   3  130.34    5.48 
  -5  -1   3  131.04    5.60 
   5  -1  -3  130.22    5.57 
   5  -1  -3  137.56    5.55 
   5   1  -2  159.73    6.63 
  -5   1   2  163.27    6.69 
  -5   1   2  160.38    6.59 
   5   1  -2  145.42    6.65 
  -5   1   2  168.53    6.57 
  -5   1   2  158.72    6.60 
   5   1  -2  169.79    6.66 
   5   1  -2  163.67    6.56 
   5   1  -2  141.36    6.74 
  -5   1   2  156.20    6.70 
  -5   1   2  169.33    6.57 
   5   1  -2  159.58    6.59 
  -5  -1   2  166.85    6.54 
   5  -1  -2  160.12    6.68 
   5  -1  -2  155.63    6.64 
  -5  -1   2  147.14    6.64 
   5  -1  -2  160.13    6.60 
   5  -1  -2  154.57    6.65 
  -5  -1   2  166.92    6.59 
   5  -1  -2  152.50    6.57 
  -5   1   1  135.15    5.67 
  -5   1   1  132.17    5.67 
  -5   1   1  133.98    5.64 
   5   1  -1  126.62    5.78 
   5   1  -1  128.57    5.67 
  -5   1   1  130.26    5.64 
  -5   1   1  148.54    5.72 
   5   1  -1  144.39    5.64 
   5   1  -1  144.79    5.67 
   5   1  -1  124.76    5.69 
  -5   1   1  138.65    5.76 
   5   1  -1  137.99    5.70 
  -5  -1   1  131.13    5.68 
  -5  -1   1  140.85    5.71 
   5  -1  -1  132.03    5.77 
  -5  -1   1  135.07    5.62 
   5  -1  -1  137.04    5.75 
   5  -1  -1  126.26    5.63 
   5  -1  -1  141.02    5.68 
  -5  -1   1  146.20    5.70 
   5  -1  -1  118.04    5.69 
   5  -1  -1  139.83    5.68 
   5   1   0  552.62   24.92 
  -5   1   0  598.37   24.99 
  -5   1   0  650.93   25.03 
  -5   1   0  627.80   24.99 
   5   1   0  593.50   24.97 
   5   1   0  598.39   25.06 
  -5   1   0  602.49   24.99 
  -5   1   0  605.30   24.88 
  -5   1   0  657.00   25.10 
   5   1   0  633.04   25.00 
   5   1   0  591.31   25.08 
   5   1   0  621.23   24.87 
   5  -1   0  620.91   25.03 
   5  -1   0  613.07   24.98 
  -5  -1   0  616.46   24.97 
  -5  -1   0  673.27   25.09 
   5  -1   0  618.39   24.98 
  -5  -1   0  588.68   24.96 
   5  -1   0  656.58   25.05 
   5  -1   0  610.39   24.90 
  -5  -1   0  654.38   25.06 
  -5  -1   0  613.89   24.93 
   5  -1   0  617.05   25.09 
   5   1   1  284.90   11.12 
   5   1   1  278.97   11.08 
  -5   1  -1  280.39   11.13 
  -5   1  -1  283.49   11.13 
   5   1   1  250.87   11.16 
   5   1   1  280.01   10.93 
  -5   1  -1  275.82   11.25 
  -5   1  -1  250.32   11.10 
  -5   1  -1  271.18   10.95 
   5   1   1  270.96   11.30 
   5   1   1  282.81   11.05 
  -5   1  -1  272.80   11.13 
   5  -1   1  267.94   11.13 
   5  -1   1  276.57   11.16 
  -5  -1  -1  257.09   11.02 
  -5  -1  -1  266.28   11.06 
   5  -1   1  252.09   11.22 
  -5  -1  -1  287.02   11.19 
   5  -1   1  279.35   11.17 
  -5  -1  -1  244.54   11.18 
  -5   1  -2  137.97    5.76 
  -5   1  -2  127.80    5.94 
  -5   1  -2  137.61    6.00 
   5   1   2  150.97    5.97 
   5   1   2  141.29    5.91 
   5   1   2  130.89    6.17 
  -5   1  -2  141.73    6.16 
   5   1   2  146.16    5.73 
  -5   1  -2  142.55    6.01 
   5   1   2  132.74    6.04 
  -5   1  -2  145.88    5.99 
   5  -1   2  143.56    6.03 
  -5  -1  -2  157.59    6.21 
   5  -1   2  147.13    6.03 
   5  -1   2  137.99    6.02 
   5  -1   2  145.52    5.75 
  -5  -1  -2  137.23    5.91 
  -5  -1  -2  152.27    6.06 
   5  -1   2  148.91    6.00 
   5  -1   2  131.73    6.12 
  -5  -1  -2  135.85    5.93 
  -5  -1  -2  145.81    5.88 
  -5   1  -3   41.19    1.74 
   5   1   3   36.97    2.31 
   5   1   3   42.03    1.95 
  -5   1  -3   38.86    2.07 
   5   1   3   39.10    2.18 
  -5   1  -3   39.80    2.00 
  -5   1  -3   41.98    2.10 
   5   1   3   43.74    2.02 
   5   1   3   42.75    1.97 
  -5   1  -3   42.08    2.14 
  -5   1  -3   44.28    2.35 
  -5  -1  -3   42.28    1.98 
   5  -1   3   42.49    2.12 
   5  -1   3   43.45    1.74 
  -5  -1  -3   41.54    1.93 
  -5  -1  -3   44.84    2.13 
  -5  -1  -3   44.52    2.49 
   5  -1   3   38.09    2.26 
   5  -1   3   39.56    2.07 
   5  -1   3   42.03    2.05 
  -5  -1  -3   42.29    2.02 
  -5   1  -4   12.79    1.11 
   5   1   4   11.63    1.28 
  -5   1  -4   10.47    0.96 
  -5   1  -4   12.46    0.57 
   5   1   4   12.16    1.24 
   5   1   4   13.15    0.89 
  -5   1  -4   12.34    1.14 
  -5   1  -4   11.81    1.28 
  -5   1  -4   14.21    1.44 
   5  -1   4   13.71    1.06 
  -5  -1  -4   12.81    0.89 
   5  -1   4   11.65    1.13 
  -5  -1  -4   12.37    1.03 
  -5  -1  -4   12.61    0.92 
  -5  -1  -4   12.71    1.07 
   5  -1   4   14.62    1.15 
   5  -1   4   12.07    0.61 
   5  -1   4   13.55    1.03 
   5  -1   4    8.34    1.02 
  -5  -1  -4   12.24    1.31 
   5   1   5   55.16    2.51 
  -5   1  -5   60.61    2.67 
  -5   1  -5   57.32    2.92 
  -5   1  -5   57.43    2.74 
  -5   1  -5   52.82    2.72 
   5   1   5   55.70    2.88 
  -5   1  -5   57.45    2.89 
   5   1   5   59.65    2.58 
   5   1   5   56.72    2.91 
  -5  -1  -5   56.28    2.60 
   5  -1   5   57.65    2.68 
   5  -1   5   56.53    2.77 
  -5  -1  -5   58.28    2.69 
  -5  -1  -5   56.67    3.22 
  -5  -1  -5   55.66    2.59 
   5  -1   5   57.64    2.72 
  -5  -1  -5   55.17    2.69 
   5  -1   5   61.84    2.55 
   5  -1   5   53.30    2.91 
  -5   1  -6  182.56    7.40 
   5   1   6  174.39    7.13 
  -5   1  -6  175.64    7.35 
  -5   1  -6  180.04    7.52 
   5   1   6  173.11    7.21 
   5   1   6  169.00    7.44 
   5   1   6  166.95    7.51 
  -5   1  -6  177.19    7.31 
  -5   1  -6  178.35    7.30 
  -5  -1  -6  170.97    7.25 
   5  -1   6  165.54    7.43 
   5  -1   6  178.63    7.28 
  -5  -1  -6  178.48    7.35 
  -5  -1  -6  171.36    7.70 
   5  -1   6  177.65    7.10 
  -5  -1  -6  172.54    7.28 
  -5  -1  -6  172.72    7.25 
   5  -1   6  164.39    7.37 
   5   1   7  208.15    8.31 
  -5   1  -7  199.52    8.37 
   5   1   7  192.69    8.66 
  -5   1  -7  208.93    8.44 
  -5   1  -7  189.49    8.65 
  -5   1  -7  195.11    8.39 
   5   1   7  200.06    8.54 
   5   1   7  198.96    8.20 
  -5   1  -7  217.06    8.48 
   5  -1   7  192.95    8.47 
   5  -1   7  211.39    8.53 
  -5  -1  -7  198.54    8.39 
   5  -1   7  201.68    8.14 
  -5  -1  -7  195.90    8.87 
  -5  -1  -7  202.77    8.36 
  -5  -1  -7  197.97    8.36 
   5  -1   7  214.86    8.14 
  -5  -1  -7  193.88    8.59 
   5  -1   7  202.71    8.31 
  -5   1  -8  120.20    5.80 
  -5   1  -8  121.91    5.25 
  -5   1  -8  117.66    5.11 
   5   1   8  119.68    5.04 
   5   1   8  123.93    5.54 
   5   1   8  119.14    5.32 
   5  -1   8  120.97    5.01 
   5  -1   8  118.88    5.20 
  -5  -1  -8  114.43    5.13 
   5  -1   8  116.40    5.33 
  -5  -1  -8  118.41    5.19 
  -5  -1  -8  120.39    5.30 
   5   1   9    0.69    0.56 
  -5   1  -9    0.33    0.80 
  -5   1  -9    1.03    0.79 
  -5   1  -9    1.27    0.84 
   5   1   9    1.65    1.14 
   5   1   9    1.60    0.94 
  -5  -1  -9    0.61    1.15 
   5  -1   9    0.81    0.65 
   5  -1   9    1.00    0.91 
  -5  -1  -9    1.40    0.73 
  -5  -1  -9    0.52    0.79 
   5  -1   9    0.64    0.49 
   5   1  10   -0.75    1.22 
  -5   1 -10    0.48    0.90 
  -5   1 -10    0.11    0.95 
   5   1  10    0.76    1.05 
   5   1  10    0.13    0.52 
   5  -1  10    0.40    0.47 
   5  -1  10   -0.02    1.06 
  -5  -1 -10   -0.35    0.87 
  -5  -1 -10    1.09    1.00 
   5  -1  10    1.04    0.54 
   5   1  11    0.30    1.19 
   5   1  11   -0.77    1.15 
  -5   1 -11    1.60    1.01 
   5   1  11    0.93    0.59 
  -5   1 -11    0.13    1.22 
  -5  -1 -11    2.88    1.21 
  -5  -1 -11    0.50    1.09 
   5   2 -11  110.66    4.91 
   5   2 -11  113.13    5.94 
   5   2 -11  112.68    5.03 
   5  -2 -11  113.97    5.47 
   5  -2 -11  111.41    4.72 
   5   2 -10    7.26    0.84 
  -5   2  10    6.62    0.64 
  -5   2  10    8.12    1.20 
   5   2 -10    9.42    1.86 
   5  -2 -10    7.01    1.38 
   5  -2 -10    6.43    0.73 
   5  -2 -10    7.39    0.64 
   5  -2 -10    7.38    0.77 
   5   2  -9   82.70    3.44 
  -5   2   9   82.78    3.55 
   5   2  -9   84.01    3.68 
   5   2  -9   78.81    3.98 
   5   2  -9   82.18    3.77 
  -5   2   9   79.95    3.94 
   5   2  -9   81.72    4.50 
  -5   2   9   87.24    3.84 
   5  -2  -9   82.31    3.58 
   5  -2  -9   83.95    3.55 
   5  -2  -9   86.28    4.17 
   5  -2  -9   84.14    3.60 
   5   2  -8   26.35    1.85 
  -5   2   8   25.13    1.78 
   5   2  -8   24.65    1.63 
  -5   2   8   24.24    1.63 
  -5   2   8   24.09    1.32 
   5   2  -8   25.73    1.26 
   5   2  -8   24.19    1.45 
   5   2  -8   28.20    2.49 
   5  -2  -8   25.42    1.36 
   5  -2  -8   25.72    2.09 
   5  -2  -8   25.02    1.30 
   5  -2  -8   26.74    1.38 
   5   2  -7    0.97    0.99 
   5   2  -7    1.02    0.40 
   5   2  -7    1.17    0.52 
   5   2  -7    0.94    0.44 
  -5   2   7    1.98    0.69 
  -5   2   7    1.12    0.38 
  -5   2   7    1.06    0.59 
   5   2  -7    1.21    0.35 
   5  -2  -7    0.83    0.54 
   5  -2  -7    0.81    0.86 
  -5  -2   7    1.44    0.25 
   5  -2  -7    1.22    0.73 
   5  -2  -7    0.89    0.37 
   5  -2  -7    0.58    0.39 
   5  -2  -7    1.26    0.40 
  -5  -2   7    1.19    0.29 
   5   2  -6   85.50    3.80 
   5   2  -6   80.26    3.30 
   5   2  -6   77.12    3.43 
  -5   2   6   76.31    3.38 
  -5   2   6   81.76    3.31 
  -5   2   6   68.19    3.64 
  -5   2   6   76.05    3.54 
  -5   2   6   95.72    4.21 
   5   2  -6   76.18    3.39 
   5   2  -6   84.11    3.39 
   5  -2  -6   80.49    3.45 
   5  -2  -6   76.28    3.36 
  -5  -2   6   80.21    3.41 
  -5  -2   6   82.00    3.31 
   5  -2  -6   79.84    3.79 
   5  -2  -6   78.40    3.55 
   5  -2  -6   78.37    3.38 
   5  -2  -6   77.16    3.39 
  -5  -2   6   75.93    3.37 
   5   2  -5  268.93   11.42 
  -5   2   5  270.84   11.28 
   5   2  -5  278.34   11.22 
  -5   2   5  280.88   11.23 
   5   2  -5  268.22   11.29 
   5   2  -5  286.30   11.47 
  -5   2   5  286.22   11.64 
  -5   2   5  286.61   11.36 
   5   2  -5  264.25   11.29 
  -5   2   5  269.64   11.36 
   5   2  -5  288.61   11.24 
  -5  -2   5  284.45   11.13 
  -5  -2   5  261.43   11.30 
  -5  -2   5  278.02   11.15 
  -5  -2   5  276.73   11.25 
   5  -2  -5  283.43   11.34 
   5  -2  -5  289.12   11.31 
   5  -2  -5  279.38   11.29 
   5  -2  -5  259.39   11.51 
  -5  -2   5  279.23   11.24 
  -5   2   4    8.62    0.86 
   5   2  -4    9.99    0.68 
   5   2  -4   11.82    0.99 
  -5   2   4    9.22    0.67 
  -5   2   4   10.50    1.10 
   5   2  -4    8.62    0.83 
  -5   2   4    9.52    0.84 
  -5   2   4    9.39    0.74 
   5   2  -4    9.94    0.97 
   5   2  -4    9.38    0.72 
   5   2  -4    8.70    0.76 
   5  -2  -4   10.26    1.01 
  -5  -2   4    9.53    0.77 
   5  -2  -4    9.73    0.94 
   5  -2  -4    8.45    0.77 
  -5  -2   4   10.32    0.58 
  -5  -2   4    9.40    0.87 
   5  -2  -4    8.19    0.70 
  -5  -2   4   10.13    0.66 
   5  -2  -4    9.59    0.81 
  -5  -2   4    7.67    0.86 
  -5  -2   4    9.72    0.79 
  -5   2   3  276.64   12.04 
  -5   2   3  297.99   12.15 
   5   2  -3  317.86   12.14 
   5   2  -3  305.90   12.03 
  -5   2   3  309.26   11.93 
  -5   2   3  314.33   12.12 
  -5   2   3  256.43   12.18 
   5   2  -3  281.04   12.14 
  -5   2   3  295.48   12.08 
   5   2  -3  294.13   12.05 
   5   2  -3  295.18   11.98 
   5   2  -3  286.36   12.06 
  -5  -2   3  299.52   12.07 
   5  -2  -3  307.42   12.08 
   5  -2  -3  289.88   12.07 
   5  -2  -3  310.05   12.06 
  -5  -2   3  279.63   12.05 
  -5  -2   3  302.41   12.06 
   5  -2  -3  299.78   11.94 
   5  -2  -3  290.02   12.17 
  -5  -2   3  297.06   11.95 
  -5  -2   3  307.44   12.09 
   5  -2  -3  289.08   12.03 
  -5   2   2   75.51    3.28 
   5   2  -2   75.14    3.40 
  -5   2   2   75.17    3.31 
  -5   2   2   75.99    3.36 
  -5   2   2   73.65    3.34 
   5   2  -2   75.09    3.33 
   5   2  -2   79.07    3.35 
   5   2  -2   75.96    3.32 
   5   2  -2   80.03    3.35 
   5   2  -2   82.80    3.31 
  -5   2   2   76.76    3.38 
  -5   2   2   81.37    3.31 
   5  -2  -2   79.57    3.33 
  -5  -2   2   70.67    3.30 
   5  -2  -2   74.31    3.34 
  -5  -2   2   72.98    3.29 
   5  -2  -2   74.65    3.40 
   5  -2  -2   77.69    3.35 
   5  -2  -2   79.06    3.31 
  -5  -2   2   79.36    3.35 
   5  -2  -2   78.03    3.24 
  -5  -2   2   77.70    3.36 
   5   2  -1   38.96    1.91 
  -5   2   1   41.57    1.98 
  -5   2   1   44.06    2.01 
   5   2  -1   40.05    1.95 
  -5   2   1   38.44    1.90 
   5   2  -1   41.59    1.86 
  -5   2   1   44.53    1.96 
  -5   2   1   35.43    1.96 
   5   2  -1   43.26    1.89 
   5   2  -1   36.03    1.97 
   5   2  -1   41.14    1.92 
  -5   2   1   41.52    1.88 
  -5  -2   1   41.22    1.90 
  -5  -2   1   44.19    1.99 
  -5  -2   1   38.94    1.85 
  -5  -2   1   41.86    1.84 
   5  -2  -1   41.28    1.86 
   5  -2  -1   39.43    1.89 
  -5  -2   1   37.75    1.88 
   5  -2  -1   39.73    1.97 
  -5  -2   1   42.87    1.97 
   5  -2  -1   41.05    1.94 
   5  -2  -1   41.06    1.91 
   5   2   0   61.72    2.97 
   5   2   0   65.24    2.89 
  -5   2   0   64.26    2.81 
  -5   2   0   61.83    2.97 
  -5   2   0   70.79    3.01 
   5   2   0   68.42    2.81 
   5   2   0   65.76    2.81 
  -5   2   0   64.94    2.90 
   5   2   0   65.01    2.90 
  -5   2   0   65.75    2.91 
  -5   2   0   68.54    2.90 
   5   2   0   59.68    2.98 
  -5  -2   0   62.28    2.78 
   5  -2   0   64.72    2.97 
  -5  -2   0   69.89    2.87 
  -5  -2   0   67.92    2.88 
   5  -2   0   67.91    3.08 
   5  -2   0   66.43    2.90 
   5  -2   0   62.45    2.87 
  -5  -2   0   67.53    2.97 
  -5  -2   0   65.73    2.88 
  -5  -2   0   67.65    3.01 
   5  -2   0   63.34    2.89 
   5  -2   0   63.60    2.84 
  -5   2  -1  178.17    7.21 
  -5   2  -1  186.30    7.34 
   5   2   1  166.39    7.52 
   5   2   1  174.24    7.30 
  -5   2  -1  175.54    7.42 
  -5   2  -1  175.00    7.34 
   5   2   1  162.84    7.38 
  -5   2  -1  186.81    7.44 
  -5   2  -1  175.81    7.34 
   5   2   1  183.79    7.34 
   5   2   1  176.70    7.25 
   5   2   1  179.16    7.20 
   5  -2   1  177.70    7.33 
  -5  -2  -1  174.57    7.30 
   5  -2   1  186.09    7.47 
   5  -2   1  172.78    7.33 
  -5  -2  -1  173.06    7.31 
  -5  -2  -1  180.90    7.50 
   5  -2   1  176.83    7.23 
  -5  -2  -1  178.99    7.26 
   5  -2   1  178.44    7.42 
  -5  -2  -1  182.57    7.39 
   5  -2   1  172.73    7.34 
  -5  -2  -1  173.28    7.19 
  -5   2  -2    7.83    0.82 
  -5   2  -2    7.92    0.54 
   5   2   2    7.47    0.79 
   5   2   2    8.59    0.52 
   5   2   2    8.19    1.10 
   5   2   2    7.99    0.78 
   5   2   2    8.29    0.88 
  -5   2  -2    8.27    0.78 
  -5   2  -2    7.61    0.73 
  -5   2  -2    7.89    0.75 
   5  -2   2    8.22    0.75 
  -5  -2  -2    7.82    0.74 
   5  -2   2    5.25    0.71 
   5  -2   2    7.36    0.80 
   5  -2   2    7.49    0.79 
   5  -2   2    8.13    0.56 
   5  -2   2    8.61    0.85 
  -5  -2  -2    6.82    1.00 
  -5  -2  -2    8.18    0.90 
  -5  -2  -2    8.42    0.66 
   5   2   3  478.52   19.31 
   5   2   3  494.85   19.46 
  -5   2  -3  475.10   19.33 
  -5   2  -3  489.48   19.67 
  -5   2  -3  459.14   19.56 
   5   2   3  461.41   19.58 
  -5   2  -3  502.95   19.55 
  -5   2  -3  467.64   19.55 
   5   2   3  491.22   19.49 
   5   2   3  430.87   19.76 
  -5   2  -3  487.32   19.51 
   5  -2   3  472.39   19.59 
   5  -2   3  507.24   19.60 
  -5  -2  -3  485.45   19.49 
  -5  -2  -3  475.06   19.44 
   5  -2   3  470.83   19.35 
  -5  -2  -3  472.66   19.30 
  -5  -2  -3  495.28   19.55 
  -5  -2  -3  489.04   19.48 
   5  -2   3  478.82   19.55 
   5  -2   3  517.08   19.58 
  -5   2  -4  183.27    7.61 
   5   2   4  182.71    7.72 
  -5   2  -4  178.62    7.66 
   5   2   4  184.10    7.59 
  -5   2  -4  191.00    7.89 
  -5   2  -4  180.04    7.41 
   5   2   4  188.14    7.55 
   5   2   4  155.48    7.87 
  -5   2  -4  191.81    7.71 
   5   2   4  178.21    7.41 
  -5   2  -4  175.69    7.68 
   5  -2   4  165.95    7.65 
   5  -2   4  188.69    7.66 
   5  -2   4  186.17    7.72 
  -5  -2  -4  196.44    7.67 
  -5  -2  -4  185.18    7.56 
  -5  -2  -4  183.37    7.61 
  -5  -2  -4  186.15    7.58 
   5  -2   4  184.90    7.68 
  -5  -2  -4  205.63    8.03 
   5  -2   4  178.15    7.69 
   5  -2   4  189.12    7.45 
  -5  -2  -4  178.55    7.37 
   5   2   5  191.66    7.77 
   5   2   5  178.03    8.12 
  -5   2  -5  182.01    7.63 
  -5   2  -5  192.71    7.84 
  -5   2  -5  192.09    8.00 
  -5   2  -5  208.12    8.15 
  -5   2  -5  181.60    7.90 
   5   2   5  178.27    7.96 
  -5   2  -5  170.22    7.91 
   5  -2   5  188.98    7.82 
  -5  -2  -5  193.36    7.89 
   5  -2   5  184.99    7.70 
  -5  -2  -5  183.11    7.81 
   5  -2   5  194.84    7.90 
   5  -2   5  200.53    7.96 
  -5  -2  -5  190.63    7.82 
  -5  -2  -5  186.15    7.85 
   5  -2   5  186.20    7.94 
   5  -2   5  186.71    7.92 
  -5  -2  -5  215.06    8.37 
  -5   2  -6    3.33    0.69 
  -5   2  -6    3.91    0.33 
  -5   2  -6    3.86    0.62 
  -5   2  -6    6.25    1.08 
   5   2   6    3.73    0.59 
  -5   2  -6    3.30    0.71 
   5   2   6    4.07    0.76 
   5   2   6    3.82    0.52 
   5   2   6    4.79    0.94 
  -5   2  -6    3.50    1.03 
   5  -2   6    3.46    0.75 
  -5  -2  -6    3.85    0.65 
   5  -2   6    4.30    0.39 
   5  -2   6    4.14    0.51 
   5  -2   6    4.22    0.77 
   5  -2   6    4.14    0.79 
  -5  -2  -6    5.14    1.50 
  -5  -2  -6    4.17    0.66 
   5  -2   6    4.11    0.67 
  -5  -2  -6    4.61    0.61 
  -5  -2  -6    3.80    0.61 
  -5   2  -7    5.07    0.67 
   5   2   7    6.57    1.01 
   5   2   7    5.85    0.98 
  -5   2  -7    6.04    0.50 
  -5   2  -7    4.75    0.81 
  -5   2  -7    5.21    0.80 
   5   2   7    5.57    0.67 
   5  -2   7    6.29    0.72 
   5  -2   7    6.27    0.55 
  -5  -2  -7    5.84    0.69 
   5  -2   7    5.95    0.47 
  -5  -2  -7    6.51    0.86 
   5  -2   7    5.52    1.03 
  -5  -2  -7    4.74    0.71 
   5  -2   7    5.24    0.80 
  -5  -2  -7    6.03    1.76 
  -5   2  -8    3.31    1.10 
  -5   2  -8    2.24    0.57 
  -5   2  -8    3.03    0.65 
   5   2   8    1.05    0.99 
   5   2   8    2.29    0.97 
  -5   2  -8    2.32    0.79 
  -5   2  -8    2.86    0.35 
   5   2   8    1.83    0.61 
  -5  -2  -8    2.04    0.73 
   5  -2   8    2.64    0.62 
   5  -2   8    1.94    0.78 
   5  -2   8    1.95    0.58 
  -5  -2  -8    2.69    0.95 
  -5  -2  -8    1.99    0.64 
  -5   2  -9  141.10    6.11 
  -5   2  -9  139.71    6.30 
   5   2   9  143.35    6.71 
   5   2   9  154.90    6.18 
  -5   2  -9  145.74    6.01 
  -5   2  -9  150.87    6.42 
  -5  -2  -9  146.25    6.27 
  -5  -2  -9  146.61    6.34 
   5  -2   9  155.98    6.08 
   5  -2   9  147.31    6.48 
   5  -2   9  144.60    6.09 
  -5   2 -10   54.90    3.15 
   5   2  10   56.05    3.19 
   5   2  10   58.14    3.61 
   5   2  10   57.32    2.67 
  -5   2 -10   52.21    2.86 
   5  -2  10   56.47    2.42 
  -5  -2 -10   55.92    3.01 
   5  -2  10   57.43    2.42 
  -5  -2 -10   56.73    2.89 
   5   2  11  114.64    5.53 
  -5   2 -11  101.89    4.88 
  -5   2 -11  112.95    5.31 
   5   2  11  117.84    5.23 
  -5  -2 -11  110.50    5.07 
  -5  -2 -11  111.34    5.21 
  -5   3  11    1.28    0.70 
   5   3 -11    0.48    0.91 
   5   3 -11    2.11    0.99 
   5   3 -11    1.62    2.17 
  -5   3  11    3.09    1.24 
   5  -3 -11    2.13    0.65 
   5  -3 -11    2.51    1.52 
  -5   3  10    0.19    1.07 
   5   3 -10    1.45    0.76 
  -5   3  10    0.19    0.91 
  -5   3  10    1.42    0.64 
   5   3 -10    2.70    1.83 
   5   3 -10    1.62    0.78 
   5  -3 -10    1.45    0.55 
   5  -3 -10    1.40    1.29 
  -5   3   9   66.25    2.98 
  -5   3   9   59.40    2.77 
   5   3  -9   64.88    2.56 
   5   3  -9   59.38    2.93 
  -5   3   9   58.14    3.17 
   5   3  -9   53.76    3.10 
   5   3  -9   60.18    2.80 
   5   3  -9   57.49    3.74 
   5  -3  -9   60.47    2.75 
   5  -3  -9   61.59    3.38 
   5  -3  -9   59.38    2.88 
   5  -3  -9   60.64    2.72 
   5   3  -8    9.85    0.70 
  -5   3   8   10.38    0.96 
   5   3  -8    8.50    0.86 
   5   3  -8   10.25    0.82 
  -5   3   8    9.23    0.97 
  -5   3   8    7.13    0.99 
   5  -3  -8    8.86    0.93 
   5  -3  -8   10.02    0.85 
   5  -3  -8   10.05    0.88 
  -5   3   7  362.49   14.97 
   5   3  -7  367.02   14.82 
  -5   3   7  390.41   15.05 
   5   3  -7  368.27   14.87 
  -5   3   7  391.33   14.90 
  -5   3   7  358.80   15.10 
   5   3  -7  356.80   14.94 
   5   3  -7  376.19   14.90 
   5   3  -7  377.26   15.02 
   5  -3  -7  370.69   15.22 
   5  -3  -7  363.63   14.94 
  -5  -3   7  329.92   14.86 
  -5  -3   7  373.89   14.82 
   5  -3  -7  360.22   14.94 
   5  -3  -7  379.29   14.98 
   5   3  -6   28.14    2.39 
  -5   3   6   32.75    2.57 
   5   3  -6   31.70    2.06 
  -5   3   6   26.51    1.74 
   5   3  -6   29.37    1.62 
  -5   3   6   30.50    1.48 
  -5   3   6   31.76    1.67 
   5   3  -6   30.82    1.46 
  -5   3   6   29.36    1.56 
   5   3  -6   31.51    1.49 
  -5  -3   6   30.95    1.43 
   5  -3  -6   27.89    1.51 
   5  -3  -6   31.07    1.57 
   5  -3  -6   31.29    2.03 
   5  -3  -6   31.48    1.65 
   5  -3  -6   30.71    1.85 
  -5  -3   6   32.37    1.63 
   5  -3  -6   29.95    1.51 
   5   3  -5   34.61    1.62 
   5   3  -5   35.03    1.75 
  -5   3   5   32.62    1.83 
   5   3  -5   35.27    1.57 
  -5   3   5   34.01    1.78 
  -5   3   5   32.11    1.71 
   5   3  -5   35.54    1.97 
   5   3  -5   34.31    2.03 
  -5   3   5   35.51    1.65 
  -5   3   5   31.62    2.25 
  -5  -3   5   34.04    1.71 
   5  -3  -5   34.55    1.67 
   5  -3  -5   33.39    1.67 
  -5  -3   5   37.24    1.60 
   5  -3  -5   35.10    1.90 
   5  -3  -5   36.80    1.79 
   5  -3  -5   37.68    2.07 
  -5  -3   5   34.15    1.49 
  -5  -3   5   34.77    1.64 
   5  -3  -5   33.63    1.71 
   5   3  -4    4.30    0.48 
  -5   3   4    7.58    0.92 
   5   3  -4    4.67    0.57 
   5   3  -4    5.42    0.58 
  -5   3   4    5.91    0.62 
  -5   3   4    5.15    0.56 
   5   3  -4    5.09    0.51 
   5   3  -4    6.50    0.74 
   5   3  -4    5.39    0.80 
  -5   3   4    4.86    0.61 
   5  -3  -4    5.74    0.56 
  -5  -3   4    6.23    0.47 
  -5  -3   4    6.24    0.66 
   5  -3  -4    5.56    0.61 
   5  -3  -4    6.41    0.63 
  -5  -3   4    6.68    0.69 
   5  -3  -4    6.45    0.83 
   5  -3  -4    4.59    0.49 
   5  -3  -4    5.74    0.69 
  -5  -3   4    6.29    0.68 
  -5  -3   4    6.10    0.56 
  -5  -3   4    6.47    0.64 
   5   3  -3   17.99    1.04 
  -5   3   3   18.21    1.16 
  -5   3   3   19.24    1.21 
   5   3  -3   17.88    1.19 
   5   3  -3   17.12    1.25 
   5   3  -3   17.87    1.06 
  -5   3   3   17.76    1.09 
   5   3  -3   19.74    0.99 
  -5   3   3   20.10    1.05 
  -5   3   3   17.75    1.23 
  -5   3   3   18.06    0.89 
   5   3  -3   17.66    1.12 
  -5  -3   3   16.92    1.09 
  -5  -3   3   18.59    0.84 
   5  -3  -3   18.01    1.27 
   5  -3  -3   18.33    1.26 
  -5  -3   3   19.43    1.10 
  -5  -3   3   17.31    1.05 
  -5  -3   3   17.96    0.95 
   5  -3  -3   18.06    1.06 
   5  -3  -3   17.89    1.13 
   5  -3  -3   17.10    1.11 
   5  -3  -3   17.19    1.05 
  -5  -3   3   17.94    1.13 
  -5  -3   3   17.91    1.19 
  -5   3   2   17.43    1.03 
  -5   3   2   19.26    1.06 
   5   3  -2   16.21    1.11 
   5   3  -2   18.75    0.88 
   5   3  -2   16.60    1.11 
   5   3  -2   17.29    1.03 
  -5   3   2   16.57    1.06 
   5   3  -2   19.60    1.06 
  -5   3   2   18.74    1.16 
  -5   3   2   17.98    1.15 
   5   3  -2   17.26    1.16 
  -5   3   2   15.85    1.11 
  -5  -3   2   17.69    1.03 
  -5  -3   2   18.28    0.84 
  -5  -3   2   16.61    1.03 
   5  -3  -2   17.39    0.87 
   5  -3  -2   19.66    1.22 
   5  -3  -2   17.88    1.03 
  -5  -3   2   18.05    1.17 
  -5  -3   2   16.73    1.07 
   5  -3  -2   18.28    1.20 
   5  -3  -2   17.55    1.09 
   5  -3  -2   17.57    1.05 
   5   3  -1  642.54   26.55 
  -5   3   1  693.54   26.75 
  -5   3   1  650.05   26.74 
   5   3  -1  657.53   26.68 
   5   3  -1  642.01   26.74 
   5   3  -1  615.38   26.72 
   5   3  -1  674.48   26.68 
  -5   3   1  661.76   26.71 
  -5   3   1  666.90   26.66 
  -5   3   1  704.96   26.65 
  -5   3   1  649.76   26.68 
   5   3  -1  676.29   26.67 
  -5  -3   1  637.90   26.63 
   5  -3  -1  665.10   26.71 
   5  -3  -1  657.20   26.73 
  -5  -3   1  686.48   26.68 
   5  -3  -1  659.39   26.60 
   5  -3  -1  665.77   26.69 
  -5  -3   1  679.36   26.74 
  -5  -3   1  616.59   26.58 
  -5  -3   1  688.02   26.73 
   5  -3  -1  659.75   26.75 
  -5  -3   1  639.25   26.67 
   5  -3  -1  688.12   26.70 
  -5   3   0    9.48    0.94 
  -5   3   0    6.18    0.71 
   5   3   0    8.55    0.81 
  -5   3   0    9.00    0.78 
  -5   3   0    9.19    0.79 
   5   3   0    7.96    0.79 
  -5   3   0    8.01    0.84 
   5   3   0    8.28    0.73 
  -5   3   0    9.62    0.75 
   5   3   0    6.54    0.74 
   5   3   0    9.09    0.93 
   5   3   0    9.18    0.59 
  -5  -3   0    8.95    0.66 
   5  -3   0    8.17    0.70 
  -5  -3   0   10.73    0.91 
  -5  -3   0    8.57    0.74 
  -5  -3   0    8.23    0.74 
  -5  -3   0    8.74    0.68 
   5  -3   0    7.57    0.85 
   5  -3   0    8.10    0.75 
   5  -3   0   10.03    0.97 
  -5  -3   0    8.49    0.87 
   5  -3   0    8.04    0.77 
   5  -3   0    9.04    0.86 
   5   3   1  157.96    6.53 
  -5   3  -1  155.39    6.43 
   5   3   1  158.82    6.43 
   5   3   1  162.99    6.51 
   5   3   1  148.72    6.57 
  -5   3  -1  162.80    6.52 
  -5   3  -1  157.49    6.63 
  -5   3  -1  143.91    6.63 
  -5   3  -1  152.38    6.52 
  -5   3  -1  160.38    6.54 
   5   3   1  148.32    6.68 
   5  -3   1  172.48    6.72 
  -5  -3  -1  157.11    6.51 
   5  -3   1  159.52    6.53 
   5  -3   1  147.35    6.56 
  -5  -3  -1  159.93    6.58 
  -5  -3  -1  161.55    6.43 
  -5  -3  -1  159.21    6.50 
  -5  -3  -1  159.93    6.66 
   5  -3   1  158.99    6.46 
  -5  -3  -1  154.54    6.41 
   5  -3   1  151.53    6.53 
   5  -3   1  150.85    6.50 
  -5   3  -2   21.51    1.44 
  -5   3  -2   20.93    1.23 
   5   3   2   19.73    1.29 
  -5   3  -2   20.49    1.22 
   5   3   2   21.17    1.24 
  -5   3  -2   22.09    1.31 
   5   3   2   19.05    1.73 
   5   3   2   21.67    1.06 
   5   3   2   14.64    1.64 
  -5   3  -2   19.06    1.11 
  -5   3  -2   20.35    1.44 
   5  -3   2   22.01    1.12 
  -5  -3  -2   19.17    1.20 
  -5  -3  -2   21.66    1.33 
   5  -3   2   21.01    1.30 
   5  -3   2   20.20    1.31 
   5  -3   2   19.81    1.24 
  -5  -3  -2   20.53    1.00 
  -5  -3  -2   23.57    1.68 
  -5  -3  -2   20.31    1.16 
  -5  -3  -2   22.05    1.10 
   5  -3   2   20.07    1.54 
   5  -3   2   21.11    1.09 
  -5   3  -3   24.30    1.39 
  -5   3  -3   27.78    1.55 
   5   3   3   23.98    1.39 
  -5   3  -3   23.92    1.41 
  -5   3  -3   23.23    1.62 
   5   3   3   25.48    1.20 
   5   3   3   25.18    1.38 
   5   3   3   23.73    1.47 
  -5   3  -3   25.63    1.20 
   5   3   3   25.82    2.07 
  -5   3  -3   23.52    1.62 
   5  -3   3   23.10    1.44 
  -5  -3  -3   22.99    1.51 
   5  -3   3   26.71    1.65 
  -5  -3  -3   25.19    1.96 
  -5  -3  -3   24.96    1.51 
  -5  -3  -3   25.24    1.35 
  -5  -3  -3   25.59    1.14 
   5  -3   3   24.96    1.61 
  -5  -3  -3   24.91    1.28 
   5  -3   3   26.23    1.27 
   5  -3   3   22.45    1.44 
   5  -3   3   26.32    1.24 
  -5   3  -4    4.40    0.74 
  -5   3  -4    4.70    0.81 
   5   3   4    3.59    0.53 
   5   3   4    2.74    0.58 
   5   3   4    4.13    1.04 
   5   3   4    5.23    0.47 
  -5   3  -4    4.35    0.59 
  -5   3  -4    4.34    0.59 
   5   3   4    4.42    0.62 
  -5   3  -4    5.02    0.42 
  -5   3  -4    3.32    0.80 
   5  -3   4    2.84    0.55 
   5  -3   4    4.26    0.80 
  -5  -3  -4    4.34    1.14 
  -5  -3  -4    3.82    0.51 
  -5  -3  -4    4.49    0.43 
   5  -3   4    4.98    0.48 
  -5  -3  -4    5.96    0.65 
  -5  -3  -4    4.84    0.67 
   5  -3   4    4.98    0.73 
   5  -3   4    5.05    0.89 
   5  -3   4    3.76    0.63 
   5  -3   4    4.03    0.44 
  -5  -3  -4    4.95    0.54 
  -5   3  -5  225.07    9.23 
   5   3   5  223.38    9.20 
   5   3   5  225.22    9.15 
  -5   3  -5  223.98    9.57 
   5   3   5  214.96    9.36 
  -5   3  -5  216.02    9.28 
   5   3   5  189.42    9.56 
  -5   3  -5  224.59    9.09 
  -5   3  -5  224.12    9.40 
   5   3   5  230.44    9.27 
  -5   3  -5  223.22    9.37 
   5  -3   5  220.34    9.26 
  -5  -3  -5  241.03    9.34 
  -5  -3  -5  213.75    9.06 
   5  -3   5  234.32    9.13 
  -5  -3  -5  247.53    9.73 
  -5  -3  -5  222.54    9.24 
   5  -3   5  219.71    9.34 
   5  -3   5  229.07    9.32 
  -5  -3  -5  223.14    9.31 
   5  -3   5  225.86    9.16 
   5  -3   5  226.24    9.32 
  -5  -3  -5  226.42    9.23 
  -5  -3  -5  223.64    9.27 
   5  -3   5  234.77    9.38 
   5   3   6   19.14    1.61 
  -5   3  -6   20.53    1.29 
  -5   3  -6   25.50    1.45 
  -5   3  -6   20.32    1.57 
  -5   3  -6   23.46    2.25 
   5   3   6   24.05    1.28 
   5   3   6   21.67    2.01 
   5   3   6   18.60    1.29 
  -5  -3  -6   19.13    1.65 
  -5  -3  -6   21.03    1.62 
  -5  -3  -6   19.25    1.96 
   5  -3   6   21.96    1.54 
  -5  -3  -6   20.01    1.32 
   5  -3   6   21.30    1.71 
   5  -3   6   19.68    1.33 
  -5  -3  -6   20.08    1.42 
   5  -3   6   20.82    1.06 
  -5  -3  -6   21.07    1.34 
  -5  -3  -6   21.13    0.95 
   5  -3   6   18.94    1.29 
   5  -3   6   18.67    1.32 
   5  -3   6   20.36    1.60 
  -5   3  -7  168.55    7.19 
  -5   3  -7  164.71    6.88 
   5   3   7  172.08    7.05 
   5   3   7  167.90    7.32 
  -5   3  -7  164.19    7.06 
   5   3   7  162.46    7.24 
  -5   3  -7  164.25    6.98 
   5  -3   7  175.62    7.02 
   5  -3   7  170.96    6.79 
   5  -3   7  171.84    7.16 
   5  -3   7  165.13    6.98 
  -5  -3  -7  171.60    7.12 
   5  -3   7  156.13    7.86 
  -5  -3  -7  165.68    7.07 
  -5  -3  -7  180.81    7.83 
  -5   3  -8    2.72    0.94 
   5   3   8    2.63    1.04 
  -5   3  -8    1.81    0.50 
   5   3   8    3.70    1.04 
  -5   3  -8    1.37    0.65 
  -5   3  -8    1.97    0.66 
   5   3   8    1.25    0.63 
   5  -3   8    2.24    0.77 
  -5  -3  -8    2.28    0.70 
   5  -3   8    1.41    0.50 
  -5  -3  -8    2.10    0.25 
   5  -3   8    2.01    0.94 
  -5  -3  -8    1.93    0.65 
  -5  -3  -8    2.18    0.33 
  -5  -3  -8    2.52    0.93 
  -5   3  -9   54.82    2.84 
  -5   3  -9   59.54    3.23 
  -5   3  -9   62.50    2.94 
   5   3   9   59.20    3.39 
  -5   3  -9   58.68    2.78 
   5   3   9   60.72    2.87 
   5  -3   9   59.74    2.61 
  -5  -3  -9   59.52    3.03 
  -5  -3  -9   59.54    2.92 
   5  -3   9   60.69    2.70 
  -5   3 -10    0.79    1.23 
  -5   3 -10    0.86    0.77 
   5   3  10    1.20    1.12 
   5   3  10    0.89    1.39 
   5  -3  10    0.90    0.35 
  -5  -3 -10    0.49    0.86 
  -5  -3 -10    2.02    1.02 
   5   4 -10   61.16    2.54 
  -5   4  10   57.20    3.46 
   5   4 -10   60.68    3.07 
   5   4 -10   62.57    3.75 
  -5   4  10   55.86    2.91 
   5  -4 -10   59.08    2.84 
   5  -4 -10   66.15    3.55 
   5   4  -9   44.15    2.22 
  -5   4   9   43.61    2.29 
  -5   4   9   46.41    2.51 
  -5   4   9   39.73    2.72 
   5   4  -9   44.51    1.97 
   5   4  -9   44.44    2.41 
   5  -4  -9   44.67    2.85 
   5  -4  -9   45.62    2.22 
  -5   4   8   35.23    1.99 
   5   4  -8   32.39    1.75 
  -5   4   8   28.60    1.78 
   5   4  -8   30.93    1.87 
  -5   4   8   29.50    2.15 
   5   4  -8   31.88    1.50 
   5   4  -8   28.67    1.61 
   5  -4  -8   30.66    1.70 
   5  -4  -8   31.00    2.27 
   5  -4  -8   33.01    1.76 
   5  -4  -8   33.31    1.93 
   5   4  -7    0.61    0.36 
   5   4  -7   -0.17    0.53 
   5   4  -7    0.87    0.41 
  -5   4   7    1.55    0.68 
  -5   4   7    0.71    0.55 
  -5   4   7    0.52    0.76 
   5   4  -7    0.12    0.44 
  -5   4   7    0.94    0.49 
   5   4  -7    1.77    0.99 
   5  -4  -7    0.83    0.45 
   5  -4  -7   -0.10    0.44 
  -5  -4   7    0.69    0.36 
  -5  -4   7    1.39    0.60 
   5  -4  -7    0.35    0.57 
  -5   4   6  100.87    4.48 
   5   4  -6  108.83    4.48 
   5   4  -6  104.99    4.35 
  -5   4   6  103.68    4.60 
  -5   4   6  110.74    4.42 
   5   4  -6  100.27    4.51 
  -5   4   6  106.04    4.55 
   5   4  -6  106.43    4.27 
   5   4  -6   97.63    5.18 
  -5  -4   6   96.04    4.40 
  -5  -4   6  106.32    4.35 
   5  -4  -6  104.99    4.44 
   5  -4  -6   99.40    4.42 
   5  -4  -6  102.02    4.50 
   5  -4  -6  102.91    4.68 
   5  -4  -6  106.22    4.48 
  -5   4   5  105.29    4.24 
  -5   4   5   96.59    4.57 
   5   4  -5  102.53    4.21 
   5   4  -5  100.17    4.33 
   5   4  -5   98.08    4.36 
  -5   4   5   97.77    4.30 
  -5   4   5   97.97    4.38 
  -5   4   5  104.82    4.36 
   5   4  -5  101.08    4.49 
  -5  -4   5   96.82    4.22 
  -5  -4   5   99.43    4.10 
   5  -4  -5   90.72    4.38 
   5  -4  -5   96.31    4.28 
  -5  -4   5  109.88    4.25 
  -5  -4   5   95.50    4.35 
   5  -4  -5   95.61    4.25 
   5  -4  -5  103.89    4.32 
  -5  -4   5  100.28    4.21 
   5  -4  -5   96.63    4.25 
   5  -4  -5   98.73    4.47 
  -5   4   4  153.95    6.39 
   5   4  -4  155.46    6.27 
   5   4  -4  145.94    6.42 
   5   4  -4  143.49    6.34 
  -5   4   4  148.25    6.45 
   5   4  -4  149.08    6.36 
  -5   4   4  143.14    6.37 
  -5   4   4  150.07    6.34 
  -5   4   4  155.06    6.29 
   5   4  -4  153.27    6.26 
   5  -4  -4  154.88    6.40 
   5  -4  -4  152.46    6.33 
  -5  -4   4  153.72    6.30 
  -5  -4   4  145.51    6.26 
  -5  -4   4  152.85    6.28 
   5  -4  -4  154.31    6.31 
  -5  -4   4  155.26    6.40 
   5  -4  -4  149.33    6.44 
  -5  -4   4  147.58    6.35 
  -5  -4   4  151.74    6.19 
   5  -4  -4  158.73    6.30 
   5  -4  -4  146.92    6.33 
  -5   4   3  246.39    9.79 
   5   4  -3  245.43    9.96 
  -5   4   3  260.18   10.08 
   5   4  -3  241.38    9.97 
   5   4  -3  253.22   10.06 
  -5   4   3  246.37    9.98 
   5   4  -3  236.11   10.03 
  -5   4   3  229.03   10.03 
  -5   4   3  240.20   10.04 
  -5   4   3  237.94   10.02 
  -5   4   3  241.43    9.85 
   5   4  -3  237.42   10.03 
  -5  -4   3  250.16    9.98 
  -5  -4   3  240.16   10.00 
   5  -4  -3  255.20   10.07 
   5  -4  -3  241.15    9.98 
  -5  -4   3  231.44    9.96 
  -5  -4   3  236.19    9.91 
   5  -4  -3  249.38   10.00 
   5  -4  -3  234.68   10.05 
   5  -4  -3  249.59   10.01 
  -5  -4   3  246.03    9.99 
  -5  -4   3  251.36   10.06 
   5  -4  -3  245.61   10.09 
  -5   4   2  168.79    7.63 
  -5   4   2  183.55    7.62 
   5   4  -2  182.09    7.57 
   5   4  -2  183.16    7.65 
  -5   4   2  187.21    7.59 
   5   4  -2  190.08    7.63 
  -5   4   2  175.53    7.62 
  -5   4   2  191.23    7.50 
  -5   4   2  190.56    7.67 
   5   4  -2  184.67    7.59 
   5   4  -2  174.74    7.63 
   5  -4  -2  181.32    7.67 
   5  -4  -2  176.52    7.57 
  -5  -4   2  188.93    7.62 
  -5  -4   2  181.22    7.57 
  -5  -4   2  182.62    7.65 
   5  -4  -2  177.98    7.63 
  -5  -4   2  186.88    7.58 
   5  -4  -2  186.80    7.60 
   5  -4  -2  184.89    7.67 
  -5  -4   2  183.16    7.54 
   5  -4  -2  195.50    7.63 
  -5   4   1    9.65    0.77 
  -5   4   1    8.77    0.81 
   5   4  -1    8.92    0.87 
   5   4  -1    9.52    0.80 
   5   4  -1    8.38    0.91 
   5   4  -1    8.39    0.86 
  -5   4   1    8.85    0.94 
  -5   4   1    8.45    0.83 
  -5   4   1    9.41    1.01 
  -5   4   1    9.48    0.96 
   5   4  -1    9.58    1.00 
  -5  -4   1    8.68    0.48 
  -5  -4   1    9.11    0.91 
   5  -4  -1   10.08    0.91 
   5  -4  -1    7.73    0.85 
   5  -4  -1    9.27    0.89 
  -5  -4   1    9.43    0.80 
  -5  -4   1    8.16    0.80 
  -5  -4   1    8.82    0.80 
   5  -4  -1    9.41    0.82 
  -5  -4   1    7.06    0.76 
   5  -4  -1    8.14    0.87 
  -5  -4   1    9.12    0.57 
  -5  -4   1    8.26    0.78 
   5  -4  -1    9.16    0.91 
  -5   4   0   63.22    2.66 
  -5   4   0   59.01    2.69 
  -5   4   0   57.89    2.80 
   5   4   0   57.70    2.83 
   5   4   0   58.58    2.70 
   5   4   0   60.20    2.71 
  -5   4   0   57.56    2.71 
   5   4   0   60.98    2.79 
  -5   4   0   57.66    2.65 
   5   4   0   63.43    2.68 
  -5  -4   0   57.34    2.66 
   5  -4   0   60.27    2.69 
  -5  -4   0   61.06    2.82 
   5  -4   0   58.93    2.66 
  -5  -4   0   59.60    2.60 
  -5  -4   0   60.17    2.76 
   5  -4   0   61.41    2.71 
   5  -4   0   59.43    2.98 
   5  -4   0   58.56    2.74 
  -5  -4   0   55.03    2.60 
  -5  -4   0   62.04    2.52 
   5  -4   0   61.96    2.72 
  -5  -4   0   57.88    2.65 
   5   4   1   31.03    1.75 
   5   4   1   31.60    1.90 
   5   4   1   34.49    1.70 
  -5   4  -1   29.65    1.69 
  -5   4  -1   30.29    1.58 
  -5   4  -1   34.97    1.81 
   5   4   1   31.20    1.67 
  -5   4  -1   28.88    1.83 
  -5   4  -1   32.52    1.66 
  -5   4  -1   33.09    1.67 
   5   4   1   32.74    1.61 
   5  -4   1   32.71    1.71 
  -5  -4  -1   30.85    1.51 
  -5  -4  -1   32.06    1.49 
  -5  -4  -1   33.68    1.52 
  -5  -4  -1   31.38    1.62 
   5  -4   1   33.48    1.60 
  -5  -4  -1   31.64    1.63 
  -5  -4  -1   33.17    1.90 
   5  -4   1   31.25    1.69 
   5  -4   1   30.84    1.60 
   5  -4   1   33.20    1.61 
  -5  -4  -1   33.39    1.78 
   5  -4   1   33.09    1.68 
   5  -4   1   36.87    2.13 
   5   4   2   82.53    3.52 
  -5   4  -2   83.98    3.63 
   5   4   2   83.90    3.65 
  -5   4  -2   85.61    3.66 
  -5   4  -2   82.08    3.61 
   5   4   2   78.68    3.96 
   5   4   2   80.74    3.70 
  -5   4  -2   82.89    3.73 
  -5   4  -2   80.96    3.50 
   5   4   2   84.77    3.61 
  -5   4  -2   75.53    3.77 
   5  -4   2   83.55    3.61 
  -5  -4  -2   87.14    3.59 
  -5  -4  -2   81.20    3.48 
   5  -4   2   79.14    3.65 
   5  -4   2   87.08    3.86 
   5  -4   2   81.38    3.61 
  -5  -4  -2   84.77    3.53 
  -5  -4  -2   80.37    3.60 
   5  -4   2   82.50    3.55 
  -5  -4  -2   82.87    3.49 
   5  -4   2   81.73    3.53 
  -5  -4  -2   85.47    3.83 
   5  -4   2   79.53    3.64 
  -5   4  -3  216.16    8.82 
  -5   4  -3  223.51    9.01 
  -5   4  -3  210.56    8.93 
  -5   4  -3  224.30    9.11 
   5   4   3  221.98    8.92 
   5   4   3  218.82    8.97 
   5   4   3  204.74    9.02 
  -5   4  -3  213.87    8.93 
   5   4   3  197.23    9.34 
   5   4   3  218.80    8.84 
  -5   4  -3  227.21    9.07 
  -5  -4  -3  213.07    8.93 
  -5  -4  -3  224.05    9.01 
  -5  -4  -3  213.73    8.84 
  -5  -4  -3  211.61    8.78 
  -5  -4  -3  222.76    8.90 
   5  -4   3  214.06    8.96 
   5  -4   3  215.71    8.86 
   5  -4   3  221.34    8.95 
   5  -4   3  212.00    8.97 
   5  -4   3  215.61    9.06 
  -5  -4  -3  216.91    9.13 
   5  -4   3  222.20    8.86 
   5  -4   3  212.00    8.99 
  -5  -4  -3  215.01    8.91 
  -5   4  -4  232.77    9.54 
  -5   4  -4  240.57    9.68 
  -5   4  -4  230.31    9.71 
  -5   4  -4  223.50    9.55 
  -5   4  -4  239.79    9.72 
   5   4   4  231.92    9.58 
   5   4   4  240.24    9.47 
   5   4   4  221.77    9.65 
   5   4   4  230.26   10.02 
  -5   4  -4  231.86    9.43 
   5   4   4  233.46    9.53 
   5  -4   4  229.83    9.48 
  -5  -4  -4  231.93    9.57 
  -5  -4  -4  230.53    9.55 
   5  -4   4  229.27    9.68 
  -5  -4  -4  230.71    9.80 
  -5  -4  -4  246.28    9.64 
  -5  -4  -4  235.29    9.54 
   5  -4   4  220.52    9.60 
   5  -4   4  235.73    9.64 
   5  -4   4  232.78    9.57 
  -5  -4  -4  224.29    9.38 
   5  -4   4  234.86    9.45 
  -5  -4  -4  228.98    9.49 
   5  -4   4  223.14    9.55 
  -5   4  -5   69.33    3.48 
  -5   4  -5   70.13    3.39 
  -5   4  -5   67.12    3.07 
  -5   4  -5   67.82    3.10 
   5   4   5   68.96    3.26 
   5   4   5   59.86    3.69 
  -5   4  -5   69.31    3.42 
  -5   4  -5   69.09    2.96 
   5   4   5   71.04    3.11 
   5   4   5   70.80    3.16 
  -5  -4  -5   70.59    3.27 
   5  -4   5   70.49    3.38 
  -5  -4  -5   69.27    3.76 
  -5  -4  -5   68.04    3.09 
  -5  -4  -5   69.93    3.22 
  -5  -4  -5   69.57    3.13 
  -5  -4  -5   68.14    2.88 
   5  -4   5   61.44    3.20 
   5  -4   5   69.28    3.24 
   5  -4   5   69.36    2.94 
   5  -4   5   64.69    3.07 
  -5  -4  -5   66.18    3.05 
   5  -4   5   71.96    3.19 
   5  -4   5   70.23    3.07 
  -5   4  -6    4.96    0.97 
   5   4   6    3.49    0.74 
  -5   4  -6    4.33    0.64 
  -5   4  -6    3.31    0.66 
   5   4   6    3.93    1.23 
  -5   4  -6    4.05    0.56 
  -5  -4  -6    4.44    0.62 
  -5  -4  -6    4.94    0.69 
   5  -4   6    4.99    0.75 
  -5  -4  -6    3.86    0.71 
  -5  -4  -6    4.61    0.98 
  -5  -4  -6    4.97    0.43 
  -5  -4  -6    3.84    1.52 
   5  -4   6    4.35    0.95 
  -5  -4  -6    5.26    0.76 
   5  -4   6    3.75    0.84 
   5  -4   6    5.31    0.49 
   5  -4   6    3.70    0.60 
   5   4   7   10.25    1.15 
   5   4   7   12.40    1.15 
   5   4   7   10.69    1.41 
   5   4   7   11.29    1.22 
  -5   4  -7   10.53    0.81 
  -5   4  -7   10.25    1.10 
  -5   4  -7    9.49    1.18 
   5  -4   7   10.19    0.98 
   5  -4   7    9.10    1.03 
   5  -4   7   10.70    0.71 
  -5  -4  -7   10.95    1.00 
  -5  -4  -7    9.31    0.92 
   5  -4   7   11.71    1.25 
  -5  -4  -7   10.07    1.01 
  -5  -4  -7    9.68    0.92 
  -5  -4  -7    9.99    0.70 
  -5  -4  -7    7.75    1.87 
  -5   4  -8   15.99    1.48 
  -5   4  -8   16.67    1.36 
   5   4   8   15.88    1.49 
  -5   4  -8   15.23    1.31 
   5   4   8   19.84    1.90 
   5   4   8   19.57    2.09 
  -5   4  -8   16.89    1.50 
  -5  -4  -8   17.35    1.48 
   5  -4   8   17.68    1.76 
   5  -4   8   16.77    1.75 
   5  -4   8   15.61    1.13 
  -5  -4  -8   17.60    0.92 
  -5  -4  -8   16.22    1.53 
  -5   4  -9   46.94    2.42 
  -5   4  -9   52.95    3.04 
   5   4   9   48.73    3.03 
   5   4   9   48.70    3.13 
   5  -4   9   48.56    2.22 
  -5  -4  -9   48.44    2.71 
  -5  -4  -9   50.11    2.62 
   5  -4   9   50.14    2.50 
  -5   4 -10   90.79    4.62 
   5   4  10   95.38    4.49 
  -5   4 -10   85.94    4.00 
   5   4  10   86.89    4.71 
  -5  -4 -10   93.89    4.39 
  -5  -4 -10   91.95    4.25 
   5   5 -10    8.67    0.92 
   5   5 -10    7.13    1.23 
  -5   5  10    7.95    1.65 
  -5   5  10    5.61    1.08 
   5  -5 -10    7.27    0.96 
   5  -5 -10    5.30    1.49 
  -5   5   9    3.00    1.29 
   5   5  -9    4.21    0.57 
  -5   5   9    3.98    0.93 
   5   5  -9    4.71    1.00 
   5  -5  -9    5.76    0.81 
   5  -5  -9    4.04    1.27 
   5   5  -8  135.49    5.91 
  -5   5   8  132.74    5.87 
  -5   5   8  132.56    6.06 
   5   5  -8  126.40    6.01 
  -5   5   8  147.72    6.21 
   5   5  -8  138.36    5.64 
   5  -5  -8  136.57    6.07 
   5  -5  -8  135.63    5.78 
  -5  -5   8  141.74    5.57 
  -5  -5   8  130.33    5.66 
   5   5  -7    0.69    0.66 
  -5   5   7    0.90    0.63 
  -5   5   7    0.49    0.80 
   5   5  -7    0.98    0.45 
  -5   5   7    1.28    0.90 
   5   5  -7    0.30    1.10 
  -5   5   7    0.85    0.70 
  -5  -5   7    0.37    0.55 
   5  -5  -7   -0.01    0.76 
   5  -5  -7   -0.09    0.54 
   5  -5  -7    1.06    0.71 
   5  -5  -7    0.34    1.00 
  -5  -5   7    0.83    0.49 
  -5   5   6  185.91    8.22 
  -5   5   6  197.02    8.28 
   5   5  -6  198.04    8.23 
   5   5  -6  203.35    8.06 
  -5   5   6  204.67    8.26 
  -5   5   6  203.65    8.13 
   5  -5  -6  188.85    8.16 
  -5  -5   6  204.05    8.07 
   5  -5  -6  189.50    8.18 
   5  -5  -6  201.63    8.34 
  -5  -5   6  184.14    8.08 
   5  -5  -6  199.69    8.17 
  -5  -5   6  188.53    8.26 
   5   5  -5   15.37    1.01 
   5   5  -5   12.81    1.25 
  -5   5   5   11.84    1.32 
  -5   5   5   14.25    1.25 
   5   5  -5   14.46    1.33 
  -5   5   5   13.97    1.12 
  -5   5   5   15.08    1.36 
   5  -5  -5   14.00    1.13 
   5  -5  -5   15.32    1.35 
   5  -5  -5   14.67    1.18 
   5  -5  -5   15.60    1.23 
  -5  -5   5   10.57    1.18 
  -5  -5   5   14.54    1.35 
  -5  -5   5   14.26    1.08 
  -5  -5   5   16.94    1.27 
   5  -5  -5   14.41    1.27 
   5   5  -4    8.00    0.84 
  -5   5   4    9.45    0.95 
  -5   5   4    5.78    1.07 
  -5   5   4    7.93    0.83 
   5   5  -4    7.39    0.67 
  -5   5   4    7.78    0.86 
   5   5  -4    8.01    1.21 
   5   5  -4    7.41    0.81 
  -5   5   4    9.97    0.94 
   5   5  -4    7.32    0.73 
  -5  -5   4    7.66    0.73 
  -5  -5   4    9.47    0.89 
   5  -5  -4    7.22    0.79 
   5  -5  -4    7.01    0.76 
   5  -5  -4    9.92    1.04 
  -5  -5   4    8.78    0.86 
   5  -5  -4    7.81    1.03 
  -5  -5   4    7.10    0.77 
   5  -5  -4    8.74    0.94 
  -5  -5   4    6.61    0.63 
   5  -5  -4    7.50    0.92 
   5   5  -3    3.74    0.51 
  -5   5   3    5.93    0.77 
  -5   5   3    6.89    0.77 
   5   5  -3    5.05    0.72 
  -5   5   3    7.07    0.86 
  -5   5   3    4.80    0.64 
   5   5  -3    6.74    0.79 
  -5   5   3    6.36    0.50 
  -5   5   3    4.83    0.84 
  -5   5   3    6.89    0.63 
   5   5  -3    6.31    0.74 
   5   5  -3    5.60    0.85 
  -5  -5   3    5.83    0.64 
   5  -5  -3    5.12    0.76 
  -5  -5   3    5.00    0.93 
   5  -5  -3    4.91    0.69 
   5  -5  -3    5.58    0.66 
   5  -5  -3    6.17    0.77 
  -5  -5   3    5.28    0.69 
  -5  -5   3    5.42    0.68 
  -5  -5   3    4.52    0.57 
   5  -5  -3    5.88    0.89 
  -5  -5   3    5.41    0.61 
   5  -5  -3    5.75    0.72 
  -5   5   2  197.43    7.92 
  -5   5   2  198.33    8.08 
  -5   5   2  194.47    8.13 
  -5   5   2  202.71    7.96 
  -5   5   2  183.99    8.10 
  -5   5   2  202.73    8.18 
   5   5  -2  194.09    8.05 
  -5   5   2  188.50    8.12 
   5   5  -2  199.12    8.13 
   5   5  -2  187.84    8.12 
   5   5  -2  188.90    8.14 
  -5  -5   2  193.63    8.05 
   5  -5  -2  201.24    8.19 
   5  -5  -2  184.76    8.12 
  -5  -5   2  197.36    8.17 
  -5  -5   2  194.03    8.06 
   5  -5  -2  189.78    8.11 
   5  -5  -2  208.42    8.12 
   5  -5  -2  191.44    8.06 
  -5  -5   2  195.38    8.03 
   5  -5  -2  188.61    8.12 
  -5  -5   2  201.21    8.11 
   5   5  -1    2.71    0.65 
  -5   5   1    2.59    0.63 
  -5   5   1    2.81    0.62 
   5   5  -1    2.57    0.52 
  -5   5   1    3.14    0.57 
  -5   5   1    3.64    0.69 
  -5   5   1    2.54    0.68 
  -5   5   1    2.85    0.57 
   5   5  -1    2.45    0.55 
  -5   5   1    3.22    0.43 
   5   5  -1    1.54    0.68 
   5   5  -1    3.02    0.71 
  -5  -5   1    3.74    0.66 
  -5  -5   1    4.26    0.59 
   5  -5  -1    2.14    0.63 
  -5  -5   1    3.00    0.47 
  -5  -5   1    3.08    0.51 
  -5  -5   1    3.14    0.53 
   5  -5  -1    2.85    0.55 
  -5  -5   1    3.45    0.83 
   5  -5  -1    1.40    0.46 
   5  -5  -1    2.53    0.52 
   5  -5  -1    2.75    0.87 
   5   5   0  394.37   15.90 
   5   5   0  417.64   15.96 
  -5   5   0  389.75   15.95 
  -5   5   0  408.23   15.86 
   5   5   0  408.62   15.91 
   5   5   0  381.28   16.01 
  -5   5   0  412.69   16.00 
   5   5   0  378.77   15.97 
  -5   5   0  384.31   15.91 
  -5   5   0  384.32   15.95 
  -5   5   0  375.82   15.87 
   5  -5   0  382.10   15.87 
  -5  -5   0  398.90   15.71 
  -5  -5   0  376.70   15.84 
  -5  -5   0  388.41   15.90 
  -5  -5   0  393.76   15.89 
  -5  -5   0  375.31   15.73 
   5  -5   0  390.35   16.09 
   5  -5   0  381.22   15.91 
  -5  -5   0  374.40   15.88 
  -5  -5   0  382.30   15.96 
   5  -5   0  376.46   15.91 
   5  -5   0  398.31   15.97 
   5  -5   0  410.00   15.93 
  -5  -5   0  409.08   15.97 
   5   5   1   38.95    1.98 
  -5   5  -1   40.52    1.98 
  -5   5  -1   38.42    2.10 
   5   5   1   38.22    2.04 
  -5   5  -1   39.15    2.01 
  -5   5  -1   38.48    1.98 
   5   5   1   40.89    2.06 
   5   5   1   35.21    2.05 
  -5   5  -1   39.93    2.14 
  -5   5  -1   34.55    1.93 
   5   5   1   38.66    2.24 
  -5  -5  -1   38.21    1.92 
  -5  -5  -1   41.40    1.96 
   5  -5   1   38.71    2.06 
   5  -5   1   38.90    1.95 
  -5  -5  -1   39.63    1.75 
   5  -5   1   46.31    2.51 
   5  -5   1   37.11    1.97 
  -5  -5  -1   41.30    1.76 
  -5  -5  -1   37.82    2.17 
  -5  -5  -1   38.29    1.98 
  -5  -5  -1   37.05    1.82 
   5  -5   1   40.19    1.98 
   5  -5   1   34.55    1.89 
  -5  -5  -1   40.55    2.08 
   5   5   2  148.61    5.96 
  -5   5  -2  140.69    5.91 
   5   5   2  140.31    5.98 
  -5   5  -2  140.92    5.99 
  -5   5  -2  135.16    5.80 
   5   5   2  136.01    5.87 
   5   5   2  141.04    5.83 
  -5   5  -2  140.21    6.02 
   5   5   2  136.09    6.16 
  -5   5  -2  136.96    5.87 
  -5   5  -2  142.79    5.90 
  -5  -5  -2  136.18    5.75 
  -5  -5  -2  134.57    5.87 
   5  -5   2  137.42    5.84 
  -5  -5  -2  135.67    5.87 
   5  -5   2  139.68    5.88 
  -5  -5  -2  138.70    6.01 
   5  -5   2  139.20    6.11 
  -5  -5  -2  143.93    5.97 
   5  -5   2  134.31    5.92 
  -5  -5  -2  138.63    5.73 
  -5  -5  -2  143.01    5.87 
   5  -5   2  130.84    5.90 
   5  -5   2  138.35    5.80 
  -5  -5  -2  142.49    5.76 
   5   5   3    3.63    0.66 
  -5   5  -3    5.00    0.67 
   5   5   3    4.20    1.20 
   5   5   3    3.53    0.72 
  -5   5  -3    5.33    0.69 
  -5   5  -3    2.96    0.87 
  -5   5  -3    3.04    0.83 
  -5   5  -3    3.33    0.55 
  -5   5  -3    4.14    0.87 
   5   5   3    2.70    0.67 
   5  -5   3    4.03    0.52 
   5  -5   3    4.27    0.92 
  -5  -5  -3    3.26    0.61 
  -5  -5  -3    3.33    0.49 
  -5  -5  -3    5.18    0.86 
   5  -5   3    4.05    0.85 
  -5  -5  -3    3.63    0.61 
  -5  -5  -3    4.48    0.70 
  -5  -5  -3    3.57    0.99 
   5  -5   3    3.94    0.64 
   5  -5   3    3.03    0.61 
   5  -5   3    3.52    0.61 
  -5  -5  -3    4.24    0.47 
  -5  -5  -3    3.40    0.58 
  -5   5  -4   35.20    1.86 
   5   5   4   34.51    2.83 
  -5   5  -4   38.80    2.33 
   5   5   4   35.54    1.90 
  -5   5  -4   35.30    1.88 
   5   5   4   31.56    1.98 
  -5   5  -4   37.20    2.29 
  -5   5  -4   36.11    1.81 
   5   5   4   36.52    2.09 
  -5  -5  -4   35.80    1.94 
  -5  -5  -4   31.65    2.39 
   5  -5   4   32.68    1.84 
   5  -5   4   37.06    1.92 
  -5  -5  -4   34.29    1.93 
  -5  -5  -4   30.31    1.91 
   5  -5   4   43.38    2.72 
  -5  -5  -4   35.81    1.75 
  -5  -5  -4   36.79    1.88 
   5  -5   4   37.03    2.13 
  -5  -5  -4   37.70    2.17 
  -5  -5  -4   33.87    1.76 
   5  -5   4   34.98    1.86 
   5  -5   4   36.24    1.73 
  -5   5  -5    1.18    0.64 
   5   5   5    0.94    0.69 
  -5   5  -5    1.61    0.61 
  -5   5  -5    1.27    0.93 
   5   5   5    0.46    1.33 
  -5   5  -5    0.66    0.58 
   5   5   5    0.90    0.71 
   5   5   5    1.05    0.80 
  -5  -5  -5    0.09    1.14 
   5  -5   5    1.17    0.55 
  -5  -5  -5    0.94    0.69 
  -5  -5  -5    0.68    0.63 
   5  -5   5    1.04    0.80 
  -5  -5  -5    0.71    0.81 
  -5  -5  -5    1.27    0.55 
   5  -5   5    1.38    0.67 
   5  -5   5    0.50    0.47 
  -5  -5  -5    1.27    0.40 
  -5  -5  -5    2.72    0.96 
  -5  -5  -5    0.26    0.57 
   5  -5   5    2.90    0.72 
   5   5   6  196.88    8.61 
   5   5   6  211.69    8.52 
   5   5   6  186.71    8.90 
  -5   5  -6  193.08    8.34 
  -5   5  -6  198.16    8.42 
   5   5   6  208.35    8.51 
  -5   5  -6  224.09    8.72 
  -5   5  -6  194.88    8.40 
  -5  -5  -6  209.72    8.25 
  -5  -5  -6  198.48    8.78 
   5  -5   6  209.41    8.27 
  -5  -5  -6  196.24    8.48 
  -5  -5  -6  204.05    8.57 
  -5  -5  -6  204.83    8.51 
   5  -5   6  196.48    8.50 
   5  -5   6  203.38    8.46 
   5  -5   6  204.36    8.53 
  -5  -5  -6  198.19    8.41 
   5  -5   6  206.56    8.39 
   5   5   7   33.40    2.11 
   5   5   7   33.70    2.46 
  -5   5  -7   28.18    2.31 
   5   5   7   26.26    2.13 
  -5   5  -7   29.05    2.45 
  -5   5  -7   25.87    1.88 
  -5   5  -7   29.98    1.75 
   5   5   7   32.31    2.74 
  -5  -5  -7   31.35    1.49 
   5  -5   7   31.64    2.36 
   5  -5   7   31.01    2.07 
   5  -5   7   30.20    1.65 
  -5  -5  -7   32.83    2.21 
  -5  -5  -7   30.81    1.88 
   5  -5   7   29.77    1.48 
  -5  -5  -7   29.10    1.85 
  -5   5  -8  131.35    5.84 
  -5   5  -8  117.10    5.25 
   5   5   8  123.97    5.73 
   5   5   8  116.36    5.61 
  -5  -5  -8  123.79    5.08 
  -5  -5  -8  120.98    5.39 
   5  -5   8  122.91    5.54 
   5  -5   8  128.13    5.57 
  -5  -5  -8  124.20    5.38 
   5  -5   8  120.84    5.18 
  -5   5  -9   -0.11    0.68 
  -5   5  -9   -0.74    1.52 
   5   5   9    1.51    1.29 
   5   5   9    0.08    1.32 
   5  -5   9    1.15    0.55 
  -5  -5  -9   -0.10    0.94 
   5  -5   9    1.45    1.25 
  -5  -5  -9    2.03    0.98 
   5   6  -9   25.96    2.22 
  -5   6   9   19.58    1.95 
  -5   6   9   21.77    2.12 
   5  -6  -9   24.09    1.87 
   5  -6  -9   29.72    2.55 
   5   6  -8    7.70    1.15 
  -5   6   8    7.48    1.10 
  -5   6   8    8.61    1.35 
  -5  -6   8    9.77    0.96 
  -5  -6   8    9.18    1.03 
   5  -6  -8    8.74    0.99 
   5  -6  -8   10.50    1.39 
  -5   6   7    1.15    0.87 
   5   6  -7    0.85    0.60 
  -5   6   7    1.74    0.94 
   5   6  -7    0.12    0.85 
  -5  -6   7    1.04    0.62 
  -5  -6   7    0.21    0.64 
   5  -6  -7    2.01    0.79 
   5  -6  -7    2.43    1.10 
  -5  -6   7    0.87    1.04 
  -5   6   6   23.36    1.85 
   5   6  -6   21.12    2.10 
  -5   6   6   20.88    1.72 
   5   6  -6   22.13    1.41 
   5   6  -6   21.44    1.71 
  -5   6   6   24.38    1.97 
   5  -6  -6   22.58    1.94 
   5  -6  -6   21.61    1.58 
  -5  -6   6   22.59    1.44 
   5  -6  -6   21.25    1.83 
  -5  -6   6   22.59    1.64 
  -5  -6   6   21.86    1.43 
   5  -6  -6   19.11    1.77 
  -5  -6   6   22.18    1.82 
   5   6  -5   11.86    1.19 
   5   6  -5   11.97    1.10 
  -5   6   5   12.70    1.18 
   5   6  -5    8.40    0.99 
  -5   6   5    9.66    1.70 
  -5   6   5   11.62    1.25 
  -5   6   5   12.42    1.20 
  -5  -6   5   11.54    1.09 
   5  -6  -5   11.77    1.25 
   5  -6  -5   10.81    1.06 
   5  -6  -5   12.99    1.25 
   5  -6  -5   12.96    1.30 
  -5  -6   5   12.49    1.32 
  -5  -6   5   10.38    1.05 
  -5  -6   5   11.61    1.20 
   5   6  -4  295.24   12.25 
  -5   6   4  319.71   12.46 
   5   6  -4  287.51   12.37 
  -5   6   4  296.22   12.36 
   5   6  -4  298.67   12.37 
  -5   6   4  288.84   12.37 
  -5   6   4  304.71   12.32 
   5  -6  -4  314.33   12.38 
   5  -6  -4  287.73   12.35 
  -5  -6   4  299.88   12.27 
   5  -6  -4  290.44   12.40 
   5  -6  -4  303.27   12.32 
  -5  -6   4  299.69   12.34 
  -5  -6   4  308.98   12.30 
  -5  -6   4  307.99   12.27 
   5  -6  -4  292.06   12.34 
   5   6  -3   54.89    2.59 
  -5   6   3   57.35    2.43 
  -5   6   3   56.33    2.44 
   5   6  -3   52.46    2.70 
  -5   6   3   54.20    2.70 
  -5   6   3   57.17    2.70 
   5   6  -3   52.89    2.74 
  -5   6   3   53.35    2.75 
  -5   6   3   61.93    2.94 
   5  -6  -3   54.92    2.65 
   5  -6  -3   59.46    2.79 
  -5  -6   3   53.50    2.60 
   5  -6  -3   55.69    2.74 
   5  -6  -3   52.80    2.74 
   5  -6  -3   55.60    2.76 
  -5  -6   3   54.13    2.67 
  -5  -6   3   54.29    2.61 
   5  -6  -3   58.06    3.01 
   5   6  -2  118.38    5.21 
  -5   6   2  114.15    5.16 
  -5   6   2  123.94    5.19 
  -5   6   2  125.42    5.32 
   5   6  -2  121.83    5.21 
  -5   6   2  118.86    5.24 
  -5   6   2  123.39    5.00 
  -5   6   2  116.56    5.17 
   5   6  -2  116.21    5.27 
   5   6  -2  122.72    5.14 
  -5  -6   2  121.04    5.14 
   5  -6  -2  117.00    5.22 
  -5  -6   2  112.02    5.11 
  -5  -6   2  125.29    5.21 
   5  -6  -2  116.88    5.20 
   5  -6  -2  121.60    5.38 
   5  -6  -2  122.45    5.21 
   5  -6  -2  120.81    5.23 
   5  -6  -2  123.44    5.16 
  -5  -6   2  118.58    5.12 
   5   6  -1   18.52    1.69 
  -5   6   1   16.63    1.37 
  -5   6   1   22.21    1.68 
   5   6  -1   20.00    1.59 
  -5   6   1   19.89    1.40 
  -5   6   1   20.32    1.17 
   5   6  -1   19.62    1.59 
   5   6  -1   20.30    1.42 
   5   6  -1   20.67    1.55 
  -5   6   1   19.51    1.50 
  -5   6   1   21.84    1.28 
  -5  -6   1   18.24    1.40 
  -5  -6   1   19.82    1.49 
  -5  -6   1   18.40    1.31 
  -5  -6   1   20.40    1.31 
   5  -6  -1   18.10    1.39 
   5  -6  -1   19.19    1.50 
   5  -6  -1   18.82    1.47 
   5  -6  -1   18.13    1.96 
   5  -6  -1   18.45    1.43 
  -5  -6   1   19.17    1.29 
   5  -6  -1   18.97    1.32 
  -5   6   0    0.82    0.60 
   5   6   0    0.74    0.68 
   5   6   0   -0.10    0.57 
   5   6   0    1.03    0.71 
   5   6   0    0.17    0.78 
   5   6   0    0.07    0.72 
  -5   6   0    1.01    0.53 
  -5   6   0    0.51    0.74 
  -5   6   0    1.46    0.62 
  -5   6   0    0.63    0.47 
  -5   6   0    1.47    0.72 
  -5   6   0    0.28    0.72 
  -5  -6   0    0.93    0.29 
  -5  -6   0    0.34    0.56 
  -5  -6   0    0.30    0.79 
  -5  -6   0    0.53    0.71 
  -5  -6   0    1.98    0.68 
   5  -6   0    1.63    1.17 
   5  -6   0    0.68    0.66 
   5  -6   0    0.56    0.65 
  -5  -6   0    0.08    0.47 
  -5  -6   0    2.38    0.34 
   5  -6   0    0.60    0.63 
  -5  -6   0    0.98    0.50 
   5  -6   0    0.67    0.52 
   5  -6   0    0.22    0.47 
  -5   6  -1   19.50    1.71 
  -5   6  -1   16.06    1.44 
  -5   6  -1   17.09    1.40 
  -5   6  -1   19.29    1.35 
   5   6   1   20.98    1.50 
  -5   6  -1   16.62    1.43 
   5   6   1   17.78    1.54 
   5   6   1   19.76    1.78 
  -5   6  -1   16.36    1.43 
  -5   6  -1   18.69    1.25 
   5   6   1   17.28    1.53 
   5   6   1   18.07    1.45 
   5  -6   1   17.31    1.59 
  -5  -6  -1   16.89    1.64 
  -5  -6  -1   17.17    1.34 
   5  -6   1   17.49    1.61 
  -5  -6  -1   17.26    1.50 
  -5  -6  -1   20.57    1.82 
   5  -6   1   16.61    1.40 
  -5  -6  -1   17.60    1.32 
  -5  -6  -1   19.24    1.19 
   5  -6   1   17.52    1.28 
  -5  -6  -1   18.86    1.05 
   5  -6   1   17.80    1.44 
   5  -6   1   17.65    1.36 
  -5  -6  -1   16.91    0.99 
   5   6   2  190.04    7.91 
  -5   6  -2  190.04    8.05 
   5   6   2  180.62    8.17 
  -5   6  -2  192.32    7.90 
   5   6   2  192.04    8.04 
   5   6   2  189.57    7.93 
   5   6   2  199.14    7.99 
  -5   6  -2  189.54    7.97 
  -5   6  -2  192.28    7.95 
  -5   6  -2  177.12    7.86 
  -5  -6  -2  200.80    7.77 
  -5  -6  -2  183.45    7.99 
   5  -6   2  186.82    7.93 
  -5  -6  -2  187.87    7.73 
   5  -6   2  186.78    7.83 
  -5  -6  -2  192.29    7.89 
   5  -6   2  197.57    7.93 
  -5  -6  -2  188.42    7.79 
  -5  -6  -2  191.94    8.02 
   5  -6   2  182.91    8.12 
  -5  -6  -2  183.15    7.92 
   5  -6   2  187.76    7.90 
   5  -6   2  179.50    7.94 
  -5  -6  -2  190.97    7.92 
  -5   6  -3   50.11    2.63 
  -5   6  -3   49.20    2.47 
   5   6   3   49.22    2.55 
  -5   6  -3   46.11    2.47 
   5   6   3   54.48    3.24 
  -5   6  -3   47.59    2.40 
   5   6   3   49.55    2.60 
   5   6   3   47.21    2.64 
   5   6   3   47.84    2.52 
   5  -6   3   47.88    2.44 
  -5  -6  -3   45.71    2.52 
   5  -6   3   50.20    2.47 
  -5  -6  -3   46.25    2.75 
  -5  -6  -3   49.98    2.71 
  -5  -6  -3   48.32    2.45 
   5  -6   3   49.24    2.32 
   5  -6   3   48.95    2.78 
   5  -6   3   45.67    2.42 
  -5  -6  -3   51.08    2.45 
  -5  -6  -3   49.01    2.24 
  -5  -6  -3   46.88    2.23 
  -5  -6  -3   51.87    2.37 
   5   6   4  144.06    6.60 
  -5   6  -4  150.88    6.76 
   5   6   4  156.67    6.77 
  -5   6  -4  153.21    6.58 
  -5   6  -4  150.36    6.56 
   5   6   4  154.20    7.27 
   5   6   4  160.97    6.67 
  -5   6  -4  156.80    6.63 
   5  -6   4  154.96    6.59 
   5  -6   4  160.32    6.64 
   5  -6   4  157.35    6.49 
  -5  -6  -4  157.99    6.48 
  -5  -6  -4  160.44    6.61 
  -5  -6  -4  158.34    6.45 
   5  -6   4  153.74    6.59 
   5  -6   4  154.81    6.71 
  -5  -6  -4  146.97    6.77 
  -5  -6  -4  158.42    6.58 
  -5  -6  -4  152.79    6.67 
  -5  -6  -4  158.71    6.63 
  -5  -6  -4  163.28    6.80 
   5   6   5   16.37    1.61 
   5   6   5   15.19    1.43 
  -5   6  -5   15.18    1.35 
   5   6   5   16.18    2.03 
  -5   6  -5   19.59    2.03 
  -5   6  -5   16.33    1.58 
   5   6   5   13.82    1.86 
   5  -6   5   18.04    1.22 
  -5  -6  -5   15.60    1.47 
  -5  -6  -5   15.91    1.29 
   5  -6   5   16.24    1.32 
  -5  -6  -5   16.81    1.10 
   5  -6   5   18.00    1.60 
   5  -6   5   16.05    1.36 
  -5  -6  -5   13.41    1.30 
  -5  -6  -5   16.96    1.49 
   5  -6   5   15.67    1.49 
  -5  -6  -5   14.60    1.55 
   5   6   6   32.19    3.18 
   5   6   6   29.02    2.19 
  -5   6  -6   30.62    2.56 
   5   6   6   24.44    1.97 
  -5   6  -6   25.98    1.72 
   5  -6   6   24.58    1.66 
   5  -6   6   25.39    2.06 
  -5  -6  -6   28.10    1.90 
  -5  -6  -6   27.22    2.05 
   5  -6   6   25.71    1.76 
   5  -6   6   29.46    2.06 
  -5  -6  -6   26.48    1.71 
  -5  -6  -6   28.57    1.49 
  -5   6  -7    2.06    0.70 
  -5   6  -7    0.97    1.39 
   5   6   7    1.81    1.18 
   5   6   7    0.86    1.59 
   5  -6   7    1.84    0.65 
  -5  -6  -7    1.39    0.83 
  -5  -6  -7    0.36    0.53 
   5  -6   7    0.43    1.13 
  -5  -6  -7    1.30    0.90 
   5   6   8   52.14    3.37 
   5   6   8   61.53    3.74 
  -5   6  -8   53.56    2.81 
  -5   6  -8   67.25    3.69 
  -5  -6  -8   59.43    3.09 
   5  -6   8   55.06    3.46 
   5  -6   8   57.37    2.70 
  -5  -6  -8   58.03    3.03 
  -5   7   8   39.03    2.81 
  -5   7   8   39.32    3.01 
   5   7  -8   40.32    2.76 
   5  -7  -8   42.47    2.55 
   5  -7  -8   39.25    2.95 
  -5  -7   8   37.70    2.28 
  -5   7   7   86.97    4.28 
   5   7  -7   88.02    4.23 
  -5   7   7   87.42    4.36 
   5  -7  -7   91.74    4.36 
  -5  -7   7   85.37    4.31 
  -5  -7   7   82.60    3.91 
   5  -7  -7   89.61    4.11 
  -5   7   6   38.48    2.52 
   5   7  -6   33.68    2.37 
  -5   7   6   36.40    2.48 
   5  -7  -6   40.42    2.30 
  -5  -7   6   34.83    2.49 
  -5  -7   6   38.80    2.06 
   5  -7  -6   38.24    2.63 
  -5   7   5   50.92    2.91 
   5   7  -5   54.75    2.87 
  -5   7   5   51.95    2.85 
  -5   7   5   53.25    2.86 
   5  -7  -5   53.10    2.77 
   5  -7  -5   53.57    2.87 
   5  -7  -5   49.89    2.99 
  -5  -7   5   52.80    2.61 
  -5  -7   5   53.56    2.70 
  -5  -7   5   57.03    2.88 
   5   7  -4    1.21    1.10 
  -5   7   4   -0.87    1.17 
  -5   7   4    0.98    0.90 
  -5   7   4    0.87    0.79 
   5   7  -4    0.66    0.82 
   5   7  -4    0.54    0.75 
  -5   7   4    0.01    0.83 
   5  -7  -4    0.75    0.96 
  -5  -7   4    0.59    0.60 
   5  -7  -4    0.64    0.74 
  -5  -7   4    0.24    0.78 
   5  -7  -4    0.52    1.18 
   5  -7  -4    0.55    0.80 
  -5  -7   4    0.03    0.83 
  -5  -7   4    0.42    0.77 
  -5   7   3   52.80    2.27 
   5   7  -3   43.10    2.48 
  -5   7   3   49.09    2.22 
  -5   7   3   47.97    2.95 
   5   7  -3   43.77    2.63 
  -5   7   3   46.45    2.59 
   5   7  -3   47.54    2.66 
  -5   7   3   50.69    2.54 
   5  -7  -3   46.40    2.54 
  -5  -7   3   49.59    2.71 
   5  -7  -3   43.28    2.78 
   5  -7  -3   49.59    2.74 
  -5  -7   3   47.95    2.51 
  -5  -7   3   45.22    2.38 
   5  -7  -3   45.91    2.49 
   5  -7  -3   44.92    2.58 
  -5  -7   3   50.00    2.46 
  -5   7   2   41.08    1.99 
  -5   7   2   42.28    2.67 
  -5   7   2   38.21    2.19 
  -5   7   2   38.55    2.28 
  -5   7   2   39.53    1.95 
   5   7  -2   37.30    2.36 
  -5   7   2   37.53    2.15 
   5   7  -2   37.40    2.31 
   5   7  -2   35.15    2.23 
   5  -7  -2   38.82    2.16 
  -5  -7   2   35.04    2.06 
  -5  -7   2   38.62    2.11 
   5  -7  -2   38.78    2.34 
  -5  -7   2   39.62    2.25 
   5  -7  -2   36.74    2.19 
   5  -7  -2   36.40    2.28 
   5  -7  -2   42.05    2.44 
  -5   7   1  110.38    4.77 
  -5   7   1  111.39    4.71 
  -5   7   1  110.23    5.07 
  -5   7   1  110.03    4.91 
   5   7  -1  109.32    4.93 
  -5   7   1  112.44    4.84 
   5   7  -1  108.93    4.96 
  -5   7   1  113.13    4.66 
   5   7  -1  102.54    4.83 
   5  -7  -1  110.07    4.87 
  -5  -7   1  107.35    4.77 
   5  -7  -1  112.11    4.79 
   5  -7  -1  101.85    4.83 
   5  -7  -1  109.12    4.86 
  -5  -7   1  110.77    4.74 
   5  -7  -1   99.36    4.86 
   5  -7  -1  105.22    5.26 
  -5  -7   1  111.62    4.88 
  -5  -7   1  110.89    4.75 
  -5   7   0   62.13    3.32 
  -5   7   0   60.76    2.95 
   5   7   0   66.59    3.21 
   5   7   0   60.23    3.45 
   5   7   0   61.30    3.18 
  -5   7   0   61.75    3.00 
  -5   7   0   63.66    2.89 
  -5   7   0   61.65    3.10 
  -5   7   0   61.69    3.03 
   5   7   0   62.14    3.14 
  -5  -7   0   61.95    2.95 
   5  -7   0   66.48    3.80 
  -5  -7   0   55.83    3.19 
   5  -7   0   62.13    3.19 
   5  -7   0   66.44    3.14 
   5  -7   0   62.25    2.97 
  -5  -7   0   61.56    2.97 
  -5  -7   0   62.46    3.15 
   5  -7   0   57.68    3.07 
   5  -7   0   60.23    3.04 
  -5   7  -1  187.86    7.93 
  -5   7  -1  187.36    7.97 
   5   7   1  185.67    7.94 
  -5   7  -1  184.52    8.10 
   5   7   1  180.04    8.57 
   5   7   1  189.71    8.02 
  -5   7  -1  182.68    7.84 
  -5   7  -1  186.59    7.91 
  -5   7  -1  179.58    7.88 
   5   7   1  189.17    8.06 
   5  -7   1  191.64    7.88 
  -5  -7  -1  197.78    7.68 
  -5  -7  -1  190.12    7.64 
  -5  -7  -1  173.28    7.94 
  -5  -7  -1  201.15    8.06 
  -5  -7  -1  186.11    7.93 
  -5  -7  -1  176.01    7.86 
   5  -7   1  197.00    8.32 
   5  -7   1  183.23    7.94 
   5  -7   1  191.90    7.96 
  -5  -7  -1  198.19    7.91 
   5  -7   1  191.90    7.96 
  -5   7  -2   11.07    1.05 
  -5   7  -2   10.41    0.98 
   5   7   2    7.20    1.13 
   5   7   2   11.13    1.28 
   5   7   2    9.55    1.45 
  -5   7  -2   12.06    1.09 
  -5   7  -2   10.64    1.09 
   5  -7   2   10.63    0.96 
  -5  -7  -2    6.48    1.06 
   5  -7   2   13.03    1.59 
  -5  -7  -2   13.58    1.40 
  -5  -7  -2   11.35    1.11 
   5  -7   2   13.93    1.20 
  -5  -7  -2   11.98    1.03 
  -5  -7  -2   11.99    0.91 
   5  -7   2   13.08    1.38 
  -5  -7  -2    9.22    0.94 
  -5  -7  -2   11.47    0.91 
   5  -7   2   10.06    1.07 
  -5   7  -3    3.70    0.90 
   5   7   3    4.42    1.06 
  -5   7  -3    2.47    0.74 
   5   7   3    3.49    1.13 
   5   7   3    2.95    0.98 
  -5   7  -3    4.70    0.92 
  -5   7  -3    4.30    0.90 
   5   7   3    5.07    1.66 
   5  -7   3    5.56    0.97 
   5  -7   3    4.92    0.85 
  -5  -7  -3    3.54    1.19 
   5  -7   3    3.40    0.89 
  -5  -7  -3    6.06    0.87 
  -5  -7  -3    4.00    0.68 
  -5  -7  -3    3.21    1.10 
   5  -7   3    4.99    0.80 
  -5  -7  -3    2.39    0.77 
  -5  -7  -3    4.18    0.60 
   5  -7   3    4.51    1.29 
  -5  -7  -3    5.89    1.31 
  -5   7  -4    2.34    0.81 
   5   7   4    3.61    1.14 
   5   7   4    1.86    2.91 
   5   7   4    3.30    1.15 
  -5   7  -4    1.38    1.01 
  -5   7  -4    2.42    0.86 
   5  -7   4    1.72    1.21 
  -5  -7  -4    2.43    0.65 
   5  -7   4    2.69    0.96 
  -5  -7  -4    1.08    0.81 
   5  -7   4    1.63    0.78 
  -5  -7  -4    1.80    1.26 
  -5  -7  -4    2.13    0.62 
  -5  -7  -4    1.99    0.80 
  -5  -7  -4    3.29    1.01 
  -5   7  -5   73.74    3.82 
  -5   7  -5   73.37    3.70 
  -5   7  -5   74.12    3.53 
   5   7   5   63.52    5.20 
   5   7   5   78.16    3.98 
  -5  -7  -5   73.96    3.70 
   5  -7   5   75.86    3.51 
  -5  -7  -5   72.94    3.42 
   5  -7   5   78.61    3.75 
  -5  -7  -5   81.84    3.39 
  -5  -7  -5   74.53    3.62 
   5   7   6   28.17    2.70 
   5   7   6   34.93    2.83 
  -5   7  -6   31.87    2.57 
  -5   7  -6   32.05    2.35 
  -5   7  -6   30.54    2.01 
   5  -7   6   29.93    1.91 
  -5  -7  -6   30.98    1.77 
  -5  -7  -6   32.23    1.99 
  -5  -7  -6   28.51    2.20 
   5  -7   6   31.27    2.45 
   5   7   7  126.15    5.81 
  -5   7  -7  114.40    5.78 
  -5   7  -7  121.62    5.59 
   5   7   7  117.80    6.23 
  -5   7  -7  119.98    5.30 
  -5  -7  -7  124.97    5.48 
   5  -7   7  115.25    5.23 
   5  -7   7  124.27    5.65 
  -5  -7  -7  122.09    5.35 
  -5   8   6   -1.02    1.19 
  -5   8   6    0.61    1.20 
   5   8  -6    0.41    1.11 
  -5  -8   6   -0.30    1.28 
   5  -8  -6    0.61    1.12 
   5  -8  -6    0.59    1.30 
  -5  -8   6    0.28    0.85 
  -5   8   5  101.66    4.91 
  -5   8   5  100.31    4.76 
   5   8  -5   99.17    4.80 
   5  -8  -5  103.21    4.71 
  -5  -8   5  100.87    4.54 
  -5  -8   5  103.03    4.77 
   5  -8  -5  100.01    4.86 
   5   8  -4    2.46    1.10 
  -5   8   4    3.16    1.10 
  -5   8   4    5.17    1.10 
   5  -8  -4    3.13    1.21 
   5  -8  -4    2.20    1.30 
  -5  -8   4    5.35    1.17 
   5  -8  -4    4.05    1.22 
  -5  -8   4    3.41    0.83 
  -5   8   3  138.99    5.94 
   5   8  -3  132.78    6.02 
  -5   8   3  135.53    5.88 
  -5   8   3  126.76    6.10 
  -5  -8   3  131.86    5.82 
   5  -8  -3  133.94    5.97 
  -5  -8   3  135.01    5.89 
   5  -8  -3  134.31    5.99 
   5  -8  -3  136.69    5.91 
   5   8  -2   -1.07    1.01 
  -5   8   2    1.14    0.79 
  -5   8   2   -0.97    1.90 
  -5   8   2    1.36    0.87 
  -5   8   2    0.64    0.86 
  -5   8   2    0.41    1.02 
   5  -8  -2   -0.35    0.82 
   5  -8  -2    0.84    0.93 
   5  -8  -2    0.96    1.37 
  -5  -8   2    0.43    0.89 
  -5  -8   2    0.46    0.72 
   5  -8  -2    1.01    1.08 
   5   8  -1   11.77    1.48 
  -5   8   1   13.17    1.75 
  -5   8   1   15.50    1.45 
  -5   8   1   14.32    1.44 
  -5   8   1   12.71    1.32 
   5   8  -1   13.92    1.51 
   5  -8  -1   13.75    1.45 
  -5  -8   1   13.22    1.17 
  -5  -8   1   14.39    1.27 
   5  -8  -1   10.97    1.18 
   5  -8  -1   14.20    1.27 
  -5   8   0    0.56    0.76 
   5   8   0    0.95    1.22 
  -5   8   0    0.52    0.76 
  -5   8   0    0.32    0.87 
   5   8   0    0.22    1.06 
  -5   8   0    0.83    1.08 
  -5   8   0   -0.58    0.93 
   5  -8   0    0.26    0.90 
  -5  -8   0    1.40    0.83 
  -5  -8   0    0.24    0.90 
  -5  -8   0    0.70    0.79 
   5  -8   0    1.58    0.94 
   5  -8   0   -0.44    1.05 
  -5   8  -1   86.20    3.97 
  -5   8  -1   85.05    4.06 
   5   8   1   83.18    4.40 
   5   8   1   85.28    4.26 
  -5   8  -1   87.25    3.91 
  -5   8  -1   83.56    4.15 
  -5  -8  -1   76.84    4.36 
   5  -8   1   82.54    4.08 
  -5  -8  -1   86.53    3.87 
   5  -8   1   89.76    4.06 
  -5  -8  -1   88.43    4.02 
   5   8   2    3.31    1.83 
   5   8   2    2.63    1.19 
  -5   8  -2    2.10    0.96 
  -5   8  -2    3.45    0.88 
   5   8   2    2.31    1.51 
  -5   8  -2    2.58    0.96 
   5   8   2    3.77    1.57 
   5  -8   2    3.83    0.98 
  -5  -8  -2    4.29    1.06 
  -5  -8  -2    2.01    0.81 
  -5  -8  -2    3.71    0.60 
  -5  -8  -2    2.72    0.98 
   5  -8   2    3.35    1.05 
  -5   8  -3  176.56    7.62 
  -5   8  -3  183.22    7.70 
   5   8   3  179.26    7.96 
   5   8   3  174.18    8.42 
  -5   8  -3  180.50    7.71 
  -5  -8  -3  180.62    7.55 
  -5  -8  -3  188.32    7.71 
   5  -8   3  178.68    7.69 
   5  -8   3  174.16    7.75 
  -5  -8  -3  181.28    7.43 
  -5  -8  -3  181.76    7.73 
  -5   8  -4    1.18    1.08 
  -5   8  -4    1.31    0.90 
   5   8   4   -2.14    2.16 
  -5   8  -4   -0.15    0.95 
   5   8   4    0.61    1.28 
  -5  -8  -4    0.54    1.16 
  -5  -8  -4   -0.31    0.79 
  -5  -8  -4    1.08    0.69 
   5  -8   4    1.41    1.21 
  -5  -8  -4    0.31    1.07 
   5  -8   4   -0.84    0.83 
   5   8   5   65.33    4.00 
  -5   8  -5   66.33    3.64 
  -5   8  -5   64.06    3.53 
  -5   8  -5   68.86    3.41 
   5   8   5   77.40    5.06 
  -5  -8  -5   64.91    3.52 
   5  -8   5   65.08    3.36 
   5  -8   5   71.13    3.79 
  -5  -8  -5   67.25    3.20 
  -5  -8  -5   69.03    3.22 
  -5   9   3    3.36    1.48 
  -5   9   3    3.15    1.19 
   5   9  -3    2.73    1.43 
  -5  -9   3    2.35    1.08 
  -5  -9   3    4.51    1.24 
   5  -9  -3    2.66    1.47 
  -5   9   2   21.84    3.15 
  -5   9   2   22.69    2.06 
   5   9  -2   26.60    2.66 
  -5  -9   2   26.26    2.14 
   5  -9  -2   22.11    1.88 
   5  -9  -2   25.72    2.59 
  -5  -9   2   23.17    2.17 
  -5   9   1  108.23    5.03 
  -5   9   1  106.99    4.82 
   5   9  -1  105.08    5.28 
  -5   9   1  107.17    4.90 
   5  -9  -1  106.32    5.08 
   5  -9  -1  105.16    5.13 
  -5  -9   1  103.44    4.90 
  -5  -9   1  105.83    4.84 
   5   9   0   56.22    3.62 
  -5   9   0   50.11    3.10 
  -5   9   0   52.80    2.94 
  -5   9   0   53.88    2.82 
  -5  -9   0   51.04    2.88 
   5  -9   0   54.68    3.16 
  -5  -9   0   49.44    3.02 
   5  -9   0   51.59    3.23 
  -5   9  -1   59.67    3.04 
  -5   9  -1   60.71    3.28 
   5   9   1   54.64    4.05 
  -5   9  -1   60.07    3.30 
   5  -9   1   58.64    3.45 
  -5  -9  -1   59.63    3.10 
   5  -9   1   61.02    3.37 
  -5  -9  -1   57.34    3.28 
  -5   9  -2   26.77    2.32 
  -5   9  -2   24.12    2.32 
  -5   9  -2   20.98    2.22 
   5   9   2   27.74    2.61 
   5  -9   2   19.03    1.84 
  -5  -9  -2   24.34    2.29 
  -5  -9  -2   25.95    2.03 
   5  -9   2   26.13    2.31 
  -5   9  -3    5.55    1.34 
   5   9   3   10.56    2.60 
  -5   9  -3    6.90    1.33 
   5  -9   3    6.73    1.36 
   5  -9   3    5.16    1.56 
  -5  -9  -3    6.62    1.14 
   6   0 -11    0.04    0.39 
   6   0 -11    0.74    0.85 
   6   0 -11   -0.22    1.64 
   6   0 -10  172.84    7.58 
   6   0 -10  162.66    7.00 
   6   0 -10  166.56    6.79 
   6   0 -10  163.71    6.88 
   6   0  -9    0.41    1.19 
  -6   0   9    0.22    0.81 
   6   0  -9    2.01    0.89 
   6   0  -9    1.13    0.73 
   6   0  -9    0.56    0.49 
   6   0  -8  209.75    8.58 
  -6   0   8  198.67    8.59 
   6   0  -8  216.85    8.91 
  -6   0   8  207.17    8.48 
   6   0  -8  199.03    8.50 
  -6   0   8  196.08    8.34 
   6   0  -8  208.37    8.35 
   6   0  -8  202.00    8.41 
   6   0  -8  212.62    8.47 
   6   0  -7    0.81    0.40 
  -6   0   7   -0.07    0.54 
   6   0  -7    0.15    0.69 
   6   0  -7    0.10    0.50 
  -6   0   7    0.15    0.31 
   6   0  -7    0.85    0.90 
   6   0  -7    0.42    0.41 
  -6   0   7   -0.03    0.73 
   6   0  -7    0.03    0.49 
   6   0  -7    2.80    1.39 
   6   0  -7    0.15    0.65 
  -6   0   6   36.06    1.49 
  -6   0   6   32.49    1.63 
   6   0  -6   34.08    1.83 
   6   0  -6   35.65    1.99 
   6   0  -6   37.30    2.53 
  -6   0   6   32.32    1.80 
   6   0  -6   33.39    1.79 
  -6   0   6   40.47    2.13 
   6   0  -6   34.64    1.72 
   6   0  -6   34.39    2.22 
   6   0  -6   33.94    1.66 
   6   0  -5    0.07    0.64 
   6   0  -5    1.49    0.79 
   6   0  -5   -0.39    0.45 
   6   0  -5    0.66    0.47 
   6   0  -5    0.13    0.46 
  -6   0   5   -0.87    0.94 
  -6   0   5   -0.23    0.37 
  -6   0   5    0.11    0.38 
   6   0  -5    0.55    0.37 
  -6   0   5    0.35    0.36 
  -6   0   5    0.26    0.26 
  -6   0   4  521.02   22.08 
   6   0  -4  542.34   22.07 
   6   0  -4  518.72   22.06 
  -6   0   4  569.91   22.03 
   6   0  -4  549.77   22.27 
   6   0  -4  531.88   22.17 
  -6   0   4  550.72   22.02 
  -6   0   4  507.57   22.10 
   6   0  -4  515.17   22.13 
  -6   0   4  617.27   22.34 
   6   0  -4  589.62   22.22 
  -6   0   3   -0.03    0.48 
   6   0  -3    0.54    0.52 
   6   0  -3   -0.51    0.38 
  -6   0   3   -0.05    0.37 
   6   0  -3    0.11    0.50 
  -6   0   3    0.31    0.38 
  -6   0   3   -0.01    0.68 
   6   0  -3   -0.15    0.52 
   6   0  -3   -0.05    0.41 
  -6   0   3   -0.17    0.36 
   6   0  -3   -0.29    0.53 
  -6   0   2  654.65   24.17 
  -6   0   2  605.26   24.15 
   6   0  -2  578.80   24.22 
  -6   0   2  565.89   24.21 
   6   0  -2  537.37   24.24 
   6   0  -2  574.29   24.32 
   6   0  -2  585.92   24.42 
  -6   0   2  626.01   24.19 
   6   0  -2  607.93   24.24 
   6   0  -2  638.41   24.23 
   6   0  -1    0.11    0.45 
  -6   0   1    0.31    0.58 
   6   0  -1    0.85    0.68 
  -6   0   1    0.01    0.42 
  -6   0   1   -0.02    0.41 
  -6   0   1   -0.42    0.34 
   6   0  -1    0.51    0.56 
  -6   0   1    0.57    0.67 
   6   0  -1    0.21    0.60 
   6   0  -1    0.31    0.55 
  -6   0   0   39.91    2.22 
   6   0   0   39.64    2.07 
   6   0   0   36.43    2.18 
   6   0   0   36.29    2.14 
   6   0   0   38.40    1.85 
   6   0   0   39.15    2.04 
  -6   0   0   40.65    2.01 
   6   0   0   36.58    2.03 
  -6   0   0   39.31    1.94 
  -6   0   0   39.48    2.01 
   6   0   1   -0.36    0.69 
  -6   0  -1   -0.04    0.50 
   6   0   1    0.05    0.59 
  -6   0  -1   -0.54    0.63 
  -6   0  -1    0.63    0.46 
  -6   0  -1   -0.08    0.46 
  -6   0  -1   -0.87    0.65 
   6   0   1    0.36    0.52 
   6   0   1    0.39    0.52 
   6   0   1   -0.52    0.58 
   6   0   2   75.83    3.76 
   6   0   2   77.01    3.24 
  -6   0  -2   79.97    3.76 
   6   0   2   82.55    3.55 
  -6   0  -2   76.97    3.46 
  -6   0  -2   81.62    3.77 
   6   0   2   78.04    3.24 
  -6   0  -2   78.32    3.56 
  -6   0  -2   80.64    3.55 
   6   0   2   75.11    3.58 
  -6   0  -3   -0.10    0.40 
  -6   0  -3    0.97    0.60 
  -6   0  -3    0.04    0.67 
   6   0   3    0.72    0.55 
   6   0   3    0.40    0.68 
   6   0   3    0.94    0.54 
  -6   0  -3    1.67    0.84 
   6   0   3   -0.18    0.50 
   6   0   3   -0.39    0.65 
  -6   0  -3    0.35    0.56 
  -6   0  -4  559.44   21.95 
  -6   0  -4  542.33   22.07 
   6   0   4  525.47   21.88 
   6   0   4  533.23   22.14 
  -6   0  -4  536.79   21.87 
   6   0   4  511.95   22.06 
   6   0   4  552.33   21.85 
  -6   0  -4  551.18   22.04 
  -6   0  -4  544.57   21.95 
   6   0   5    0.15    0.69 
  -6   0  -5    0.20    0.63 
  -6   0  -5   -1.62    1.02 
   6   0   5    0.84    0.69 
   6   0   5   -0.17    0.83 
  -6   0  -5   -0.12    0.72 
   6   0   5    0.48    0.50 
   6   0   5    0.93    0.52 
  -6   0  -5    0.42    0.46 
  -6   0  -5    1.35    0.67 
  -6   0  -6   30.96    1.74 
   6   0   6   30.25    2.19 
   6   0   6   27.37    2.04 
  -6   0  -6   31.02    1.90 
  -6   0  -6   29.21    1.87 
  -6   0  -6   33.49    2.01 
   6   0   6   29.97    1.59 
   6   0   6   33.51    1.74 
  -6   0  -6   27.73    2.56 
  -6   0  -7   -0.85    0.72 
   6   0   7    0.02    0.85 
  -6   0  -7   -0.09    0.77 
   6   0   7    0.02    1.57 
   6   0   7   -0.01    0.59 
  -6   0  -7    0.09    0.61 
   6   0   8    3.69    1.17 
  -6   0  -8    5.21    1.14 
   6   0   8    3.22    1.05 
  -6   0  -8    4.44    0.89 
   6   0   8    3.57    0.71 
  -6   0  -8    4.57    0.95 
   6   0   9    1.08    1.14 
   6   0   9   -0.31    1.01 
   6   0   9    0.21    0.63 
  -6   0  -9   -0.37    0.86 
  -6   0  -9    0.07    0.89 
   6   0  10  185.51    8.00 
   6   0  10  169.79    7.84 
  -6   0 -10  190.57    7.87 
   6   0  10  186.53    7.55 
  -6   0 -10  180.21    7.88 
  -6   0 -11   -0.27    1.42 
   6   0  11   -1.02    0.62 
  -6   0 -11   -0.69    1.19 
   6   0  11   -0.36    1.40 
   6   0  11    0.00    0.96 
   6   1 -11    9.46    1.90 
   6   1 -11    9.96    0.69 
   6   1 -11    9.82    0.86 
   6   1 -11    9.22    0.99 
   6  -1 -11    9.62    0.93 
   6  -1 -11   10.88    1.96 
   6  -1 -11   10.29    1.06 
   6   1 -10    1.70    1.61 
   6   1 -10    1.14    0.64 
   6   1 -10    1.62    0.67 
   6  -1 -10    2.33    0.59 
   6  -1 -10    1.70    0.70 
   6  -1 -10    1.17    0.45 
   6  -1 -10    2.69    1.48 
   6   1  -9    1.14    1.37 
  -6   1   9    0.17    0.37 
   6   1  -9    0.61    0.67 
   6   1  -9    0.55    0.54 
  -6   1   9    1.15    0.85 
   6   1  -9    0.57    1.06 
  -6   1   9    0.26    0.84 
   6  -1  -9    0.33    0.75 
   6  -1  -9    0.32    0.51 
   6  -1  -9    0.34    0.55 
   6  -1  -9    2.55    1.29 
   6  -1  -9    0.20    0.39 
   6  -1  -9    0.79    0.46 
  -6   1   8  119.58    5.46 
   6   1  -8  126.88    5.36 
   6   1  -8  123.91    5.36 
   6   1  -8  123.55    5.87 
  -6   1   8  120.23    5.18 
  -6   1   8  147.09    5.59 
   6   1  -8  125.86    5.27 
   6   1  -8  124.13    5.09 
   6   1  -8  122.71    5.37 
  -6  -1   8  122.40    5.10 
  -6  -1   8  126.83    5.40 
   6  -1  -8  127.96    5.28 
   6  -1  -8  123.47    5.17 
   6  -1  -8  124.55    5.20 
   6  -1  -8  124.70    5.20 
   6  -1  -8  119.53    5.73 
  -6  -1   8  123.18    5.08 
   6   1  -7  154.61    6.55 
  -6   1   7  168.70    6.81 
   6   1  -7  153.33    6.99 
   6   1  -7  161.02    6.64 
   6   1  -7  151.52    6.43 
   6   1  -7  156.92    6.95 
   6   1  -7  154.80    6.51 
  -6   1   7  151.60    6.64 
   6   1  -7  159.04    6.44 
  -6   1   7  155.11    6.46 
   6  -1  -7  157.70    6.64 
  -6  -1   7  148.97    6.41 
   6  -1  -7  154.99    6.52 
   6  -1  -7  158.87    6.48 
  -6  -1   7  161.40    6.48 
   6  -1  -7  157.17    6.44 
   6  -1  -7  159.39    6.92 
  -6  -1   7  158.29    6.59 
   6  -1  -7  155.22    6.67 
   6  -1  -7  158.84    6.42 
   6   1  -6  259.37   10.27 
  -6   1   6  260.18   10.15 
   6   1  -6  254.68   10.61 
   6   1  -6  256.90   10.38 
   6   1  -6  261.11   10.29 
   6   1  -6  239.97   10.24 
  -6   1   6  245.32   10.35 
  -6   1   6  239.09   10.23 
   6   1  -6  243.62   10.55 
   6   1  -6  254.74   10.25 
  -6   1   6  263.44   10.49 
   6  -1  -6  242.27   10.32 
   6  -1  -6  246.21   10.25 
   6  -1  -6  249.38   10.26 
   6  -1  -6  255.24   10.58 
  -6  -1   6  261.14   10.33 
  -6  -1   6  239.58   10.22 
   6  -1  -6  251.17   10.36 
  -6  -1   6  254.12   10.29 
   6  -1  -6  242.77   10.20 
   6   1  -5   26.40    1.49 
   6   1  -5   25.10    2.01 
   6   1  -5   25.91    1.38 
  -6   1   5   25.98    1.23 
  -6   1   5   23.71    1.30 
  -6   1   5   24.70    1.61 
  -6   1   5   24.29    1.44 
   6   1  -5   26.96    1.68 
   6   1  -5   24.12    1.79 
   6   1  -5   26.50    1.61 
   6   1  -5   24.63    1.34 
  -6  -1   5   26.29    1.21 
  -6  -1   5   25.56    1.42 
  -6  -1   5   26.04    1.36 
   6  -1  -5   27.31    1.54 
   6  -1  -5   22.19    1.38 
   6  -1  -5   25.51    1.53 
   6  -1  -5   24.05    1.33 
   6  -1  -5   26.90    1.39 
  -6  -1   5   28.29    1.67 
  -6  -1   5   25.67    1.38 
   6  -1  -5   25.76    1.82 
  -6   1   4   77.48    3.39 
   6   1  -4   72.16    3.56 
   6   1  -4   79.68    3.63 
   6   1  -4   76.92    3.50 
   6   1  -4   75.94    3.30 
  -6   1   4   75.01    3.54 
   6   1  -4   78.48    3.44 
  -6   1   4   75.04    3.33 
   6   1  -4   75.92    3.60 
  -6   1   4   78.90    3.27 
  -6   1   4   79.25    3.22 
   6   1  -4   75.81    3.33 
  -6  -1   4   80.86    3.30 
   6  -1  -4   80.00    3.43 
   6  -1  -4   75.66    3.38 
  -6  -1   4   73.77    3.30 
   6  -1  -4   77.84    3.35 
   6  -1  -4   76.47    3.40 
  -6  -1   4   79.04    3.32 
  -6  -1   4   77.74    3.54 
   6  -1  -4   73.54    3.38 
   6  -1  -4   77.22    3.60 
  -6  -1   4   73.80    3.40 
   6   1  -3    9.53    0.89 
  -6   1   3    8.93    0.87 
  -6   1   3    9.52    0.85 
  -6   1   3    9.47    0.74 
   6   1  -3    8.81    0.82 
   6   1  -3    8.70    1.21 
   6   1  -3    9.62    1.03 
  -6   1   3    7.92    0.84 
   6   1  -3    7.15    0.84 
   6   1  -3    8.27    0.89 
   6   1  -3   10.96    0.83 
  -6   1   3    7.13    0.93 
   6  -1  -3    9.83    0.91 
  -6  -1   3    8.70    0.94 
   6  -1  -3    9.30    1.02 
   6  -1  -3    6.86    0.81 
  -6  -1   3    9.73    0.88 
  -6  -1   3    9.53    0.86 
   6  -1  -3    7.39    0.80 
   6  -1  -3    8.48    0.89 
  -6  -1   3    9.64    0.77 
   6  -1  -3    9.41    0.96 
  -6  -1   3    9.24    0.93 
  -6   1   2   96.12    4.03 
  -6   1   2   88.12    3.87 
   6   1  -2   82.77    3.83 
   6   1  -2   94.63    3.84 
  -6   1   2   90.48    3.85 
  -6   1   2   85.05    3.96 
  -6   1   2   86.18    3.82 
   6   1  -2   83.30    3.92 
  -6   1   2   89.49    3.81 
   6   1  -2   85.24    3.91 
   6   1  -2   83.56    4.04 
   6   1  -2   85.91    3.88 
   6  -1  -2   89.05    3.92 
  -6  -1   2   91.35    3.79 
   6  -1  -2   85.27    3.94 
  -6  -1   2   88.92    4.04 
   6  -1  -2   92.27    3.94 
   6  -1  -2   86.68    3.89 
  -6  -1   2   89.35    3.91 
   6  -1  -2   89.22    3.83 
  -6  -1   2   93.26    3.86 
   6  -1  -2   86.26    3.83 
  -6   1   1  285.21   12.03 
   6   1  -1  292.94   11.96 
   6   1  -1  309.63   12.01 
  -6   1   1  290.36   12.02 
  -6   1   1  295.52   12.01 
  -6   1   1  293.21   12.00 
  -6   1   1  331.18   12.07 
   6   1  -1  296.48   12.07 
   6   1  -1  267.40   12.03 
   6   1  -1  289.14   12.07 
   6   1  -1  274.09   12.16 
  -6   1   1  299.12   12.15 
   6  -1  -1  285.78   12.00 
   6  -1  -1  299.17   12.03 
  -6  -1   1  287.14   11.95 
  -6  -1   1  304.02   12.18 
   6  -1  -1  283.89   12.13 
  -6  -1   1  294.88   12.05 
  -6  -1   1  307.89   12.04 
   6  -1  -1  270.91   12.06 
   6  -1  -1  285.00   11.99 
  -6  -1   1  282.23   12.04 
   6  -1  -1  311.86   12.06 
   6   1   0  413.63   16.46 
   6   1   0  380.05   16.54 
  -6   1   0  428.79   16.50 
  -6   1   0  424.00   16.59 
  -6   1   0  414.43   16.33 
   6   1   0  393.76   16.57 
  -6   1   0  394.36   16.42 
   6   1   0  399.82   16.29 
   6   1   0  388.68   16.43 
  -6   1   0  392.93   16.44 
   6   1   0  400.53   16.38 
  -6   1   0  400.46   16.43 
   6  -1   0  408.01   16.45 
   6  -1   0  352.69   16.46 
   6  -1   0  372.04   16.31 
   6  -1   0  432.47   16.48 
  -6  -1   0  412.52   16.36 
   6  -1   0  378.07   16.54 
  -6  -1   0  423.68   16.52 
  -6  -1   0  431.32   16.57 
   6  -1   0  421.59   16.46 
  -6  -1   0  395.49   16.42 
   6   1   1   81.95    3.67 
  -6   1  -1   82.38    3.74 
   6   1   1   83.54    3.72 
   6   1   1   76.89    3.86 
  -6   1  -1   86.54    4.00 
  -6   1  -1   81.20    3.70 
   6   1   1   85.02    3.50 
   6   1   1   85.51    3.76 
   6   1   1   83.31    3.97 
  -6   1  -1   84.40    3.79 
  -6   1  -1   81.78    3.54 
   6   1   1   85.39    3.56 
  -6  -1  -1   82.99    3.71 
   6  -1   1   86.92    3.80 
   6  -1   1   87.31    3.80 
  -6  -1  -1   93.99    3.93 
  -6  -1  -1   86.18    3.71 
   6  -1   1   84.12    3.53 
   6  -1   1   89.56    3.83 
  -6  -1  -1   81.28    3.64 
   6  -1   1   68.83    3.88 
  -6  -1  -1   87.92    3.89 
   6  -1   1   79.25    3.80 
  -6   1  -2  150.23    6.54 
  -6   1  -2  144.08    6.51 
   6   1   2  156.42    6.21 
   6   1   2  140.96    6.60 
  -6   1  -2  153.53    6.50 
   6   1   2  166.59    6.53 
   6   1   2  135.64    6.56 
   6   1   2  153.19    6.42 
   6   1   2  169.22    6.27 
  -6   1  -2  161.82    6.53 
   6   1   2  140.91    6.68 
  -6   1  -2  150.48    6.26 
   6  -1   2  151.45    6.52 
   6  -1   2  140.09    6.55 
   6  -1   2  158.02    6.55 
  -6  -1  -2  171.51    6.73 
   6  -1   2  166.75    6.57 
  -6  -1  -2  147.84    6.38 
   6  -1   2  156.72    6.24 
  -6  -1  -2  164.73    6.63 
   6  -1   2  138.90    6.66 
  -6  -1  -2  152.29    6.44 
   6   1   3   30.60    2.22 
  -6   1  -3   35.22    2.06 
  -6   1  -3   32.67    1.94 
  -6   1  -3   33.81    1.82 
   6   1   3   36.40    1.89 
  -6   1  -3   35.63    1.55 
  -6   1  -3   37.47    1.93 
  -6   1  -3   37.55    2.23 
   6   1   3   34.19    2.12 
   6   1   3   34.97    1.82 
   6   1   3   36.27    1.84 
   6  -1   3   33.97    2.00 
   6  -1   3   38.53    1.99 
   6  -1   3   36.38    1.97 
  -6  -1  -3   33.01    1.86 
   6  -1   3   34.67    1.49 
  -6  -1  -3   35.73    1.75 
  -6  -1  -3   35.61    2.33 
  -6  -1  -3   38.95    2.10 
   6  -1   3   28.98    2.13 
   6  -1   3   34.85    1.93 
  -6  -1  -3   36.07    1.83 
  -6   1  -4   11.99    1.16 
   6   1   4   10.25    0.99 
  -6   1  -4   10.38    1.02 
  -6   1  -4   11.05    1.02 
   6   1   4   11.67    1.08 
   6   1   4    7.78    1.09 
   6   1   4   10.85    1.02 
   6   1   4   11.73    1.23 
  -6   1  -4    8.82    1.07 
  -6   1  -4    9.35    1.07 
  -6  -1  -4   10.48    1.33 
  -6  -1  -4   11.61    1.12 
  -6  -1  -4   11.14    1.01 
   6  -1   4    6.59    1.04 
   6  -1   4   10.77    1.15 
   6  -1   4    7.19    0.90 
  -6  -1  -4    9.84    0.88 
   6  -1   4    9.14    0.90 
  -6  -1  -4   11.85    1.32 
  -6   1  -5   53.30    2.74 
  -6   1  -5   54.05    2.99 
   6   1   5   50.90    2.96 
   6   1   5   51.47    2.96 
  -6   1  -5   58.64    2.72 
  -6   1  -5   58.79    3.01 
   6   1   5   54.54    2.52 
   6   1   5   50.07    3.10 
  -6   1  -5   57.17    2.65 
  -6  -1  -5   56.74    2.56 
   6  -1   5   57.21    2.58 
   6  -1   5   56.03    2.73 
   6  -1   5   53.94    2.80 
  -6  -1  -5   55.55    2.61 
  -6  -1  -5   50.97    2.70 
  -6  -1  -5   58.56    2.75 
   6  -1   5   54.67    2.70 
   6  -1   5   50.57    2.99 
  -6  -1  -5   56.42    3.37 
  -6   1  -6  154.73    6.77 
  -6   1  -6  156.38    6.65 
   6   1   6  147.03    6.75 
  -6   1  -6  146.75    6.50 
   6   1   6  152.74    6.40 
  -6   1  -6  151.09    6.47 
   6   1   6  148.17    6.70 
   6   1   6  150.50    6.31 
  -6   1  -6  162.04    6.54 
  -6  -1  -6  158.08    6.51 
  -6  -1  -6  153.50    6.45 
   6  -1   6  134.97    6.66 
   6  -1   6  156.38    6.31 
   6  -1   6  150.93    6.50 
   6  -1   6  152.55    6.61 
  -6  -1  -6  153.88    6.43 
   6  -1   6  149.72    6.59 
  -6  -1  -6  155.87    6.55 
  -6  -1  -6  151.37    7.06 
  -6   1  -7   64.89    3.20 
  -6   1  -7   72.31    3.19 
   6   1   7   67.08    3.43 
   6  -1   7   68.02    3.12 
  -6  -1  -7   61.99    3.19 
   6  -1   7   67.57    3.34 
  -6  -1  -7   68.24    3.28 
   6  -1   7   53.13    3.71 
  -6  -1  -7   67.38    3.10 
   6   1   8  124.08    5.40 
  -6   1  -8  116.90    5.05 
  -6   1  -8  104.57    5.13 
  -6   1  -8  114.95    5.05 
   6   1   8  112.83    4.86 
  -6  -1  -8  113.22    5.15 
  -6  -1  -8  111.44    4.98 
   6  -1   8  110.22    5.18 
  -6  -1  -8  106.67    4.97 
   6  -1   8  109.94    5.11 
   6  -1   8  116.94    4.87 
   6  -1   8  114.55    4.60 
   6   1   9   50.74    2.51 
  -6   1  -9   45.95    3.40 
  -6   1  -9   55.80    2.85 
  -6   1  -9   51.07    2.85 
   6   1   9   54.48    3.23 
   6   1   9   48.85    3.06 
   6  -1   9   50.70    2.77 
  -6  -1  -9   49.94    2.76 
   6  -1   9   53.99    2.48 
  -6  -1  -9   51.97    2.77 
   6  -1   9   49.54    3.03 
   6   1  10    3.05    1.30 
   6   1  10    4.13    1.48 
  -6   1 -10    4.72    1.09 
  -6   1 -10    5.24    1.24 
  -6  -1 -10    3.67    1.09 
   6  -1  10    3.90    0.68 
   6  -1  10    3.52    0.86 
  -6  -1 -10    5.10    1.14 
   6  -1  10    2.62    1.20 
   6   1  11    5.88    1.49 
  -6   1 -11    3.56    1.44 
   6   1  11    4.70    1.50 
   6  -1  11    4.58    1.45 
  -6  -1 -11    4.68    1.32 
   6  -1  11    3.60    0.55 
   6  -1  11    4.71    0.69 
   6   2 -11  111.85    5.92 
   6   2 -11  108.63    4.87 
   6  -2 -11  109.31    4.66 
   6  -2 -11  110.82    5.55 
  -6   2  10   24.81    2.14 
  -6   2  10   22.44    1.31 
   6   2 -10   25.42    2.36 
  -6   2  10   21.35    2.11 
   6   2 -10   21.64    1.17 
   6  -2 -10   22.38    1.55 
   6  -2 -10   20.56    1.98 
   6  -2 -10   21.75    1.33 
  -6   2   9  122.98    5.31 
   6   2  -9  132.35    5.88 
   6   2  -9  128.51    6.12 
   6   2  -9  121.17    5.51 
  -6   2   9  136.70    5.69 
   6   2  -9  124.67    5.27 
   6   2  -9  128.13    5.44 
  -6   2   9  123.53    5.68 
   6  -2  -9  129.37    5.91 
   6  -2  -9  129.91    5.39 
   6  -2  -9  122.74    5.35 
   6  -2  -9  129.26    5.33 
   6   2  -8    3.45    0.89 
   6   2  -8    4.21    1.31 
   6   2  -8    3.29    0.55 
  -6   2   8    4.40    0.91 
   6   2  -8    2.45    0.73 
  -6   2   8    2.57    0.51 
  -6   2   8    2.66    0.97 
   6   2  -8    2.73    0.62 
   6  -2  -8    1.90    0.68 
   6  -2  -8    3.10    0.58 
   6  -2  -8    2.06    0.48 
   6  -2  -8    4.39    1.19 
   6   2  -7   22.31    1.36 
   6   2  -7   19.99    1.12 
  -6   2   7   18.95    1.61 
  -6   2   7   21.52    1.54 
   6   2  -7   21.06    1.33 
   6   2  -7   20.55    1.31 
   6   2  -7   20.54    1.36 
  -6   2   7   21.67    1.07 
   6   2  -7   21.22    2.13 
  -6   2   7   20.33    1.20 
   6  -2  -7   21.89    1.27 
  -6  -2   7   20.21    1.13 
   6  -2  -7   19.82    1.19 
   6  -2  -7   21.64    2.02 
   6  -2  -7   19.83    1.37 
  -6  -2   7   21.34    1.10 
  -6  -2   7   22.18    1.35 
   6   2  -6    1.31    0.77 
   6   2  -6    1.00    0.47 
   6   2  -6    2.89    1.13 
  -6   2   6    0.83    0.35 
  -6   2   6    0.70    0.39 
   6   2  -6    1.31    0.43 
  -6   2   6    0.39    0.59 
  -6   2   6    0.78    0.55 
   6   2  -6    0.53    0.55 
   6   2  -6    0.72    0.46 
  -6  -2   6    0.33    0.39 
   6  -2  -6    0.09    0.84 
   6  -2  -6    0.35    0.56 
   6  -2  -6   -0.07    0.72 
   6  -2  -6    0.60    0.43 
   6  -2  -6    0.05    0.39 
  -6  -2   6    0.00    0.43 
  -6  -2   6    0.06    0.47 
  -6   2   5  131.51    5.81 
   6   2  -5  131.20    5.81 
   6   2  -5  140.13    5.78 
   6   2  -5  135.84    6.02 
  -6   2   5  140.93    6.26 
  -6   2   5  139.27    5.91 
  -6   2   5  143.15    5.95 
  -6   2   5  141.84    5.76 
   6   2  -5  140.28    6.08 
   6  -2  -5  137.61    5.84 
   6  -2  -5  144.78    5.88 
   6  -2  -5  137.53    5.81 
   6  -2  -5  141.51    5.91 
   6  -2  -5  123.83    6.08 
  -6  -2   5  145.48    5.87 
  -6  -2   5  150.98    5.73 
  -6  -2   5  138.73    5.83 
  -6  -2   5  138.09    5.76 
  -6  -2   5  138.40    5.87 
  -6  -2   5  141.23    5.67 
   6   2  -4  123.57    5.17 
   6   2  -4  118.34    4.95 
  -6   2   4  120.76    4.91 
  -6   2   4  112.44    4.96 
   6   2  -4  115.60    4.96 
   6   2  -4  112.40    5.03 
  -6   2   4  117.34    5.03 
   6   2  -4  121.83    4.91 
   6   2  -4  111.80    5.20 
  -6   2   4  120.23    5.24 
  -6   2   4  121.72    4.78 
   6  -2  -4   96.79    5.13 
  -6  -2   4  108.94    5.02 
   6  -2  -4  119.10    4.86 
   6  -2  -4  118.68    5.03 
   6  -2  -4  119.22    5.00 
  -6  -2   4  124.47    5.00 
   6  -2  -4  120.34    5.01 
  -6  -2   4  118.06    4.96 
  -6  -2   4  122.75    5.02 
   6  -2  -4  116.56    4.95 
  -6  -2   4  121.62    4.88 
  -6   2   3  288.80   12.02 
   6   2  -3  305.93   12.10 
   6   2  -3  286.79   12.02 
   6   2  -3  301.83   11.96 
  -6   2   3  285.12   12.11 
  -6   2   3  288.75   11.97 
   6   2  -3  283.18   12.06 
  -6   2   3  315.00   12.13 
   6   2  -3  293.65   12.02 
  -6   2   3  300.82   12.07 
   6   2  -3  273.12   12.16 
  -6   2   3  310.01   11.91 
   6  -2  -3  270.50   12.12 
   6  -2  -3  295.08   12.06 
  -6  -2   3  292.05   11.91 
   6  -2  -3  286.54   12.03 
  -6  -2   3  309.77   12.05 
   6  -2  -3  294.95   12.01 
  -6  -2   3  274.67   12.04 
   6  -2  -3  304.26   12.04 
  -6  -2   3  294.26   12.02 
  -6  -2   3  308.15   12.09 
  -6   2   2   12.64    1.13 
   6   2  -2   13.68    1.21 
  -6   2   2   10.77    0.91 
   6   2  -2   11.18    0.98 
   6   2  -2    9.94    1.14 
   6   2  -2   12.11    1.07 
  -6   2   2   12.20    0.87 
  -6   2   2   11.57    1.10 
  -6   2   2   12.87    0.99 
   6   2  -2    9.80    0.96 
   6   2  -2   12.56    0.98 
  -6   2   2    9.48    0.99 
   6  -2  -2   10.13    0.96 
  -6  -2   2    9.68    0.94 
  -6  -2   2   11.84    1.04 
   6  -2  -2   10.72    0.90 
  -6  -2   2   11.61    0.82 
  -6  -2   2   11.70    1.05 
   6  -2  -2    9.82    0.92 
   6  -2  -2   11.75    1.08 
   6  -2  -2   12.28    0.93 
  -6   2   1  140.26    6.13 
  -6   2   1  146.75    6.09 
  -6   2   1  149.25    6.20 
   6   2  -1  139.01    6.04 
   6   2  -1  137.93    6.14 
  -6   2   1  144.66    6.05 
   6   2  -1  149.81    6.14 
   6   2  -1  155.48    6.07 
  -6   2   1  140.00    6.14 
  -6   2   1  144.22    6.11 
   6   2  -1  136.62    6.18 
   6  -2  -1  151.64    6.11 
  -6  -2   1  141.07    6.09 
  -6  -2   1  151.16    6.20 
   6  -2  -1  133.83    6.16 
   6  -2  -1  141.66    6.10 
   6  -2  -1  145.00    6.09 
  -6  -2   1  147.50    6.03 
   6  -2  -1  147.93    6.09 
  -6  -2   1  143.97    6.10 
  -6  -2   1  155.54    6.19 
   6  -2  -1  150.86    6.18 
   6   2   0   38.32    1.83 
   6   2   0   41.14    1.95 
  -6   2   0   34.70    1.78 
   6   2   0   37.86    2.08 
  -6   2   0   35.27    1.99 
  -6   2   0   35.61    1.91 
   6   2   0   39.18    1.94 
  -6   2   0   35.20    2.04 
   6   2   0   34.74    2.02 
   6   2   0   39.81    1.79 
  -6   2   0   38.58    1.96 
  -6   2   0   38.73    1.94 
   6  -2   0   36.75    1.89 
  -6  -2   0   36.52    1.86 
   6  -2   0   41.77    1.84 
   6  -2   0   42.13    2.18 
  -6  -2   0   40.58    2.05 
   6  -2   0   35.31    2.00 
   6  -2   0   37.29    1.91 
  -6  -2   0   36.37    1.83 
   6  -2   0   37.14    1.91 
  -6  -2   0   36.69    2.09 
   6   2   1   21.96    1.37 
   6   2   1   24.00    1.42 
   6   2   1   20.99    1.36 
   6   2   1   21.54    1.72 
  -6   2  -1   23.94    1.49 
  -6   2  -1   21.99    1.39 
   6   2   1   23.60    1.51 
  -6   2  -1   24.73    1.43 
  -6   2  -1   22.25    1.58 
   6   2   1   24.24    1.15 
  -6   2  -1   21.49    1.16 
  -6   2  -1   21.61    1.43 
  -6  -2  -1   23.06    1.33 
  -6  -2  -1   22.72    1.32 
  -6  -2  -1   21.81    1.73 
   6  -2   1   21.64    1.20 
   6  -2   1   22.05    1.56 
  -6  -2  -1   22.69    1.11 
   6  -2   1   22.24    1.52 
   6  -2   1   24.75    1.65 
   6  -2   1   22.27    1.40 
  -6  -2  -1   23.82    1.48 
  -6  -2  -1   22.59    1.24 
   6  -2   1   23.45    1.38 
  -6   2  -2   79.88    3.54 
  -6   2  -2   78.21    3.57 
   6   2   2   75.47    3.41 
   6   2   2   77.55    3.62 
  -6   2  -2   77.01    3.56 
   6   2   2   76.71    3.86 
   6   2   2   79.95    3.52 
   6   2   2   79.45    3.26 
  -6   2  -2   77.64    3.71 
  -6   2  -2   78.78    3.29 
  -6   2  -2   78.54    3.55 
   6   2   2   70.23    3.58 
  -6  -2  -2   82.56    3.47 
   6  -2   2   73.29    3.54 
  -6  -2  -2   85.38    3.61 
   6  -2   2   79.11    3.65 
  -6  -2  -2   81.05    3.40 
   6  -2   2   78.65    3.54 
   6  -2   2   75.25    3.65 
  -6  -2  -2   77.72    3.26 
  -6  -2  -2   79.83    3.49 
   6  -2   2   78.66    3.30 
  -6  -2  -2   84.60    3.87 
   6  -2   2   79.83    3.66 
   6   2   3  293.91   11.69 
   6   2   3  284.49   12.04 
   6   2   3  278.00   11.86 
   6   2   3  300.50   11.94 
  -6   2  -3  287.06   11.71 
   6   2   3  293.00   12.26 
  -6   2  -3  305.63   11.99 
   6   2   3  295.03   11.88 
  -6   2  -3  291.70   12.16 
  -6   2  -3  292.51   11.97 
  -6   2  -3  265.76   11.99 
  -6   2  -3  262.40   11.97 
  -6  -2  -3  287.72   11.89 
   6  -2   3  317.46   12.04 
  -6  -2  -3  291.36   11.99 
  -6  -2  -3  275.82   11.90 
   6  -2   3  290.25   12.00 
   6  -2   3  290.46   11.73 
  -6  -2  -3  319.37   12.23 
   6  -2   3  295.76   12.02 
   6  -2   3  293.38   12.01 
   6  -2   3  288.24   12.08 
  -6  -2  -3  281.54   11.84 
  -6   2  -4   47.11    2.07 
   6   2   4   50.13    2.38 
   6   2   4   43.06    2.86 
  -6   2  -4   45.94    2.44 
   6   2   4   46.15    2.54 
  -6   2  -4   50.57    2.47 
  -6   2  -4   52.24    2.82 
   6   2   4   47.76    2.32 
  -6   2  -4   44.06    2.48 
  -6   2  -4   49.02    2.59 
   6  -2   4   50.18    2.54 
   6  -2   4   49.67    2.61 
   6  -2   4   49.26    2.54 
   6  -2   4   49.73    2.12 
  -6  -2  -4   50.53    2.35 
   6  -2   4   53.88    2.53 
  -6  -2  -4   50.80    2.41 
  -6  -2  -4   56.58    3.06 
   6  -2   4   50.10    2.51 
  -6  -2  -4   49.38    2.47 
  -6  -2  -4   46.16    2.27 
   6   2   5  169.85    6.86 
  -6   2  -5  169.01    6.91 
   6   2   5  155.92    7.03 
  -6   2  -5  170.39    7.06 
   6   2   5  160.58    6.78 
  -6   2  -5  162.73    6.59 
  -6   2  -5  156.02    6.91 
  -6   2  -5  151.45    6.94 
   6   2   5  142.17    7.17 
  -6   2  -5  187.84    7.23 
  -6  -2  -5  169.44    6.95 
  -6  -2  -5  167.15    6.85 
   6  -2   5  164.59    6.94 
   6  -2   5  147.05    6.65 
   6  -2   5  156.89    7.00 
   6  -2   5  156.57    6.86 
  -6  -2  -5  164.17    6.82 
   6  -2   5  178.21    6.99 
  -6  -2  -5  183.47    7.41 
  -6  -2  -5  160.43    6.88 
   6  -2   5  153.32    6.97 
  -6   2  -6   48.37    2.79 
  -6   2  -6   37.41    2.33 
   6   2   6   44.92    2.72 
   6   2   6   45.22    2.19 
   6   2   6   39.35    2.54 
  -6   2  -6   42.72    1.82 
   6   2   6   39.95    2.09 
  -6   2  -6   43.57    2.33 
  -6   2  -6   44.43    2.27 
  -6  -2  -6   44.45    2.39 
  -6  -2  -6   44.01    2.18 
   6  -2   6   45.40    2.15 
  -6  -2  -6   41.60    2.30 
  -6  -2  -6   50.64    3.34 
   6  -2   6   44.65    2.45 
   6  -2   6   43.66    1.99 
   6  -2   6   43.95    2.40 
  -6  -2  -6   43.18    2.20 
   6  -2   6   44.49    2.45 
  -6   2  -7   -0.80    0.69 
   6   2   7    0.92    0.59 
  -6   2  -7    1.19    0.78 
  -6   2  -7   -0.03    0.73 
   6   2   7    0.06    0.96 
   6   2   7   -0.45    0.97 
  -6  -2  -7    0.59    0.74 
   6  -2   7    0.65    0.77 
   6  -2   7   -0.40    0.68 
  -6  -2  -7    0.14    0.72 
   6  -2   7    0.50    0.36 
  -6   2  -8   15.31    1.39 
   6   2   8   18.25    1.44 
   6   2   8   16.94    2.66 
   6   2   8   19.90    1.83 
  -6   2  -8   17.82    1.71 
  -6   2  -8   19.29    1.62 
   6  -2   8   16.94    1.83 
  -6  -2  -8   17.80    1.56 
  -6  -2  -8   21.85    1.58 
  -6  -2  -8   19.71    2.12 
   6  -2   8   17.57    1.51 
   6  -2   8   18.03    1.53 
   6   2   9   77.30    4.22 
   6   2   9   73.85    3.47 
  -6   2  -9   67.36    3.61 
  -6   2  -9   75.30    3.77 
   6   2   9   78.71    3.91 
   6  -2   9   73.70    3.85 
   6  -2   9   74.07    3.40 
   6  -2   9   78.88    3.39 
  -6  -2  -9   73.21    3.62 
  -6  -2  -9   77.09    3.60 
   6   2  10    8.31    1.47 
  -6   2 -10    4.46    1.09 
   6   2  10    9.14    1.70 
  -6   2 -10    6.44    1.37 
  -6  -2 -10    5.95    1.12 
  -6  -2 -10    7.46    1.22 
   6  -2  10    5.48    0.72 
   6  -2  10    4.16    1.33 
  -6   3  11   72.63    3.80 
  -6   3  11   58.44    3.01 
   6   3 -11   65.22    3.64 
   6   3 -11   63.83    3.29 
   6   3 -11   71.56    4.66 
   6  -3 -11   63.83    3.01 
   6  -3 -11   66.60    4.16 
   6   3 -10    0.42    0.39 
   6   3 -10    1.73    1.87 
  -6   3  10    0.88    1.29 
   6   3 -10    1.23    0.80 
   6   3 -10    1.33    0.86 
  -6   3  10    0.33    0.65 
  -6   3  10   -0.18    1.17 
   6  -3 -10    0.44    1.48 
   6  -3 -10    0.63    0.58 
  -6   3   9   60.01    2.85 
   6   3  -9   64.51    3.01 
   6   3  -9   62.04    2.66 
  -6   3   9   58.60    3.29 
   6   3  -9   60.84    3.98 
  -6   3   9   65.48    3.17 
   6   3  -9   62.02    3.14 
   6  -3  -9   59.45    2.86 
   6  -3  -9   67.40    3.58 
   6  -3  -9   59.13    2.80 
  -6   3   8    9.96    1.04 
  -6   3   8    7.49    0.77 
   6   3  -8   10.80    0.95 
   6   3  -8   10.00    0.95 
  -6   3   8    9.32    1.13 
   6   3  -8    8.22    0.80 
   6  -3  -8   10.12    0.95 
   6  -3  -8   10.01    1.34 
   6  -3  -8    9.62    0.89 
   6   3  -7  175.28    6.90 
  -6   3   7  163.38    7.28 
   6   3  -7  164.38    6.88 
   6   3  -7  148.07    7.02 
  -6   3   7  172.79    6.87 
   6   3  -7  170.76    7.02 
  -6   3   7  177.88    7.13 
  -6   3   7  165.15    6.96 
   6  -3  -7  149.61    7.03 
   6  -3  -7  170.80    6.98 
   6  -3  -7  167.28    6.95 
  -6  -3   7  171.77    6.83 
   6  -3  -7  173.69    7.33 
  -6   3   6   26.12    1.31 
   6   3  -6   24.86    1.32 
   6   3  -6   22.81    1.33 
   6   3  -6   24.69    1.30 
   6   3  -6   24.90    1.80 
   6   3  -6   26.17    1.47 
  -6   3   6   26.96    1.62 
  -6   3   6   22.46    1.40 
  -6   3   6   21.60    1.60 
   6  -3  -6   23.74    1.37 
   6  -3  -6   23.94    1.90 
  -6  -3   6   25.37    1.32 
   6  -3  -6   24.53    1.54 
   6  -3  -6   22.37    1.89 
   6  -3  -6   24.68    1.44 
   6  -3  -6   23.47    1.36 
  -6  -3   6   25.29    1.47 
   6   3  -5  307.12   13.70 
   6   3  -5  336.61   13.55 
  -6   3   5  325.92   13.88 
   6   3  -5  327.21   13.82 
   6   3  -5  337.55   13.59 
   6   3  -5  351.28   13.83 
  -6   3   5  332.07   13.73 
  -6   3   5  352.00   13.61 
   6   3  -5  324.80   13.67 
  -6   3   5  327.79   13.66 
  -6  -3   5  347.13   13.71 
   6  -3  -5  342.42   13.68 
  -6  -3   5  302.01   13.66 
   6  -3  -5  350.35   13.68 
   6  -3  -5  343.29   13.64 
  -6  -3   5  339.71   13.50 
  -6  -3   5  339.02   13.53 
  -6  -3   5  341.16   13.62 
   6  -3  -5  329.54   13.87 
   6  -3  -5  323.99   13.63 
   6  -3  -5  352.18   13.73 
   6   3  -4    0.06    0.43 
  -6   3   4    0.74    0.84 
   6   3  -4    0.69    0.43 
   6   3  -4    0.49    0.77 
  -6   3   4    0.79    0.41 
   6   3  -4    0.37    0.43 
  -6   3   4    0.72    0.50 
   6   3  -4    0.83    0.65 
  -6   3   4    0.29    0.47 
   6   3  -4    1.49    0.46 
   6  -3  -4    1.40    0.44 
  -6  -3   4    0.78    0.30 
   6  -3  -4    0.61    0.43 
  -6  -3   4    0.54    0.42 
   6  -3  -4    0.47    0.42 
  -6  -3   4    1.16    0.47 
  -6  -3   4    0.22    0.48 
   6  -3  -4    1.56    0.56 
  -6  -3   4    0.79    0.58 
  -6  -3   4    0.37    0.30 
   6  -3  -4    1.41    0.73 
   6  -3  -4    0.11    0.64 
  -6   3   3    1.89    0.38 
   6   3  -3    2.74    0.66 
   6   3  -3    1.60    0.49 
   6   3  -3    3.04    0.74 
  -6   3   3    2.71    0.72 
  -6   3   3    2.66    0.40 
   6   3  -3    1.59    0.51 
   6   3  -3    2.52    0.51 
  -6   3   3    1.88    0.47 
  -6   3   3    2.80    0.59 
   6   3  -3    2.03    0.47 
  -6   3   3    2.17    0.57 
  -6  -3   3    1.80    0.49 
  -6  -3   3    2.33    0.63 
   6  -3  -3    1.98    0.61 
   6  -3  -3    2.18    0.28 
  -6  -3   3    3.40    0.53 
   6  -3  -3    2.63    0.50 
   6  -3  -3    2.77    0.57 
  -6  -3   3    2.16    0.52 
   6  -3  -3    3.28    0.58 
  -6  -3   3    3.65    0.60 
   6  -3  -3    2.68    0.71 
   6   3  -2    5.04    0.66 
  -6   3   2    5.33    0.68 
  -6   3   2    3.54    0.61 
  -6   3   2    2.80    0.55 
   6   3  -2    4.10    0.47 
   6   3  -2    3.62    0.51 
   6   3  -2    4.21    0.54 
  -6   3   2    4.11    0.59 
  -6   3   2    5.73    0.65 
   6   3  -2    4.44    0.64 
   6   3  -2    3.79    0.62 
  -6   3   2    3.27    0.62 
   6  -3  -2    4.67    0.69 
   6  -3  -2    5.64    0.65 
  -6  -3   2    5.09    0.64 
  -6  -3   2    3.92    0.68 
   6  -3  -2    5.32    0.47 
  -6  -3   2    3.53    0.50 
  -6  -3   2    4.80    0.55 
   6  -3  -2    5.51    0.69 
   6  -3  -2    4.53    0.74 
   6  -3  -2    5.54    0.66 
   6   3  -1  146.39    5.82 
   6   3  -1  139.33    5.92 
   6   3  -1  133.73    5.82 
   6   3  -1  136.18    5.68 
  -6   3   1  134.59    5.91 
  -6   3   1  134.27    5.84 
   6   3  -1  129.37    5.89 
  -6   3   1  138.25    5.82 
  -6   3   1  144.04    5.93 
  -6   3   1  141.99    5.81 
  -6   3   1  135.60    5.78 
   6   3  -1  143.80    5.84 
  -6  -3   1  144.92    5.92 
  -6  -3   1  142.04    5.73 
  -6  -3   1  137.02    5.81 
   6  -3  -1  136.07    5.93 
   6  -3  -1  127.63    5.86 
   6  -3  -1  142.43    5.84 
   6  -3  -1  135.98    5.73 
  -6  -3   1  135.85    5.74 
   6  -3  -1  140.01    5.85 
  -6  -3   1  139.79    5.89 
  -6  -3   1  141.59    5.82 
   6  -3  -1  138.62    5.83 
   6   3   0   51.69    2.28 
  -6   3   0   50.68    2.57 
   6   3   0   47.69    2.57 
  -6   3   0   58.45    2.63 
  -6   3   0   53.76    2.35 
   6   3   0   55.06    2.36 
   6   3   0   46.42    2.51 
  -6   3   0   50.72    2.43 
   6   3   0   53.26    2.45 
  -6   3   0   50.78    2.46 
  -6   3   0   54.40    2.43 
   6  -3   0   57.66    2.81 
   6  -3   0   54.14    2.42 
  -6  -3   0   53.43    2.54 
  -6  -3   0   46.35    2.53 
  -6  -3   0   52.96    2.66 
   6  -3   0   50.72    2.52 
   6  -3   0   49.98    2.44 
   6  -3   0   50.81    2.43 
  -6  -3   0   52.30    2.29 
  -6  -3   0   52.05    2.36 
   6  -3   0   50.32    2.37 
  -6  -3   0   51.49    2.40 
   6   3   1  500.99   20.16 
  -6   3  -1  515.71   20.29 
   6   3   1  494.45   20.07 
  -6   3  -1  500.04   20.20 
  -6   3  -1  510.86   20.18 
   6   3   1  466.06   20.13 
   6   3   1  481.96   20.26 
  -6   3  -1  498.81   20.07 
  -6   3  -1  502.40   20.20 
   6   3   1  511.52   20.20 
   6   3   1  486.04   20.38 
  -6   3  -1  497.02   20.29 
   6  -3   1  507.73   20.20 
  -6  -3  -1  518.06   20.26 
  -6  -3  -1  486.82   20.04 
   6  -3   1  484.62   20.25 
   6  -3   1  485.33   20.19 
  -6  -3  -1  519.86   20.33 
   6  -3   1  493.32   20.10 
  -6  -3  -1  507.70   20.16 
   6  -3   1  530.50   20.35 
  -6  -3  -1  482.99   20.16 
   6  -3   1  480.93   20.17 
  -6  -3  -1  479.95   20.08 
   6   3   2    4.45    0.46 
  -6   3  -2    3.62    0.70 
   6   3   2    5.53    0.69 
  -6   3  -2    5.78    0.70 
   6   3   2    2.33    0.90 
  -6   3  -2    6.66    0.79 
  -6   3  -2    5.16    0.47 
   6   3   2    4.62    0.88 
   6   3   2    6.00    0.73 
  -6   3  -2    3.00    0.58 
  -6   3  -2    3.99    0.76 
   6  -3   2    4.44    0.74 
   6  -3   2    4.08    0.63 
  -6  -3  -2    4.49    0.51 
  -6  -3  -2    4.92    1.00 
  -6  -3  -2    4.54    0.54 
   6  -3   2    5.29    0.93 
   6  -3   2    5.47    0.74 
  -6  -3  -2    5.16    0.51 
   6  -3   2    3.09    0.62 
  -6  -3  -2    4.23    0.61 
   6  -3   2    4.38    0.48 
   6   3   3   22.25    1.33 
   6   3   3   20.12    1.79 
  -6   3  -3   18.92    1.50 
  -6   3  -3   20.16    1.49 
   6   3   3   19.23    1.30 
  -6   3  -3   18.02    1.68 
   6   3   3   18.21    1.01 
  -6   3  -3   19.31    1.29 
  -6   3  -3   18.09    1.35 
   6   3   3   16.54    1.43 
  -6  -3  -3   18.95    1.47 
  -6  -3  -3   19.36    0.94 
   6  -3   3   19.54    1.70 
  -6  -3  -3   19.21    1.24 
   6  -3   3   15.64    1.37 
   6  -3   3   18.46    1.36 
   6  -3   3   21.28    1.65 
  -6  -3  -3   19.48    1.28 
   6  -3   3   17.68    1.05 
  -6  -3  -3   19.28    2.02 
  -6  -3  -3   19.32    1.12 
   6  -3   3   18.04    1.31 
  -6   3  -4    0.38    0.81 
   6   3   4    0.25    0.58 
  -6   3  -4    0.82    1.02 
   6   3   4    0.97    1.05 
  -6   3  -4    1.12    0.57 
  -6   3  -4   -0.14    0.45 
  -6   3  -4    0.23    0.31 
   6   3   4    0.97    0.36 
  -6   3  -4    1.45    0.74 
   6   3   4   -0.01    0.62 
   6   3   4    0.29    0.52 
  -6  -3  -4   -0.51    0.48 
   6  -3   4    0.23    0.37 
   6  -3   4    0.20    0.60 
  -6  -3  -4   -0.26    0.71 
  -6  -3  -4    0.14    0.50 
   6  -3   4    0.00    0.37 
  -6  -3  -4    0.51    0.24 
   6  -3   4   -0.29    0.78 
   6  -3   4   -0.03    0.60 
  -6  -3  -4    1.38    1.21 
   6  -3   4   -0.09    0.54 
   6  -3   4    0.56    0.83 
  -6  -3  -4    0.51    0.43 
   6   3   5   33.30    2.61 
  -6   3  -5   33.58    1.57 
   6   3   5   37.53    1.64 
  -6   3  -5   38.29    2.33 
   6   3   5   36.09    1.91 
  -6   3  -5   38.32    2.71 
   6   3   5   34.25    1.84 
  -6   3  -5   34.00    1.99 
  -6   3  -5   33.97    1.87 
  -6   3  -5   32.73    2.12 
   6   3   5   33.98    2.09 
  -6  -3  -5   33.68    1.48 
   6  -3   5   38.91    2.14 
   6  -3   5   34.50    1.71 
   6  -3   5   35.76    1.68 
   6  -3   5   32.91    1.96 
   6  -3   5   36.85    2.16 
  -6  -3  -5   32.80    1.88 
  -6  -3  -5   34.09    1.85 
  -6  -3  -5   35.26    2.08 
   6  -3   5   31.98    2.02 
  -6  -3  -5   38.45    2.93 
   6  -3   5   34.39    2.13 
  -6  -3  -5   34.40    1.80 
   6   3   6    6.66    0.76 
   6   3   6    8.23    1.09 
  -6   3  -6    8.04    0.95 
  -6   3  -6    7.45    0.67 
   6   3   6    6.95    1.33 
  -6   3  -6    9.26    1.02 
  -6   3  -6    8.69    0.84 
   6  -3   6    8.08    1.06 
   6  -3   6    7.73    0.76 
  -6  -3  -6    7.12    0.78 
  -6  -3  -6    7.18    0.79 
  -6  -3  -6    7.46    1.08 
  -6  -3  -6    8.89    1.82 
   6  -3   6    7.34    0.73 
  -6  -3  -6    7.22    0.87 
   6  -3   6    6.17    1.08 
   6  -3   6    6.15    0.96 
   6  -3   6    7.21    1.32 
  -6   3  -7  275.12   12.15 
   6   3   7  284.68   11.95 
  -6   3  -7  280.32   11.66 
  -6   3  -7  274.70   11.47 
   6   3   7  291.80   11.71 
   6   3   7  281.84   12.06 
  -6   3  -7  275.44   11.78 
   6  -3   7  301.31   11.84 
   6  -3   7  264.87   11.85 
   6  -3   7  302.24   11.50 
  -6  -3  -7  287.14   11.72 
  -6  -3  -7  290.82   11.80 
  -6  -3  -7  284.67   11.72 
   6  -3   7  284.33   11.70 
  -6   3  -8    3.70    0.89 
   6   3   8    3.01    0.82 
  -6   3  -8    2.14    1.01 
   6   3   8    3.29    1.22 
   6   3   8    1.72    1.63 
  -6   3  -8    2.67    0.82 
   6  -3   8    4.95    1.00 
   6  -3   8    4.04    0.72 
  -6  -3  -8    5.16    1.93 
  -6  -3  -8    2.58    0.80 
   6  -3   8    5.05    1.17 
  -6  -3  -8    2.96    0.76 
  -6   3  -9   31.54    2.04 
  -6   3  -9   36.78    2.45 
   6   3   9   31.52    2.81 
   6   3   9   30.90    2.77 
   6  -3   9   29.90    2.50 
  -6  -3  -9   32.67    2.13 
   6  -3   9   33.00    1.96 
  -6  -3  -9   28.76    2.14 
   6  -3   9   32.75    1.75 
   6   3  10    1.29    1.37 
  -6   3 -10    1.34    0.90 
   6   3  10    1.69    1.77 
  -6   3 -10    1.25    1.30 
  -6  -3 -10    2.74    1.11 
  -6  -3 -10    2.85    1.06 
   6  -3  10    1.59    0.68 
   6  -3  10    0.77    0.53 
   6   4 -10  116.95    4.70 
  -6   4  10  112.59    5.45 
  -6   4  10  106.67    4.97 
   6   4 -10  112.92    5.13 
   6   4 -10  114.77    6.13 
   6  -4 -10  112.96    4.93 
   6  -4 -10  120.42    5.58 
   6   4  -9  105.44    4.60 
   6   4  -9  109.65    4.47 
  -6   4   9  104.23    4.69 
  -6   4   9  103.15    5.05 
  -6   4   9  105.87    5.12 
   6   4  -9  107.27    4.80 
   6  -4  -9  113.17    5.20 
   6  -4  -9  107.94    4.65 
  -6   4   8   16.75    1.71 
   6   4  -8   17.79    1.74 
   6   4  -8   18.14    1.15 
   6   4  -8   17.04    1.49 
  -6   4   8   15.65    1.36 
  -6   4   8   12.55    1.34 
   6   4  -8   16.31    1.57 
   6   4  -8   15.39    1.04 
   6  -4  -8   16.31    1.28 
   6  -4  -8   15.95    1.49 
   6  -4  -8   15.19    1.33 
   6  -4  -8   14.86    1.57 
  -6  -4   8   14.94    1.08 
  -6  -4   8   16.69    0.93 
   6   4  -7    9.29    0.77 
  -6   4   7    7.85    0.82 
   6   4  -7    9.96    1.26 
  -6   4   7    7.32    0.99 
   6   4  -7    8.92    0.73 
  -6   4   7    9.40    1.01 
  -6   4   7    8.91    0.77 
   6   4  -7    8.26    0.70 
  -6  -4   7    8.80    0.83 
   6  -4  -7    5.77    0.71 
  -6  -4   7    8.36    0.81 
   6  -4  -7   10.05    0.96 
   6  -4  -7    5.82    1.22 
   6  -4  -7    8.09    0.77 
   6   4  -6    0.43    1.07 
   6   4  -6    0.95    0.44 
  -6   4   6    1.08    0.55 
   6   4  -6    0.98    0.46 
  -6   4   6    1.24    0.74 
   6   4  -6    0.62    0.58 
  -6   4   6    1.49    0.52 
   6   4  -6    0.73    0.39 
  -6   4   6    1.06    0.70 
   6  -4  -6   -0.33    0.49 
  -6  -4   6    0.80    0.48 
   6  -4  -6    0.61    0.50 
   6  -4  -6    0.71    1.01 
   6  -4  -6    0.55    0.42 
  -6  -4   6    0.49    0.58 
  -6   4   5   60.28    2.86 
   6   4  -5   62.40    2.95 
   6   4  -5   63.94    2.53 
   6   4  -5   56.84    2.69 
  -6   4   5   58.05    2.86 
  -6   4   5   56.55    2.77 
   6   4  -5   60.81    2.81 
   6   4  -5   58.11    2.65 
  -6   4   5   60.59    2.71 
   6  -4  -5   56.33    2.70 
  -6  -4   5   61.52    2.77 
   6  -4  -5   61.48    2.83 
  -6  -4   5   61.55    2.97 
   6  -4  -5   57.24    3.01 
   6  -4  -5   56.88    2.72 
   6  -4  -5   57.04    2.76 
  -6  -4   5   59.31    2.55 
  -6  -4   5   58.01    2.72 
  -6  -4   5   58.32    2.69 
   6   4  -4  219.16    9.96 
   6   4  -4  231.26    9.58 
  -6   4   4  227.43    9.69 
  -6   4   4  242.76    9.60 
  -6   4   4  227.39    9.65 
   6   4  -4  234.01    9.59 
   6   4  -4  221.68    9.65 
  -6   4   4  223.50    9.74 
   6   4  -4  248.86    9.77 
  -6   4   4  242.96    9.71 
   6  -4  -4  242.39    9.79 
  -6  -4   4  233.91    9.51 
  -6  -4   4  242.97    9.61 
  -6  -4   4  230.99    9.63 
  -6  -4   4  235.56    9.71 
   6  -4  -4  226.46    9.60 
   6  -4  -4  248.67    9.67 
  -6  -4   4  224.15    9.59 
   6  -4  -4  236.80    9.71 
   6  -4  -4  226.02    9.65 
  -6  -4   4  233.55    9.66 
  -6   4   3  174.93    7.32 
  -6   4   3  172.97    7.40 
   6   4  -3  168.08    7.41 
   6   4  -3  172.58    7.38 
   6   4  -3  175.31    7.32 
  -6   4   3  173.97    7.36 
  -6   4   3  166.18    7.41 
   6   4  -3  185.30    7.43 
   6   4  -3  174.34    7.31 
  -6   4   3  189.74    7.20 
  -6   4   3  180.80    7.43 
   6  -4  -3  169.94    7.37 
  -6  -4   3  168.66    7.32 
   6  -4  -3  173.02    7.32 
  -6  -4   3  181.86    7.44 
   6  -4  -3  185.84    7.45 
   6  -4  -3  173.13    7.33 
  -6  -4   3  170.62    7.31 
  -6  -4   3  180.01    7.35 
  -6  -4   3  184.44    7.34 
   6  -4  -3  181.04    7.37 
   6  -4  -3  177.84    7.46 
  -6  -4   3  168.87    7.24 
   6   4  -2  154.40    6.66 
  -6   4   2  153.13    6.60 
  -6   4   2  161.84    6.51 
  -6   4   2  152.87    6.57 
  -6   4   2  155.90    6.66 
   6   4  -2  153.75    6.56 
  -6   4   2  151.53    6.61 
  -6   4   2  162.97    6.68 
   6   4  -2  161.29    6.59 
   6   4  -2  153.32    6.65 
   6   4  -2  164.09    6.64 
   6  -4  -2  161.34    6.61 
   6  -4  -2  156.91    6.64 
  -6  -4   2  162.61    6.63 
  -6  -4   2  154.95    6.56 
   6  -4  -2  157.04    6.57 
   6  -4  -2  159.54    6.71 
  -6  -4   2  154.59    6.54 
  -6  -4   2  151.00    6.51 
   6  -4  -2  158.12    6.59 
   6  -4  -2  157.72    6.67 
  -6  -4   2  160.11    6.67 
  -6   4   1   80.55    3.61 
   6   4  -1   81.56    3.57 
  -6   4   1   78.94    3.67 
   6   4  -1   80.89    3.58 
  -6   4   1   84.06    3.58 
  -6   4   1   85.15    3.69 
   6   4  -1   85.90    3.58 
   6   4  -1   80.68    3.67 
  -6   4   1   79.39    3.55 
  -6   4   1   83.54    3.51 
   6   4  -1   75.04    3.62 
  -6  -4   1   79.74    3.49 
   6  -4  -1   80.32    3.60 
  -6  -4   1   80.28    3.61 
  -6  -4   1   84.84    3.55 
   6  -4  -1   84.08    3.61 
  -6  -4   1   78.69    3.51 
   6  -4  -1   73.98    3.83 
   6  -4  -1   81.47    3.54 
  -6  -4   1   79.11    3.69 
   6  -4  -1   77.78    3.43 
   6  -4  -1   85.42    3.79 
  -6  -4   1   78.15    3.38 
   6  -4  -1   77.53    3.61 
  -6  -4   1   80.64    3.54 
  -6   4   0   66.54    3.05 
  -6   4   0   63.09    2.90 
   6   4   0   62.90    3.07 
   6   4   0   63.72    2.91 
  -6   4   0   61.64    2.93 
  -6   4   0   62.14    3.05 
   6   4   0   58.35    2.96 
   6   4   0   62.99    2.93 
   6   4   0   65.78    2.86 
  -6   4   0   65.04    2.86 
  -6   4   0   67.80    2.87 
   6  -4   0   61.54    2.80 
   6  -4   0   58.58    2.94 
   6  -4   0   65.33    2.89 
  -6  -4   0   66.42    3.12 
  -6  -4   0   63.05    2.76 
  -6  -4   0   62.20    2.88 
   6  -4   0   62.54    3.29 
  -6  -4   0   66.83    2.97 
   6  -4   0   63.14    2.86 
  -6  -4   0   60.86    2.86 
   6  -4   0   60.35    2.91 
  -6  -4   0   64.78    2.78 
   6  -4   0   62.20    2.89 
   6   4   1    3.03    0.66 
  -6   4  -1    3.49    0.66 
   6   4   1    1.94    0.52 
  -6   4  -1    2.94    0.62 
  -6   4  -1    2.71    0.51 
  -6   4  -1    2.50    0.53 
  -6   4  -1    1.77    0.68 
   6   4   1    2.16    0.57 
  -6   4  -1    1.89    0.69 
   6   4   1    2.19    0.63 
   6   4   1    1.97    0.81 
  -6  -4  -1    2.41    0.52 
  -6  -4  -1    2.74    0.44 
  -6  -4  -1    2.26    0.50 
   6  -4   1    1.78    0.50 
   6  -4   1    2.66    0.53 
   6  -4   1    2.33    0.58 
  -6  -4  -1    1.82    0.62 
   6  -4   1    1.95    0.89 
  -6  -4  -1    2.79    0.61 
   6  -4   1    3.83    0.70 
   6  -4   1    1.81    0.52 
  -6  -4  -1    3.35    0.91 
  -6   4  -2  207.14    8.27 
  -6   4  -2  207.52    8.39 
   6   4   2  201.71    8.27 
   6   4   2  195.48    8.23 
   6   4   2  185.25    8.56 
  -6   4  -2  202.43    8.26 
  -6   4  -2  190.28    8.38 
   6   4   2  186.27    8.31 
  -6   4  -2  200.03    8.12 
   6   4   2  202.67    8.14 
  -6   4  -2  197.05    8.26 
   6  -4   2  192.62    8.29 
  -6  -4  -2  200.11    8.22 
   6  -4   2  196.53    8.43 
   6  -4   2  191.66    8.24 
  -6  -4  -2  204.84    8.47 
   6  -4   2  197.39    8.17 
  -6  -4  -2  199.30    8.08 
   6  -4   2  197.56    8.17 
  -6  -4  -2  200.48    8.32 
  -6  -4  -2  197.41    8.23 
  -6  -4  -2  202.35    8.13 
   6  -4   2  205.13    8.26 
   6  -4   2  191.91    8.29 
  -6   4  -3  127.24    5.52 
   6   4   3  129.69    5.49 
   6   4   3  130.03    6.01 
  -6   4  -3  130.75    5.51 
   6   4   3  131.98    5.54 
  -6   4  -3  130.78    5.70 
  -6   4  -3  123.19    5.34 
  -6   4  -3  129.37    5.59 
  -6   4  -3  131.56    5.68 
   6   4   3  124.28    5.59 
   6   4   3  137.02    5.38 
  -6  -4  -3  127.74    5.50 
  -6  -4  -3  131.31    5.46 
  -6  -4  -3  126.91    5.29 
   6  -4   3  127.47    5.61 
   6  -4   3  135.25    5.54 
   6  -4   3  119.14    5.68 
   6  -4   3  129.01    5.40 
  -6  -4  -3  134.35    5.48 
  -6  -4  -3  129.40    5.39 
   6  -4   3  121.87    5.54 
   6  -4   3  124.27    5.53 
  -6  -4  -3  132.80    5.61 
  -6  -4  -3  122.96    5.89 
  -6   4  -4  141.42    6.14 
   6   4   4  138.51    6.23 
   6   4   4  145.60    6.15 
  -6   4  -4  149.90    6.30 
  -6   4  -4  146.39    6.27 
  -6   4  -4  139.69    6.38 
  -6   4  -4  143.54    6.11 
   6   4   4  143.61    6.66 
   6   4   4  137.76    6.09 
  -6   4  -4  138.06    5.94 
  -6  -4  -4  152.03    6.24 
   6  -4   4  142.83    6.15 
  -6  -4  -4  148.67    6.57 
  -6  -4  -4  143.43    6.13 
  -6  -4  -4  146.00    5.89 
   6  -4   4  151.76    6.01 
   6  -4   4  146.56    6.23 
  -6  -4  -4  139.68    6.12 
   6  -4   4  140.96    6.35 
   6  -4   4  146.10    6.01 
   6  -4   4  148.44    6.31 
   6  -4   4  139.20    6.18 
  -6  -4  -4  144.45    6.09 
  -6  -4  -4  144.12    6.03 
   6   4   5   45.67    2.39 
   6   4   5   45.13    3.20 
  -6   4  -5   48.16    2.70 
   6   4   5   50.14    2.28 
  -6   4  -5   45.40    2.41 
   6   4   5   49.23    2.46 
  -6   4  -5   50.48    2.39 
   6   4   5   46.16    2.58 
  -6   4  -5   45.97    2.16 
   6  -4   5   51.09    2.57 
  -6  -4  -5   50.85    3.44 
  -6  -4  -5   45.97    2.53 
   6  -4   5   50.64    2.31 
   6  -4   5   48.58    2.57 
   6  -4   5   48.09    2.19 
  -6  -4  -5   49.56    2.07 
  -6  -4  -5   47.81    2.29 
  -6  -4  -5   43.08    2.60 
   6  -4   5   45.20    2.38 
   6  -4   5   49.55    2.74 
  -6  -4  -5   47.80    2.36 
  -6  -4  -5   47.81    2.63 
   6   4   6   94.36    5.19 
  -6   4  -6  100.31    4.60 
   6   4   6  118.27    4.53 
   6   4   6  108.73    4.68 
  -6   4  -6  100.34    4.64 
  -6   4  -6  103.08    4.42 
  -6   4  -6  105.34    4.94 
   6  -4   6  105.83    4.42 
   6  -4   6  103.21    4.59 
   6  -4   6  107.83    4.56 
  -6  -4  -6  106.07    4.58 
   6  -4   6  109.95    4.90 
  -6  -4  -6  105.79    4.69 
  -6  -4  -6   96.25    5.85 
   6  -4   6  109.56    4.81 
  -6  -4  -6  102.73    4.60 
  -6  -4  -6  107.10    4.32 
  -6   4  -7    1.80    0.72 
   6   4   7    1.69    0.99 
   6   4   7    1.80    1.36 
  -6   4  -7    1.68    0.83 
  -6   4  -7    2.07    0.64 
   6   4   7    3.16    0.78 
  -6   4  -7    2.42    1.05 
   6  -4   7    2.44    0.48 
   6  -4   7    3.17    0.83 
  -6  -4  -7    2.19    0.33 
   6  -4   7    1.68    0.63 
  -6  -4  -7    1.34    0.97 
  -6  -4  -7    1.29    0.71 
   6  -4   7    3.35    1.06 
  -6  -4  -7    2.65    0.75 
  -6   4  -8   25.90    1.79 
   6   4   8   25.18    2.39 
  -6   4  -8   24.65    2.39 
   6   4   8   23.72    2.07 
   6  -4   8   25.12    1.56 
  -6  -4  -8   22.85    1.83 
   6  -4   8   28.96    2.17 
  -6  -4  -8   25.01    1.83 
   6   4   9   44.08    3.17 
   6   4   9   41.82    2.99 
  -6   4  -9   40.20    2.36 
  -6   4  -9   46.42    3.08 
   6  -4   9   42.39    2.11 
  -6  -4  -9   44.82    2.56 
   6  -4   9   41.41    2.53 
  -6  -4  -9   43.13    2.52 
   6   5  -9    0.80    1.00 
  -6   5   9   -0.77    0.87 
   6   5  -9    0.18    0.63 
  -6   5   9    0.44    1.24 
   6  -5  -9    0.40    1.40 
   6  -5  -9   -0.46    0.77 
   6   5  -8  136.29    5.65 
  -6   5   8  133.10    6.09 
   6   5  -8  139.16    6.55 
   6   5  -8  134.42    5.93 
  -6   5   8  131.11    5.87 
  -6  -5   8  131.77    5.70 
   6  -5  -8  133.41    5.80 
   6  -5  -8  145.07    6.23 
  -6  -5   8  136.41    5.59 
  -6   5   7   16.21    1.51 
  -6   5   7   17.97    1.72 
   6   5  -7   15.87    1.19 
   6   5  -7   19.26    1.88 
   6   5  -7   15.82    1.55 
  -6   5   7   16.29    1.48 
  -6   5   7   19.10    1.41 
  -6  -5   7   14.62    1.39 
   6  -5  -7   17.40    1.39 
  -6  -5   7   17.30    1.18 
   6  -5  -7   14.51    1.57 
   6  -5  -7   17.28    1.64 
   6  -5  -7   17.41    1.57 
  -6   5   6  216.58    8.81 
   6   5  -6  208.17    8.59 
   6   5  -6  209.40    8.75 
  -6   5   6  196.93    8.79 
  -6   5   6  203.01    8.72 
  -6   5   6  220.44    8.66 
  -6  -5   6  203.47    8.51 
   6  -5  -6  206.12    8.66 
  -6  -5   6  201.87    8.63 
   6  -5  -6  210.83    8.70 
  -6  -5   6  212.29    8.59 
   6  -5  -6  206.30    8.74 
   6  -5  -6  216.14    8.93 
  -6   5   5    2.93    0.65 
  -6   5   5    3.38    0.89 
   6   5  -5    3.59    0.93 
   6   5  -5    3.49    0.55 
  -6   5   5    2.57    0.74 
  -6  -5   5    2.91    0.79 
  -6  -5   5    3.69    0.65 
   6  -5  -5    2.40    0.78 
   6  -5  -5    3.58    0.77 
   6  -5  -5    2.71    0.63 
   6  -5  -5    2.99    1.04 
  -6  -5   5    2.79    0.60 
  -6  -5   5    1.77    0.83 
   6  -5  -5    2.02    0.55 
  -6   5   4   53.65    2.66 
  -6   5   4   51.29    2.59 
   6   5  -4   49.59    2.57 
  -6   5   4   54.16    2.45 
   6   5  -4   48.51    2.36 
   6   5  -4   51.66    2.55 
  -6   5   4   48.71    2.54 
  -6  -5   4   53.88    2.44 
  -6  -5   4   52.10    2.48 
   6  -5  -4   47.71    2.45 
   6  -5  -4   51.83    2.57 
  -6  -5   4   49.07    2.49 
   6  -5  -4   50.27    2.44 
   6  -5  -4   46.46    2.63 
   6  -5  -4   51.66    2.71 
  -6  -5   4   49.11    2.40 
   6   5  -3    4.97    0.74 
  -6   5   3    7.32    0.96 
  -6   5   3    6.01    0.61 
   6   5  -3    5.32    0.68 
  -6   5   3    6.10    0.83 
  -6   5   3    5.98    0.78 
   6   5  -3    4.98    0.97 
   6   5  -3    4.99    0.77 
  -6   5   3    4.51    1.07 
  -6   5   3    5.44    0.50 
   6   5  -3    5.37    0.83 
  -6   5   3    5.07    0.72 
   6  -5  -3    4.74    0.84 
   6  -5  -3    4.82    0.81 
   6  -5  -3    6.86    0.78 
   6  -5  -3    9.10    1.09 
  -6  -5   3    5.07    0.68 
   6  -5  -3    7.37    0.80 
   6  -5  -3    5.22    0.77 
  -6  -5   3    5.23    0.67 
  -6  -5   3    4.04    0.63 
  -6  -5   3    4.78    0.71 
   6   5  -2  108.72    4.99 
  -6   5   2  107.23    4.98 
  -6   5   2  123.89    5.10 
   6   5  -2  111.72    4.90 
  -6   5   2  112.00    5.01 
  -6   5   2  113.88    5.00 
  -6   5   2  116.00    4.75 
   6   5  -2  116.04    4.97 
  -6   5   2  121.44    4.83 
   6   5  -2  117.03    5.05 
   6   5  -2  114.80    5.04 
  -6   5   2  113.88    4.94 
  -6  -5   2  109.85    4.89 
  -6  -5   2  112.88    5.08 
  -6  -5   2  117.61    4.98 
  -6  -5   2  110.47    4.88 
   6  -5  -2  120.39    4.99 
   6  -5  -2  114.01    5.05 
   6  -5  -2  113.10    4.97 
   6  -5  -2  118.24    5.14 
   6  -5  -2  115.08    5.00 
   6  -5  -2  120.12    4.95 
  -6  -5   2  113.46    4.91 
  -6   5   1   48.35    2.48 
   6   5  -1   50.95    2.55 
  -6   5   1   47.27    2.48 
   6   5  -1   49.59    2.46 
   6   5  -1   51.90    2.51 
  -6   5   1   50.65    2.56 
   6   5  -1   48.38    2.39 
  -6   5   1   48.24    2.37 
  -6   5   1   52.02    2.30 
  -6   5   1   45.66    2.42 
   6  -5  -1   46.96    2.44 
   6  -5  -1   48.16    2.75 
   6  -5  -1   49.99    2.36 
  -6  -5   1   50.57    2.34 
   6  -5  -1   49.86    2.44 
  -6  -5   1   45.88    2.33 
   6  -5  -1   50.50    2.47 
  -6  -5   1   46.15    2.34 
  -6  -5   1   47.53    2.28 
   6  -5  -1   49.62    2.46 
  -6  -5   1   47.41    2.61 
  -6  -5   1   46.77    2.44 
  -6   5   0  305.83   12.68 
   6   5   0  313.71   12.71 
   6   5   0  311.69   12.67 
  -6   5   0  298.22   12.62 
  -6   5   0  303.17   12.71 
  -6   5   0  328.78   12.64 
   6   5   0  308.47   12.77 
  -6   5   0  317.65   12.78 
   6   5   0  307.24   12.82 
   6   5   0  305.71   12.67 
  -6   5   0  312.64   12.76 
  -6  -5   0  304.86   12.58 
   6  -5   0  320.21   12.72 
   6  -5   0  321.55   12.96 
  -6  -5   0  302.61   12.78 
  -6  -5   0  301.85   12.66 
  -6  -5   0  322.59   12.47 
   6  -5   0  302.40   12.73 
   6  -5   0  301.02   12.69 
  -6  -5   0  285.62   12.63 
   6  -5   0  307.22   12.69 
  -6  -5   0  318.69   12.67 
  -6  -5   0  305.50   12.73 
  -6  -5   0  307.47   12.52 
   6  -5   0  314.70   12.65 
  -6   5  -1    1.41    0.57 
  -6   5  -1    1.01    0.58 
   6   5   1    1.11    0.85 
   6   5   1    0.80    0.60 
  -6   5  -1    0.89    0.56 
  -6   5  -1    0.95    0.71 
   6   5   1    1.25    0.58 
  -6   5  -1    1.67    0.82 
   6   5   1    1.11    0.57 
   6   5   1    0.90    0.64 
  -6   5  -1    1.87    0.64 
   6  -5   1    1.86    1.10 
   6  -5   1    0.90    0.60 
   6  -5   1    1.22    0.65 
   6  -5   1    2.04    0.64 
  -6  -5  -1    0.99    0.51 
  -6  -5  -1    1.38    0.64 
  -6  -5  -1    1.53    0.56 
   6  -5   1    1.09    0.74 
  -6  -5  -1    1.13    0.43 
  -6  -5  -1    1.60    0.43 
  -6  -5  -1    1.68    0.43 
  -6  -5  -1    1.87    0.99 
  -6  -5  -1    1.19    0.55 
   6  -5   1    1.35    0.56 
  -6   5  -2  213.31    9.24 
   6   5   2  237.74    9.30 
  -6   5  -2  233.32    9.39 
  -6   5  -2  225.49    9.48 
  -6   5  -2  213.74    9.47 
   6   5   2  219.27    9.33 
  -6   5  -2  217.26    9.34 
   6   5   2  237.17    9.65 
   6   5   2  220.45    9.67 
   6   5   2  230.70    9.40 
  -6  -5  -2  222.65    9.19 
   6  -5   2  227.49    9.41 
  -6  -5  -2  227.06    9.19 
  -6  -5  -2  225.70    9.53 
  -6  -5  -2  225.37    9.32 
   6  -5   2  223.90    9.34 
  -6  -5  -2  214.48    9.32 
  -6  -5  -2  230.63    9.22 
   6  -5   2  226.09    9.28 
   6  -5   2  219.90    9.30 
  -6  -5  -2  231.98    9.43 
   6  -5   2  230.68    9.58 
  -6  -5  -2  223.37    9.34 
   6  -5   2  224.31    9.40 
   6   5   3    8.93    1.00 
   6   5   3    6.81    0.94 
  -6   5  -3    8.62    1.13 
  -6   5  -3    7.36    0.82 
  -6   5  -3    7.96    0.79 
   6   5   3    9.13    0.84 
   6   5   3    8.05    1.47 
  -6   5  -3    9.14    1.21 
  -6   5  -3    7.75    0.87 
  -6   5  -3    6.86    1.07 
   6  -5   3    8.47    0.84 
  -6  -5  -3    9.43    0.79 
  -6  -5  -3   10.49    1.15 
  -6  -5  -3    9.10    0.83 
  -6  -5  -3   10.01    0.92 
  -6  -5  -3    8.07    1.29 
   6  -5   3    8.17    1.01 
   6  -5   3    6.40    0.80 
   6  -5   3    9.32    0.93 
   6  -5   3    6.96    1.19 
  -6  -5  -3    8.64    0.88 
  -6  -5  -3    8.73    0.91 
  -6  -5  -3    9.40    0.94 
   6   5   4    6.06    1.51 
   6   5   4    4.26    0.83 
  -6   5  -4    5.83    0.83 
   6   5   4    3.92    0.78 
   6   5   4    4.82    0.82 
  -6   5  -4    3.80    0.67 
  -6   5  -4    5.82    1.12 
   6   5   4    5.94    0.98 
  -6   5  -4    6.07    0.71 
  -6  -5  -4    4.86    0.52 
  -6  -5  -4    4.42    0.95 
  -6  -5  -4    4.23    0.82 
   6  -5   4    4.90    0.75 
  -6  -5  -4    5.24    1.36 
  -6  -5  -4    4.76    0.74 
  -6  -5  -4    5.41    0.86 
  -6  -5  -4    5.36    0.84 
   6  -5   4    5.07    0.73 
   6  -5   4    5.27    0.64 
   6  -5   4    5.52    1.17 
  -6  -5  -4    5.06    0.63 
   6   5   5    6.38    1.59 
   6   5   5    5.93    0.94 
  -6   5  -5    8.03    1.19 
   6   5   5    7.14    0.91 
  -6   5  -5    6.75    0.87 
  -6   5  -5    5.33    0.84 
  -6   5  -5    7.51    0.79 
   6  -5   5    6.59    0.88 
  -6  -5  -5    4.50    0.85 
   6  -5   5    4.64    0.76 
  -6  -5  -5    6.85    0.91 
   6  -5   5    6.79    0.99 
   6  -5   5    7.44    0.70 
  -6  -5  -5    7.28    0.81 
   6  -5   5    8.20    1.64 
  -6  -5  -5    6.69    0.58 
  -6  -5  -5    4.89    1.01 
  -6  -5  -5    6.43    0.74 
  -6  -5  -5    7.36    1.02 
  -6   5  -6   93.16    4.44 
   6   5   6  100.10    4.53 
   6   5   6   95.46    5.21 
  -6   5  -6  102.18    4.73 
   6   5   6  110.92    4.53 
  -6   5  -6   94.27    4.31 
  -6   5  -6   95.49    4.41 
   6   5   6   92.94    4.62 
  -6  -5  -6  101.28    4.46 
   6  -5   6   98.83    4.37 
   6  -5   6  101.10    4.23 
  -6  -5  -6   97.66    4.88 
  -6  -5  -6   93.52    4.55 
   6  -5   6  106.70    4.68 
   6  -5   6  103.37    4.44 
  -6  -5  -6  102.35    4.15 
   6   5   7    0.32    0.97 
   6   5   7    1.50    1.55 
  -6   5  -7    0.38    1.19 
  -6   5  -7    0.87    0.74 
  -6  -5  -7    0.78    0.43 
   6  -5   7    1.20    0.60 
  -6  -5  -7    0.30    0.80 
   6  -5   7    2.03    0.94 
   6  -5   7    1.45    0.63 
  -6  -5  -7    1.37    0.80 
   6  -5   7    2.41    1.22 
   6   5   8  148.75    6.74 
   6   5   8  146.25    6.55 
  -6   5  -8  135.96    6.11 
  -6   5  -8  147.61    6.61 
   6  -5   8  139.38    6.02 
  -6  -5  -8  139.98    6.20 
  -6  -5  -8  138.45    6.21 
   6  -5   8  148.04    6.31 
  -6   5  -9   10.80    1.82 
  -6   5  -9    8.49    1.03 
   6   5   9   10.82    1.74 
   6   5   9    9.93    1.85 
  -6  -5  -9    7.74    1.23 
  -6  -5  -9    8.76    1.33 
   6  -5   9    9.65    0.89 
  -6   6   9   27.42    2.87 
   6   6  -9   31.08    2.46 
  -6   6   9   28.39    2.71 
   6  -6  -9   28.61    2.18 
   6  -6  -9   30.36    2.42 
   6   6  -8   92.97    4.40 
  -6   6   8   93.72    4.63 
  -6   6   8   93.60    4.37 
  -6  -6   8   94.64    4.09 
   6  -6  -8   93.62    4.72 
   6  -6  -8   90.58    4.26 
  -6  -6   8   89.79    4.19 
   6   6  -7    2.31    0.91 
  -6   6   7    0.33    0.85 
  -6   6   7    2.16    1.05 
  -6  -6   7    2.18    0.78 
   6  -6  -7    1.81    1.33 
  -6  -6   7    1.54    0.72 
   6  -6  -7    1.17    0.80 
  -6   6   6   38.85    2.29 
  -6   6   6   35.44    2.38 
   6   6  -6   36.25    2.00 
   6   6  -6   37.12    2.30 
   6  -6  -6   39.12    2.17 
  -6  -6   6   41.11    2.16 
  -6  -6   6   34.64    2.35 
  -6  -6   6   38.40    2.05 
   6  -6  -6   38.67    2.59 
   6  -6  -6   35.54    2.30 
  -6  -6   6   36.67    2.03 
   6   6  -5    8.75    0.88 
  -6   6   5    5.91    1.01 
   6   6  -5    8.99    1.05 
  -6   6   5   10.02    1.27 
  -6   6   5    5.89    0.88 
   6   6  -5    7.94    1.23 
  -6   6   5    6.79    0.83 
   6  -6  -5    6.10    0.99 
  -6  -6   5    8.56    0.87 
  -6  -6   5    7.21    0.81 
   6  -6  -5    9.73    1.09 
  -6  -6   5    8.14    1.03 
   6  -6  -5    7.06    1.19 
  -6  -6   5    9.32    1.05 
   6  -6  -5    7.22    0.91 
  -6   6   4  108.63    4.93 
  -6   6   4  119.66    5.09 
   6   6  -4  110.25    4.98 
   6   6  -4  107.62    4.79 
  -6   6   4  108.28    4.94 
  -6   6   4  114.22    4.88 
   6   6  -4  112.96    4.97 
   6  -6  -4  109.96    5.05 
   6  -6  -4  116.52    4.87 
   6  -6  -4  108.00    4.95 
   6  -6  -4  108.39    4.93 
  -6  -6   4  109.71    4.80 
  -6  -6   4  106.56    4.86 
  -6  -6   4  112.65    4.84 
   6  -6  -4  107.07    4.91 
  -6  -6   4  115.91    4.85 
   6   6  -3   53.65    2.81 
  -6   6   3   58.20    2.42 
   6   6  -3   52.29    2.81 
   6   6  -3   53.81    2.69 
  -6   6   3   53.28    2.80 
  -6   6   3   60.02    3.03 
  -6   6   3   55.86    2.50 
  -6   6   3   53.37    2.79 
  -6   6   3   59.22    2.76 
  -6  -6   3   48.91    2.74 
  -6  -6   3   56.45    2.68 
   6  -6  -3   54.60    2.71 
  -6  -6   3   53.33    2.67 
   6  -6  -3   58.36    2.84 
   6  -6  -3   57.05    2.92 
   6  -6  -3   58.54    2.80 
   6  -6  -3   56.47    2.79 
  -6   6   2  303.32   11.81 
   6   6  -2  280.63   12.00 
  -6   6   2  294.89   12.05 
   6   6  -2  294.78   11.96 
  -6   6   2  299.82   11.99 
  -6   6   2  254.92   12.09 
  -6   6   2  305.39   12.13 
   6   6  -2  285.15   12.05 
   6   6  -2  255.67   12.48 
  -6   6   2  299.13   12.03 
  -6  -6   2  300.26   12.02 
   6  -6  -2  300.85   12.03 
  -6  -6   2  293.89   11.96 
   6  -6  -2  297.99   11.97 
   6  -6  -2  294.33   12.02 
   6  -6  -2  279.06   12.20 
  -6  -6   2  297.14   11.95 
   6  -6  -2  293.25   12.05 
  -6   6   1    7.08    0.88 
  -6   6   1    7.13    0.75 
  -6   6   1    5.31    0.85 
  -6   6   1    5.86    1.08 
   6   6  -1    4.76    0.95 
   6   6  -1    6.64    0.94 
   6   6  -1    6.95    0.87 
  -6   6   1    6.32    0.63 
  -6   6   1    6.15    0.90 
   6   6  -1    5.12    0.92 
  -6  -6   1    6.33    0.72 
   6  -6  -1    6.59    0.89 
  -6  -6   1    6.19    0.92 
  -6  -6   1    7.20    0.88 
   6  -6  -1    5.22    0.85 
   6  -6  -1    5.17    0.69 
   6  -6  -1    7.14    1.01 
  -6  -6   1    7.60    0.84 
  -6  -6   1    5.84    0.70 
   6  -6  -1    5.95    0.91 
   6  -6  -1    5.75    1.32 
   6   6   0    0.42    0.67 
   6   6   0    0.99    0.83 
  -6   6   0    0.94    0.90 
  -6   6   0    0.35    0.69 
  -6   6   0    0.38    0.69 
  -6   6   0   -0.22    0.74 
   6   6   0   -0.34    0.84 
  -6   6   0    0.55    0.67 
   6   6   0    1.06    0.85 
   6   6   0    2.18    0.86 
  -6  -6   0    0.37    0.71 
  -6  -6   0    0.99    0.56 
   6  -6   0    0.48    1.29 
   6  -6   0    1.84    0.66 
   6  -6   0    0.55    0.96 
  -6  -6   0    0.63    0.75 
   6  -6   0    0.81    0.70 
  -6  -6   0    1.36    0.32 
   6  -6   0    0.98    0.62 
  -6  -6   0    1.36    0.56 
  -6  -6   0   -0.16    0.65 
  -6  -6   0    0.82    0.35 
   6   6   1    3.79    1.06 
  -6   6  -1    3.64    1.01 
  -6   6  -1    4.75    0.90 
   6   6   1    3.92    0.92 
   6   6   1    4.57    0.86 
  -6   6  -1    4.44    0.85 
   6   6   1    5.42    0.93 
  -6   6  -1    4.17    0.73 
  -6   6  -1    4.68    0.81 
  -6  -6  -1    4.63    0.64 
  -6  -6  -1    4.76    0.54 
   6  -6   1    5.92    0.89 
  -6  -6  -1    5.53    0.81 
  -6  -6  -1    3.87    0.53 
  -6  -6  -1    3.58    0.85 
   6  -6   1    2.92    0.67 
  -6  -6  -1    6.38    1.05 
   6  -6   1    5.65    1.40 
   6  -6   1    3.18    0.84 
   6  -6   1    4.91    0.84 
  -6  -6  -1    5.57    0.82 
   6  -6   1    4.05    0.75 
  -6   6  -2   45.63    2.73 
  -6   6  -2   42.60    2.55 
   6   6   2   39.75    2.91 
   6   6   2   43.35    2.44 
   6   6   2   45.97    2.51 
  -6   6  -2   43.57    2.53 
  -6   6  -2   45.23    2.42 
  -6   6  -2   43.68    2.35 
   6   6   2   45.18    2.57 
   6   6   2   43.25    2.47 
   6  -6   2   45.22    2.39 
  -6  -6  -2   48.13    2.63 
  -6  -6  -2   39.70    2.38 
   6  -6   2   45.14    2.23 
  -6  -6  -2   45.11    2.36 
  -6  -6  -2   46.47    2.14 
  -6  -6  -2   47.60    2.08 
   6  -6   2   45.68    2.99 
   6  -6   2   43.57    2.36 
  -6  -6  -2   45.52    2.34 
   6  -6   2   43.52    2.35 
  -6  -6  -2   44.54    2.12 
   6   6   3   15.99    1.39 
  -6   6  -3   11.48    1.30 
   6   6   3   13.86    1.23 
   6   6   3   15.40    1.42 
  -6   6  -3   12.74    1.44 
   6   6   3   13.46    1.83 
  -6   6  -3   14.15    1.40 
   6   6   3   14.52    1.26 
   6  -6   3   13.53    1.36 
  -6  -6  -3   14.56    1.39 
  -6  -6  -3   15.35    1.51 
  -6  -6  -3   14.08    1.29 
   6  -6   3   13.82    1.53 
  -6  -6  -3   14.52    1.08 
   6  -6   3   15.19    1.46 
  -6  -6  -3   14.43    1.10 
  -6  -6  -3   17.22    1.46 
  -6  -6  -3   13.49    1.35 
   6  -6   3   12.68    1.12 
  -6   6  -4  202.03    8.48 
  -6   6  -4  198.64    8.44 
   6   6   4  206.09    8.65 
   6   6   4  202.90    8.56 
  -6   6  -4  194.96    8.63 
   6   6   4  208.31    9.15 
   6   6   4  203.20    8.48 
  -6  -6  -4  192.91    8.53 
  -6  -6  -4  200.07    8.31 
   6  -6   4  198.62    8.44 
   6  -6   4  203.03    8.34 
  -6  -6  -4  204.26    8.65 
   6  -6   4  197.97    8.43 
  -6  -6  -4  201.22    8.42 
  -6  -6  -4  198.42    8.45 
  -6  -6  -4  200.49    8.26 
  -6  -6  -4  208.40    8.49 
   6   6   5   17.43    1.94 
   6   6   5   16.11    1.51 
  -6   6  -5   16.29    1.56 
  -6   6  -5   14.68    1.50 
   6   6   5   12.97    1.36 
   6  -6   5   17.85    1.46 
   6  -6   5   16.58    1.25 
  -6  -6  -5   16.22    1.33 
  -6  -6  -5   16.45    1.13 
   6  -6   5   16.61    1.47 
  -6  -6  -5   11.40    1.39 
  -6  -6  -5   15.94    1.33 
   6  -6   5   13.85    1.29 
  -6  -6  -5   15.79    1.63 
  -6   6  -6   18.52    1.64 
   6   6   6   19.33    2.35 
  -6   6  -6   23.05    1.96 
   6   6   6   17.00    1.64 
   6  -6   6   18.22    1.53 
  -6  -6  -6   19.32    1.58 
   6  -6   6   21.68    1.95 
  -6  -6  -6   21.25    1.84 
  -6  -6  -6   19.68    1.26 
   6   6   7    1.08    1.25 
   6   6   7   -1.44    1.83 
  -6   6  -7    1.02    1.45 
  -6   6  -7    0.61    0.80 
   6  -6   7   -0.75    0.69 
  -6  -6  -7    0.83    0.89 
  -6  -6  -7    0.63    0.76 
  -6  -6  -7    0.13    1.04 
   6  -6   7   -1.32    1.15 
  -6   6  -8    2.21    0.89 
  -6   6  -8    4.40    1.65 
   6   6   8    2.43    1.48 
   6   6   8    2.27    1.89 
  -6  -6  -8    3.44    1.06 
  -6  -6  -8    4.02    1.12 
   6  -6   8    3.89    0.82 
  -6   7   7  133.04    6.15 
   6   7  -7  136.26    6.09 
  -6   7   7  131.96    6.08 
  -6  -7   7  130.31    5.81 
   6  -7  -7  136.74    5.95 
   6  -7  -7  138.03    6.29 
  -6  -7   7  133.94    6.13 
  -6   7   6   45.24    2.89 
   6   7  -6   48.65    2.83 
  -6   7   6   46.50    2.84 
  -6  -7   6   46.53    2.51 
  -6  -7   6   47.61    2.86 
   6  -7  -6   46.83    2.70 
   6  -7  -6   51.30    3.15 
   6   7  -5   66.46    3.48 
  -6   7   5   68.25    3.50 
  -6   7   5   68.66    3.50 
  -6  -7   5   70.03    3.46 
   6  -7  -5   68.11    3.66 
   6  -7  -5   69.09    4.52 
  -6  -7   5   67.30    3.23 
   6  -7  -5   68.61    3.36 
  -6   7   4   21.09    1.89 
   6   7  -4   23.39    1.96 
  -6   7   4   22.74    1.95 
  -6   7   4   22.22    1.91 
  -6  -7   4   22.42    1.80 
   6  -7  -4   20.24    1.84 
   6  -7  -4   21.36    1.80 
  -6  -7   4   22.13    1.62 
   6  -7  -4   26.49    2.18 
  -6   7   3    1.77    0.78 
  -6   7   3    0.43    0.83 
  -6   7   3   -0.38    0.83 
   6   7  -3    1.45    0.93 
  -6   7   3    1.16    0.60 
   6   7  -3    2.46    1.27 
  -6   7   3    0.35    1.30 
   6   7  -3    0.84    1.06 
  -6   7   3    0.12    0.84 
  -6  -7   3    2.36    0.76 
  -6  -7   3    1.17    0.82 
  -6  -7   3    2.60    0.84 
   6  -7  -3    0.83    1.00 
   6  -7  -3    0.79    1.22 
   6  -7  -3    1.21    0.91 
   6  -7  -3    0.66    0.75 
   6  -7  -3    0.85    1.04 
  -6  -7   3    1.13    0.80 
  -6   7   2    3.16    1.33 
  -6   7   2    1.74    0.85 
  -6   7   2    1.68    0.62 
  -6   7   2    2.01    0.77 
   6   7  -2    1.37    0.88 
  -6   7   2    1.66    0.88 
  -6   7   2    1.70    0.88 
   6   7  -2    2.55    1.00 
   6   7  -2    4.25    1.09 
  -6  -7   2    2.48    0.78 
  -6  -7   2    3.50    1.03 
  -6  -7   2    3.08    0.80 
   6  -7  -2    1.32    0.95 
   6  -7  -2    2.84    1.14 
   6  -7  -2    4.42    1.27 
   6  -7  -2    3.23    0.95 
   6  -7  -2    2.90    0.81 
   6   7  -1  131.67    6.11 
  -6   7   1  145.38    5.92 
  -6   7   1  137.28    6.00 
  -6   7   1  139.25    6.02 
  -6   7   1  142.60    5.83 
  -6   7   1  138.23    6.08 
  -6   7   1  140.70    6.30 
   6   7  -1  138.39    6.18 
   6  -7  -1  135.68    6.07 
  -6  -7   1  137.16    6.10 
  -6  -7   1  140.59    5.91 
   6  -7  -1  139.40    6.07 
  -6  -7   1  137.45    5.94 
  -6  -7   1  132.33    5.95 
   6  -7  -1  128.09    6.09 
   6  -7  -1  143.37    6.11 
   6  -7  -1  144.17    5.99 
  -6   7   0   67.94    3.65 
   6   7   0   65.77    3.34 
  -6   7   0   63.03    3.19 
   6   7   0   64.87    3.51 
   6   7   0   66.12    3.48 
  -6   7   0   65.94    3.18 
  -6   7   0   64.41    3.19 
  -6   7   0   59.64    3.25 
  -6   7   0   64.78    2.99 
   6   7   0   59.87    3.31 
  -6  -7   0   63.11    3.02 
  -6  -7   0   66.69    3.14 
   6  -7   0   66.07    3.14 
  -6  -7   0   63.56    3.14 
   6  -7   0   60.03    3.26 
  -6  -7   0   65.50    3.40 
   6  -7   0   68.92    3.33 
   6  -7   0   65.17    3.20 
   6   7   1   86.85    4.38 
  -6   7  -1   89.07    4.12 
   6   7   1   85.76    4.20 
   6   7   1   84.05    4.23 
   6   7   1   85.07    4.22 
  -6   7  -1   86.55    4.13 
  -6   7  -1   86.42    4.06 
  -6   7  -1   83.94    4.02 
  -6   7  -1   89.66    3.91 
  -6  -7  -1   88.54    4.27 
   6  -7   1   88.39    3.97 
   6  -7   1   87.56    4.14 
   6  -7   1   80.75    4.06 
   6  -7   1   92.94    4.11 
  -6  -7  -1   78.40    3.96 
  -6  -7  -1   85.49    4.01 
  -6  -7  -1   87.54    3.68 
  -6  -7  -1   90.98    4.01 
  -6  -7  -1   93.65    3.71 
  -6   7  -2   32.24    2.21 
   6   7   2   32.52    2.87 
   6   7   2   33.58    2.40 
   6   7   2   34.18    2.46 
  -6   7  -2   32.63    2.02 
  -6   7  -2   31.93    2.23 
   6   7   2   33.81    2.62 
  -6   7  -2   30.23    2.21 
  -6  -7  -2   35.03    1.90 
   6  -7   2   32.11    2.15 
  -6  -7  -2   38.09    2.14 
  -6  -7  -2   33.40    2.61 
  -6  -7  -2   31.77    2.38 
   6  -7   2   33.75    2.24 
  -6  -7  -2   31.53    2.14 
  -6  -7  -2   30.93    1.99 
   6  -7   2   36.14    2.01 
  -6  -7  -2   34.48    1.71 
   6  -7   2   33.61    2.12 
   6   7   3   49.09    2.99 
   6   7   3   47.62    3.82 
  -6   7  -3   48.49    2.64 
   6   7   3   48.05    2.99 
  -6   7  -3   47.30    2.81 
  -6   7  -3   47.38    2.64 
  -6   7  -3   47.38    2.90 
  -6  -7  -3   48.43    2.69 
  -6  -7  -3   48.53    2.59 
  -6  -7  -3   47.00    3.02 
  -6  -7  -3   51.31    2.40 
   6  -7   3   52.32    2.76 
  -6  -7  -3   49.88    3.26 
   6  -7   3   49.58    2.65 
  -6  -7  -3   51.95    2.68 
  -6  -7  -3   49.68    2.33 
   6   7   4   -0.57    1.92 
   6   7   4   -0.33    1.90 
  -6   7  -4    0.47    1.10 
  -6   7  -4    1.18    0.89 
  -6  -7  -4    0.04    0.64 
  -6  -7  -4    0.15    0.91 
   6  -7   4    0.25    0.79 
   6  -7   4    0.45    1.00 
  -6  -7  -4    0.79    0.85 
  -6  -7  -4    0.18    0.66 
   6   7   5   84.86    5.13 
  -6   7  -5   76.45    4.24 
  -6   7  -5   81.27    3.84 
   6   7   5   76.02    4.19 
   6  -7   5   81.82    4.05 
   6  -7   5   77.04    3.78 
  -6  -7  -5   87.44    3.97 
  -6  -7  -5   83.30    3.59 
  -6   7  -6   27.47    2.78 
   6   7   6   29.76    2.94 
   6   7   6   28.17    2.77 
  -6   7  -6   28.47    2.10 
   6  -7   6   27.12    2.54 
  -6  -7  -6   30.64    1.97 
   6  -7   6   26.75    2.00 
  -6  -7  -6   29.23    1.75 
  -6  -7  -6   31.95    2.36 
   6   7   7   55.15    3.68 
   6   7   7   52.82    4.66 
  -6   7  -7   56.30    3.14 
  -6   7  -7   64.54    3.98 
  -6  -7  -7   62.21    3.43 
  -6  -7  -7   62.14    3.10 
   6  -7   7   56.75    3.58 
  -6   8   5   40.45    2.81 
  -6   8   5   43.46    2.94 
   6   8  -5   43.46    2.93 
  -6  -8   5   39.55    2.80 
   6  -8  -5   45.65    3.06 
   6  -8  -5   43.29    2.71 
  -6  -8   5   41.50    2.47 
  -6   8   4    0.90    1.06 
  -6   8   4    1.07    1.10 
   6   8  -4   -0.17    1.16 
  -6  -8   4    1.61    1.30 
   6  -8  -4    2.06    1.31 
  -6  -8   4    0.85    1.06 
   6  -8  -4    2.49    1.15 
  -6   8   3  171.98    7.53 
  -6   8   3  165.32    7.62 
  -6   8   3  168.38    7.74 
   6   8  -3  175.92    7.68 
   6  -8  -3  184.86    7.55 
   6  -8  -3  177.65    7.67 
   6  -8  -3  173.43    7.59 
  -6  -8   3  178.37    7.46 
  -6  -8   3  174.49    7.49 
  -6   8   2   20.81    1.60 
  -6   8   2   16.47    1.52 
  -6   8   2   16.61    1.58 
  -6   8   2   14.67    1.40 
   6   8  -2   14.99    1.58 
   6  -8  -2   13.61    1.34 
   6  -8  -2   16.82    1.66 
  -6  -8   2   18.27    1.74 
  -6  -8   2   17.51    1.71 
   6  -8  -2   19.59    1.92 
  -6   8   1   63.97    3.49 
  -6   8   1   63.86    3.36 
  -6   8   1   65.57    3.14 
   6   8  -1   65.90    3.66 
  -6   8   1   61.54    3.27 
   6  -8  -1   67.22    3.56 
  -6  -8   1   63.35    3.26 
  -6  -8   1   66.45    3.17 
   6  -8  -1   64.11    4.19 
   6  -8  -1   65.69    3.31 
  -6   8   0    4.03    1.14 
  -6   8   0    3.50    0.96 
  -6   8   0    4.24    0.92 
   6   8   0    4.28    1.42 
  -6   8   0    4.96    1.10 
   6   8   0    3.30    1.35 
   6  -8   0    4.46    1.23 
   6  -8   0    3.76    1.01 
  -6  -8   0    5.32    1.04 
  -6  -8   0    5.00    0.93 
   6  -8   0    5.05    1.26 
   6   8   1   13.36    1.84 
  -6   8  -1   13.55    1.46 
   6   8   1   16.60    1.74 
  -6   8  -1   14.92    1.37 
  -6   8  -1   15.19    1.42 
  -6  -8  -1   12.20    1.28 
   6  -8   1   14.54    1.36 
  -6  -8  -1   14.05    1.47 
   6  -8   1   12.27    1.47 
  -6  -8  -1   14.47    1.48 
   6   8   2    0.69    1.21 
  -6   8  -2    0.22    0.95 
  -6   8  -2    0.64    0.99 
  -6   8  -2    1.11    1.10 
   6   8   2    3.40    1.74 
  -6  -8  -2    1.18    0.82 
   6  -8   2    1.45    1.14 
   6  -8   2    1.09    0.98 
  -6  -8  -2    1.12    1.01 
   6   8   3  134.00    7.11 
  -6   8  -3  131.56    6.03 
  -6   8  -3  135.79    6.06 
  -6   8  -3  133.86    6.05 
  -6  -8  -3  140.17    6.11 
  -6  -8  -3  137.95    5.83 
   6  -8   3  135.87    6.14 
  -6  -8  -3  142.02    6.08 
   6  -8   3  132.81    6.03 
   6   8   4    6.43    1.47 
  -6   8  -4    9.86    1.36 
  -6   8  -4    7.72    1.31 
   6   8   4    8.46    2.58 
  -6   8  -4    7.97    1.24 
   6  -8   4    9.17    1.27 
  -6  -8  -4   10.59    1.72 
  -6  -8  -4    9.52    1.05 
  -6  -8  -4    9.67    1.03 
   6  -8   4   12.02    1.67 
   6   8   5  126.17    5.94 
  -6   8  -5  120.77    5.64 
   6   8   5  133.56    6.86 
  -6   8  -5  111.31    5.44 
  -6   8  -5  116.74    5.62 
  -6  -8  -5  123.55    5.61 
   6  -8   5  115.32    5.41 
   6  -8   5  122.35    5.75 
  -6  -8  -5  124.38    5.29 
  -6  -8  -5  120.93    5.24 
   6   9  -2    9.68    1.71 
  -6   9   2   10.71    1.37 
  -6  -9   2    7.83    1.30 
   6  -9  -2   10.01    1.81 
   6  -9  -2   10.85    1.74 
  -6  -9   2   10.66    1.43 
   6   9  -1   29.52    3.12 
  -6   9   1   35.29    2.34 
  -6   9   1   27.16    2.28 
   6  -9  -1   25.32    2.70 
  -6  -9   1   30.36    2.33 
   6  -9  -1   31.32    2.89 
  -6  -9   1   32.28    2.44 
  -6   9   0   50.50    2.87 
   6   9   0   46.45    3.67 
  -6   9   0   43.36    3.00 
  -6   9   0   43.99    2.77 
   6  -9   0   44.27    3.07 
   6  -9   0   45.57    3.22 
  -6  -9   0   43.62    2.70 
  -6  -9   0   44.10    2.90 
  -6   9  -1  106.01    4.85 
  -6   9  -1  107.27    4.97 
  -6   9  -1   97.79    4.73 
   6   9   1  102.51    5.63 
  -6  -9  -1  104.22    4.70 
   6  -9   1  105.72    5.09 
   6  -9   1   98.73    4.99 
  -6  -9  -1   97.20    4.90 
   7   0 -11    0.61    0.49 
   7   0 -11    0.57    1.83 
   7   0 -10  210.43    8.84 
   7   0 -10  219.86    8.99 
   7   0 -10  226.21    9.50 
   7   0 -10  204.74    8.76 
  -7   0   9    0.32    0.36 
   7   0  -9   -0.18    1.34 
  -7   0   9    0.79    0.61 
  -7   0   9    0.82    0.93 
   7   0  -9   -0.23    0.84 
   7   0  -9   -0.40    0.57 
   7   0  -9    0.90    0.97 
   7   0  -9    0.19    0.51 
  -7   0   8  126.75    5.56 
   7   0  -8  129.50    5.37 
  -7   0   8  126.39    5.54 
   7   0  -8  126.66    5.41 
   7   0  -8  136.50    5.91 
   7   0  -8  126.51    5.31 
  -7   0   8  121.26    5.27 
   7   0  -8  130.13    5.57 
   7   0  -7    0.30    0.75 
   7   0  -7   -0.51    0.79 
   7   0  -7    1.82    0.78 
   7   0  -7    0.52    0.50 
   7   0  -7   -0.05    0.99 
  -7   0   7    1.35    0.86 
  -7   0   7   -0.12    0.41 
  -7   0   7    0.19    0.60 
   7   0  -6    9.89    0.94 
  -7   0   6    9.56    0.69 
   7   0  -6   12.18    1.13 
   7   0  -6    9.86    0.91 
   7   0  -6   11.71    1.25 
  -7   0   6    9.31    0.89 
  -7   0   6   12.47    1.22 
   7   0  -6   12.23    1.10 
   7   0  -6   11.20    1.43 
  -7   0   6   12.18    1.11 
  -7   0   5   -0.41    0.71 
  -7   0   5    0.14    0.33 
  -7   0   5   -0.43    0.45 
   7   0  -5    0.28    0.45 
   7   0  -5   -0.18    0.69 
  -7   0   5    0.16    0.46 
   7   0  -5   -0.54    0.69 
  -7   0   5    0.52    0.40 
   7   0  -5   -0.24    0.51 
   7   0  -5    0.45    0.64 
   7   0  -5    1.35    0.67 
   7   0  -4  205.01    8.10 
   7   0  -4  181.76    8.09 
  -7   0   4  184.69    7.94 
   7   0  -4  186.84    8.06 
   7   0  -4  194.13    8.12 
  -7   0   4  174.95    7.97 
   7   0  -4  178.43    7.93 
  -7   0   4  183.03    7.89 
  -7   0   4  218.77    8.25 
  -7   0   4  208.09    7.91 
   7   0  -4  193.81    7.95 
  -7   0   3   -0.10    0.46 
  -7   0   3    0.44    0.55 
   7   0  -3   -0.79    0.52 
   7   0  -3    0.46    0.62 
  -7   0   3   -0.19    0.41 
   7   0  -3    0.97    0.68 
  -7   0   3    0.35    0.45 
   7   0  -3    0.31    0.68 
   7   0  -3    0.40    0.63 
   7   0  -3    1.56    0.57 
  -7   0   2  297.57   11.38 
   7   0  -2  258.48   11.30 
  -7   0   2  265.90   11.14 
   7   0  -2  244.21   11.20 
  -7   0   2  266.05   11.11 
   7   0  -2  274.88   11.15 
  -7   0   2  268.74   11.12 
   7   0  -2  262.06   11.11 
   7   0  -2  261.58   11.19 
   7   0  -2  297.69   11.26 
  -7   0   2  273.24   11.19 
  -7   0   1   -1.18    0.61 
  -7   0   1    0.47    0.50 
   7   0  -1   -0.23    0.53 
  -7   0   1    0.28    0.45 
  -7   0   1    0.20    0.46 
   7   0  -1   -0.16    0.79 
   7   0  -1    0.83    0.68 
   7   0  -1    0.10    0.48 
  -7   0   1   -0.33    0.60 
   7   0  -1    0.65    0.59 
   7   0  -1    0.94    0.66 
   7   0   0  250.78   10.29 
  -7   0   0  261.68   10.61 
  -7   0   0  258.38   10.43 
  -7   0   0  250.13   10.43 
   7   0   0  239.23   10.59 
  -7   0   0  252.66   10.38 
  -7   0   0  259.98   10.50 
   7   0   0  239.67   10.43 
   7   0   0  246.96   10.55 
   7   0   0  252.78   10.43 
  -7   0  -1    1.83    0.59 
   7   0   1   -0.67    0.52 
   7   0   1    0.39    0.68 
  -7   0  -1   -0.22    0.56 
  -7   0  -1   -0.83    0.75 
   7   0   1   -0.28    0.40 
   7   0   1   -0.78    0.61 
   7   0   1   -0.59    0.37 
  -7   0  -1   -0.33    0.75 
  -7   0  -1    0.33    0.53 
   7   0   1   -0.03    0.66 
   7   0   1    0.06    0.66 
   7   0   2  126.74    5.23 
  -7   0  -2  115.14    5.19 
   7   0   2  127.06    4.85 
   7   0   2  107.05    5.15 
  -7   0  -2  116.63    5.11 
   7   0   2   96.43    5.28 
  -7   0  -2  123.12    5.38 
   7   0   2  114.35    5.34 
   7   0   2  112.60    4.85 
   7   0   2  124.16    5.20 
  -7   0  -2  119.53    5.15 
  -7   0  -2  133.54    5.41 
   7   0   3    1.15    0.79 
  -7   0  -3    0.27    0.86 
   7   0   3    0.28    0.62 
   7   0   3    0.41    0.67 
  -7   0  -3    0.56    0.63 
  -7   0  -3   -0.12    0.89 
  -7   0  -3    0.20    0.64 
  -7   0  -3   -0.39    0.45 
   7   0   3    0.27    0.58 
   7   0   3   -0.01    0.86 
  -7   0  -4  216.18    8.84 
   7   0   4  213.53    8.87 
  -7   0  -4  212.90    9.09 
   7   0   4  186.71    9.00 
  -7   0  -4  215.50    8.86 
   7   0   4  210.76    8.82 
  -7   0  -4  221.37    9.03 
   7   0   4  208.72    9.05 
  -7   0  -4  212.07    8.77 
   7   0   4  205.94    8.78 
   7   0   5    0.62    0.84 
  -7   0  -5    0.22    0.98 
  -7   0  -5    3.39    0.80 
   7   0   5    0.04    0.67 
  -7   0  -5   -0.32    0.54 
  -7   0  -5    1.23    1.19 
  -7   0  -5    0.68    0.70 
   7   0   5    0.66    0.80 
   7   0   5    0.02    0.94 
   7   0   6  191.04    8.57 
   7   0   6  204.32    8.65 
  -7   0  -6  212.38    8.39 
   7   0   6  209.31    8.45 
   7   0   6  198.48    8.33 
  -7   0  -6  192.47    8.48 
  -7   0  -6  188.61    8.38 
  -7   0  -6  186.15    8.29 
  -7   0  -7    0.21    0.80 
  -7   0  -7   -0.25    0.85 
  -7   0  -7   -0.69    0.63 
   7   0   7    0.49    0.79 
   7   0   7   -0.04    1.05 
  -7   0  -8    8.10    1.07 
   7   0   8    8.74    1.47 
  -7   0  -8    8.98    1.40 
   7   0   8    7.86    0.97 
  -7   0  -8    5.13    1.04 
   7   0   8    8.49    1.44 
   7   0   9   -1.08    1.24 
  -7   0  -9   -0.24    0.96 
   7   0   9    1.23    0.84 
   7   0   9    1.02    1.42 
  -7   0  -9    0.80    0.99 
   7   0  10   92.74    4.92 
  -7   0 -10  103.47    4.79 
   7   0  10  102.89    5.12 
  -7   0 -10  104.30    4.88 
   7   1 -11   36.27    3.53 
   7   1 -11   29.68    1.80 
   7   1 -11   32.18    1.56 
   7   1 -11   34.42    2.50 
   7  -1 -11   32.32    1.70 
   7  -1 -11   32.26    3.30 
   7   1 -10   11.70    1.08 
   7   1 -10   12.43    1.30 
  -7   1  10   11.71    0.89 
  -7   1  10   11.44    1.28 
   7   1 -10   11.85    1.84 
  -7   1  10   10.68    1.38 
   7  -1 -10   11.80    1.06 
   7  -1 -10   14.10    1.87 
   7  -1 -10   13.68    1.18 
  -7   1   9   10.59    1.25 
   7   1  -9   11.07    1.70 
   7   1  -9    8.41    0.84 
  -7   1   9    9.22    0.87 
  -7   1   9    7.29    1.12 
   7   1  -9    8.93    1.03 
   7   1  -9   11.55    1.29 
   7  -1  -9    8.93    0.78 
   7  -1  -9    8.58    1.60 
   7  -1  -9    9.48    0.94 
   7  -1  -9    7.63    0.72 
   7  -1  -9   10.97    1.20 
  -7  -1   9    8.91    1.11 
   7   1  -8   53.98    3.21 
  -7   1   8   50.40    2.76 
   7   1  -8   49.98    2.66 
   7   1  -8   51.12    2.37 
  -7   1   8   51.65    2.38 
   7   1  -8   56.55    2.70 
   7   1  -8   53.72    2.68 
  -7   1   8   63.33    3.00 
   7   1  -8   53.24    2.48 
   7  -1  -8   51.44    2.41 
  -7  -1   8   51.12    2.66 
  -7  -1   8   51.68    2.40 
   7  -1  -8   50.86    2.44 
   7  -1  -8   51.76    2.55 
   7  -1  -8   52.75    2.42 
   7  -1  -8   55.34    3.21 
  -7  -1   8   51.61    2.30 
   7   1  -7   24.41    1.62 
  -7   1   7   25.89    2.00 
   7   1  -7   27.29    2.18 
   7   1  -7   23.94    1.44 
   7   1  -7   21.71    1.35 
  -7   1   7   23.07    1.08 
  -7   1   7   20.18    1.60 
  -7   1   7   20.18    1.32 
   7   1  -7   22.24    1.56 
  -7  -1   7   21.40    1.50 
  -7  -1   7   20.57    1.23 
   7  -1  -7   21.30    1.47 
  -7  -1   7   23.10    1.54 
   7  -1  -7   21.08    2.05 
   7  -1  -7   22.74    1.37 
   7  -1  -7   20.61    1.21 
   7  -1  -7   21.95    1.75 
   7  -1  -7   22.66    1.33 
  -7   1   6  235.61    9.07 
   7   1  -6  222.54    9.28 
   7   1  -6  223.76    9.17 
  -7   1   6  214.65    9.26 
  -7   1   6  227.51    9.49 
   7   1  -6  228.47    9.32 
   7   1  -6  226.77    9.18 
   7   1  -6  218.78    9.22 
   7   1  -6  218.58    9.48 
   7   1  -6  228.59    9.54 
  -7   1   6  203.08    9.14 
   7  -1  -6  216.69    9.19 
  -7  -1   6  218.07    9.19 
   7  -1  -6  216.97    9.15 
  -7  -1   6  233.56    9.01 
   7  -1  -6  227.74    9.49 
   7  -1  -6  227.26    9.21 
  -7  -1   6  210.29    9.17 
  -7  -1   6  229.45    9.32 
   7  -1  -6  230.20    9.35 
   7  -1  -6  221.56    9.24 
   7   1  -5  149.66    6.09 
  -7   1   5  138.57    5.99 
   7   1  -5  140.94    5.93 
   7   1  -5  135.16    6.13 
  -7   1   5  148.06    6.22 
  -7   1   5  145.46    5.80 
   7   1  -5  143.94    5.92 
  -7   1   5  130.97    5.92 
   7   1  -5  137.11    6.02 
   7   1  -5  148.12    6.27 
   7   1  -5  135.12    6.20 
  -7   1   5  146.51    5.85 
  -7  -1   5  150.03    5.85 
   7  -1  -5  141.23    6.00 
   7  -1  -5  138.13    5.96 
  -7  -1   5  144.07    5.92 
   7  -1  -5  137.95    6.09 
   7  -1  -5  145.90    6.20 
  -7  -1   5  143.06    5.92 
  -7  -1   5  142.77    6.18 
  -7  -1   5  124.78    5.96 
   7  -1  -5  141.12    5.99 
   7  -1  -5  139.97    5.96 
  -7   1   4  156.70    6.37 
   7   1  -4  159.11    6.56 
   7   1  -4  154.94    6.66 
  -7   1   4  144.24    6.45 
  -7   1   4  160.77    6.32 
   7   1  -4  150.52    6.40 
   7   1  -4  151.80    6.63 
   7   1  -4  145.10    6.42 
  -7   1   4  147.17    6.44 
   7   1  -4  146.99    6.53 
   7   1  -4  167.29    6.66 
  -7   1   4  153.60    6.66 
   7  -1  -4  158.30    6.63 
   7  -1  -4  156.06    6.55 
  -7  -1   4  146.51    6.48 
  -7  -1   4  158.44    6.41 
   7  -1  -4  152.37    6.45 
  -7  -1   4  150.71    6.38 
  -7  -1   4  160.98    6.41 
   7  -1  -4  148.85    6.47 
   7  -1  -4  151.79    6.45 
   7  -1  -4  152.95    6.53 
  -7  -1   4  153.51    6.65 
   7   1  -3    0.29    0.71 
   7   1  -3   -0.15    0.59 
   7   1  -3    1.29    0.76 
   7   1  -3    0.39    0.67 
  -7   1   3    0.98    0.49 
  -7   1   3    0.22    0.53 
  -7   1   3    1.81    0.48 
   7   1  -3    0.58    0.64 
   7   1  -3    1.66    0.52 
  -7   1   3    1.07    0.71 
   7   1  -3    0.34    0.48 
   7  -1  -3    0.91    0.60 
  -7  -1   3    0.82    0.44 
   7  -1  -3    1.39    0.55 
   7  -1  -3    0.40    0.64 
   7  -1  -3    0.68    0.66 
   7  -1  -3    2.21    0.60 
   7  -1  -3    0.83    0.62 
  -7  -1   3    0.11    0.46 
  -7  -1   3    0.90    0.56 
  -7  -1   3    1.14    0.49 
   7   1  -2    4.61    0.71 
   7   1  -2    4.92    0.76 
  -7   1   2    4.92    0.68 
  -7   1   2    6.35    0.81 
   7   1  -2    6.42    0.78 
   7   1  -2    5.67    0.77 
  -7   1   2    9.57    1.08 
   7   1  -2    4.54    0.79 
   7   1  -2    6.01    0.78 
  -7   1   2    7.58    0.76 
  -7   1   2    5.72    0.72 
   7   1  -2    9.18    0.86 
   7  -1  -2    5.71    0.73 
  -7  -1   2    6.61    0.79 
   7  -1  -2    5.54    0.74 
   7  -1  -2    5.17    0.70 
   7  -1  -2    4.01    0.75 
  -7  -1   2    6.99    0.69 
  -7  -1   2    7.82    0.77 
  -7  -1   2    7.39    0.81 
   7  -1  -2    6.55    0.76 
   7  -1  -2    5.63    0.79 
  -7  -1   2    7.09    0.95 
   7   1  -1    2.12    0.66 
  -7   1   1    2.69    0.88 
   7   1  -1    1.10    0.74 
   7   1  -1    2.26    0.56 
  -7   1   1    0.82    0.54 
   7   1  -1    2.05    0.58 
   7   1  -1    0.93    0.63 
  -7   1   1    1.14    0.53 
   7   1  -1    0.62    0.57 
  -7   1   1    1.70    0.62 
   7  -1  -1    0.99    0.65 
   7  -1  -1    1.67    0.82 
   7  -1  -1    1.08    0.64 
   7  -1  -1    1.61    0.77 
  -7  -1   1    2.65    0.53 
  -7  -1   1    1.30    0.80 
   7  -1  -1    1.48    0.67 
  -7  -1   1    2.49    0.60 
   7  -1  -1    1.96    0.57 
  -7  -1   1    3.12    0.78 
  -7   1   0  355.53   14.53 
   7   1   0  365.17   14.61 
   7   1   0  351.26   14.79 
   7   1   0  329.61   14.64 
  -7   1   0  363.63   14.65 
  -7   1   0  392.90   14.72 
   7   1   0  365.02   14.53 
  -7   1   0  334.13   14.64 
   7   1   0  324.62   14.79 
   7   1   0  353.93   14.68 
   7   1   0  356.17   14.48 
  -7   1   0  356.11   14.81 
  -7   1   0  378.01   14.64 
  -7  -1   0  370.20   14.56 
   7  -1   0  347.71   14.51 
  -7  -1   0  382.21   14.82 
   7  -1   0  316.48   14.76 
   7  -1   0  305.27   14.68 
  -7  -1   0  394.89   14.75 
   7  -1   0  375.93   14.71 
   7  -1   0  365.24   14.68 
  -7  -1   0  346.23   14.65 
   7  -1   0  369.51   14.67 
  -7  -1   0  363.73   14.64 
  -7   1  -1  217.61    9.23 
  -7   1  -1  231.18    8.98 
  -7   1  -1  223.02    9.15 
   7   1   1  208.18    9.09 
   7   1   1  224.37    9.34 
   7   1   1  211.14    8.91 
  -7   1  -1  232.38    9.13 
   7   1   1  239.58    8.97 
  -7   1  -1  222.01    9.18 
   7   1   1  203.82    9.13 
   7   1   1  203.55    9.32 
   7   1   1  222.49    9.19 
  -7   1  -1  228.60    9.33 
   7  -1   1  212.34    9.34 
   7  -1   1  185.65    9.19 
  -7  -1  -1  228.11    9.31 
  -7  -1  -1  211.92    9.15 
  -7  -1  -1  221.82    9.15 
  -7  -1  -1  215.07    9.08 
   7  -1   1  200.42    8.93 
   7  -1   1  230.22    9.20 
   7  -1   1  239.28    9.21 
  -7   1  -2  196.95    8.20 
  -7   1  -2  204.81    8.05 
  -7   1  -2  194.93    8.11 
  -7   1  -2  191.84    8.00 
   7   1   2  202.22    7.74 
   7   1   2  184.69    8.03 
  -7   1  -2  186.91    8.07 
   7   1   2  174.17    8.19 
   7   1   2  192.01    7.96 
   7   1   2  181.85    8.21 
   7   1   2  184.80    7.70 
   7   1   2  185.30    8.00 
  -7   1  -2  191.28    7.78 
  -7  -1  -2  195.47    8.18 
   7  -1   2  189.41    7.74 
   7  -1   2  183.37    8.22 
   7  -1   2  167.85    8.10 
  -7  -1  -2  188.94    7.99 
  -7  -1  -2  174.56    7.99 
   7  -1   2  186.71    8.05 
  -7  -1  -2  186.83    7.91 
   7  -1   2  201.31    8.06 
   7  -1   2  198.48    8.07 
  -7  -1  -2  218.23    8.24 
  -7   1  -3   21.27    1.56 
   7   1   3   19.41    1.44 
   7   1   3   16.33    1.82 
  -7   1  -3   21.63    1.48 
  -7   1  -3   18.90    1.82 
   7   1   3   17.42    1.48 
   7   1   3   19.50    1.91 
  -7   1  -3   18.13    1.40 
  -7   1  -3   21.74    1.81 
   7   1   3   18.76    1.46 
  -7  -1  -3   17.74    1.25 
  -7  -1  -3   19.97    1.38 
   7  -1   3   19.09    0.92 
   7  -1   3   21.73    1.64 
  -7  -1  -3   17.53    1.46 
   7  -1   3   16.41    1.52 
   7  -1   3   17.40    1.80 
  -7  -1  -3   16.91    1.70 
   7  -1   3   18.26    1.67 
   7  -1   3   20.05    1.49 
  -7  -1  -3   16.42    1.54 
   7   1   4    5.87    1.11 
  -7   1  -4    7.86    1.16 
   7   1   4    9.89    0.94 
   7   1   4    7.16    1.09 
  -7   1  -4    7.79    0.84 
  -7   1  -4   10.03    1.04 
   7   1   4    9.03    0.99 
   7   1   4    8.94    0.96 
  -7   1  -4    9.80    1.27 
  -7   1  -4    7.38    0.85 
   7  -1   4    6.37    1.09 
   7  -1   4   10.40    1.01 
  -7  -1  -4    9.91    1.18 
  -7  -1  -4    5.63    0.80 
  -7  -1  -4    9.03    1.45 
  -7  -1  -4    7.62    0.82 
   7  -1   4    9.11    1.08 
   7  -1   4    9.14    1.00 
  -7  -1  -4    9.25    0.85 
   7  -1   4    6.34    0.99 
  -7   1  -5    1.84    0.63 
   7   1   5    0.69    0.95 
  -7   1  -5    3.94    1.21 
  -7   1  -5    2.27    0.75 
   7   1   5    1.78    0.63 
   7   1   5    2.34    0.69 
  -7   1  -5    2.39    0.75 
   7   1   5    1.68    1.04 
  -7   1  -5    2.85    1.21 
   7  -1   5    1.52    0.74 
   7  -1   5    2.45    0.78 
  -7  -1  -5    4.14    1.55 
   7  -1   5    2.72    1.00 
  -7  -1  -5    2.23    0.60 
  -7  -1  -5    2.21    0.77 
  -7  -1  -5    2.87    0.69 
  -7  -1  -5    2.83    0.99 
   7  -1   5    3.28    0.92 
   7  -1   5    1.29    1.19 
   7   1   6  107.98    4.92 
  -7   1  -6  104.84    4.55 
  -7   1  -6  100.49    4.51 
  -7   1  -6  102.44    4.60 
   7   1   6   89.03    4.82 
   7   1   6  104.92    4.48 
  -7   1  -6  102.36    5.12 
   7  -1   6  104.19    4.56 
   7  -1   6   95.12    4.80 
  -7  -1  -6   97.17    4.61 
   7  -1   6   97.17    4.71 
  -7  -1  -6   95.39    4.41 
  -7  -1  -6  101.75    4.51 
  -7  -1  -6  101.09    4.57 
  -7   1  -7  108.71    4.90 
  -7   1  -7  115.75    4.93 
   7   1   7  111.90    4.81 
   7   1   7  102.30    5.54 
  -7   1  -7  103.22    4.98 
   7   1   7  117.80    5.25 
   7  -1   7  100.35    5.11 
  -7  -1  -7  111.41    4.99 
   7  -1   7  109.46    4.90 
  -7  -1  -7  111.87    4.83 
  -7  -1  -7  108.18    4.88 
   7  -1   7  104.76    5.12 
   7   1   8  163.57    6.73 
   7   1   8  159.24    7.12 
  -7   1  -8  158.06    6.86 
   7   1   8  168.26    7.18 
  -7   1  -8  167.64    6.88 
  -7   1  -8  148.64    6.91 
   7  -1   8  150.98    7.00 
   7  -1   8  162.24    6.49 
  -7  -1  -8  151.29    6.78 
  -7  -1  -8  150.98    6.84 
   7  -1   8  150.74    7.06 
   7  -1   8  162.81    6.76 
  -7  -1  -8  157.17    6.97 
   7   1   9   26.89    2.72 
   7   1   9   24.21    2.62 
  -7   1  -9   26.61    2.25 
   7   1   9   25.51    1.83 
  -7   1  -9   28.11    2.13 
   7  -1   9   23.33    2.52 
  -7  -1  -9   24.64    2.19 
   7  -1   9   24.70    1.83 
   7  -1   9   27.22    2.26 
  -7  -1  -9   22.85    2.02 
  -7   1 -10   29.07    2.28 
   7   1  10   28.69    2.90 
  -7   1 -10   25.62    2.55 
   7   1  10   28.29    2.31 
  -7  -1 -10   25.97    2.33 
   7  -1  10   29.54    2.32 
   7  -1  10   20.72    2.04 
  -7  -1 -10   23.32    2.48 
   7  -1  10   25.40    2.21 
   7   2 -11   63.44    3.16 
   7   2 -11   62.49    2.71 
  -7   2  11   61.09    2.80 
   7   2 -11   63.59    4.60 
  -7   2  11   63.58    3.23 
   7  -2 -11   65.79    4.19 
   7  -2 -11   63.76    2.92 
   7   2 -10    4.63    1.78 
  -7   2  10    4.70    0.68 
  -7   2  10    6.05    1.31 
  -7   2  10    4.81    1.31 
   7   2 -10    4.13    1.07 
   7   2 -10    4.61    0.93 
   7  -2 -10    5.65    0.71 
   7  -2 -10    5.75    1.67 
   7   2  -9  193.11    8.18 
   7   2  -9  204.93    8.29 
  -7   2   9  196.78    8.18 
  -7   2   9  211.06    8.61 
   7   2  -9  194.83    8.35 
   7   2  -9  203.36    8.86 
  -7   2   9  193.21    8.51 
   7  -2  -9  195.88    8.75 
   7  -2  -9  189.54    8.38 
   7  -2  -9  199.59    8.28 
   7  -2  -9  202.53    8.20 
   7   2  -8   51.45    2.65 
   7   2  -8   59.95    3.36 
   7   2  -8   51.55    2.58 
  -7   2   8   50.98    2.45 
  -7   2   8   51.99    2.83 
  -7   2   8   59.39    3.02 
   7   2  -8   55.56    2.57 
   7   2  -8   53.82    2.41 
  -7  -2   8   52.50    2.63 
   7  -2  -8   52.64    3.23 
   7  -2  -8   54.24    2.58 
  -7  -2   8   51.65    2.31 
   7  -2  -8   51.44    2.45 
  -7  -2   8   51.79    2.32 
  -7   2   7  103.11    4.74 
   7   2  -7  107.69    4.58 
   7   2  -7  104.62    4.58 
   7   2  -7  108.24    4.67 
  -7   2   7  110.92    4.88 
   7   2  -7  103.44    4.65 
  -7   2   7  102.39    4.54 
  -7   2   7  109.98    4.43 
   7   2  -7   98.57    5.33 
   7  -2  -7  108.04    4.57 
  -7  -2   7  106.17    4.50 
   7  -2  -7  106.76    4.58 
  -7  -2   7  108.99    4.59 
   7  -2  -7  105.10    5.25 
   7   2  -6    8.48    0.94 
   7   2  -6   10.71    1.02 
   7   2  -6   10.56    2.25 
  -7   2   6    9.68    1.02 
   7   2  -6    9.82    1.05 
   7   2  -6   10.87    1.04 
   7   2  -6    9.39    1.27 
   7   2  -6    9.74    1.10 
  -7   2   6    9.08    0.94 
  -7   2   6    9.98    0.83 
  -7   2   6   10.38    1.01 
  -7  -2   6   10.58    0.64 
  -7  -2   6   10.06    1.08 
   7  -2  -6    7.55    0.92 
   7  -2  -6    8.53    1.23 
  -7  -2   6    9.33    0.59 
   7  -2  -6   10.34    0.96 
  -7  -2   6   11.83    0.98 
  -7  -2   6   10.85    1.07 
   7  -2  -6    8.22    0.99 
   7  -2  -6    9.10    1.04 
  -7   2   5   36.97    2.14 
   7   2  -5   38.19    2.31 
  -7   2   5   41.24    1.84 
   7   2  -5   38.87    1.99 
   7   2  -5   42.15    2.25 
  -7   2   5   36.64    1.93 
   7   2  -5   39.08    2.51 
   7   2  -5   35.59    2.09 
  -7   2   5   39.35    2.07 
   7   2  -5   37.06    1.94 
  -7  -2   5   40.46    2.09 
   7  -2  -5   36.83    1.83 
  -7  -2   5   40.22    2.04 
  -7  -2   5   42.62    1.87 
  -7  -2   5   38.91    1.86 
   7  -2  -5   33.69    2.31 
   7  -2  -5   38.64    2.07 
  -7  -2   5   39.46    2.01 
   7  -2  -5   37.36    1.93 
   7  -2  -5   37.07    2.15 
   7  -2  -5   40.77    2.03 
   7   2  -4   12.44    1.14 
   7   2  -4    8.64    1.11 
   7   2  -4   12.30    1.03 
  -7   2   4   10.99    0.72 
  -7   2   4   10.77    0.97 
  -7   2   4   12.43    0.90 
  -7   2   4   11.57    1.12 
  -7   2   4   10.91    1.24 
  -7   2   4    9.38    1.22 
   7   2  -4    8.08    0.89 
   7   2  -4    9.10    1.04 
  -7  -2   4   11.60    0.87 
  -7  -2   4   11.30    1.21 
   7  -2  -4   10.93    1.16 
  -7  -2   4   10.20    1.11 
   7  -2  -4   10.45    1.14 
  -7  -2   4   13.54    1.07 
   7  -2  -4   12.09    1.26 
  -7  -2   4   11.54    1.11 
   7  -2  -4   12.59    1.10 
   7  -2  -4   11.77    1.03 
   7  -2  -4   12.89    1.03 
  -7   2   3  307.33   12.84 
   7   2  -3  285.29   12.91 
   7   2  -3  315.51   12.81 
  -7   2   3  292.49   12.72 
  -7   2   3  325.25   12.63 
   7   2  -3  296.88   12.73 
  -7   2   3  319.96   12.69 
   7   2  -3  326.95   12.71 
  -7   2   3  305.56   12.76 
   7   2  -3  284.48   12.78 
   7   2  -3  309.30   12.75 
  -7   2   3  320.88   12.85 
   7  -2  -3  311.47   12.79 
  -7  -2   3  322.73   12.75 
  -7  -2   3  290.88   12.76 
  -7  -2   3  314.51   12.63 
   7  -2  -3  289.53   12.67 
  -7  -2   3  335.31   12.93 
  -7  -2   3  332.58   12.74 
   7  -2  -3  300.05   12.83 
   7  -2  -3  324.43   12.76 
   7  -2  -3  316.75   12.76 
   7  -2  -3  314.81   12.72 
   7   2  -2  118.01    4.97 
  -7   2   2  117.35    4.91 
  -7   2   2  110.63    4.97 
   7   2  -2  126.16    4.91 
   7   2  -2  108.33    5.12 
  -7   2   2  112.50    5.05 
   7   2  -2  109.02    4.96 
  -7   2   2  112.34    4.94 
   7   2  -2  106.61    4.99 
   7   2  -2  113.78    4.98 
  -7   2   2  129.71    4.93 
  -7   2   2  108.22    4.96 
  -7  -2   2  116.89    4.85 
   7  -2  -2  101.73    4.97 
  -7  -2   2  124.51    5.11 
  -7  -2   2  105.79    4.94 
   7  -2  -2  121.00    5.01 
   7  -2  -2  109.36    4.92 
   7  -2  -2  115.75    4.94 
  -7  -2   2  119.56    5.01 
   7  -2  -2  118.53    4.94 
  -7  -2   2  112.58    4.94 
  -7   2   1  262.97   11.99 
  -7   2   1  283.93   11.92 
   7   2  -1  295.85   12.02 
  -7   2   1  287.54   12.01 
  -7   2   1  300.89   12.11 
   7   2  -1  282.14   12.02 
   7   2  -1  276.02   12.10 
  -7   2   1  306.76   11.99 
   7   2  -1  302.85   11.92 
   7   2  -1  292.93   11.92 
   7   2  -1  280.15   12.04 
   7  -2  -1  272.55   12.07 
  -7  -2   1  315.34   12.08 
   7  -2  -1  275.68   11.95 
  -7  -2   1  275.26   11.97 
   7  -2  -1  304.59   12.07 
  -7  -2   1  321.57   12.15 
   7  -2  -1  289.83   11.97 
  -7  -2   1  285.97   11.99 
   7  -2  -1  308.08   12.00 
   7  -2  -1  286.50   11.99 
  -7  -2   1  297.80   11.89 
  -7   2   0    2.14    0.81 
   7   2   0    2.93    0.59 
  -7   2   0    3.38    0.68 
  -7   2   0    2.78    0.53 
   7   2   0    2.53    0.76 
  -7   2   0    2.64    0.63 
  -7   2   0    3.62    0.75 
   7   2   0    2.09    0.63 
   7   2   0    2.63    0.76 
  -7   2   0    3.76    0.68 
   7   2   0    3.79    0.76 
  -7  -2   0    5.53    0.88 
   7  -2   0    1.88    0.78 
   7  -2   0    2.78    0.67 
   7  -2   0    2.32    0.72 
  -7  -2   0    3.14    0.68 
   7  -2   0    3.02    0.56 
   7  -2   0    3.58    0.71 
   7  -2   0    1.34    0.53 
  -7  -2   0    2.62    0.52 
  -7  -2   0    3.40    0.78 
  -7  -2   0    3.27    0.57 
  -7   2  -1    0.15    0.53 
  -7   2  -1    0.84    0.42 
   7   2   1    0.51    0.69 
  -7   2  -1    0.02    0.74 
   7   2   1    0.50    0.38 
   7   2   1    0.72    0.59 
  -7   2  -1    0.69    0.64 
   7   2   1    0.10    0.50 
   7   2   1    1.07    0.60 
  -7   2  -1   -0.02    0.63 
   7   2   1    0.94    0.87 
  -7   2  -1    0.53    0.71 
  -7  -2  -1    0.77    0.56 
   7  -2   1    0.33    0.62 
  -7  -2  -1    1.04    0.49 
   7  -2   1    0.92    0.42 
   7  -2   1    0.68    0.74 
   7  -2   1    1.12    0.74 
   7  -2   1    0.66    0.64 
  -7  -2  -1    0.46    0.85 
  -7  -2  -1    1.14    0.73 
  -7  -2  -1    0.16    0.54 
   7  -2   1    0.68    0.52 
  -7   2  -2   17.85    1.87 
   7   2   2   16.54    1.57 
   7   2   2   18.67    0.97 
  -7   2  -2   18.23    1.43 
  -7   2  -2   16.48    1.54 
   7   2   2   18.23    1.44 
  -7   2  -2   17.83    1.41 
   7   2   2   19.88    1.87 
   7   2   2   17.73    1.31 
  -7   2  -2   18.58    1.52 
  -7   2  -2   17.36    1.07 
   7   2   2   18.88    1.40 
  -7  -2  -2   17.63    1.33 
   7  -2   2   22.45    1.74 
   7  -2   2   19.02    1.04 
  -7  -2  -2   20.61    1.93 
   7  -2   2   19.38    1.51 
   7  -2   2   20.58    1.70 
   7  -2   2   18.94    1.64 
  -7  -2  -2   18.71    1.21 
  -7  -2  -2   19.48    1.32 
  -7  -2  -2   22.96    1.65 
   7  -2   2   20.68    1.52 
   7   2   3  185.30    7.48 
  -7   2  -3  181.14    7.59 
  -7   2  -3  172.78    7.55 
   7   2   3  181.86    7.20 
   7   2   3  186.65    7.55 
   7   2   3  171.45    7.43 
   7   2   3  168.32    7.65 
  -7   2  -3  176.19    7.57 
  -7   2  -3  168.35    7.24 
   7   2   3  173.07    7.81 
  -7   2  -3  175.48    7.57 
  -7   2  -3  178.46    7.78 
   7  -2   3  183.08    7.60 
   7  -2   3  161.73    7.68 
   7  -2   3  177.79    7.64 
   7  -2   3  179.24    7.25 
  -7  -2  -3  182.34    7.62 
  -7  -2  -3  173.21    7.50 
  -7  -2  -3  198.81    7.86 
  -7  -2  -3  177.85    7.40 
  -7  -2  -3  179.09    7.47 
   7  -2   3  176.21    7.61 
   7  -2   3  184.39    7.61 
  -7   2  -4   81.49    3.48 
  -7   2  -4   88.10    4.06 
   7   2   4   80.01    4.27 
   7   2   4   87.28    3.84 
  -7   2  -4   88.11    4.25 
   7   2   4   81.64    4.04 
   7   2   4   82.46    3.77 
  -7   2  -4   83.49    3.91 
  -7   2  -4   82.41    3.90 
  -7   2  -4   78.13    3.88 
  -7  -2  -4   80.52    3.70 
   7  -2   4   82.56    3.50 
   7  -2   4   77.64    4.06 
  -7  -2  -4   80.75    3.82 
  -7  -2  -4   92.79    4.00 
  -7  -2  -4   93.23    4.34 
  -7  -2  -4   85.75    3.79 
   7  -2   4   80.14    3.96 
   7  -2   4   86.82    3.94 
   7  -2   4   86.00    3.99 
   7  -2   4   91.51    4.15 
   7   2   5  199.68   10.10 
   7   2   5  229.37    9.71 
  -7   2  -5  252.15   10.11 
   7   2   5  248.89    9.81 
  -7   2  -5  229.02    9.48 
   7   2   5  217.82    9.99 
  -7   2  -5  238.33    9.89 
  -7   2  -5  237.30    9.85 
  -7   2  -5  239.03    9.87 
  -7   2  -5  231.07    9.97 
  -7  -2  -5  258.52   10.27 
  -7  -2  -5  233.85    9.73 
   7  -2   5  228.36   10.00 
   7  -2   5  223.64    9.81 
  -7  -2  -5  242.36    9.92 
  -7  -2  -5  228.58    9.81 
   7  -2   5  255.87    9.91 
   7  -2   5  240.00    9.50 
  -7  -2  -5  238.47    9.78 
   7  -2   5  234.78    9.89 
   7  -2   5  233.62    9.95 
   7   2   6    1.14    1.22 
  -7   2  -6    2.59    0.88 
  -7   2  -6    1.76    0.81 
   7   2   6    1.60    1.06 
  -7   2  -6    3.68    0.90 
  -7  -2  -6    2.40    0.69 
  -7  -2  -6    1.66    1.70 
   7  -2   6    2.01    1.00 
   7  -2   6    2.37    0.83 
  -7  -2  -6    2.04    0.73 
  -7  -2  -6    1.63    0.79 
   7   2   7   10.25    1.00 
   7   2   7    8.18    1.50 
  -7   2  -7    7.26    1.08 
  -7   2  -7    9.39    1.12 
  -7   2  -7    9.98    1.15 
   7  -2   7    9.44    1.32 
   7  -2   7    8.29    1.17 
  -7  -2  -7    8.82    0.99 
   7  -2   7    8.80    1.16 
  -7  -2  -7    7.14    0.94 
   7  -2   7    9.17    0.97 
  -7  -2  -7    6.85    1.24 
   7   2   8   10.28    1.65 
  -7   2  -8   11.41    1.31 
   7   2   8    9.24    1.56 
  -7   2  -8    8.22    1.70 
   7   2   8   10.48    1.14 
  -7   2  -8   10.47    1.25 
   7  -2   8    9.21    1.39 
   7  -2   8   10.26    0.90 
   7  -2   8   10.54    1.21 
  -7  -2  -8   11.40    1.12 
   7  -2   8   10.29    1.20 
  -7  -2  -8   10.61    1.17 
   7   2   9   42.38    3.08 
  -7   2  -9   35.48    2.52 
   7   2   9   43.74    3.27 
  -7   2  -9   40.43    2.70 
   7  -2   9   38.18    2.86 
  -7  -2  -9   41.48    2.53 
  -7  -2  -9   38.59    2.46 
   7  -2   9   41.10    2.34 
   7  -2   9   37.42    2.37 
  -7   2 -10   31.63    2.77 
  -7   2 -10   26.60    2.43 
   7   2  10   30.93    2.44 
   7   2  10   29.08    3.13 
   7  -2  10   31.23    1.97 
  -7  -2 -10   31.21    2.52 
   7  -2  10   29.16    2.97 
  -7  -2 -10   31.12    2.41 
  -7   3  10   -0.35    1.25 
  -7   3  10    0.75    0.72 
  -7   3  10    0.69    1.87 
   7   3 -10    0.51    1.90 
   7   3 -10   -0.37    0.92 
   7   3 -10    1.05    0.88 
   7  -3 -10    0.46    0.66 
   7  -3 -10    1.09    1.63 
   7   3  -9    1.68    0.84 
  -7   3   9    2.30    1.16 
  -7   3   9    2.71    0.68 
  -7   3   9    1.37    1.11 
   7   3  -9    1.19    0.51 
   7   3  -9    0.90    1.66 
   7  -3  -9    1.72    0.62 
   7  -3  -9    1.43    1.49 
  -7   3   8    0.55    0.59 
  -7   3   8   -0.01    0.54 
  -7   3   8    0.09    0.95 
   7   3  -8    0.80    0.86 
   7   3  -8   -0.91    1.28 
   7   3  -8    0.59    0.76 
   7   3  -8    0.55    0.79 
  -7   3   8    0.30    0.86 
   7   3  -8    0.41    0.50 
   7  -3  -8    0.17    0.77 
  -7  -3   8    0.42    0.48 
  -7  -3   8    0.20    0.41 
   7  -3  -8    0.22    0.53 
   7  -3  -8    0.35    0.67 
   7  -3  -8    0.26    1.22 
   7   3  -7  216.31    8.60 
   7   3  -7  217.64    8.72 
   7   3  -7  197.68    8.78 
  -7   3   7  224.69    8.58 
  -7   3   7  193.01    9.18 
   7   3  -7  207.06    8.62 
  -7   3   7  206.26    8.66 
  -7   3   7  213.56    8.84 
  -7  -3   7  197.80    8.63 
   7  -3  -7  205.19    9.04 
   7  -3  -7  211.47    8.67 
  -7  -3   7  212.68    8.56 
   7  -3  -7  207.55    8.64 
   7  -3  -7  211.34    8.69 
  -7   3   6   53.49    2.71 
  -7   3   6   52.04    2.51 
   7   3  -6   52.46    2.44 
   7   3  -6   51.05    2.55 
   7   3  -6   53.86    2.86 
  -7   3   6   53.72    2.42 
  -7   3   6   50.50    2.69 
   7   3  -6   50.90    2.52 
   7  -3  -6   48.74    2.46 
   7  -3  -6   48.19    2.95 
  -7  -3   6   59.08    2.26 
  -7  -3   6   54.56    2.39 
   7  -3  -6   51.01    2.58 
  -7  -3   6   53.50    2.45 
  -7  -3   6   50.71    2.59 
   7  -3  -6   51.80    2.54 
  -7  -3   6   52.25    2.20 
  -7   3   5  231.29    9.89 
   7   3  -5  239.91    9.70 
  -7   3   5  229.24    9.80 
  -7   3   5  238.98   10.12 
   7   3  -5  234.59    9.75 
   7   3  -5  233.93    9.81 
   7   3  -5  232.72    9.80 
   7   3  -5  245.24   10.04 
   7   3  -5  229.31   10.03 
  -7   3   5  249.13    9.75 
   7  -3  -5  218.95   10.01 
   7  -3  -5  236.29    9.82 
  -7  -3   5  243.49    9.87 
   7  -3  -5  234.21    9.93 
   7  -3  -5  249.36    9.86 
  -7  -3   5  251.06    9.75 
  -7  -3   5  232.89    9.85 
  -7  -3   5  234.21    9.64 
  -7  -3   5  239.83    9.66 
   7  -3  -5  233.56    9.78 
   7  -3  -5  245.34    9.80 
  -7  -3   5  238.97    9.79 
   7   3  -4    1.42    0.58 
   7   3  -4    2.09    0.97 
   7   3  -4    1.37    0.59 
   7   3  -4    0.40    0.57 
  -7   3   4    2.33    0.96 
  -7   3   4    1.32    0.64 
   7   3  -4    0.86    0.84 
  -7   3   4    1.64    0.42 
   7   3  -4    1.66    0.57 
  -7   3   4    1.68    0.64 
  -7   3   4    1.92    0.26 
  -7   3   4    1.57    0.55 
   7  -3  -4    1.32    0.71 
   7  -3  -4    2.47    0.90 
  -7  -3   4    1.59    0.55 
  -7  -3   4    1.12    0.53 
   7  -3  -4    1.92    0.70 
  -7  -3   4    2.36    0.46 
   7  -3  -4    2.06    0.53 
   7  -3  -4    2.33    0.65 
   7  -3  -4    1.61    0.25 
  -7  -3   4    1.11    0.78 
  -7  -3   4    1.60    0.39 
  -7  -3   4    2.00    0.54 
   7   3  -3  126.82    5.56 
   7   3  -3  129.00    5.54 
  -7   3   3  136.01    5.52 
   7   3  -3  138.01    5.46 
  -7   3   3  136.11    5.68 
  -7   3   3  124.10    5.64 
   7   3  -3  124.11    5.57 
  -7   3   3  131.59    5.63 
  -7   3   3  121.85    5.54 
   7   3  -3  141.00    5.67 
   7   3  -3  123.02    5.69 
  -7   3   3  141.87    5.43 
   7  -3  -3  127.71    5.70 
  -7  -3   3  135.20    5.60 
   7  -3  -3  127.45    5.53 
   7  -3  -3  129.41    5.38 
   7  -3  -3  125.50    5.60 
  -7  -3   3  132.28    5.37 
   7  -3  -3  126.31    5.63 
  -7  -3   3  126.13    5.64 
  -7  -3   3  125.76    5.55 
  -7  -3   3  132.31    5.62 
   7  -3  -3  131.23    5.57 
  -7   3   2    0.01    0.53 
  -7   3   2    1.21    0.70 
   7   3  -2    0.24    0.61 
  -7   3   2    0.75    0.60 
   7   3  -2    0.28    0.69 
   7   3  -2    0.04    0.56 
   7   3  -2   -0.01    0.55 
   7   3  -2    0.86    0.57 
   7   3  -2    0.36    0.47 
  -7   3   2    0.63    0.60 
  -7   3   2   -0.13    0.50 
  -7   3   2    0.54    0.57 
   7  -3  -2    0.70    0.60 
  -7  -3   2   -0.33    0.66 
  -7  -3   2    0.10    0.50 
  -7  -3   2    0.70    0.41 
  -7  -3   2   -0.42    0.46 
   7  -3  -2   -0.35    0.58 
   7  -3  -2   -0.46    0.52 
   7  -3  -2   -0.17    0.48 
   7  -3  -2   -0.30    0.40 
   7  -3  -2    0.11    0.63 
  -7  -3   2    0.38    0.59 
   7   3  -1  158.68    6.98 
   7   3  -1  164.59    6.76 
   7   3  -1  158.09    6.89 
  -7   3   1  161.31    6.92 
   7   3  -1  171.26    6.85 
  -7   3   1  166.29    6.89 
   7   3  -1  161.31    7.01 
  -7   3   1  165.55    7.01 
   7   3  -1  161.84    6.90 
  -7   3   1  161.19    6.83 
  -7   3   1  164.41    6.99 
  -7  -3   1  171.85    7.02 
   7  -3  -1  163.39    6.81 
   7  -3  -1  159.17    7.00 
   7  -3  -1  161.87    6.98 
  -7  -3   1  167.52    6.89 
  -7  -3   1  159.95    6.87 
   7  -3  -1  159.07    6.90 
  -7  -3   1  165.66    6.77 
   7  -3  -1  164.80    6.90 
  -7  -3   1  165.21    6.97 
  -7  -3   1  164.52    6.77 
   7   3   0   32.14    1.82 
  -7   3   0   33.10    1.80 
  -7   3   0   28.24    1.89 
  -7   3   0   30.04    2.17 
  -7   3   0   32.04    1.76 
   7   3   0   30.72    1.95 
   7   3   0   30.58    1.80 
  -7   3   0   28.32    1.72 
  -7   3   0   30.10    1.62 
   7   3   0   29.68    1.57 
   7   3   0   29.59    1.89 
   7   3   0   32.34    1.64 
   7  -3   0   30.47    1.76 
  -7  -3   0   31.90    1.60 
  -7  -3   0   31.45    1.72 
   7  -3   0   31.80    1.71 
   7  -3   0   29.02    1.69 
  -7  -3   0   28.42    1.50 
  -7  -3   0   30.82    1.70 
  -7  -3   0   31.22    2.12 
   7  -3   0   29.73    2.14 
   7  -3   0   28.50    1.86 
   7  -3   0   31.14    1.75 
  -7  -3   0   32.72    1.85 
  -7   3  -1  119.65    5.24 
   7   3   1  116.43    5.07 
  -7   3  -1  129.20    5.34 
   7   3   1  109.18    5.47 
  -7   3  -1  119.48    5.04 
   7   3   1  115.26    5.36 
  -7   3  -1  129.28    5.24 
  -7   3  -1  123.93    5.39 
   7   3   1  113.55    5.37 
  -7   3  -1  125.16    5.24 
   7   3   1  119.93    5.04 
   7   3   1  116.53    5.32 
  -7  -3  -1  119.11    5.30 
  -7  -3  -1  121.91    5.17 
  -7  -3  -1  120.09    5.09 
  -7  -3  -1  119.09    5.18 
   7  -3   1  119.58    5.34 
  -7  -3  -1  121.47    5.45 
   7  -3   1  122.38    5.22 
   7  -3   1  132.18    5.44 
   7  -3   1  117.86    5.20 
  -7  -3  -1  120.05    5.00 
   7  -3   1  122.63    5.10 
   7  -3   1  119.54    5.25 
  -7   3  -2   19.07    1.53 
  -7   3  -2   16.52    1.47 
   7   3   2   18.14    1.07 
   7   3   2   15.53    1.53 
  -7   3  -2   18.39    1.42 
   7   3   2   17.50    1.42 
  -7   3  -2   14.57    1.53 
  -7   3  -2   18.43    1.09 
   7   3   2   18.80    1.41 
   7   3   2   18.89    1.97 
  -7   3  -2   16.57    1.69 
   7  -3   2   18.17    1.68 
  -7  -3  -2   19.20    1.60 
   7  -3   2   17.48    1.37 
   7  -3   2   17.99    1.12 
   7  -3   2   17.94    1.55 
  -7  -3  -2   20.75    1.79 
   7  -3   2   16.37    1.39 
  -7  -3  -2   17.09    1.30 
  -7  -3  -2   17.78    0.97 
   7  -3   2   16.92    1.77 
  -7  -3  -2   17.97    1.17 
  -7  -3  -2   18.46    1.30 
   7   3   3  146.79    6.62 
  -7   3  -3  143.89    6.28 
   7   3   3  145.97    6.21 
  -7   3  -3  145.15    6.23 
   7   3   3  140.47    6.33 
  -7   3  -3  143.55    6.26 
   7   3   3  147.16    5.94 
  -7   3  -3  143.18    6.60 
  -7   3  -3  147.82    6.28 
  -7   3  -3  139.96    5.95 
   7   3   3  144.27    6.17 
   7  -3   3  144.20    6.39 
   7  -3   3  143.26    6.34 
   7  -3   3  148.96    6.25 
  -7  -3  -3  151.76    6.65 
   7  -3   3  137.84    6.31 
   7  -3   3  144.29    5.99 
  -7  -3  -3  154.90    6.33 
   7  -3   3  140.79    6.26 
  -7  -3  -3  141.89    6.07 
  -7  -3  -3  146.27    6.15 
  -7  -3  -3  144.00    5.91 
  -7  -3  -3  145.17    6.18 
   7   3   4    0.47    0.70 
  -7   3  -4   -0.21    0.73 
  -7   3  -4    0.22    0.67 
   7   3   4    0.48    1.03 
  -7   3  -4   -0.18    0.64 
   7   3   4    0.74    0.71 
  -7   3  -4    0.51    0.97 
  -7   3  -4    1.29    1.26 
   7   3   4    0.34    0.37 
  -7   3  -4    0.26    0.38 
   7   3   4    0.73    0.57 
  -7  -3  -4    0.13    0.52 
  -7  -3  -4    0.24    0.28 
  -7  -3  -4    0.76    0.73 
   7  -3   4   -0.57    0.67 
   7  -3   4   -1.78    0.83 
  -7  -3  -4    3.01    1.41 
   7  -3   4    0.94    0.78 
   7  -3   4   -0.04    0.41 
  -7  -3  -4   -0.03    0.91 
  -7  -3  -4    1.01    0.52 
   7  -3   4    0.75    1.02 
   7   3   5   55.06    2.67 
  -7   3  -5   50.90    2.63 
   7   3   5   48.96    3.31 
  -7   3  -5   52.33    2.90 
   7   3   5   51.37    2.64 
  -7   3  -5   52.47    3.26 
  -7   3  -5   51.05    2.27 
  -7   3  -5   48.88    2.74 
   7   3   5   55.57    2.93 
  -7  -3  -5   53.43    2.92 
   7  -3   5   53.56    2.80 
   7  -3   5   51.66    2.37 
   7  -3   5   55.27    2.46 
   7  -3   5   49.49    2.83 
  -7  -3  -5   56.17    3.56 
  -7  -3  -5   51.25    2.65 
  -7  -3  -5   53.50    2.59 
   7  -3   5   56.77    2.83 
  -7  -3  -5   48.84    2.50 
  -7   3  -6    9.91    1.08 
   7   3   6   13.12    1.43 
  -7   3  -6   10.67    0.80 
  -7   3  -6    7.83    1.08 
  -7   3  -6    9.39    1.22 
   7   3   6   10.74    1.70 
   7  -3   6   12.20    1.04 
   7  -3   6   11.18    1.30 
  -7  -3  -6   11.86    1.23 
   7  -3   6   11.45    1.16 
   7  -3   6   11.36    1.02 
  -7  -3  -6   12.77    1.26 
  -7  -3  -6    9.07    1.09 
  -7   3  -7  111.74    5.09 
   7   3   7  105.05    5.44 
  -7   3  -7  102.24    5.00 
   7   3   7  111.68    4.91 
  -7   3  -7  104.08    4.53 
   7   3   7  103.04    5.25 
  -7   3  -7  110.64    4.95 
  -7  -3  -7  109.12    5.07 
   7  -3   7  114.47    5.15 
   7  -3   7  115.92    4.65 
  -7  -3  -7  111.75    4.92 
   7  -3   7  128.41    5.12 
  -7  -3  -7  109.59    4.88 
   7  -3   7  108.50    4.94 
   7   3   8    7.20    1.53 
   7   3   8    8.10    1.59 
  -7   3  -8    7.09    1.15 
  -7   3  -8    5.45    1.20 
  -7  -3  -8    9.42    1.11 
   7  -3   8    7.32    0.99 
  -7  -3  -8    9.77    1.11 
   7  -3   8    8.28    1.42 
   7  -3   8    7.80    1.24 
   7   3   9  100.26    5.38 
  -7   3  -9  107.56    4.99 
  -7   3  -9   97.09    4.72 
   7   3   9  101.37    5.29 
   7  -3   9  111.15    4.71 
   7  -3   9  102.24    5.10 
   7  -3   9   95.88    4.51 
  -7  -3  -9  103.06    4.75 
  -7  -3  -9  104.24    4.78 
  -7   3 -10   -0.22    1.39 
   7   3  10    2.45    1.71 
  -7  -3 -10    2.62    1.27 
  -7  -3 -10    3.48    1.28 
   7  -3  10    2.58    0.79 
  -7   4  10   33.30    2.12 
  -7   4  10   32.51    2.89 
   7   4 -10   33.65    1.87 
   7   4 -10   30.98    2.40 
   7   4 -10   35.50    3.07 
   7  -4 -10   33.88    2.04 
   7  -4 -10   32.15    2.58 
  -7   4   9   91.08    4.19 
   7   4  -9   89.53    3.96 
   7   4  -9   96.96    4.34 
  -7   4   9   89.50    4.62 
   7  -4  -9   97.70    4.89 
   7  -4  -9   94.42    4.14 
  -7   4   8   89.61    4.15 
   7   4  -8   81.60    3.67 
   7   4  -8   80.50    4.17 
  -7   4   8   87.39    3.86 
   7   4  -8   87.43    3.65 
  -7   4   8   82.98    4.13 
   7   4  -8   88.22    3.94 
   7  -4  -8   91.00    4.48 
   7  -4  -8   86.18    3.79 
  -7  -4   8   73.09    3.68 
  -7  -4   8   87.29    3.59 
  -7   4   7   47.25    2.29 
  -7   4   7   44.36    2.63 
   7   4  -7   46.87    2.26 
  -7   4   7   47.81    2.64 
  -7   4   7   43.67    2.38 
   7   4  -7   45.37    2.23 
   7   4  -7   51.27    3.03 
   7   4  -7   47.35    2.47 
  -7  -4   7   46.57    2.19 
  -7  -4   7   46.95    2.35 
   7  -4  -7   45.97    2.31 
   7  -4  -7   47.21    3.00 
   7  -4  -7   43.52    2.35 
   7  -4  -7   46.85    2.50 
  -7   4   6    3.86    0.66 
   7   4  -6    3.56    0.68 
   7   4  -6    3.18    0.73 
   7   4  -6    3.02    1.23 
   7   4  -6    2.96    0.61 
  -7   4   6    2.68    0.74 
  -7   4   6    3.78    0.89 
  -7  -4   6    2.59    0.61 
   7  -4  -6    2.32    0.69 
  -7  -4   6    2.73    0.71 
  -7  -4   6    3.19    0.58 
   7  -4  -6    3.36    0.73 
   7  -4  -6    2.26    1.08 
   7   4  -5   11.81    0.88 
  -7   4   5   10.30    1.00 
   7   4  -5    9.64    0.93 
   7   4  -5   11.05    1.20 
  -7   4   5    8.40    0.96 
   7   4  -5   10.73    1.00 
  -7   4   5    8.40    0.89 
  -7  -4   5   11.23    1.16 
   7  -4  -5   11.90    1.10 
  -7  -4   5    8.44    1.36 
   7  -4  -5   10.58    1.01 
   7  -4  -5    8.62    0.84 
   7  -4  -5   10.18    1.13 
   7  -4  -5   10.04    1.29 
  -7   4   4   61.07    3.07 
  -7   4   4   61.36    2.98 
   7   4  -4   60.85    2.95 
   7   4  -4   63.52    3.18 
  -7   4   4   62.81    2.92 
   7   4  -4   63.08    2.70 
   7   4  -4   60.38    2.92 
  -7   4   4   68.43    3.14 
   7   4  -4   64.89    3.04 
   7  -4  -4   77.22    3.65 
  -7  -4   4   61.06    2.97 
  -7  -4   4   64.96    3.21 
   7  -4  -4   62.16    3.00 
   7  -4  -4   61.62    3.04 
  -7  -4   4   64.61    2.99 
   7  -4  -4   63.90    3.27 
  -7  -4   4   62.24    2.82 
   7  -4  -4   63.05    2.95 
  -7  -4   4   65.34    2.65 
  -7  -4   4   72.16    3.07 
   7  -4  -4   66.13    3.00 
   7   4  -3  105.27    4.78 
  -7   4   3  114.75    4.41 
   7   4  -3  101.17    4.62 
   7   4  -3  105.47    4.70 
  -7   4   3  100.42    4.58 
  -7   4   3  104.89    4.66 
  -7   4   3  110.79    4.70 
   7   4  -3  104.71    4.54 
   7   4  -3  104.42    4.29 
   7   4  -3  104.23    4.57 
  -7   4   3  100.52    4.68 
   7  -4  -3   99.99    4.61 
   7  -4  -3  104.05    4.58 
  -7  -4   3  109.19    4.27 
   7  -4  -3  105.14    4.74 
  -7  -4   3  103.73    4.69 
   7  -4  -3  101.56    4.54 
  -7  -4   3  103.74    4.54 
   7  -4  -3  107.72    4.59 
  -7  -4   3  110.92    4.60 
  -7  -4   3   97.78    4.45 
  -7  -4   3  101.99    4.54 
   7  -4  -3  105.84    4.74 
  -7   4   2  258.31   10.81 
   7   4  -2  265.05   10.78 
  -7   4   2  265.31   10.73 
   7   4  -2  249.76   10.84 
   7   4  -2  256.38   10.54 
  -7   4   2  268.02   10.88 
   7   4  -2  273.56   10.82 
  -7   4   2  266.94   10.87 
  -7   4   2  262.16   10.77 
   7   4  -2  269.95   10.90 
  -7   4   2  252.40   10.78 
   7   4  -2  249.43   10.75 
  -7  -4   2  263.08   10.56 
  -7  -4   2  274.66   10.84 
   7  -4  -2  268.26   10.78 
   7  -4  -2  273.23   10.79 
  -7  -4   2  262.91   10.76 
  -7  -4   2  264.98   10.87 
   7  -4  -2  254.56   10.60 
  -7  -4   2  260.07   10.71 
   7  -4  -2  258.49   10.84 
  -7  -4   2  238.32   10.80 
  -7  -4   2  244.30   10.69 
   7  -4  -2  265.85   10.76 
   7  -4  -2  263.73   10.86 
   7   4  -1   79.22    3.52 
  -7   4   1   83.43    4.04 
  -7   4   1   75.58    3.46 
   7   4  -1   71.20    3.59 
  -7   4   1   76.98    3.52 
   7   4  -1   77.94    3.50 
  -7   4   1   75.03    3.45 
   7   4  -1   71.47    3.46 
  -7   4   1   76.60    3.60 
  -7   4   1   77.33    3.43 
  -7  -4   1   78.88    3.29 
   7  -4  -1   76.01    3.32 
   7  -4  -1   83.34    3.78 
   7  -4  -1   70.25    3.53 
   7  -4  -1   72.37    3.47 
   7  -4  -1   75.16    3.52 
   7  -4  -1   78.29    3.48 
  -7  -4   1   79.59    3.58 
  -7  -4   1   78.85    3.70 
  -7  -4   1   75.14    3.43 
   7  -4  -1   75.11    3.44 
  -7  -4   1   76.88    3.34 
  -7  -4   1   77.50    3.45 
  -7   4   0    1.21    0.73 
   7   4   0    2.31    0.79 
  -7   4   0    2.29    0.69 
   7   4   0    2.28    0.86 
  -7   4   0    3.45    0.79 
   7   4   0    3.47    0.71 
   7   4   0    2.25    0.63 
  -7   4   0    1.54    0.63 
   7   4   0    2.42    0.72 
  -7   4   0    2.60    0.63 
  -7   4   0    1.84    0.59 
   7  -4   0    1.46    1.09 
   7  -4   0    2.31    0.59 
   7  -4   0    3.38    0.68 
  -7  -4   0    2.94    0.76 
  -7  -4   0    1.65    0.43 
  -7  -4   0    2.13    0.58 
   7  -4   0    1.80    0.65 
   7  -4   0    1.05    0.69 
   7  -4   0    2.11    0.67 
  -7  -4   0    2.34    0.61 
  -7  -4   0    2.06    1.00 
  -7  -4   0    1.86    0.48 
   7  -4   0    1.58    0.53 
   7   4   1   14.43    1.41 
  -7   4  -1   14.22    1.30 
   7   4   1   11.66    1.35 
   7   4   1   11.00    1.32 
  -7   4  -1   14.61    1.32 
  -7   4  -1   16.07    1.38 
  -7   4  -1   14.08    1.35 
   7   4   1   13.91    1.33 
   7   4   1   14.59    1.19 
  -7   4  -1   14.05    1.14 
  -7   4  -1   15.01    1.52 
   7  -4   1   13.58    1.21 
   7  -4   1   15.49    1.17 
  -7  -4  -1   16.07    1.22 
  -7  -4  -1   12.49    1.06 
   7  -4   1   15.25    1.48 
  -7  -4  -1   15.59    1.48 
   7  -4   1   14.30    1.44 
   7  -4   1   14.65    1.38 
  -7  -4  -1   15.03    0.95 
  -7  -4  -1   16.52    1.50 
   7  -4   1   14.71    1.21 
   7  -4   1   14.54    1.26 
  -7  -4  -1   15.25    1.22 
  -7   4  -2    6.43    0.81 
   7   4   2    9.55    0.99 
   7   4   2    9.36    0.76 
  -7   4  -2    7.62    0.73 
   7   4   2    8.18    0.99 
  -7   4  -2    7.17    0.94 
   7   4   2    6.48    1.24 
  -7   4  -2    8.29    0.93 
  -7   4  -2    8.17    1.06 
   7   4   2    7.87    0.98 
  -7   4  -2    8.26    1.05 
  -7  -4  -2   10.22    0.92 
   7  -4   2    8.33    0.96 
  -7  -4  -2    6.81    0.74 
  -7  -4  -2    9.34    0.92 
   7  -4   2    5.40    0.79 
  -7  -4  -2    6.91    0.72 
   7  -4   2    6.86    1.17 
   7  -4   2    7.41    0.75 
   7  -4   2    9.40    0.96 
  -7  -4  -2    9.03    1.38 
  -7  -4  -2    6.79    1.02 
   7  -4   2    7.03    1.01 
   7  -4   2    6.78    0.72 
   7   4   3  104.74    4.26 
   7   4   3  103.47    5.01 
  -7   4  -3  101.49    4.46 
   7   4   3   98.80    4.60 
  -7   4  -3   97.96    4.24 
  -7   4  -3  105.83    4.63 
  -7   4  -3   96.81    4.55 
  -7   4  -3  101.15    4.74 
   7   4   3   98.48    4.47 
   7   4   3  101.83    4.49 
  -7   4  -3   96.23    4.48 
   7  -4   3  101.71    4.69 
  -7  -4  -3  106.20    4.58 
  -7  -4  -3   93.59    4.92 
   7  -4   3   99.08    4.76 
  -7  -4  -3   99.61    4.17 
   7  -4   3   97.92    4.52 
   7  -4   3  100.82    4.48 
   7  -4   3  101.05    4.33 
  -7  -4  -3   99.76    4.41 
  -7  -4  -3   99.82    4.43 
   7  -4   3   97.88    4.48 
  -7  -4  -3  101.60    4.30 
   7  -4   3   98.34    4.29 
   7   4   4  215.77    9.57 
   7   4   4  233.73    9.46 
   7   4   4  225.35    9.40 
   7   4   4  208.13    9.34 
  -7   4  -4  234.31    9.58 
  -7   4  -4  224.83    9.73 
   7   4   4  230.13    9.93 
  -7   4  -4  224.17    9.21 
  -7   4  -4  235.09    9.50 
  -7   4  -4  230.61    9.44 
   7  -4   4  220.49    9.64 
  -7  -4  -4  224.79    9.32 
   7  -4   4  233.57    9.29 
  -7  -4  -4  234.99    9.41 
  -7  -4  -4  230.90    9.16 
  -7  -4  -4  234.58    9.43 
  -7  -4  -4  222.88    9.43 
   7  -4   4  238.39    9.32 
   7  -4   4  223.68    9.50 
  -7  -4  -4  207.31    9.82 
   7  -4   4  211.98    9.63 
   7  -4   4  222.12    9.50 
  -7  -4  -4  226.58    9.54 
   7   4   5   54.06    2.99 
  -7   4  -5   51.08    2.74 
  -7   4  -5   51.46    2.94 
   7   4   5   54.04    2.81 
   7   4   5   53.42    3.54 
  -7   4  -5   58.51    2.96 
  -7   4  -5   50.76    2.43 
   7   4   5   55.96    2.49 
   7  -4   5   59.49    3.07 
  -7  -4  -5   53.88    2.60 
  -7  -4  -5   53.58    2.31 
  -7  -4  -5   51.31    2.69 
   7  -4   5   56.79    2.57 
  -7  -4  -5   52.15    2.78 
   7  -4   5   56.06    2.81 
  -7  -4  -5   53.92    2.98 
  -7  -4  -5   54.70    2.93 
   7  -4   5   56.74    2.98 
   7  -4   5   53.59    2.53 
  -7   4  -6   45.07    2.48 
   7   4   6   44.44    2.50 
   7   4   6   45.36    2.77 
   7   4   6   50.54    2.09 
  -7   4  -6   43.44    2.09 
  -7   4  -6   47.01    2.76 
  -7   4  -6   41.74    2.51 
   7  -4   6   42.05    2.24 
   7  -4   6   44.77    2.70 
   7  -4   6   40.71    2.92 
  -7  -4  -6   37.35    2.65 
   7  -4   6   42.78    2.41 
  -7  -4  -6   42.56    2.57 
  -7  -4  -6   43.02    2.41 
  -7  -4  -6   43.86    1.89 
   7   4   7   13.26    1.63 
  -7   4  -7   13.56    1.55 
  -7   4  -7   12.24    1.30 
   7   4   7   11.23    1.84 
  -7  -4  -7   13.35    1.19 
   7  -4   7   14.45    1.43 
   7  -4   7   13.24    1.20 
   7  -4   7   14.08    1.50 
  -7  -4  -7   14.24    1.26 
   7  -4   7   12.50    1.43 
   7  -4   7   13.79    1.44 
   7   4   8    1.00    1.20 
  -7   4  -8    0.68    1.34 
  -7   4  -8    2.12    0.95 
   7   4   8   -0.20    1.64 
   7  -4   8    3.00    1.25 
  -7  -4  -8    2.64    0.91 
  -7  -4  -8    1.56    0.91 
   7  -4   8    2.01    0.78 
  -7   4  -9   32.56    3.06 
   7   4   9   34.88    3.16 
   7   4   9   30.98    2.62 
  -7   4  -9   31.91    2.30 
   7  -4   9   31.30    1.96 
  -7  -4  -9   34.06    2.42 
  -7  -4  -9   32.67    2.39 
  -7   5   9    6.82    1.50 
   7   5  -9    5.97    1.20 
  -7   5   9    7.06    1.15 
   7  -5  -9    7.64    1.04 
   7  -5  -9    8.45    1.82 
   7   5  -8   61.90    3.26 
  -7   5   8   56.65    3.48 
  -7   5   8   60.91    3.14 
   7  -5  -8   64.00    3.06 
  -7  -5   8   64.09    2.79 
  -7  -5   8   63.29    2.97 
   7  -5  -8   64.57    3.80 
   7   5  -7    1.78    0.87 
   7   5  -7    0.74    0.59 
  -7   5   7    0.41    0.99 
  -7   5   7    1.85    0.81 
  -7  -5   7    0.77    0.60 
   7  -5  -7    2.72    1.28 
   7  -5  -7    0.63    0.65 
  -7  -5   7    1.70    0.82 
  -7   5   6  173.69    7.78 
  -7   5   6  186.92    7.81 
  -7   5   6  189.85    7.63 
   7   5  -6  190.52    7.75 
   7   5  -6  167.32    8.03 
   7   5  -6  181.26    7.56 
  -7   5   6  178.20    7.70 
   7  -5  -6  175.59    7.67 
  -7  -5   6  185.67    7.58 
   7  -5  -6  191.56    7.97 
   7  -5  -6  184.24    7.72 
  -7  -5   6  171.21    7.62 
  -7  -5   6  189.72    7.53 
   7  -5  -6  177.85    7.62 
  -7   5   5   24.89    1.85 
  -7   5   5   24.03    1.93 
   7   5  -5   24.09    1.74 
   7   5  -5   21.92    2.19 
   7   5  -5   21.33    1.48 
  -7   5   5   23.38    1.59 
  -7  -5   5   23.85    1.58 
  -7  -5   5   27.10    1.73 
  -7  -5   5   21.64    1.73 
  -7  -5   5   23.39    1.59 
   7  -5  -5   24.99    2.14 
   7  -5  -5   23.43    1.59 
   7  -5  -5   21.13    1.71 
   7  -5  -5   23.62    1.74 
  -7   5   4  128.98    5.27 
   7   5  -4  127.71    5.48 
  -7   5   4  119.61    5.85 
  -7   5   4  125.30    5.47 
   7   5  -4  119.97    5.22 
  -7   5   4  119.34    5.33 
   7  -5  -4  121.81    5.34 
   7  -5  -4  125.04    5.27 
  -7  -5   4  131.03    5.34 
   7  -5  -4  119.44    5.33 
   7  -5  -4  102.94    5.91 
   7  -5  -4  120.04    5.29 
  -7  -5   4  122.16    5.25 
  -7  -5   4  127.97    5.28 
  -7  -5   4  111.89    5.66 
  -7   5   3    4.04    0.83 
  -7   5   3    2.71    0.65 
   7   5  -3    4.77    0.72 
   7   5  -3    2.91    0.81 
  -7   5   3    3.98    0.87 
   7   5  -3    2.15    0.69 
   7   5  -3    2.47    0.80 
  -7   5   3    3.69    0.62 
  -7   5   3    3.48    0.95 
  -7   5   3    3.42    0.46 
   7  -5  -3    3.42    1.10 
  -7  -5   3    2.97    0.76 
   7  -5  -3    5.29    0.86 
  -7  -5   3    2.97    0.71 
  -7  -5   3    3.27    0.61 
   7  -5  -3    2.51    0.64 
   7  -5  -3    3.26    0.63 
   7  -5  -3    3.01    0.68 
   7   5  -2   30.06    2.05 
   7   5  -2   33.03    1.77 
  -7   5   2   28.06    1.72 
  -7   5   2   29.77    2.00 
  -7   5   2   27.36    1.68 
   7   5  -2   27.15    1.86 
  -7   5   2   30.04    1.90 
  -7   5   2   26.39    1.75 
   7   5  -2   26.08    1.80 
   7   5  -2   27.91    1.81 
  -7  -5   2   27.57    1.80 
  -7  -5   2   28.14    1.60 
  -7  -5   2   26.52    1.67 
  -7  -5   2   24.82    1.72 
  -7  -5   2   25.08    1.61 
   7  -5  -2   28.11    1.82 
   7  -5  -2   27.18    1.89 
   7  -5  -2   29.80    1.74 
   7  -5  -2   28.48    1.69 
   7  -5  -2   34.15    3.11 
   7  -5  -2   28.57    1.90 
   7   5  -1    0.52    0.75 
  -7   5   1    0.86    0.78 
  -7   5   1    1.04    0.86 
   7   5  -1    0.53    0.66 
  -7   5   1    0.93    0.62 
   7   5  -1    0.45    0.81 
  -7   5   1    0.69    0.69 
  -7   5   1    0.61    0.66 
  -7   5   1    0.17    0.58 
   7   5  -1    1.32    0.79 
   7   5  -1    0.78    0.59 
  -7  -5   1    0.38    0.78 
  -7  -5   1    1.03    0.36 
  -7  -5   1    0.65    0.59 
   7  -5  -1    1.65    0.79 
   7  -5  -1    0.65    0.74 
  -7  -5   1    0.87    0.49 
   7  -5  -1    0.83    0.56 
   7  -5  -1    1.14    0.71 
  -7  -5   1    0.43    0.27 
   7  -5  -1   -0.18    1.11 
  -7  -5   1    0.97    0.55 
  -7  -5   1    1.08    0.66 
   7  -5  -1    0.93    0.64 
   7   5   0  210.08    9.04 
  -7   5   0  204.07    8.84 
  -7   5   0  225.44    8.86 
   7   5   0  209.79    8.93 
  -7   5   0  213.50    8.90 
  -7   5   0  221.87    9.05 
  -7   5   0  206.94    9.01 
  -7   5   0  219.23    8.96 
   7   5   0  209.92    9.08 
   7   5   0  222.23    8.90 
   7   5   0  195.99    8.95 
   7  -5   0  227.26    9.24 
  -7  -5   0  202.40    8.85 
   7  -5   0  206.90    8.95 
   7  -5   0  201.63    9.07 
  -7  -5   0  205.39    8.86 
  -7  -5   0  214.69    8.70 
   7  -5   0  214.94    8.91 
   7  -5   0  217.14    8.87 
  -7  -5   0  220.43    8.98 
   7  -5   0  212.70    8.93 
  -7  -5   0  216.25    8.87 
  -7  -5   0  222.32    8.67 
  -7  -5   0  212.89    8.76 
  -7   5  -1   22.17    1.58 
   7   5   1   21.86    2.00 
  -7   5  -1   19.74    1.86 
   7   5   1   24.50    1.59 
  -7   5  -1   17.68    1.74 
   7   5   1   20.69    1.66 
  -7   5  -1   21.40    1.60 
  -7   5  -1   20.53    1.56 
   7   5   1   19.59    1.61 
  -7   5  -1   23.27    1.65 
   7   5   1   20.10    1.65 
  -7  -5  -1   20.98    1.51 
   7  -5   1   25.03    2.44 
  -7  -5  -1   19.75    1.72 
  -7  -5  -1   22.44    1.30 
  -7  -5  -1   23.09    1.26 
   7  -5   1   22.33    1.57 
  -7  -5  -1   21.67    1.27 
  -7  -5  -1   22.50    1.54 
   7  -5   1   20.22    1.83 
   7  -5   1   20.89    1.61 
   7  -5   1   19.54    1.50 
   7  -5   1   20.29    1.49 
  -7  -5  -1   19.99    1.62 
  -7   5  -2  256.18   11.20 
  -7   5  -2  285.42   11.54 
   7   5   2  277.41   11.39 
  -7   5  -2  268.00   11.37 
  -7   5  -2  281.51   11.37 
   7   5   2  269.63   11.33 
   7   5   2  283.78   11.25 
  -7   5  -2  259.99   11.46 
   7   5   2  263.05   11.43 
   7   5   2  255.15   11.71 
  -7   5  -2  272.27   11.35 
  -7  -5  -2  269.46   11.32 
  -7  -5  -2  288.12   11.34 
  -7  -5  -2  285.35   11.20 
  -7  -5  -2  286.76   11.45 
   7  -5   2  277.13   11.29 
  -7  -5  -2  259.01   11.32 
   7  -5   2  267.31   11.40 
  -7  -5  -2  269.93   11.15 
  -7  -5  -2  288.27   11.22 
   7  -5   2  278.06   11.27 
   7  -5   2  292.57   11.61 
   7  -5   2  283.87   11.37 
   7  -5   2  257.73   11.39 
   7   5   3    1.68    1.31 
   7   5   3    0.88    0.92 
  -7   5  -3    0.12    1.18 
   7   5   3    0.05    0.70 
  -7   5  -3    0.22    0.61 
   7   5   3    0.40    0.69 
   7   5   3    0.07    0.69 
  -7   5  -3   -0.07    0.67 
  -7   5  -3    1.03    0.75 
  -7   5  -3   -0.85    0.87 
  -7  -5  -3    0.41    0.53 
   7  -5   3    0.35    0.75 
  -7  -5  -3    1.35    0.86 
  -7  -5  -3    0.43    0.41 
   7  -5   3    0.54    0.72 
  -7  -5  -3    0.44    0.72 
   7  -5   3    1.51    1.25 
  -7  -5  -3    1.04    0.93 
  -7  -5  -3   -0.45    0.63 
   7  -5   3    0.70    0.55 
   7  -5   3    0.45    0.65 
  -7  -5  -3    1.86    0.71 
  -7   5  -4   10.63    1.79 
   7   5   4    8.31    1.09 
   7   5   4   14.47    1.30 
  -7   5  -4    8.85    0.87 
   7   5   4    7.83    1.11 
   7   5   4    9.65    0.93 
   7   5   4   10.94    2.03 
  -7   5  -4    9.41    1.08 
  -7   5  -4   11.68    1.38 
  -7  -5  -4   11.43    1.10 
  -7  -5  -4    8.94    0.84 
  -7  -5  -4    7.75    1.05 
   7  -5   4   11.47    0.98 
  -7  -5  -4   10.31    1.27 
   7  -5   4    9.97    1.08 
   7  -5   4    8.28    1.01 
  -7  -5  -4   10.88    0.85 
  -7  -5  -4    8.41    0.95 
  -7  -5  -4   11.07    1.15 
   7  -5   4    7.30    0.94 
  -7   5  -5    2.86    0.96 
  -7   5  -5    2.29    0.79 
   7   5   5    1.11    0.95 
  -7   5  -5    2.10    0.77 
   7   5   5    2.35    0.87 
   7   5   5    3.96    2.63 
   7  -5   5    1.33    0.62 
  -7  -5  -5    2.74    0.46 
  -7  -5  -5    2.81    0.82 
  -7  -5  -5    1.22    1.04 
   7  -5   5    2.20    0.83 
  -7  -5  -5    2.15    0.87 
   7  -5   5    1.84    0.89 
   7  -5   5    2.59    0.81 
  -7  -5  -5    2.48    0.68 
   7   5   6  101.80    5.01 
  -7   5  -6  101.01    4.66 
   7   5   6  104.11    5.51 
  -7   5  -6   94.06    4.49 
  -7   5  -6  110.04    4.93 
  -7  -5  -6  104.99    4.66 
   7  -5   6  100.25    4.57 
  -7  -5  -6  103.33    4.55 
  -7  -5  -6  101.27    4.78 
  -7  -5  -6  102.42    4.26 
   7  -5   6  104.24    4.62 
   7  -5   6  106.49    5.05 
   7   5   7   28.55    2.61 
  -7   5  -7   26.33    2.09 
   7   5   7   30.25    2.63 
  -7   5  -7   33.06    2.59 
  -7  -5  -7   30.45    2.15 
   7  -5   7   33.89    2.14 
   7  -5   7   29.12    1.94 
  -7  -5  -7   27.61    2.02 
   7   5   8  161.04    7.55 
  -7   5  -8  159.85    7.07 
   7   5   8  163.56    7.80 
  -7   5  -8  176.32    7.48 
  -7  -5  -8  163.94    7.16 
   7  -5   8  160.87    6.95 
  -7  -5  -8  165.56    7.12 
  -7   6   8   60.51    3.44 
   7   6  -8   71.56    3.58 
  -7   6   8   70.86    3.85 
   7  -6  -8   65.38    3.36 
   7  -6  -8   66.83    4.14 
  -7  -6   8   64.24    3.26 
   7   6  -7    9.70    1.20 
  -7   6   7    4.69    1.23 
  -7   6   7    8.08    1.21 
   7  -6  -7    6.72    1.69 
  -7  -6   7    9.13    0.98 
   7  -6  -7    8.19    1.06 
  -7  -6   7    9.04    1.08 
  -7   6   6   11.81    1.18 
  -7   6   6   12.45    1.37 
   7   6  -6   10.88    1.24 
   7  -6  -6   13.37    1.24 
  -7  -6   6   14.62    1.47 
  -7  -6   6   13.68    1.17 
  -7  -6   6   15.13    1.27 
   7  -6  -6   13.37    1.69 
  -7   6   5   -0.60    0.91 
   7   6  -5    1.08    0.83 
  -7   6   5   -0.04    0.90 
  -7   6   5   -0.51    0.87 
   7   6  -5    0.67    0.76 
  -7  -6   5   -0.26    0.76 
  -7  -6   5    1.07    0.72 
   7  -6  -5    0.42    0.74 
  -7  -6   5   -0.22    1.08 
   7  -6  -5    0.56    0.72 
  -7  -6   5    1.19    0.94 
   7  -6  -5    0.90    1.75 
   7  -6  -5   -0.83    1.14 
  -7   6   4  145.32    6.46 
   7   6  -4  143.34    6.32 
   7   6  -4  149.60    6.58 
  -7   6   4  144.03    6.43 
  -7   6   4  154.29    6.40 
  -7   6   4  148.00    6.57 
   7   6  -4  142.17    6.45 
   7  -6  -4  145.12    6.42 
  -7  -6   4  145.59    6.32 
   7  -6  -4  154.73    6.61 
   7  -6  -4  146.52    6.35 
  -7  -6   4  149.33    6.37 
  -7  -6   4  154.92    6.40 
   7  -6  -4  147.22    6.46 
  -7  -6   4  152.77    6.37 
  -7   6   3   44.33    2.41 
  -7   6   3   43.61    2.50 
  -7   6   3   43.40    2.21 
  -7   6   3   46.48    2.78 
   7   6  -3   41.65    2.36 
  -7   6   3   45.14    2.07 
   7   6  -3   43.57    2.55 
  -7   6   3   43.29    2.51 
   7   6  -3   45.24    2.56 
   7  -6  -3   45.08    2.35 
  -7  -6   3   44.71    2.30 
   7  -6  -3   43.03    2.54 
   7  -6  -3   40.19    2.44 
   7  -6  -3   45.35    2.66 
  -7  -6   3   46.83    2.40 
  -7  -6   3   42.86    2.32 
  -7  -6   3   43.64    2.41 
   7  -6  -3   46.44    2.69 
  -7   6   2  102.39    5.32 
  -7   6   2  109.88    4.72 
  -7   6   2  103.22    4.78 
  -7   6   2  112.16    4.58 
   7   6  -2  105.93    4.85 
  -7   6   2  109.70    4.45 
   7   6  -2  101.20    4.69 
   7   6  -2  105.44    4.81 
  -7   6   2  109.31    4.93 
   7  -6  -2  106.61    4.85 
  -7  -6   2   91.81    4.87 
   7  -6  -2  107.80    4.67 
   7  -6  -2  104.07    4.77 
  -7  -6   2  106.20    4.75 
   7  -6  -2  106.83    4.83 
   7  -6  -2  105.26    4.77 
   7   6  -1   32.87    2.15 
   7   6  -1   31.00    2.06 
  -7   6   1   32.63    1.72 
  -7   6   1   34.61    2.07 
   7   6  -1   34.43    2.30 
   7   6  -1   31.62    2.24 
  -7   6   1   33.91    2.15 
  -7   6   1   34.24    2.44 
  -7   6   1   30.23    2.09 
  -7   6   1   32.71    1.97 
  -7  -6   1   36.25    2.19 
  -7  -6   1   32.47    1.95 
  -7  -6   1   36.15    1.95 
  -7  -6   1   32.84    1.84 
   7  -6  -1   29.16    2.27 
   7  -6  -1   37.18    2.09 
   7  -6  -1   33.75    1.94 
   7  -6  -1   33.04    2.11 
  -7   6   0   94.02    4.28 
   7   6   0   92.55    4.22 
  -7   6   0   99.04    4.18 
  -7   6   0   91.32    4.34 
  -7   6   0   93.14    4.45 
   7   6   0   92.71    4.34 
   7   6   0   88.40    4.45 
  -7   6   0   92.34    4.19 
   7   6   0   86.65    4.28 
   7  -6   0   95.27    4.22 
  -7  -6   0   85.43    4.20 
  -7  -6   0   91.54    4.15 
   7  -6   0   87.86    4.24 
  -7  -6   0   95.82    4.17 
   7  -6   0   89.40    4.22 
   7  -6   0   91.39    4.40 
  -7  -6   0   93.91    4.03 
   7  -6   0   91.74    4.13 
  -7  -6   0   91.19    4.32 
  -7  -6   0   98.89    3.83 
   7   6   1    0.55    0.80 
   7   6   1    0.85    0.94 
  -7   6  -1    1.00    1.15 
  -7   6  -1    1.10    0.76 
   7   6   1    1.71    0.95 
  -7   6  -1    1.58    0.85 
   7   6   1    0.46    1.09 
  -7   6  -1    1.00    0.89 
   7   6   1    3.36    1.01 
  -7   6  -1    0.65    0.95 
   7  -6   1    1.44    0.83 
  -7  -6  -1    1.54    0.88 
  -7  -6  -1    1.03    0.92 
  -7  -6  -1    1.74    0.56 
  -7  -6  -1    1.74    0.68 
   7  -6   1    0.88    0.68 
   7  -6   1    1.11    1.51 
  -7  -6  -1    0.90    0.69 
   7  -6   1    0.94    0.55 
   7  -6   1    1.37    0.86 
  -7  -6  -1    1.42    0.57 
  -7  -6  -1    1.08    0.71 
  -7   6  -2   61.59    3.44 
   7   6   2   67.61    3.47 
   7   6   2   61.57    3.37 
   7   6   2   66.33    3.40 
  -7   6  -2   66.17    3.25 
   7   6   2   62.83    3.28 
   7   6   2   66.09    3.90 
  -7   6  -2   62.70    3.29 
  -7  -6  -2   67.92    3.52 
   7  -6   2   67.78    3.25 
  -7  -6  -2   63.75    2.96 
   7  -6   2   68.84    3.30 
   7  -6   2   68.26    3.10 
   7  -6   2   64.48    3.24 
  -7  -6  -2   71.61    3.08 
  -7  -6  -2   69.67    2.98 
  -7  -6  -2   72.04    3.23 
  -7  -6  -2   65.72    3.22 
  -7  -6  -2   59.60    3.34 
   7   6   3   21.10    1.54 
  -7   6  -3   20.15    2.15 
   7   6   3   19.75    1.95 
   7   6   3   23.28    2.16 
  -7   6  -3   20.41    1.88 
   7   6   3   16.24    2.10 
  -7   6  -3   19.05    1.80 
  -7  -6  -3   20.40    1.72 
  -7  -6  -3   20.96    2.27 
  -7  -6  -3   20.64    2.15 
  -7  -6  -3   21.73    1.33 
  -7  -6  -3   19.83    1.67 
  -7  -6  -3   22.69    1.68 
   7  -6   3   18.95    1.84 
  -7  -6  -3   20.12    1.39 
   7  -6   3   22.31    1.68 
   7  -6   3   24.76    1.79 
   7  -6   3   25.29    1.87 
   7   6   4  100.50    4.89 
   7   6   4  103.68    4.81 
   7   6   4  115.76    5.72 
  -7   6  -4   97.90    4.78 
  -7   6  -4  103.72    4.74 
  -7   6  -4  100.88    5.34 
   7  -6   4  105.38    4.60 
   7  -6   4  101.52    4.68 
  -7  -6  -4  109.88    4.73 
   7  -6   4  110.98    4.85 
  -7  -6  -4   99.63    4.95 
  -7  -6  -4  103.53    4.76 
  -7  -6  -4  104.20    4.73 
  -7  -6  -4  106.67    4.44 
   7  -6   4  103.82    4.72 
  -7  -6  -4  106.27    4.54 
  -7  -6  -4  106.04    5.13 
   7   6   5   25.40    2.60 
  -7   6  -5   24.27    1.90 
  -7   6  -5   24.68    2.45 
   7   6   5   24.21    2.22 
  -7  -6  -5   23.23    1.38 
   7  -6   5   21.97    1.80 
   7  -6   5   23.54    2.02 
  -7  -6  -5   22.70    2.14 
  -7  -6  -5   26.02    2.06 
  -7  -6  -5   21.40    1.65 
  -7   6  -6  104.28    4.90 
   7   6   6  111.78    5.27 
   7   6   6  108.55    5.96 
  -7   6  -6  117.43    5.38 
  -7  -6  -6  107.71    4.81 
   7  -6   6  104.27    4.96 
  -7  -6  -6  106.61    4.55 
  -7  -6  -6  110.03    4.98 
   7  -6   6  104.22    4.84 
   7   6   7    1.44    2.09 
  -7   6  -7    6.76    1.68 
   7   6   7    2.05    1.70 
  -7   6  -7    2.45    1.05 
  -7  -6  -7    2.09    1.18 
   7  -6   7    3.22    0.93 
  -7  -6  -7    4.56    1.07 
   7  -6   7    3.06    1.30 
   7   7  -7   50.46    3.33 
  -7   7   7   48.86    3.23 
  -7   7   7   55.97    3.40 
  -7  -7   7   53.27    3.16 
   7  -7  -7   59.02    3.77 
   7  -7  -7   57.83    3.13 
   7   7  -6   49.94    2.93 
  -7   7   6   41.85    2.85 
  -7   7   6   46.00    2.98 
  -7  -7   6   46.15    2.93 
  -7  -7   6   43.24    2.57 
   7  -7  -6   45.83    3.27 
   7  -7  -6   44.88    2.71 
  -7   7   5  126.34    5.97 
   7   7  -5  134.26    5.99 
  -7   7   5  127.41    5.95 
  -7  -7   5  129.43    5.77 
   7  -7  -5  139.82    6.16 
  -7  -7   5  135.14    5.91 
   7  -7  -5  135.97    5.88 
  -7   7   4   21.53    2.01 
   7   7  -4   29.44    2.26 
  -7   7   4   29.61    2.23 
  -7   7   4   27.90    2.22 
   7  -7  -4   27.78    2.28 
   7  -7  -4   25.66    2.54 
  -7  -7   4   34.38    2.13 
  -7  -7   4   30.29    1.92 
  -7   7   3    6.69    0.72 
   7   7  -3    5.04    1.12 
  -7   7   3    6.61    1.22 
  -7   7   3    7.55    1.14 
  -7   7   3    5.12    1.09 
   7  -7  -3    5.26    1.01 
   7  -7  -3    4.33    0.92 
  -7  -7   3    5.84    0.99 
   7  -7  -3    3.95    1.40 
  -7  -7   3    4.89    0.88 
   7  -7  -3    5.53    1.27 
   7   7  -2    0.26    1.02 
  -7   7   2    0.30    0.93 
  -7   7   2    0.36    1.46 
  -7   7   2    0.56    0.61 
   7   7  -2   -0.01    1.81 
  -7   7   2   -0.15    1.01 
  -7   7   2   -1.44    0.90 
   7  -7  -2   -0.50    1.09 
   7  -7  -2    0.65    1.28 
   7  -7  -2    1.41    1.29 
  -7  -7   2    1.28    0.72 
   7  -7  -2    0.63    0.84 
   7  -7  -2    0.60    0.77 
  -7  -7   2   -0.44    0.78 
  -7   7   1   16.85    1.33 
  -7   7   1   17.87    1.85 
  -7   7   1   17.49    1.36 
  -7   7   1   15.56    1.42 
   7   7  -1   17.27    1.99 
  -7   7   1   16.78    1.70 
   7   7  -1   11.98    1.27 
  -7   7   1   14.87    1.39 
   7   7  -1   14.13    1.51 
   7  -7  -1   15.98    1.76 
  -7  -7   1   17.54    1.47 
   7  -7  -1   14.79    1.59 
   7  -7  -1   14.65    1.44 
   7  -7  -1   12.41    1.35 
  -7  -7   1   14.99    1.61 
  -7  -7   1   17.71    1.99 
  -7  -7   1   15.93    1.55 
   7   7   0   23.36    2.38 
   7   7   0   25.24    2.15 
  -7   7   0   23.54    2.05 
  -7   7   0   24.58    1.60 
  -7   7   0   23.74    2.04 
  -7   7   0   23.14    1.92 
  -7   7   0   24.46    2.07 
  -7   7   0   24.22    2.08 
   7   7   0   22.45    2.41 
  -7  -7   0   21.31    1.90 
  -7  -7   0   25.96    2.32 
  -7  -7   0   21.03    2.31 
   7  -7   0   26.96    2.01 
   7  -7   0   23.75    1.82 
  -7  -7   0   25.21    1.65 
   7  -7   0   22.45    2.13 
   7  -7   0   22.57    2.09 
   7   7   1  190.01    8.19 
   7   7   1  187.56    8.42 
  -7   7  -1  184.13    8.10 
  -7   7  -1  190.60    8.06 
   7   7   1  189.10    8.19 
   7   7   1  186.74    8.20 
  -7   7  -1  186.80    7.93 
  -7   7  -1  190.09    8.13 
  -7  -7  -1  196.55    8.03 
   7  -7   1  181.49    8.09 
  -7  -7  -1  191.62    7.75 
  -7  -7  -1  187.00    7.86 
   7  -7   1  188.20    7.99 
  -7  -7  -1  188.84    8.04 
   7  -7   1  186.08    8.09 
  -7  -7  -1  193.73    8.27 
  -7   7  -2   17.50    1.57 
  -7   7  -2   21.64    2.12 
   7   7   2   20.65    1.77 
   7   7   2   15.73    1.67 
  -7   7  -2   19.17    1.89 
   7   7   2   16.77    2.08 
   7   7   2   18.92    1.72 
  -7  -7  -2   20.93    1.80 
   7  -7   2   21.07    1.76 
  -7  -7  -2   15.83    1.81 
  -7  -7  -2   22.11    2.05 
  -7  -7  -2   21.24    1.36 
  -7  -7  -2   16.21    1.65 
   7  -7   2   15.97    1.80 
   7  -7   2   16.94    1.50 
  -7   7  -3   22.27    2.32 
   7   7   3   20.40    2.27 
  -7   7  -3   21.69    1.94 
   7   7   3   17.80    2.46 
  -7  -7  -3   21.93    1.72 
  -7  -7  -3   26.21    2.83 
  -7  -7  -3   23.24    1.95 
  -7  -7  -3   22.61    1.52 
  -7  -7  -3   16.92    2.29 
   7  -7   3   19.70    1.88 
   7  -7   3   21.34    2.08 
  -7  -7  -3   21.62    1.93 
   7   7   4    0.31    1.12 
  -7   7  -4   -0.02    0.96 
   7   7   4    2.07    2.10 
  -7   7  -4    2.70    1.26 
  -7  -7  -4    0.18    1.05 
   7  -7   4    0.48    1.12 
  -7  -7  -4    1.27    1.12 
  -7  -7  -4    0.59    0.68 
  -7  -7  -4    1.15    0.75 
   7  -7   4    0.60    0.91 
   7   7   5    1.24    2.22 
  -7   7  -5    0.78    0.98 
  -7   7  -5   -0.30    1.58 
   7   7   5   -0.22    1.09 
  -7  -7  -5    1.80    1.09 
   7  -7   5    1.29    0.97 
   7  -7   5    0.90    1.27 
  -7  -7  -5    2.16    0.71 
  -7  -7  -5    2.14    0.86 
  -7   7  -6   14.15    1.44 
  -7   7  -6   14.24    1.85 
   7   7   6   10.18    1.57 
   7   7   6   19.07    2.77 
  -7  -7  -6   17.02    1.63 
   7  -7   6   14.35    1.70 
  -7  -7  -6   15.34    1.35 
   7  -7   6   17.51    1.85 
  -7   8   5   13.66    1.62 
  -7   8   5   12.19    1.57 
   7   8  -5   12.12    1.53 
  -7  -8   5   10.09    1.32 
   7  -8  -5   14.02    1.97 
  -7  -8   5   11.87    1.61 
   7  -8  -5   14.54    1.57 
  -7   8   4    4.74    1.38 
  -7   8   4    2.53    1.28 
   7   8  -4    5.26    1.51 
  -7  -8   4    6.91    1.06 
   7  -8  -4    5.49    1.64 
  -7  -8   4    4.78    1.23 
   7  -8  -4    5.77    1.19 
  -7   8   3  139.40    6.42 
   7   8  -3  136.79    6.49 
  -7   8   3  145.82    6.33 
  -7  -8   3  143.42    6.22 
   7  -8  -3  131.91    6.43 
  -7  -8   3  140.34    6.20 
   7  -8  -3  145.46    6.54 
   7  -8  -3  147.10    6.31 
  -7   8   2    1.63    1.10 
  -7   8   2    1.94    1.23 
   7   8  -2    2.12    1.39 
  -7   8   2    0.06    1.15 
  -7  -8   2    2.14    1.04 
   7  -8  -2    1.02    1.19 
   7  -8  -2    3.81    1.33 
  -7  -8   2    1.56    1.05 
   7  -8  -2    1.24    1.11 
  -7   8   1  105.49    5.14 
  -7   8   1  110.91    5.08 
  -7   8   1  112.11    4.92 
  -7   8   1  109.14    5.03 
   7   8  -1  105.99    5.35 
  -7  -8   1  108.65    4.98 
   7  -8  -1  105.67    5.09 
  -7  -8   1  111.46    4.85 
   7  -8  -1  102.04    5.24 
  -7   8   0    6.50    1.30 
  -7   8   0    5.94    1.87 
  -7   8   0    6.21    1.02 
  -7   8   0    6.82    1.27 
   7   8   0    3.98    1.63 
   7  -8   0    5.06    1.16 
  -7  -8   0    6.59    1.04 
  -7  -8   0    6.43    1.21 
   7  -8   0    5.80    1.38 
   7   8   1    1.68    1.73 
  -7   8  -1   -0.17    1.15 
  -7   8  -1    0.19    1.18 
  -7   8  -1    0.95    0.95 
   7  -8   1    1.01    1.32 
  -7  -8  -1    0.62    0.88 
   7  -8   1    0.27    1.02 
  -7  -8  -1   -0.19    1.09 
  -7   8  -2    6.74    1.36 
  -7   8  -2    6.67    1.32 
  -7   8  -2    7.54    1.20 
   7   8   2    3.43    1.42 
   7   8   2    4.91    2.21 
   7  -8   2    5.88    1.43 
  -7  -8  -2    6.64    0.98 
  -7  -8  -2    6.76    1.31 
   7  -8   2    4.71    1.19 
  -7   8  -3   85.14    4.15 
  -7   8  -3   83.28    4.18 
   7   8   3   82.08    5.67 
   7   8   3   82.67    4.56 
  -7   8  -3   81.93    4.30 
  -7  -8  -3   82.10    3.83 
   7  -8   3   84.55    4.38 
   7  -8   3   84.18    4.19 
  -7   8  -4    0.82    1.30 
   7   8   4   -0.80    1.57 
  -7   8  -4    0.65    1.44 
  -7   8  -4    1.23    1.30 
   7   8   4    4.54    2.66 
   7  -8   4   -0.20    1.45 
  -7  -8  -4    0.59    0.85 
   7  -8   4   -0.01    1.15 
   8   0 -11    0.48    0.60 
   8   0 -11   -2.28    1.82 
   8   0 -10   41.00    2.64 
  -8   0  10   40.24    2.87 
   8   0 -10   46.58    3.43 
   8   0  -9    0.63    1.39 
  -8   0   9    0.21    0.97 
  -8   0   9   -0.58    0.85 
   8   0  -9    0.94    0.73 
  -8   0   9   -0.11    0.45 
   8   0  -9    0.98    0.68 
   8   0  -9    0.11    0.96 
   8   0  -8  380.61   14.77 
   8   0  -8  355.60   14.35 
   8   0  -8  369.03   14.51 
   8   0  -8  337.74   14.32 
  -8   0   8  342.11   14.49 
  -8   0   8  359.53   14.53 
   8   0  -8  341.43   14.34 
  -8   0   8  334.25   14.28 
   8   0  -7    0.41    0.59 
   8   0  -7    0.23    0.86 
  -8   0   7   -0.05    0.31 
   8   0  -7    0.61    0.90 
   8   0  -7    0.68    1.05 
  -8   0   7    0.13    0.49 
   8   0  -7   -0.73    0.63 
  -8   0   7    1.04    0.99 
  -8   0   7   -0.53    0.69 
  -8   0   6    6.92    0.78 
   8   0  -6    7.44    0.94 
  -8   0   6    8.42    1.21 
   8   0  -6    7.62    0.95 
  -8   0   6    7.64    0.87 
   8   0  -6    8.33    1.10 
   8   0  -6    8.48    0.84 
  -8   0   6    8.92    0.95 
   8   0  -6    8.42    1.15 
   8   0  -6   13.26    1.14 
   8   0  -5   -0.27    0.77 
  -8   0   5   -0.22    0.46 
  -8   0   5    0.38    0.78 
   8   0  -5    0.54    0.76 
   8   0  -5    0.66    0.72 
   8   0  -5   -0.28    1.14 
  -8   0   5   -0.32    0.54 
   8   0  -5    0.19    0.58 
   8   0  -5    0.64    0.65 
  -8   0   5    0.59    0.57 
  -8   0   5    0.17    0.46 
   8   0  -5   -0.17    0.85 
   8   0  -4   22.51    1.65 
   8   0  -4   24.78    1.60 
  -8   0   4   23.93    1.51 
   8   0  -4   24.49    1.75 
  -8   0   4   21.49    1.58 
   8   0  -4   22.90    1.71 
  -8   0   4   25.90    1.49 
   8   0  -4   19.90    1.84 
  -8   0   4   28.93    1.92 
   8   0  -4   28.15    1.85 
  -8   0   4   24.23    1.46 
  -8   0   3    0.34    0.59 
   8   0  -3   -0.26    0.64 
   8   0  -3    0.92    0.72 
   8   0  -3   -0.21    0.77 
   8   0  -3    1.96    0.76 
   8   0  -3    0.94    0.71 
   8   0  -3    1.08    0.71 
  -8   0   3    0.22    0.51 
  -8   0   3   -0.61    0.65 
  -8   0   3   -0.20    0.56 
   8   0  -2  477.99   20.53 
  -8   0   2  518.07   20.46 
  -8   0   2  496.76   20.49 
   8   0  -2  564.60   20.58 
  -8   0   2  480.05   20.43 
   8   0  -2  506.22   20.48 
   8   0  -2  490.40   20.50 
   8   0  -2  494.15   20.42 
   8   0  -2  468.01   20.61 
  -8   0   2  560.22   20.69 
  -8   0   2  472.01   20.42 
  -8   0   1   -0.04    0.56 
  -8   0   1    1.32    0.86 
   8   0  -1   -0.14    0.75 
   8   0  -1    0.37    0.85 
   8   0  -1    0.65    0.70 
   8   0  -1    3.35    0.87 
   8   0  -1    0.70    0.55 
   8   0  -1    1.12    0.73 
  -8   0   1    0.21    0.70 
  -8   0   1    0.18    0.50 
   8   0   0   56.40    2.57 
  -8   0   0   60.11    2.92 
   8   0   0   55.40    2.84 
  -8   0   0   58.24    3.04 
  -8   0   0   56.21    2.76 
   8   0   0   59.55    2.88 
  -8   0   0   54.84    2.76 
  -8   0   0   54.55    2.69 
   8   0   0   52.77    2.81 
   8   0   0   55.38    3.05 
   8   0   0   50.98    2.89 
  -8   0  -1   -0.32    0.83 
   8   0   1   -0.47    0.73 
  -8   0  -1   -0.31    0.53 
  -8   0  -1    0.27    0.57 
   8   0   1    0.34    0.42 
  -8   0  -1    0.46    0.93 
   8   0   1    1.09    0.46 
   8   0   1    0.54    0.72 
  -8   0  -1    0.39    0.56 
   8   0   1    1.15    0.72 
   8   0   1    0.19    0.86 
   8   0   1    0.22    0.83 
  -8   0  -2   18.17    1.45 
   8   0   2   18.56    1.83 
  -8   0  -2   21.36    1.99 
  -8   0  -2   18.57    1.49 
  -8   0  -2   20.85    2.05 
  -8   0  -2   17.98    1.47 
   8   0   2   20.56    1.03 
   8   0   2   13.51    1.33 
   8   0   2   19.45    1.60 
   8   0   2   18.41    1.61 
   8   0   2   19.13    1.06 
   8   0   2   17.35    1.84 
   8   0   3    0.37    0.98 
  -8   0  -3   -0.09    1.09 
   8   0   3   -0.17    0.70 
   8   0   3    0.78    0.78 
  -8   0  -3    0.11    0.58 
  -8   0  -3    0.10    0.71 
  -8   0  -3    0.75    1.00 
  -8   0  -3   -0.02    0.63 
   8   0   3    0.79    0.90 
   8   0   3    0.15    0.86 
   8   0   4  465.05   18.16 
  -8   0  -4  450.84   18.11 
   8   0   4  377.20   18.27 
   8   0   4  437.74   18.12 
   8   0   4  457.81   18.33 
  -8   0  -4  495.24   18.33 
  -8   0  -4  461.07   18.10 
  -8   0  -4  427.77   18.04 
   8   0   4  425.65   18.08 
  -8   0  -4  419.65   18.33 
   8   0   5   -1.58    0.74 
   8   0   5   -0.19    0.94 
  -8   0  -5   -0.09    0.61 
  -8   0  -5    1.25    0.76 
   8   0   5    1.03    1.11 
  -8   0  -5    0.74    0.72 
   8   0   5    0.42    0.88 
  -8   0  -5   -1.02    1.17 
   8   0   6   97.18    5.52 
  -8   0  -6  110.25    4.89 
   8   0   6  111.90    4.88 
  -8   0  -6   93.66    5.34 
  -8   0  -6  113.29    4.83 
  -8   0  -7    0.49    0.84 
  -8   0  -7    0.54    0.86 
   8   0   7   -0.18    1.20 
   8   0   7   -1.15    1.19 
  -8   0  -7   -0.42    1.01 
   8   0   7    0.04    0.88 
   8   0   8   12.64    1.67 
  -8   0  -8   13.12    1.33 
   8   0   8    9.93    1.24 
  -8   0  -8   11.60    1.33 
   8   0   8    8.96    1.61 
  -8   0  -9    1.49    1.09 
   8   0   9    1.19    1.52 
  -8   0  -9   -0.31    1.13 
   8   0   9    0.19    1.39 
  -8   0 -10  116.79    5.33 
   8   0  10  105.93    5.58 
   8   0  10  117.77    5.88 
  -8   0 -10  108.88    5.41 
   8   1 -11   16.16    2.28 
   8   1 -11   17.69    1.27 
   8  -1 -11   18.96    1.94 
   8  -1 -11   18.05    2.34 
  -8   1  10   32.66    2.68 
   8   1 -10   33.86    2.22 
  -8   1  10   33.58    1.70 
   8   1 -10   35.00    3.20 
   8   1 -10   29.60    2.03 
   8  -1 -10   35.28    1.83 
   8  -1 -10   35.13    3.29 
  -8   1   9    9.13    1.01 
  -8   1   9    9.52    1.31 
   8   1  -9    9.94    0.89 
   8   1  -9   11.37    1.71 
   8   1  -9   11.25    1.21 
  -8   1   9   13.27    1.43 
   8   1  -9    9.42    0.98 
   8  -1  -9    9.58    1.15 
  -8  -1   9   11.71    1.50 
  -8  -1   9   10.54    0.82 
   8  -1  -9   11.28    1.03 
  -8  -1   9    9.52    1.00 
   8  -1  -9   13.10    1.75 
   8   1  -8    1.47    0.96 
   8   1  -8    1.73    0.89 
   8   1  -8    2.54    0.68 
  -8   1   8    2.61    1.10 
   8   1  -8    2.20    0.80 
  -8   1   8    3.13    0.58 
   8   1  -8    1.50    1.28 
  -8   1   8    3.43    0.91 
  -8  -1   8    1.61    0.51 
   8  -1  -8    2.49    0.80 
  -8  -1   8    1.04    0.83 
   8  -1  -8    2.00    1.29 
   8  -1  -8    2.03    0.81 
   8  -1  -8    1.87    0.74 
   8  -1  -8    1.63    0.68 
  -8  -1   8    2.91    0.78 
   8   1  -7   73.84    3.39 
  -8   1   7   71.52    3.35 
   8   1  -7   76.95    3.53 
  -8   1   7   73.62    3.57 
   8   1  -7   74.50    3.88 
  -8   1   7   77.26    3.20 
   8   1  -7   77.80    3.59 
   8   1  -7   76.69    3.51 
  -8   1   7   83.47    3.87 
  -8  -1   7   77.17    3.63 
  -8  -1   7   69.17    3.34 
   8  -1  -7   84.11    3.91 
   8  -1  -7   69.34    3.41 
   8  -1  -7   74.28    3.44 
  -8  -1   7   75.09    3.46 
   8   1  -6  127.51    5.53 
   8   1  -6  127.62    5.73 
  -8   1   6  122.21    5.51 
   8   1  -6  125.99    5.54 
   8   1  -6  127.42    5.84 
  -8   1   6  131.59    5.40 
  -8   1   6  124.61    5.61 
  -8  -1   6  128.00    5.77 
  -8  -1   6  135.53    5.52 
   8  -1  -6  130.20    5.59 
   8  -1  -6  132.73    5.83 
   8  -1  -6  133.33    5.60 
   8  -1  -6  127.67    5.56 
  -8  -1   6  120.93    5.55 
  -8  -1   6  125.04    5.53 
  -8  -1   6  138.15    5.36 
   8  -1  -6  151.91    6.07 
   8  -1  -6  128.20    5.63 
   8   1  -5   73.19    3.33 
   8   1  -5   67.41    3.46 
   8   1  -5   69.56    3.47 
  -8   1   5   64.39    3.23 
   8   1  -5   74.07    3.66 
  -8   1   5   72.56    3.56 
   8   1  -5   68.82    3.20 
  -8   1   5   76.13    3.01 
   8   1  -5   67.97    3.36 
  -8   1   5   66.71    3.18 
  -8   1   5   70.51    3.07 
   8   1  -5   66.40    3.17 
   8  -1  -5   67.65    3.21 
  -8  -1   5   69.61    3.16 
  -8  -1   5   66.89    3.14 
  -8  -1   5   69.04    3.45 
   8  -1  -5   65.60    3.26 
   8  -1  -5   72.17    3.42 
   8  -1  -5   65.94    3.27 
   8  -1  -5   74.89    3.48 
  -8  -1   5   61.23    3.20 
   8  -1  -5   68.84    3.23 
  -8  -1   5   73.67    3.09 
   8   1  -4  183.35    7.32 
   8   1  -4  170.14    7.22 
   8   1  -4  159.04    7.09 
   8   1  -4  164.69    7.31 
  -8   1   4  157.66    7.12 
   8   1  -4  171.09    7.08 
   8   1  -4  164.10    7.25 
  -8   1   4  173.09    7.07 
  -8   1   4  162.76    7.11 
   8   1  -4  172.83    7.21 
  -8   1   4  181.10    7.06 
   8  -1  -4  159.19    7.21 
   8  -1  -4  169.28    7.13 
  -8  -1   4  174.02    7.35 
   8  -1  -4  169.81    7.13 
  -8  -1   4  166.79    7.14 
  -8  -1   4  162.72    7.06 
  -8  -1   4  174.93    7.08 
   8  -1  -4  162.90    7.13 
  -8  -1   4  164.80    7.04 
   8  -1  -4  169.06    7.24 
   8  -1  -4  174.85    7.25 
   8   1  -3  118.78    5.03 
   8   1  -3  111.31    5.11 
  -8   1   3  109.25    4.88 
  -8   1   3  106.82    5.15 
   8   1  -3  101.77    4.88 
   8   1  -3  121.25    5.00 
   8   1  -3  115.00    4.99 
  -8   1   3  103.86    4.89 
  -8   1   3  115.31    4.84 
  -8   1   3  115.25    4.80 
   8   1  -3  108.36    4.96 
   8   1  -3  115.02    4.88 
   8  -1  -3  105.52    4.92 
  -8  -1   3  110.76    4.80 
  -8  -1   3  119.64    4.87 
  -8  -1   3  111.10    4.89 
   8  -1  -3  100.64    5.02 
  -8  -1   3  113.68    4.88 
  -8  -1   3  126.36    5.19 
   8  -1  -3  108.32    4.93 
   8  -1  -3  103.34    4.87 
   8  -1  -3  113.01    5.02 
   8  -1  -3  115.90    4.94 
  -8   1   2    1.44    0.60 
   8   1  -2    1.46    0.69 
   8   1  -2    1.46    0.77 
  -8   1   2    2.05    0.64 
   8   1  -2    1.40    0.71 
   8   1  -2    1.56    0.75 
   8   1  -2    1.25    0.64 
  -8   1   2    0.22    0.67 
  -8   1   2    1.78    0.96 
  -8   1   2    2.23    0.67 
   8   1  -2    1.77    0.85 
   8   1  -2    2.18    0.70 
  -8  -1   2    1.57    0.57 
   8  -1  -2    1.89    0.68 
   8  -1  -2    1.94    0.84 
   8  -1  -2    1.34    0.74 
  -8  -1   2    2.23    0.89 
   8  -1  -2    1.99    0.76 
  -8  -1   2    1.22    0.72 
  -8  -1   2    1.88    0.61 
   8  -1  -2    1.95    0.81 
  -8  -1   2    0.61    0.55 
   8  -1  -2    1.08    0.78 
  -8   1   1  112.43    5.43 
   8   1  -1  127.28    5.36 
   8   1  -1  118.41    5.64 
   8   1  -1  116.72    5.58 
   8   1  -1  132.54    5.42 
  -8   1   1  126.34    5.42 
   8   1  -1  117.55    5.46 
   8   1  -1  136.01    5.35 
  -8   1   1  124.80    5.67 
  -8   1   1  137.06    5.45 
  -8   1   1  123.55    5.45 
   8   1  -1  130.56    5.53 
   8  -1  -1  126.28    5.54 
  -8  -1   1  121.75    5.33 
   8  -1  -1  127.11    5.51 
   8  -1  -1  121.38    5.51 
   8  -1  -1  135.50    5.38 
  -8  -1   1  117.96    5.41 
  -8  -1   1  133.32    5.68 
  -8  -1   1  121.57    5.52 
   8  -1  -1  124.15    5.51 
   8  -1  -1  108.55    5.60 
   8   1   0  105.20    4.62 
   8   1   0  101.57    4.70 
  -8   1   0  111.29    4.86 
   8   1   0  108.01    4.86 
   8   1   0   99.66    5.00 
  -8   1   0  111.22    5.03 
  -8   1   0  111.23    4.81 
  -8   1   0  109.38    4.76 
  -8   1   0  109.01    4.84 
   8   1   0  111.88    4.79 
   8   1   0  103.31    4.97 
   8  -1   0  100.96    5.01 
  -8  -1   0  109.48    4.68 
  -8  -1   0  112.98    5.01 
   8  -1   0  113.13    4.89 
   8  -1   0  105.58    4.86 
  -8  -1   0  118.46    4.96 
  -8  -1   0  103.78    4.82 
   8  -1   0  108.07    4.63 
   8  -1   0  100.86    4.91 
   8  -1   0  108.24    4.85 
  -8  -1   0  113.66    4.79 
  -8   1  -1   67.87    3.46 
  -8   1  -1   66.48    3.18 
   8   1   1   67.40    2.92 
   8   1   1   61.32    3.22 
   8   1   1   61.27    3.47 
   8   1   1   66.33    3.27 
  -8   1  -1   64.43    3.23 
   8   1   1   74.86    2.91 
   8   1   1   62.21    3.22 
   8   1   1   59.64    3.39 
  -8   1  -1   64.85    3.39 
  -8   1  -1   65.64    3.13 
   8  -1   1   55.65    3.31 
   8  -1   1   63.56    3.44 
   8  -1   1   67.41    3.28 
  -8  -1  -1   63.30    3.19 
   8  -1   1   69.25    3.31 
  -8  -1  -1   61.95    3.06 
   8  -1   1   70.79    3.27 
   8  -1   1   74.49    2.96 
  -8  -1  -1   70.28    3.23 
  -8  -1  -1   72.56    3.44 
   8   1   2  214.96    9.56 
   8   1   2  220.29    9.23 
  -8   1  -2  246.09    9.79 
   8   1   2  247.53    9.27 
  -8   1  -2  219.23    9.69 
   8   1   2  228.35    9.77 
  -8   1  -2  216.88    9.49 
  -8   1  -2  238.76    9.60 
   8   1   2  214.89    9.52 
  -8   1  -2  242.63    9.57 
   8   1   2  216.76    9.58 
   8   1   2  222.09    9.83 
   8  -1   2  213.51    9.26 
  -8  -1  -2  247.63    9.73 
   8  -1   2  229.84    9.62 
  -8  -1  -2  216.64    9.55 
  -8  -1  -2  235.20    9.74 
   8  -1   2  244.67    9.61 
   8  -1   2  238.45    9.60 
  -8  -1  -2  216.89    9.55 
  -8  -1  -2  217.98    9.47 
   8  -1   2  221.95    9.79 
  -8   1  -3  212.90    8.24 
  -8   1  -3  203.29    8.20 
   8   1   3  178.96    8.14 
   8   1   3  195.55    8.21 
  -8   1  -3  187.19    8.35 
   8   1   3  191.63    8.46 
   8   1   3  178.94    8.41 
  -8   1  -3  206.72    8.40 
  -8   1  -3  185.80    8.17 
   8   1   3  185.51    8.21 
   8   1   3  195.14    7.77 
  -8  -1  -3  194.41    8.21 
   8  -1   3  191.25    8.44 
  -8  -1  -3  191.30    8.08 
  -8  -1  -3  206.07    8.41 
   8  -1   3  181.15    8.23 
   8  -1   3  190.56    7.80 
   8  -1   3  168.63    8.33 
  -8  -1  -3  202.80    8.44 
  -8  -1  -3  199.68    8.21 
   8  -1   3  201.65    8.23 
   8  -1   3  194.74    8.22 
  -8   1  -4   53.48    3.40 
   8   1   4   64.07    3.04 
   8   1   4   59.38    3.04 
   8   1   4   54.83    3.31 
  -8   1  -4   63.38    3.04 
  -8   1  -4   59.79    2.97 
   8   1   4   60.45    3.07 
   8   1   4   52.62    3.37 
  -8   1  -4   65.69    3.43 
  -8   1  -4   58.58    2.93 
   8  -1   4   59.45    3.09 
   8  -1   4   62.19    3.02 
   8  -1   4   53.26    3.24 
   8  -1   4   52.44    3.14 
  -8  -1  -4   59.67    3.33 
  -8  -1  -4   56.89    2.81 
  -8  -1  -4   58.60    3.00 
  -8  -1  -4   64.18    3.61 
  -8  -1  -4   59.19    2.98 
   8  -1   4   58.53    3.36 
   8   1   5   19.30    1.80 
   8   1   5   20.30    1.97 
  -8   1  -5   27.87    2.44 
  -8   1  -5   21.39    1.66 
  -8   1  -5   23.13    1.75 
  -8   1  -5   22.43    1.83 
   8   1   5   24.05    2.21 
   8   1   5   24.26    1.85 
  -8  -1  -5   21.71    1.76 
   8  -1   5   23.24    2.25 
  -8  -1  -5   20.77    1.56 
  -8  -1  -5   21.66    1.75 
   8  -1   5   19.54    1.83 
  -8  -1  -5   21.28    2.11 
   8  -1   5   19.25    1.79 
  -8   1  -6   64.59    3.29 
  -8   1  -6   72.58    3.46 
   8   1   6   55.63    4.04 
   8  -1   6   71.05    3.43 
  -8  -1  -6   68.85    3.39 
  -8  -1  -6   67.84    3.35 
   8  -1   6   72.79    3.75 
   8  -1   6   61.56    3.61 
  -8  -1  -6   62.56    3.58 
   8   1   7   11.49    1.22 
   8   1   7   11.29    1.71 
   8   1   7    9.07    1.45 
  -8   1  -7   12.87    1.48 
  -8   1  -7   10.53    1.17 
  -8   1  -7    8.80    1.12 
  -8  -1  -7   12.06    1.33 
   8  -1   7   11.36    1.62 
  -8  -1  -7   10.85    1.25 
   8  -1   7    9.26    1.46 
  -8  -1  -7   11.26    1.13 
   8  -1   7   10.45    1.38 
   8   1   8  130.99    5.84 
  -8   1  -8  138.48    5.95 
   8   1   8  129.41    6.33 
  -8   1  -8  141.92    5.92 
   8   1   8  142.11    6.26 
   8  -1   8  130.34    6.26 
   8  -1   8  118.13    6.11 
   8  -1   8  134.57    5.89 
  -8  -1  -8  123.62    5.96 
  -8  -1  -8  126.45    5.82 
  -8   1  -9   76.48    3.74 
   8   1   9   69.46    4.34 
  -8   1  -9   70.03    3.89 
   8   1   9   85.32    4.25 
   8  -1   9   66.20    4.27 
   8  -1   9   68.50    3.98 
  -8  -1  -9   71.47    3.89 
  -8  -1  -9   73.48    3.74 
   8   1  10   71.83    4.43 
  -8   1 -10   73.94    4.18 
  -8   1 -10   67.62    3.96 
  -8  -1 -10   68.05    4.00 
   8  -1  10   66.08    4.05 
  -8  -1 -10   61.73    3.74 
   8  -1  10   61.99    4.20 
  -8   2  10   30.50    2.63 
  -8   2  10   24.89    1.61 
   8   2 -10   23.59    1.74 
  -8   2  10   24.94    2.56 
   8   2 -10   23.70    1.93 
   8   2 -10   31.33    2.54 
   8  -2 -10   27.01    1.68 
   8  -2 -10   31.45    3.03 
  -8   2   9  145.74    6.42 
  -8   2   9  175.05    6.93 
   8   2  -9  152.59    6.55 
   8   2  -9  143.92    6.49 
   8   2  -9  167.01    7.19 
  -8   2   9  143.41    6.77 
   8  -2  -9  158.35    7.11 
   8  -2  -9  150.46    6.44 
  -8  -2   9  151.20    6.23 
   8   2  -8    6.51    1.51 
   8   2  -8    4.82    1.00 
   8   2  -8    4.66    0.96 
   8   2  -8    6.99    0.88 
  -8   2   8    5.08    0.71 
   8   2  -8    6.59    1.05 
  -8   2   8    5.21    1.01 
  -8   2   8    4.89    0.57 
  -8   2   8    5.51    1.32 
  -8  -2   8    5.17    0.68 
  -8  -2   8    4.38    0.62 
   8  -2  -8    5.42    0.91 
   8  -2  -8    6.19    0.98 
  -8  -2   8    4.74    0.92 
   8  -2  -8    3.73    0.68 
   8  -2  -8    2.52    1.32 
   8   2  -7  117.52    5.65 
   8   2  -7  126.16    5.50 
   8   2  -7  132.26    5.49 
  -8   2   7  133.95    5.87 
  -8   2   7  139.44    5.36 
  -8   2   7  122.96    5.44 
  -8   2   7  124.80    5.66 
   8   2  -7  115.80    5.58 
   8   2  -7  131.67    5.98 
  -8  -2   7  133.58    5.49 
  -8  -2   7  119.52    5.46 
  -8  -2   7  131.80    5.49 
   8  -2  -7  124.76    5.52 
   8  -2  -7  131.24    5.54 
   8  -2  -7  138.13    5.95 
   8   2  -6   15.85    1.59 
   8   2  -6   14.36    1.27 
  -8   2   6   16.13    1.11 
   8   2  -6   16.12    1.38 
  -8   2   6   14.58    1.23 
  -8   2   6   17.65    1.50 
  -8   2   6   16.64    1.73 
   8   2  -6   16.16    1.68 
   8   2  -6   14.54    1.42 
  -8  -2   6   14.78    1.03 
   8  -2  -6   15.66    1.50 
  -8  -2   6   17.17    1.52 
  -8  -2   6   14.93    1.22 
   8  -2  -6   15.29    1.05 
   8  -2  -6   15.55    1.31 
   8  -2  -6   14.99    1.35 
  -8  -2   6   15.03    1.49 
   8   2  -5    4.46    1.03 
  -8   2   5    2.77    0.74 
   8   2  -5    3.24    0.82 
  -8   2   5    3.21    0.56 
  -8   2   5    2.34    0.94 
  -8   2   5    2.11    0.62 
   8   2  -5    3.54    1.02 
   8   2  -5    2.74    0.70 
   8   2  -5    2.20    0.75 
  -8   2   5    3.26    0.40 
   8   2  -5    2.27    1.16 
   8   2  -5    2.83    0.67 
   8  -2  -5    2.97    0.69 
  -8  -2   5    3.44    1.15 
   8  -2  -5    3.28    0.98 
   8  -2  -5    2.24    0.78 
  -8  -2   5    3.10    0.63 
  -8  -2   5    2.71    0.56 
  -8  -2   5    2.15    0.67 
   8  -2  -5    2.96    0.88 
  -8  -2   5    3.05    0.78 
   8  -2  -5    1.97    0.80 
   8  -2  -5    2.85    0.66 
   8   2  -4   69.85    3.61 
   8   2  -4   80.00    3.49 
  -8   2   4   72.61    3.50 
  -8   2   4   71.90    3.53 
  -8   2   4   77.49    3.75 
   8   2  -4   71.86    3.49 
   8   2  -4   78.44    3.81 
   8   2  -4   79.26    3.62 
  -8   2   4   79.80    3.31 
  -8   2   4   79.67    3.91 
   8   2  -4   76.33    3.80 
   8  -2  -4   69.84    3.44 
   8  -2  -4   79.57    3.61 
   8  -2  -4   80.05    3.62 
  -8  -2   4   85.63    3.49 
   8  -2  -4   71.74    3.49 
  -8  -2   4   76.84    3.53 
  -8  -2   4   76.95    3.38 
  -8  -2   4   79.77    3.56 
  -8  -2   4   79.40    3.71 
   8  -2  -4   82.25    3.76 
   8  -2  -4   74.44    3.61 
   8   2  -3  143.31    6.07 
   8   2  -3  129.01    6.07 
   8   2  -3  147.94    5.95 
  -8   2   3  139.29    6.16 
  -8   2   3  141.56    6.18 
  -8   2   3  140.92    5.87 
   8   2  -3  137.80    6.24 
  -8   2   3  138.86    6.02 
   8   2  -3  143.21    6.09 
   8   2  -3  128.47    5.99 
  -8   2   3  145.15    5.95 
  -8   2   3  126.75    5.97 
  -8  -2   3  148.56    5.96 
  -8  -2   3  142.65    6.03 
  -8  -2   3  142.45    5.87 
   8  -2  -3  144.94    6.05 
   8  -2  -3  126.12    5.93 
   8  -2  -3  142.59    5.99 
   8  -2  -3  141.92    6.05 
   8  -2  -3  142.55    6.10 
   8  -2  -3  139.18    6.08 
  -8  -2   3  138.71    6.02 
   8   2  -2    1.59    0.75 
  -8   2   2    1.53    0.64 
  -8   2   2    3.88    0.70 
   8   2  -2    1.10    0.96 
   8   2  -2    1.13    0.71 
  -8   2   2    1.23    0.87 
  -8   2   2    2.25    0.62 
   8   2  -2    1.78    0.74 
  -8   2   2    1.82    0.67 
   8   2  -2    0.86    0.65 
   8   2  -2    3.28    0.74 
  -8   2   2    1.70    0.81 
  -8  -2   2    2.39    0.92 
   8  -2  -2    2.03    0.64 
  -8  -2   2    1.42    0.56 
   8  -2  -2    1.77    0.71 
  -8  -2   2    1.74    0.70 
   8  -2  -2    1.81    0.70 
   8  -2  -2    1.97    0.59 
  -8  -2   2    2.15    0.57 
   8  -2  -2    2.31    0.93 
  -8  -2   2    1.87    0.85 
  -8   2   1  343.10   14.70 
  -8   2   1  370.07   14.69 
  -8   2   1  395.71   14.68 
   8   2  -1  343.40   14.57 
  -8   2   1  330.76   14.67 
  -8   2   1  360.24   14.61 
   8   2  -1  373.37   14.61 
   8   2  -1  378.14   14.75 
   8   2  -1  348.50   14.79 
   8   2  -1  337.37   14.71 
  -8   2   1  366.74   14.85 
   8   2  -1  340.31   14.86 
  -8  -2   1  363.73   14.68 
  -8  -2   1  344.47   14.67 
   8  -2  -1  347.78   14.62 
  -8  -2   1  372.09   14.77 
   8  -2  -1  361.84   14.78 
  -8  -2   1  370.73   14.56 
  -8  -2   1  386.19   14.87 
   8  -2  -1  362.71   14.70 
   8  -2  -1  345.34   14.67 
   8  -2  -1  344.78   14.81 
   8  -2  -1  325.93   14.68 
  -8   2   0   84.69    3.90 
  -8   2   0   81.64    3.70 
   8   2   0   80.70    4.09 
  -8   2   0   91.04    4.14 
  -8   2   0   82.64    3.83 
   8   2   0   76.94    3.91 
   8   2   0   81.21    3.90 
  -8   2   0   84.83    3.94 
   8   2   0   81.56    3.77 
   8   2   0   82.14    3.64 
   8   2   0   82.08    4.06 
  -8   2   0   84.70    3.87 
   8  -2   0   76.18    3.68 
   8  -2   0   88.52    3.95 
   8  -2   0   77.62    3.90 
  -8  -2   0   81.22    4.03 
   8  -2   0   79.44    4.01 
  -8  -2   0   87.30    3.87 
  -8  -2   0   87.71    3.70 
  -8  -2   0   79.79    3.80 
   8  -2   0   86.65    3.89 
   8  -2   0   91.62    4.00 
  -8  -2   0   92.17    4.11 
  -8   2  -1   29.02    2.02 
   8   2   1   29.09    2.16 
   8   2   1   27.76    1.92 
  -8   2  -1   28.90    1.81 
  -8   2  -1   30.21    2.28 
  -8   2  -1   27.77    1.85 
  -8   2  -1   27.63    1.92 
   8   2   1   26.61    1.74 
   8   2   1   28.69    1.49 
  -8   2  -1   26.85    1.58 
   8   2   1   29.37    1.99 
   8   2   1   27.08    2.08 
  -8  -2  -1   30.67    2.31 
   8  -2   1   26.84    1.94 
   8  -2   1   24.52    2.09 
   8  -2   1   28.17    1.91 
  -8  -2  -1   30.88    1.81 
   8  -2   1   28.91    2.09 
   8  -2   1   26.70    1.54 
  -8  -2  -1   30.38    2.11 
   8  -2   1   29.97    2.08 
  -8  -2  -1   26.12    1.74 
  -8  -2  -1   29.18    1.69 
  -8   2  -2   23.94    1.69 
   8   2   2   20.08    2.04 
  -8   2  -2   22.82    1.32 
  -8   2  -2   21.05    1.59 
   8   2   2   21.36    1.95 
  -8   2  -2   23.59    2.26 
   8   2   2   23.68    1.77 
   8   2   2   22.89    1.19 
   8   2   2   26.72    1.62 
   8   2   2   24.65    1.32 
   8   2   2   21.88    1.76 
  -8   2  -2   22.79    1.99 
  -8   2  -2   20.76    1.83 
  -8  -2  -2   21.27    1.58 
   8  -2   2   23.59    2.02 
  -8  -2  -2   22.76    1.99 
   8  -2   2   22.78    1.75 
   8  -2   2   22.21    1.90 
   8  -2   2   20.27    1.94 
  -8  -2  -2   21.77    1.60 
  -8  -2  -2   23.34    1.48 
   8  -2   2   21.72    1.84 
   8  -2   2   22.31    1.27 
  -8  -2  -2   25.86    2.31 
  -8   2  -3   68.36    3.09 
  -8   2  -3   71.89    3.69 
   8   2   3   68.81    3.70 
   8   2   3   71.45    2.99 
   8   2   3   77.17    3.55 
  -8   2  -3   67.59    3.42 
  -8   2  -3   70.01    3.55 
  -8   2  -3   75.49    3.50 
  -8   2  -3   70.47    3.78 
   8   2   3   70.59    3.83 
   8   2   3   71.08    3.48 
   8   2   3   69.54    3.39 
   8   2   3   75.51    3.04 
  -8  -2  -3   72.31    3.45 
   8  -2   3   70.11    3.06 
   8  -2   3   68.18    3.60 
   8  -2   3   77.63    3.54 
  -8  -2  -3   84.39    3.98 
  -8  -2  -3   72.04    3.39 
   8  -2   3   71.75    3.57 
  -8  -2  -3   75.38    3.68 
   8  -2   3   73.52    3.73 
   8  -2   3   62.07    3.86 
  -8  -2  -3   73.41    3.29 
  -8   2  -4   15.64    1.59 
  -8   2  -4   13.66    0.90 
   8   2   4   11.13    1.37 
  -8   2  -4   12.92    1.43 
   8   2   4   12.96    1.16 
  -8   2  -4   10.86    1.18 
  -8   2  -4   16.44    1.74 
  -8   2  -4   12.48    1.23 
   8   2   4   10.85    1.47 
   8   2   4   10.76    1.15 
  -8  -2  -4   17.34    1.55 
   8  -2   4   12.90    1.33 
   8  -2   4   13.92    0.86 
   8  -2   4   13.56    1.39 
  -8  -2  -4   13.88    1.40 
  -8  -2  -4   16.90    1.77 
   8  -2   4   10.27    1.31 
   8  -2   4   14.64    1.55 
  -8  -2  -4   11.14    1.12 
   8  -2   4   11.99    1.43 
  -8  -2  -4   14.76    1.24 
   8   2   5  221.33    9.63 
   8   2   5  207.72    9.72 
  -8   2  -5  225.87    9.43 
   8   2   5  237.66    9.40 
  -8   2  -5  234.62    9.44 
  -8   2  -5  207.72    9.42 
   8   2   5  225.46    9.34 
   8  -2   5  234.58    9.61 
  -8  -2  -5  222.70    9.39 
   8  -2   5  193.05    9.55 
  -8  -2  -5  229.01    9.36 
  -8  -2  -5  240.60    9.54 
  -8  -2  -5  218.33    9.25 
   8  -2   5  211.97    9.54 
   8   2   6   72.21    3.48 
   8   2   6   70.27    3.92 
  -8   2  -6   74.60    3.51 
  -8   2  -6   70.05    3.64 
   8   2   6   54.85    4.41 
  -8   2  -6   75.95    3.53 
   8  -2   6   65.65    3.75 
   8  -2   6   79.48    3.60 
   8  -2   6   72.96    3.79 
  -8  -2  -6   66.46    3.55 
  -8  -2  -6   69.50    3.31 
  -8  -2  -6   54.68    4.20 
  -8   2  -7   81.60    4.36 
  -8   2  -7   95.75    4.30 
   8   2   7   91.01    4.20 
   8   2   7   91.87    4.74 
   8   2   7   81.52    4.71 
  -8   2  -7   87.02    4.26 
   8  -2   7   86.08    4.46 
  -8  -2  -7   84.59    4.44 
  -8  -2  -7   85.93    4.09 
   8  -2   7   95.46    3.94 
   8  -2   7   85.42    4.52 
   8  -2   7   93.47    4.37 
  -8  -2  -7   91.83    4.21 
   8   2   8   -0.83    1.48 
  -8   2  -8   -1.08    1.01 
   8   2   8   -0.48    1.62 
  -8   2  -8    0.16    1.08 
  -8  -2  -8    1.61    1.03 
   8  -2   8   -0.72    1.19 
   8  -2   8   -1.06    1.12 
   8  -2   8   -0.27    1.32 
  -8  -2  -8    0.17    0.87 
   8   2   9    9.80    1.90 
   8   2   9    7.68    1.88 
  -8   2  -9    4.77    1.30 
  -8   2  -9    6.63    1.28 
  -8  -2  -9    6.60    1.37 
   8  -2   9    5.25    1.27 
   8  -2   9    5.42    1.52 
  -8  -2  -9    6.44    1.25 
  -8   3  10    3.25    0.85 
  -8   3  10    2.62    1.54 
   8   3 -10    2.95    1.07 
   8   3 -10    0.71    1.90 
   8  -3 -10    4.02    1.95 
   8  -3 -10    3.01    0.79 
  -8   3   9    0.90    1.20 
  -8   3   9    0.55    0.70 
   8   3  -9    0.96    0.66 
   8   3  -9    1.69    0.88 
   8   3  -9    0.01    1.72 
   8  -3  -9   -0.13    0.67 
   8  -3  -9   -0.27    1.56 
  -8   3   8    1.01    0.65 
  -8   3   8    0.35    1.16 
   8   3  -8   -0.06    0.66 
   8   3  -8   -0.95    1.24 
   8   3  -8   -0.38    1.55 
  -8   3   8    0.75    1.01 
  -8   3   8    0.33    0.66 
   8   3  -8    0.54    0.78 
  -8  -3   8    1.33    0.64 
  -8  -3   8    0.42    0.53 
   8  -3  -8   -0.09    1.01 
   8  -3  -8    0.77    1.29 
   8  -3  -8    1.52    0.69 
  -8   3   7   51.48    2.84 
   8   3  -7   49.86    2.58 
   8   3  -7   52.67    3.24 
   8   3  -7   50.93    2.62 
  -8   3   7   50.15    2.56 
   8   3  -7   53.02    3.16 
   8   3  -7   49.28    2.63 
  -8   3   7   53.56    3.01 
  -8   3   7   50.73    2.44 
   8  -3  -7   52.01    2.67 
   8  -3  -7   51.43    3.19 
   8  -3  -7   49.19    2.59 
  -8  -3   7   55.01    2.48 
  -8  -3   7   52.12    2.47 
  -8  -3   7   49.55    2.55 
   8  -3  -7   50.71    2.50 
   8   3  -6    6.90    1.19 
  -8   3   6    5.87    1.06 
   8   3  -6    6.71    0.80 
  -8   3   6    4.65    0.74 
  -8   3   6    5.03    0.94 
   8   3  -6    4.83    0.86 
  -8   3   6    5.19    0.70 
   8   3  -6    4.76    0.83 
  -8  -3   6    6.44    0.81 
  -8  -3   6    6.41    0.82 
  -8  -3   6    5.80    0.68 
   8  -3  -6    5.97    0.83 
   8  -3  -6    5.13    1.23 
   8  -3  -6    6.55    1.12 
  -8  -3   6    6.71    0.67 
   8  -3  -6    5.85    0.84 
   8   3  -5  355.27   14.58 
   8   3  -5  354.16   14.32 
   8   3  -5  334.07   14.37 
  -8   3   5  334.05   14.42 
  -8   3   5  356.13   14.30 
  -8   3   5  338.37   14.35 
  -8   3   5  356.33   14.50 
   8   3  -5  347.51   14.37 
  -8  -3   5  370.47   14.40 
   8  -3  -5  342.67   14.38 
  -8  -3   5  351.50   14.41 
   8  -3  -5  340.88   14.33 
  -8  -3   5  343.15   14.38 
  -8  -3   5  352.43   14.19 
   8  -3  -5  338.15   14.56 
  -8  -3   5  389.44   14.31 
   8  -3  -5  349.54   14.40 
   8   3  -4    4.54    1.19 
  -8   3   4    3.60    0.65 
  -8   3   4    5.70    0.49 
   8   3  -4    5.36    0.84 
   8   3  -4    5.96    0.74 
   8   3  -4    4.74    1.15 
  -8   3   4    5.79    0.91 
  -8   3   4    5.25    0.70 
  -8   3   4    7.26    1.33 
  -8   3   4    4.81    0.84 
   8   3  -4    4.04    0.77 
   8   3  -4    3.46    0.78 
   8  -3  -4    4.68    1.04 
   8  -3  -4    3.78    0.80 
  -8  -3   4    6.15    0.87 
  -8  -3   4    5.66    0.90 
  -8  -3   4    4.37    0.70 
  -8  -3   4    6.40    0.99 
   8  -3  -4    5.46    0.81 
   8  -3  -4    5.05    0.88 
  -8  -3   4    3.92    0.54 
   8  -3  -4    4.42    1.34 
   8   3  -3   48.90    2.61 
   8   3  -3   41.00    2.64 
  -8   3   3   45.89    2.64 
   8   3  -3   46.48    2.46 
  -8   3   3   47.82    2.57 
  -8   3   3   42.13    2.36 
   8   3  -3   50.66    2.31 
   8   3  -3   45.90    2.41 
  -8   3   3   49.44    2.21 
  -8   3   3   42.54    2.44 
   8   3  -3   44.86    2.44 
  -8   3   3   46.41    2.30 
   8  -3  -3   41.69    2.48 
  -8  -3   3   42.53    2.34 
  -8  -3   3   46.40    2.15 
   8  -3  -3   47.35    2.40 
  -8  -3   3   50.63    2.39 
  -8  -3   3   48.08    2.60 
   8  -3  -3   47.61    2.16 
   8  -3  -3   49.06    2.60 
   8  -3  -3   43.47    2.58 
   8  -3  -3   45.78    2.43 
  -8   3   2    4.10    0.86 
  -8   3   2    5.01    0.77 
   8   3  -2    5.27    0.91 
   8   3  -2    4.58    0.87 
  -8   3   2    5.18    0.81 
   8   3  -2    4.29    0.86 
  -8   3   2    3.97    0.88 
   8   3  -2    4.16    0.69 
  -8   3   2    4.58    0.95 
   8   3  -2    3.61    0.85 
   8   3  -2    3.69    0.87 
   8  -3  -2    3.43    0.75 
  -8  -3   2    3.03    0.62 
   8  -3  -2    3.50    0.84 
  -8  -3   2    5.85    1.05 
   8  -3  -2    4.29    1.06 
   8  -3  -2    3.24    0.78 
   8  -3  -2    4.78    0.65 
  -8  -3   2    4.71    0.79 
  -8  -3   2    3.30    0.58 
   8  -3  -2    2.66    0.70 
  -8  -3   2    4.98    0.90 
   8   3  -1    4.96    0.73 
   8   3  -1    3.89    0.93 
  -8   3   1    4.04    0.72 
  -8   3   1    4.40    0.91 
  -8   3   1    5.38    0.89 
   8   3  -1    5.26    0.81 
   8   3  -1    4.08    0.80 
  -8   3   1    5.57    0.86 
   8   3  -1    5.16    0.88 
  -8   3   1    6.05    1.02 
   8   3  -1    4.24    0.85 
  -8   3   1    6.46    0.84 
  -8  -3   1    7.59    1.19 
  -8  -3   1    4.33    0.68 
   8  -3  -1    6.64    0.91 
   8  -3  -1    5.34    0.81 
   8  -3  -1    4.41    0.73 
   8  -3  -1    4.32    1.09 
  -8  -3   1    7.53    0.69 
  -8  -3   1    4.64    0.72 
  -8  -3   1    6.57    1.02 
   8  -3  -1    6.31    0.75 
   8  -3  -1    6.03    1.00 
   8   3   0    4.21    0.87 
  -8   3   0    7.46    0.98 
  -8   3   0    7.41    0.99 
   8   3   0    7.22    0.79 
  -8   3   0    8.28    1.05 
  -8   3   0    7.38    0.81 
  -8   3   0    7.71    1.11 
   8   3   0    7.37    0.78 
   8   3   0    7.47    0.96 
   8   3   0    6.94    0.96 
  -8   3   0    8.56    0.99 
   8   3   0    5.40    1.03 
   8  -3   0    4.76    0.76 
   8  -3   0    8.31    0.88 
   8  -3   0    8.17    1.03 
  -8  -3   0    7.85    0.73 
   8  -3   0    7.18    0.87 
   8  -3   0    6.11    1.17 
  -8  -3   0    5.84    0.77 
  -8  -3   0    8.07    1.09 
  -8  -3   0    5.41    1.22 
  -8  -3   0    7.24    0.89 
   8  -3   0    7.08    1.03 
  -8   3  -1  330.24   13.44 
   8   3   1  329.28   13.08 
   8   3   1  296.82   13.51 
  -8   3  -1  313.34   13.08 
  -8   3  -1  330.64   13.32 
   8   3   1  302.85   13.37 
  -8   3  -1  321.78   13.31 
  -8   3  -1  326.31   13.28 
  -8   3  -1  328.21   13.30 
   8   3   1  310.96   13.13 
   8   3   1  318.38   13.26 
   8   3   1  325.68   13.30 
   8  -3   1  312.94   13.40 
  -8  -3  -1  310.36   13.44 
   8  -3   1  309.08   13.27 
  -8  -3  -1  339.30   13.25 
   8  -3   1  337.83   13.29 
  -8  -3  -1  320.54   13.16 
  -8  -3  -1  335.38   13.43 
   8  -3   1  320.18   13.32 
   8  -3   1  347.66   13.41 
  -8  -3  -1  311.21   13.23 
   8  -3   1  312.54   13.13 
  -8   3  -2   13.63    1.47 
  -8   3  -2   10.77    1.12 
   8   3   2   12.82    1.33 
  -8   3  -2   14.00    1.27 
  -8   3  -2   13.08    1.26 
   8   3   2    7.67    1.33 
   8   3   2   11.48    1.01 
   8   3   2   11.59    1.18 
  -8   3  -2   12.74    1.52 
   8   3   2   14.59    1.24 
   8   3   2   10.41    0.99 
  -8   3  -2   11.95    1.01 
   8  -3   2   10.80    1.31 
  -8  -3  -2   12.09    1.07 
  -8  -3  -2   12.30    1.13 
  -8  -3  -2    7.69    1.43 
   8  -3   2   11.27    1.39 
   8  -3   2   10.21    1.11 
  -8  -3  -2   11.58    1.09 
  -8  -3  -2   13.72    1.34 
   8  -3   2   10.87    1.09 
   8  -3   2   13.76    1.42 
   8  -3   2   11.23    1.02 
  -8   3  -3   87.87    4.08 
   8   3   3   88.28    3.70 
   8   3   3   90.08    4.10 
  -8   3  -3   82.16    3.73 
   8   3   3   89.60    4.51 
  -8   3  -3   90.65    4.12 
  -8   3  -3   79.39    4.09 
  -8   3  -3   86.35    4.20 
  -8   3  -3   93.35    4.60 
   8   3   3   85.14    4.11 
   8   3   3   84.97    4.21 
   8  -3   3   94.23    4.19 
   8  -3   3   88.50    3.77 
   8  -3   3   83.59    4.20 
   8  -3   3   91.77    4.31 
  -8  -3  -3   89.15    4.04 
  -8  -3  -3   89.22    4.66 
  -8  -3  -3   88.37    3.89 
   8  -3   3   88.31    4.37 
   8  -3   3   80.46    4.22 
  -8  -3  -3   90.33    4.00 
  -8  -3  -3   91.10    4.28 
   8   3   4    2.02    0.41 
  -8   3  -4    1.91    0.83 
   8   3   4    1.26    0.78 
   8   3   4    1.40    1.26 
  -8   3  -4    1.67    0.73 
   8   3   4    1.79    0.95 
  -8   3  -4    2.59    1.43 
  -8   3  -4    0.64    0.84 
   8   3   4    1.67    1.02 
  -8   3  -4    4.10    0.98 
   8  -3   4    2.78    0.52 
   8  -3   4    2.41    1.00 
  -8  -3  -4    1.58    0.77 
   8  -3   4    1.21    0.89 
  -8  -3  -4    1.79    0.63 
   8  -3   4    1.07    0.99 
  -8  -3  -4    1.62    0.87 
  -8  -3  -4    1.46    1.16 
   8  -3   4    1.62    1.08 
  -8   3  -5    8.82    0.81 
   8   3   5    8.53    1.41 
  -8   3  -5    4.49    1.23 
  -8   3  -5    6.29    1.26 
   8   3   5    4.95    1.45 
  -8   3  -5    6.71    1.00 
   8   3   5    6.55    0.96 
   8  -3   5    7.80    1.27 
  -8  -3  -5    9.58    1.06 
   8  -3   5    8.26    0.90 
  -8  -3  -5   10.46    1.49 
   8  -3   5    8.23    0.70 
  -8  -3  -5    8.63    0.92 
   8  -3   5    9.71    1.24 
   8  -3   5    6.42    1.25 
  -8   3  -6    0.40    0.96 
  -8   3  -6    0.85    1.03 
  -8   3  -6    1.44    0.46 
  -8   3  -6    1.66    0.98 
   8   3   6    1.92    1.27 
   8   3   6    0.53    0.88 
   8   3   6    2.46    1.54 
  -8  -3  -6    1.66    0.89 
   8  -3   6    0.48    1.04 
   8  -3   6    0.00    1.00 
   8  -3   6    1.63    0.53 
  -8  -3  -6    0.52    1.00 
   8  -3   6    2.12    0.91 
  -8  -3  -6    1.48    0.75 
   8  -3   6    0.57    0.72 
  -8   3  -7  169.53    8.13 
  -8   3  -7  197.89    8.26 
   8   3   7  167.33    8.56 
   8   3   7  186.91    8.43 
  -8  -3  -7  187.96    8.00 
  -8  -3  -7  189.67    8.07 
   8  -3   7  191.84    8.18 
   8  -3   7  190.39    7.85 
   8  -3   7  210.21    8.22 
   8  -3   7  194.37    8.34 
   8   3   8    9.16    1.82 
   8   3   8    9.69    1.92 
  -8   3  -8   10.89    1.51 
  -8   3  -8    8.54    1.33 
  -8  -3  -8    9.94    1.17 
   8  -3   8   11.58    1.29 
   8  -3   8    9.54    1.60 
  -8  -3  -8   10.96    1.29 
   8   3   9   85.93    5.09 
   8   3   9   92.73    5.09 
  -8   3  -9   76.93    4.25 
  -8   3  -9   89.06    4.59 
   8  -3   9   85.10    4.12 
  -8  -3  -9   89.62    4.35 
   8  -3   9   87.38    4.80 
  -8  -3  -9   82.66    4.27 
   8   4  -9   91.66    4.96 
  -8   4   9   81.53    4.30 
  -8   4   9   78.88    3.84 
   8   4  -9   80.22    3.99 
   8  -4  -9   78.82    4.72 
   8  -4  -9   83.48    3.77 
  -8   4   8   39.29    2.35 
  -8   4   8   40.83    2.74 
   8   4  -8   42.42    2.22 
   8   4  -8   45.33    2.50 
   8  -4  -8   40.51    2.27 
  -8  -4   8   41.25    2.23 
  -8  -4   8   41.98    2.04 
   8  -4  -8   42.37    3.31 
  -8   4   7   54.67    3.29 
  -8   4   7   54.93    2.77 
   8   4  -7   54.99    2.67 
  -8   4   7   52.59    3.05 
  -8   4   7   58.18    3.15 
   8   4  -7   56.58    3.52 
   8   4  -7   57.21    2.86 
  -8  -4   7   55.93    2.72 
  -8  -4   7   53.23    2.62 
   8  -4  -7   53.85    2.71 
   8  -4  -7   52.31    3.44 
   8   4  -6   19.21    1.64 
   8   4  -6   22.44    1.97 
  -8   4   6   20.34    1.53 
  -8   4   6   20.54    1.84 
  -8   4   6   19.90    1.62 
   8   4  -6   19.25    1.52 
   8   4  -6   24.95    1.51 
   8  -4  -6   19.40    1.85 
   8  -4  -6   19.98    1.53 
   8  -4  -6   20.45    1.67 
   8  -4  -6   20.27    1.68 
  -8  -4   6   20.87    1.62 
  -8  -4   6   20.06    1.51 
  -8  -4   6   22.20    1.49 
   8   4  -5    0.51    1.24 
  -8   4   5    0.91    0.71 
  -8   4   5   -0.02    0.83 
   8   4  -5    0.95    0.74 
   8   4  -5    1.34    0.65 
  -8   4   5    2.32    0.88 
   8   4  -5    0.20    0.64 
  -8  -4   5    2.00    0.74 
  -8  -4   5    1.77    0.77 
   8  -4  -5    1.89    0.78 
  -8  -4   5    0.96    0.42 
   8  -4  -5    1.01    0.65 
   8  -4  -5    0.85    0.80 
   8  -4  -5   -1.29    1.02 
  -8   4   4   93.70    3.89 
  -8   4   4   91.71    4.15 
   8   4  -4   85.42    3.99 
  -8   4   4   83.19    4.05 
   8   4  -4   88.97    3.92 
  -8   4   4   83.56    3.95 
   8   4  -4   80.39    3.86 
   8   4  -4   91.07    4.21 
   8  -4  -4   90.00    4.02 
  -8  -4   4   88.05    3.96 
   8  -4  -4   87.18    4.02 
  -8  -4   4   79.77    3.92 
   8  -4  -4   86.02    3.91 
   8  -4  -4   83.73    4.20 
   8  -4  -4   86.00    3.94 
  -8  -4   4   81.31    3.79 
  -8  -4   4   95.79    3.97 
  -8   4   3   77.28    4.20 
  -8   4   3   90.23    3.58 
   8   4  -3   82.81    3.84 
   8   4  -3   80.98    3.95 
   8   4  -3   80.50    3.48 
  -8   4   3   77.76    3.88 
  -8   4   3   78.08    3.78 
   8   4  -3   88.24    4.03 
  -8   4   3   89.31    3.90 
  -8   4   3   84.86    3.97 
   8   4  -3   82.52    3.78 
   8   4  -3   78.62    3.79 
  -8  -4   3   83.93    3.83 
  -8  -4   3   75.86    3.64 
  -8  -4   3   87.10    3.47 
  -8  -4   3   81.38    3.75 
   8  -4  -3   82.03    3.75 
   8  -4  -3   79.12    3.84 
   8  -4  -3   75.99    3.94 
   8  -4  -3   86.06    3.84 
   8  -4  -3   83.10    3.78 
  -8   4   2   84.08    5.08 
   8   4  -2   99.25    4.65 
   8   4  -2  104.65    4.36 
  -8   4   2   95.87    4.66 
  -8   4   2  103.37    4.74 
   8   4  -2  101.29    4.78 
  -8   4   2  107.61    4.83 
   8   4  -2  105.59    4.67 
   8   4  -2  109.35    4.74 
   8   4  -2  103.00    4.73 
  -8   4   2  103.98    4.67 
  -8   4   2  103.84    4.62 
  -8  -4   2  110.22    4.39 
  -8  -4   2  109.70    4.62 
   8  -4  -2  107.39    4.66 
   8  -4  -2  106.11    4.62 
   8  -4  -2  102.98    4.41 
   8  -4  -2  103.77    4.88 
  -8  -4   2  109.82    4.74 
   8  -4  -2  104.07    4.73 
   8  -4  -2  100.47    4.72 
  -8  -4   2  102.83    4.51 
   8  -4  -2  110.04    4.65 
  -8  -4   2  109.49    4.65 
  -8  -4   2  106.51    4.85 
  -8   4   1  114.36    4.97 
  -8   4   1  103.33    4.87 
  -8   4   1  112.43    4.78 
  -8   4   1  101.10    4.70 
   8   4  -1  102.86    4.89 
  -8   4   1  108.64    4.81 
   8   4  -1  115.35    4.79 
   8   4  -1  102.06    4.76 
   8   4  -1  105.81    4.50 
   8   4  -1   99.77    4.94 
  -8   4   1  110.15    4.78 
   8   4  -1  105.97    4.80 
   8  -4  -1  111.35    4.78 
   8  -4  -1  102.93    4.78 
  -8  -4   1  114.75    4.90 
  -8  -4   1  106.15    4.60 
  -8  -4   1  115.90    4.55 
   8  -4  -1  110.05    5.10 
   8  -4  -1  102.61    4.60 
   8  -4  -1  104.20    4.86 
  -8  -4   1  110.75    4.74 
   8  -4  -1  108.98    4.74 
  -8  -4   1  109.26    5.02 
   8  -4  -1  107.18    4.80 
  -8  -4   1   99.23    4.69 
  -8   4   0   89.11    4.40 
  -8   4   0  102.01    4.32 
  -8   4   0   96.69    4.35 
   8   4   0   95.17    4.34 
  -8   4   0   96.18    4.51 
   8   4   0  102.77    4.24 
   8   4   0   92.21    4.35 
  -8   4   0   90.49    4.19 
   8   4   0   90.12    4.49 
   8   4   0   85.79    4.41 
  -8   4   0   97.67    4.32 
  -8  -4   0  101.59    4.46 
  -8  -4   0   92.68    4.23 
   8  -4   0   91.58    4.34 
  -8  -4   0   94.46    4.07 
  -8  -4   0   97.57    4.09 
   8  -4   0   92.96    4.19 
   8  -4   0   99.71    4.70 
  -8  -4   0   91.72    4.64 
   8  -4   0   97.18    4.27 
   8  -4   0   95.13    4.43 
   8  -4   0   91.81    4.27 
  -8  -4   0  101.12    4.28 
   8   4   1   13.54    1.49 
   8   4   1   14.31    1.30 
   8   4   1   14.54    1.28 
  -8   4  -1   13.03    1.26 
  -8   4  -1   14.13    1.24 
  -8   4  -1   12.56    0.99 
   8   4   1    7.48    1.32 
  -8   4  -1   13.75    1.43 
  -8   4  -1   12.49    1.23 
  -8   4  -1    9.84    1.06 
   8   4   1   13.53    1.32 
   8  -4   1   14.62    1.54 
   8  -4   1   13.20    1.47 
  -8  -4  -1   12.52    1.30 
  -8  -4  -1   11.11    1.19 
  -8  -4  -1   13.42    1.34 
  -8  -4  -1   12.39    1.63 
  -8  -4  -1   13.12    0.96 
   8  -4   1   12.72    1.33 
   8  -4   1   12.91    1.28 
   8  -4   1    9.63    1.11 
  -8  -4  -1   14.83    1.39 
   8  -4   1   12.81    1.36 
  -8   4  -2   43.48    2.26 
  -8   4  -2   44.55    2.67 
   8   4   2   46.03    2.66 
   8   4   2   46.46    2.56 
   8   4   2   49.10    2.28 
   8   4   2   46.67    2.71 
  -8   4  -2   49.64    2.59 
  -8   4  -2   46.49    2.95 
  -8   4  -2   48.06    2.65 
   8   4   2   46.14    3.09 
  -8   4  -2   48.69    2.63 
  -8  -4  -2   44.80    2.74 
  -8  -4  -2   49.25    2.22 
   8  -4   2   47.95    2.87 
  -8  -4  -2   45.38    2.46 
   8  -4   2   44.06    2.64 
  -8  -4  -2   46.48    2.30 
  -8  -4  -2   45.93    2.45 
   8  -4   2   42.90    2.50 
   8  -4   2   56.84    3.19 
   8  -4   2   46.10    2.40 
   8  -4   2   47.44    2.33 
   8  -4   2   46.63    2.52 
  -8   4  -3   79.26    3.75 
   8   4   3   76.29    3.86 
  -8   4  -3   79.12    3.73 
   8   4   3   76.06    4.27 
  -8   4  -3   77.42    3.82 
  -8   4  -3   76.90    4.19 
  -8   4  -3   75.58    3.85 
   8   4   3   78.84    3.39 
   8   4   3   74.43    3.75 
  -8   4  -3   74.95    3.37 
  -8  -4  -3   80.02    3.48 
  -8  -4  -3   79.93    3.29 
   8  -4   3   74.29    4.04 
   8  -4   3   76.01    3.78 
   8  -4   3   77.53    3.73 
  -8  -4  -3   79.52    3.89 
  -8  -4  -3   79.63    3.62 
   8  -4   3   76.95    3.45 
  -8  -4  -3   75.62    3.64 
   8  -4   3   74.25    3.73 
   8  -4   3   77.56    3.53 
   8   4   4   78.43    3.78 
  -8   4  -4   80.00    3.73 
  -8   4  -4   72.26    3.33 
   8   4   4   70.26    3.74 
   8   4   4   75.62    3.91 
  -8   4  -4   80.10    3.80 
   8   4   4   81.30    4.36 
   8   4   4   75.81    3.34 
  -8   4  -4   73.07    3.87 
   8  -4   4   79.96    3.52 
  -8  -4  -4   78.62    3.23 
   8  -4   4   76.04    3.42 
  -8  -4  -4   80.10    3.94 
  -8  -4  -4   75.93    3.61 
   8  -4   4   67.00    3.84 
  -8  -4  -4   77.38    3.67 
   8  -4   4   83.59    3.85 
  -8  -4  -4   76.98    3.49 
  -8   4  -5   74.63    3.61 
   8   4   5   67.99    3.52 
  -8   4  -5   65.51    3.09 
  -8   4  -5   68.27    3.53 
  -8   4  -5   70.33    3.58 
   8   4   5   63.59    4.18 
   8   4   5   70.71    4.24 
   8   4   5   78.35    3.07 
  -8  -4  -5   69.36    3.27 
  -8  -4  -5   67.11    3.40 
   8  -4   5   66.29    3.55 
   8  -4   5   71.58    3.66 
   8  -4   5   71.98    3.70 
   8  -4   5   71.55    3.25 
  -8  -4  -5   70.16    3.52 
   8  -4   5   70.49    3.18 
   8   4   6  158.93    7.28 
  -8   4  -6  154.32    7.08 
   8   4   6  173.49    7.50 
  -8   4  -6  167.24    7.17 
   8   4   6  161.32    7.63 
  -8  -4  -6  157.72    6.88 
   8  -4   6  158.98    6.83 
   8  -4   6  160.47    6.75 
   8  -4   6  162.87    7.22 
  -8  -4  -6  155.06    6.97 
   8  -4   6  158.38    7.05 
   8  -4   6  174.01    7.19 
   8   4   7   22.60    2.49 
  -8   4  -7   32.09    2.40 
  -8   4  -7   30.66    2.60 
   8   4   7   29.91    2.85 
  -8  -4  -7   32.93    2.26 
   8  -4   7   31.65    1.88 
  -8  -4  -7   29.06    2.06 
   8  -4   7   27.20    2.71 
   8  -4   7   32.13    2.24 
  -8   4  -8    0.06    1.41 
   8   4   8    0.21    1.88 
   8   4   8    0.26    1.51 
  -8   4  -8    0.00    1.18 
   8  -4   8   -0.06    1.44 
  -8  -4  -8    0.22    1.01 
   8  -4   8    0.11    0.94 
  -8  -4  -8    0.40    1.09 
  -8   5   9    1.40    1.43 
  -8   5   9    1.92    1.22 
   8   5  -9    2.40    1.26 
  -8  -5   9    2.99    0.57 
  -8  -5   9    2.56    0.72 
   8  -5  -9    3.34    2.07 
   8  -5  -9    4.05    1.01 
   8   5  -8    6.89    1.20 
  -8   5   8    7.87    1.41 
  -8   5   8    7.81    1.15 
  -8  -5   8   11.14    1.05 
  -8  -5   8    9.18    0.90 
   8  -5  -8   10.67    1.96 
   8  -5  -8    8.76    1.06 
   8   5  -7    2.68    1.02 
  -8   5   7    3.02    0.93 
  -8   5   7    2.82    1.25 
   8  -5  -7    1.72    0.76 
  -8  -5   7    3.20    0.95 
  -8  -5   7    3.86    0.81 
   8  -5  -7    1.61    1.52 
   8   5  -6  133.47    5.64 
   8   5  -6  110.61    5.62 
  -8   5   6  122.72    5.58 
  -8   5   6  123.61    5.74 
   8  -5  -6  137.55    5.94 
  -8  -5   6  127.73    5.47 
  -8  -5   6  120.83    5.55 
  -8  -5   6  136.28    5.43 
   8  -5  -6  129.88    5.96 
   8  -5  -6  124.08    5.52 
  -8   5   5    0.14    0.95 
  -8   5   5    0.83    0.95 
   8   5  -5    1.22    0.71 
  -8   5   5    1.64    0.75 
   8   5  -5   -1.06    1.33 
   8   5  -5    0.50    0.85 
  -8   5   5    0.64    0.85 
   8  -5  -5    0.01    0.79 
   8  -5  -5   -0.25    0.91 
  -8  -5   5    0.93    0.84 
  -8  -5   5    0.21    0.71 
   8  -5  -5    0.48    0.71 
   8  -5  -5    1.13    1.24 
  -8  -5   5    0.03    0.78 
  -8   5   4  132.99    6.20 
  -8   5   4  145.58    6.39 
   8   5  -4  138.47    6.17 
  -8   5   4  138.38    6.15 
  -8   5   4  146.87    6.31 
   8   5  -4  137.45    6.08 
   8   5  -4  135.85    6.36 
   8  -5  -4  144.03    6.18 
   8  -5  -4  151.47    6.38 
  -8  -5   4  142.04    6.09 
   8  -5  -4  137.75    6.14 
   8  -5  -4  140.57    6.07 
  -8  -5   4  142.80    6.17 
  -8  -5   4  143.04    6.09 
   8   5  -3   17.01    1.68 
  -8   5   3   15.34    1.52 
   8   5  -3   16.20    1.56 
  -8   5   3   18.38    1.59 
  -8   5   3   16.79    1.50 
  -8   5   3   16.02    1.25 
  -8   5   3   16.35    1.74 
   8   5  -3   16.36    1.85 
  -8  -5   3   13.49    1.18 
   8  -5  -3   15.41    1.62 
   8  -5  -3   15.22    1.63 
  -8  -5   3   14.92    1.62 
  -8  -5   3   15.15    1.42 
   8  -5  -3   16.82    1.48 
  -8  -5   3   17.80    1.60 
   8  -5  -3   14.33    1.59 
   8  -5  -3   13.51    1.67 
   8   5  -2    2.12    0.88 
  -8   5   2    1.77    0.74 
  -8   5   2    0.87    0.72 
   8   5  -2    1.80    0.93 
  -8   5   2    2.36    0.82 
  -8   5   2    0.63    0.88 
   8   5  -2    2.95    0.89 
  -8   5   2    1.20    0.96 
   8  -5  -2    1.20    0.73 
   8  -5  -2    2.17    0.86 
   8  -5  -2    2.99    0.85 
  -8  -5   2    0.43    0.59 
  -8  -5   2    1.23    0.74 
   8  -5  -2    2.79    0.90 
  -8  -5   2    1.17    0.83 
   8  -5  -2    0.72    0.86 
  -8  -5   2    2.21    0.73 
   8   5  -1   20.45    1.77 
   8   5  -1   19.32    1.69 
  -8   5   1   15.93    1.63 
   8   5  -1   17.45    1.66 
  -8   5   1   19.24    1.64 
  -8   5   1   19.63    1.79 
  -8   5   1   15.32    1.63 
  -8   5   1   19.40    2.03 
   8   5  -1   17.26    1.73 
   8   5  -1   19.05    1.75 
   8  -5  -1   17.68    1.77 
  -8  -5   1   16.56    1.44 
  -8  -5   1   18.76    1.14 
   8  -5  -1   17.89    1.67 
  -8  -5   1   16.80    1.56 
   8  -5  -1   19.77    1.77 
   8  -5  -1   20.29    1.56 
  -8  -5   1   20.05    1.83 
  -8  -5   1   17.31    1.33 
  -8  -5   1   18.80    1.05 
  -8  -5   1   18.24    1.50 
   8  -5  -1   18.25    1.62 
   8   5   0  177.98    7.83 
  -8   5   0  183.93    7.93 
   8   5   0  188.81    7.96 
  -8   5   0  184.25    7.81 
  -8   5   0  179.57    7.84 
  -8   5   0  200.13    8.03 
  -8   5   0  189.30    7.77 
   8   5   0  186.29    7.78 
   8   5   0  177.78    8.05 
  -8   5   0  169.09    7.69 
   8   5   0  180.67    7.81 
   8  -5   0  183.98    7.76 
   8  -5   0  172.96    7.85 
  -8  -5   0  195.21    7.57 
  -8  -5   0  187.70    7.54 
  -8  -5   0  186.14    7.92 
  -8  -5   0  179.74    7.60 
   8  -5   0  195.30    7.84 
  -8  -5   0  181.36    7.75 
   8  -5   0  177.13    7.87 
   8  -5   0  182.01    7.81 
  -8  -5   0  191.33    7.78 
  -8  -5   0  172.95    7.78 
  -8   5  -1    0.64    0.90 
   8   5   1   -0.23    0.90 
  -8   5  -1    1.54    0.78 
  -8   5  -1    0.34    0.90 
  -8   5  -1    0.84    1.14 
   8   5   1    1.06    1.28 
   8   5   1    1.04    0.81 
   8   5   1   -0.27    0.98 
   8   5   1    1.57    0.93 
  -8   5  -1   -0.65    0.91 
  -8   5  -1    1.63    0.87 
  -8  -5  -1    0.03    0.57 
  -8  -5  -1    0.77    0.71 
   8  -5   1    1.78    0.80 
   8  -5   1   -0.58    0.98 
  -8  -5  -1    0.18    1.00 
   8  -5   1    1.16    0.77 
   8  -5   1    0.84    0.65 
  -8  -5  -1    0.98    0.65 
   8  -5   1    0.15    0.78 
  -8  -5  -1    0.71    0.65 
   8  -5   1    0.94    0.74 
  -8  -5  -1    0.40    0.48 
   8   5   2  247.75   10.42 
   8   5   2  249.84   10.54 
  -8   5  -2  243.64   10.40 
   8   5   2  238.41   10.41 
  -8   5  -2  253.11   10.44 
  -8   5  -2  241.48   10.39 
  -8   5  -2  231.23   10.20 
   8   5   2  248.76   10.24 
  -8   5  -2  240.02   10.60 
  -8   5  -2  256.05   10.54 
  -8  -5  -2  263.96   10.26 
  -8  -5  -2  244.82   10.32 
   8  -5   2  245.40   10.45 
  -8  -5  -2  242.74   10.34 
  -8  -5  -2  256.13   10.21 
   8  -5   2  244.52   10.29 
  -8  -5  -2  260.60   10.53 
   8  -5   2  258.02   10.41 
   8  -5   2  256.58   10.32 
   8  -5   2  247.01   10.36 
  -8  -5  -2  240.41   10.12 
   8   5   3   19.33    1.61 
   8   5   3   15.89    1.43 
  -8   5  -3   19.67    2.19 
   8   5   3   16.37    1.62 
  -8   5  -3   19.45    1.73 
  -8   5  -3   17.90    1.75 
  -8   5  -3   14.93    1.17 
   8   5   3   16.51    1.92 
   8   5   3   16.51    1.60 
   8  -5   3   16.49    1.46 
  -8  -5  -3   16.81    1.64 
  -8  -5  -3   14.32    1.08 
  -8  -5  -3   16.24    1.58 
  -8  -5  -3   16.44    1.57 
   8  -5   3   16.48    1.28 
  -8  -5  -3   15.88    1.58 
   8  -5   3   18.26    1.74 
   8  -5   3   15.80    1.69 
  -8  -5  -3   16.47    1.35 
  -8   5  -4   32.36    2.27 
   8   5   4   32.52    2.42 
  -8   5  -4   36.87    2.53 
   8   5   4   36.32    2.49 
   8   5   4   36.62    2.02 
   8   5   4   35.99    3.25 
  -8   5  -4   29.73    2.31 
  -8   5  -4   31.46    2.05 
   8  -5   4   32.79    2.01 
  -8  -5  -4   37.36    2.38 
  -8  -5  -4   32.60    2.73 
  -8  -5  -4   32.63    2.18 
  -8  -5  -4   32.11    2.12 
  -8  -5  -4   35.46    1.94 
   8  -5   4   29.48    2.20 
   8  -5   4   32.40    2.28 
  -8  -5  -4   31.89    1.63 
   8  -5   4   33.85    2.38 
   8  -5   4   36.89    2.04 
  -8   5  -5    3.39    1.08 
   8   5   5    0.61    1.66 
  -8   5  -5    2.39    1.22 
   8   5   5    1.72    1.10 
  -8   5  -5    1.30    0.88 
   8  -5   5   -0.41    1.13 
   8  -5   5    1.06    0.85 
  -8  -5  -5    1.42    0.45 
   8  -5   5    1.21    1.02 
  -8  -5  -5    1.03    1.63 
  -8  -5  -5    1.70    0.97 
   8  -5   5    0.74    0.97 
  -8   5  -6   27.63    2.34 
   8   5   6   26.08    2.72 
  -8   5  -6   34.54    2.64 
   8   5   6   36.21    2.93 
   8  -5   6   30.92    2.08 
  -8  -5  -6   30.70    2.23 
   8  -5   6   31.93    2.22 
  -8  -5  -6   30.68    2.05 
   8   5   7    1.70    2.04 
  -8   5  -7    0.14    1.04 
  -8   5  -7   -0.42    1.36 
   8   5   7   -1.06    1.56 
   8  -5   7    0.02    0.96 
  -8  -5  -7    0.04    1.01 
  -8  -5  -7   -0.48    0.96 
   8   5   8  154.65    7.44 
  -8   5  -8  168.32    7.30 
  -8   5  -8  143.75    6.96 
   8   5   8  147.17    7.80 
  -8  -5  -8  158.40    6.94 
  -8  -5  -8  163.95    7.08 
   8  -5   8  171.09    7.36 
  -8   6   8  107.31    5.23 
   8   6  -8  120.57    5.36 
  -8   6   8  105.51    5.50 
  -8  -6   8  113.17    5.11 
   8  -6  -8  110.07    5.16 
   8  -6  -8  118.39    6.01 
   8   6  -7   29.12    2.35 
  -8   6   7   26.15    2.24 
  -8   6   7   26.89    2.64 
   8  -6  -7   28.12    2.39 
   8  -6  -7   25.16    2.12 
  -8  -6   7   25.65    2.14 
  -8   6   6   12.45    1.35 
   8   6  -6   11.90    1.36 
  -8   6   6   13.53    1.54 
   8  -6  -6   16.68    1.92 
   8  -6  -6   12.23    1.21 
  -8  -6   6   14.58    1.28 
  -8   6   5    4.14    1.16 
  -8   6   5    2.13    0.93 
   8   6  -5    4.10    1.08 
   8  -6  -5    4.21    0.89 
   8  -6  -5    3.48    1.36 
  -8  -6   5    2.40    0.95 
   8  -6  -5    3.99    1.64 
  -8   6   4   16.24    1.51 
  -8   6   4   17.90    1.56 
   8   6  -4   18.26    1.90 
  -8   6   4   13.54    1.28 
  -8  -6   4   18.74    1.62 
   8  -6  -4   19.59    1.67 
   8  -6  -4   14.16    1.34 
  -8  -6   4   18.23    1.74 
   8  -6  -4   15.97    1.64 
  -8  -6   4   17.33    1.42 
   8  -6  -4   16.01    1.68 
   8   6  -3   36.13    2.35 
  -8   6   3   33.06    2.81 
  -8   6   3   37.95    2.31 
  -8   6   3   32.98    2.39 
  -8   6   3   40.50    2.02 
  -8   6   3   38.92    1.76 
  -8   6   3   38.00    2.47 
   8   6  -3   40.14    2.47 
   8   6  -3   36.18    2.94 
  -8  -6   3   39.39    2.38 
   8  -6  -3   35.40    2.33 
   8  -6  -3   33.39    2.73 
  -8  -6   3   40.75    2.42 
   8  -6  -3   36.59    2.64 
  -8  -6   3   34.74    2.14 
   8  -6  -3   39.47    2.42 
   8  -6  -3   38.59    2.51 
  -8  -6   3   37.33    2.16 
  -8   6   2  209.87    8.22 
  -8   6   2  202.68    8.01 
   8   6  -2  199.35    8.43 
   8   6  -2  179.26    8.26 
  -8   6   2  193.14    8.35 
   8   6  -2  192.03    8.42 
  -8   6   2  199.87    8.27 
  -8   6   2  195.56    8.51 
  -8   6   2  184.12    8.31 
   8  -6  -2  193.16    8.31 
  -8  -6   2  196.11    8.34 
  -8  -6   2  188.30    8.21 
   8  -6  -2  191.00    8.37 
   8  -6  -2  197.28    8.41 
  -8  -6   2  197.75    8.16 
  -8  -6   2  202.26    8.25 
   8  -6  -2  190.66    8.32 
   8  -6  -2  194.58    8.25 
   8   6  -1   24.86    2.05 
   8   6  -1   27.45    2.23 
  -8   6   1   24.05    1.88 
  -8   6   1   24.50    2.05 
  -8   6   1   25.64    2.54 
  -8   6   1   25.80    1.91 
   8   6  -1   18.49    1.79 
  -8   6   1   23.52    2.01 
  -8  -6   1   19.62    2.17 
  -8  -6   1   27.35    1.87 
  -8  -6   1   25.65    2.10 
   8  -6  -1   24.16    1.92 
   8  -6  -1   23.65    1.86 
   8  -6  -1   22.16    2.01 
   8  -6  -1   22.14    2.19 
   8  -6  -1   23.21    2.03 
  -8   6   0   40.67    3.03 
   8   6   0   41.70    2.58 
  -8   6   0   40.93    2.56 
   8   6   0   41.44    2.70 
  -8   6   0   42.11    2.70 
   8   6   0   40.96    2.90 
   8   6   0   44.30    2.79 
  -8   6   0   43.98    2.57 
  -8   6   0   41.13    2.51 
  -8  -6   0   45.13    2.00 
   8  -6   0   43.47    2.79 
   8  -6   0   39.77    2.58 
  -8  -6   0   40.33    2.37 
   8  -6   0   42.57    2.45 
   8  -6   0   43.17    2.57 
  -8  -6   0   41.98    2.41 
  -8  -6   0   44.19    1.95 
  -8  -6   0   42.95    2.17 
   8  -6   0   42.87    2.55 
   8   6   1    9.98    1.20 
  -8   6  -1   12.75    1.70 
   8   6   1   14.41    1.49 
   8   6   1   13.03    1.72 
   8   6   1   10.86    1.47 
  -8   6  -1   14.05    1.48 
  -8   6  -1   12.42    1.37 
  -8   6  -1   11.62    1.22 
  -8   6  -1   15.54    1.36 
   8  -6   1   10.32    1.44 
  -8  -6  -1   14.51    1.20 
  -8  -6  -1    8.63    1.38 
  -8  -6  -1   10.18    1.07 
   8  -6   1   13.61    1.26 
  -8  -6  -1   13.38    1.19 
  -8  -6  -1   10.25    1.07 
  -8  -6  -1   12.73    1.17 
  -8  -6  -1    9.53    1.35 
   8  -6   1   10.92    1.27 
   8   6   2    3.45    1.33 
  -8   6  -2    3.84    1.23 
   8   6   2    5.55    1.20 
   8   6   2    3.92    1.39 
  -8   6  -2    2.93    0.96 
   8   6   2    2.68    1.72 
   8   6   2    2.81    0.91 
  -8   6  -2    2.56    1.01 
  -8  -6  -2    2.16    1.01 
   8  -6   2    3.59    1.11 
  -8  -6  -2    3.28    0.65 
  -8  -6  -2    3.18    0.83 
   8  -6   2    4.42    1.10 
  -8  -6  -2    4.81    0.97 
   8  -6   2    3.60    1.01 
  -8  -6  -2    3.63    0.97 
  -8  -6  -2    3.33    0.75 
  -8  -6  -2    2.48    1.22 
   8  -6   2    3.24    1.10 
   8   6   3    6.33    1.50 
  -8   6  -3    8.63    1.38 
  -8   6  -3    7.91    1.30 
   8   6   3    7.52    1.26 
   8   6   3    8.56    1.32 
  -8   6  -3    9.01    1.12 
   8   6   3    8.22    1.82 
   8  -6   3    7.66    1.04 
  -8  -6  -3    8.46    0.76 
  -8  -6  -3    7.86    1.15 
  -8  -6  -3    5.83    1.30 
   8  -6   3    7.30    1.11 
  -8  -6  -3    7.66    0.88 
   8  -6   3    5.30    1.01 
  -8  -6  -3    7.82    1.10 
  -8  -6  -3    9.02    1.19 
  -8  -6  -3    8.22    1.45 
   8   6   4  164.05    7.83 
   8   6   4  177.73    8.18 
  -8   6  -4  170.11    7.49 
  -8   6  -4  182.58    7.66 
  -8  -6  -4  173.59    7.25 
  -8  -6  -4  174.05    7.44 
   8  -6   4  171.22    7.37 
  -8  -6  -4  169.02    7.11 
   8  -6   4  173.09    7.49 
  -8  -6  -4  168.34    7.44 
   8   6   5   33.68    2.90 
   8   6   5   30.27    2.94 
  -8   6  -5   32.17    2.77 
  -8   6  -5   28.21    2.36 
   8  -6   5   26.97    2.19 
   8  -6   5   31.91    2.31 
  -8  -6  -5   31.62    2.54 
  -8  -6  -5   29.29    1.62 
  -8  -6  -5   29.88    2.01 
   8   6   6   66.93    4.02 
  -8   6  -6   70.76    4.02 
   8   6   6   71.64    4.88 
  -8   6  -6   63.93    3.58 
   8  -6   6   63.28    3.44 
   8  -6   6   61.78    3.53 
  -8  -6  -6   69.46    3.36 
  -8  -6  -6   68.68    3.60 
  -8   6  -7    3.38    1.27 
   8   6   7    6.28    2.39 
  -8   6  -7    4.70    1.91 
   8   6   7    5.07    1.79 
  -8  -6  -7    4.21    1.15 
  -8  -6  -7    2.96    1.26 
  -8   7   6   26.26    2.17 
   8   7  -6   21.39    1.90 
  -8   7   6   23.11    2.40 
  -8  -7   6   24.22    2.14 
   8  -7  -6   24.97    2.32 
   8  -7  -6   24.36    2.31 
  -8   7   5   95.09    4.68 
  -8   7   5   92.82    4.74 
   8   7  -5   94.59    4.75 
   8  -7  -5  101.89    5.04 
  -8  -7   5   96.26    4.59 
  -8  -7   5   93.62    4.47 
   8  -7  -5   96.20    4.54 
   8   7  -4   29.60    2.49 
  -8   7   4   28.56    2.42 
  -8   7   4   25.20    2.49 
  -8  -7   4   28.06    2.18 
  -8  -7   4   27.19    2.06 
   8  -7  -4   28.61    2.27 
   8  -7  -4   32.48    2.25 
  -8   7   3   53.21    3.24 
  -8   7   3   57.10    3.29 
   8   7  -3   56.66    3.35 
  -8   7   3   57.13    3.20 
  -8  -7   3   56.48    2.98 
  -8  -7   3   58.33    3.00 
   8  -7  -3   59.32    3.51 
   8  -7  -3   59.53    3.08 
   8  -7  -3   54.18    3.15 
  -8   7   2   -0.38    1.15 
  -8   7   2    0.97    1.09 
   8   7  -2    0.99    1.21 
  -8   7   2    1.31    1.09 
  -8   7   2    0.81    0.68 
  -8  -7   2   -0.44    0.81 
   8  -7  -2    0.93    0.97 
   8  -7  -2    0.64    0.86 
   8  -7  -2    1.03    1.27 
  -8  -7   2    0.79    0.85 
   8  -7  -2    0.53    1.21 
  -8   7   1   22.37    2.12 
  -8   7   1   25.09    2.23 
   8   7  -1   24.26    2.30 
  -8   7   1   26.02    1.66 
  -8   7   1   21.42    2.23 
   8   7  -1   27.26    2.57 
  -8   7   1   25.47    2.33 
   8  -7  -1   24.72    2.01 
   8  -7  -1   24.33    2.15 
  -8  -7   1   22.60    1.76 
  -8  -7   1   24.10    1.95 
   8  -7  -1   27.40    2.45 
   8   7   0   19.68    2.11 
  -8   7   0   19.13    1.63 
  -8   7   0   21.14    1.68 
  -8   7   0   24.48    2.27 
  -8   7   0   22.53    1.99 
  -8   7   0   20.75    2.06 
   8   7   0   16.58    1.93 
  -8  -7   0   19.64    1.90 
   8  -7   0   17.63    1.66 
  -8  -7   0   19.98    1.58 
   8  -7   0   19.78    1.88 
  -8  -7   0   18.47    1.85 
   8   7   1  114.19    5.67 
  -8   7  -1  113.90    5.23 
  -8   7  -1  103.26    5.69 
   8   7   1  113.11    5.23 
  -8   7  -1  112.47    5.22 
  -8  -7  -1  106.01    5.27 
  -8  -7  -1  113.62    5.01 
  -8  -7  -1  116.73    5.05 
   8  -7   1  107.96    5.11 
  -8  -7  -1  111.81    4.79 
   8  -7   1  109.77    5.16 
   8  -7   1   89.22    5.32 
   8   7   2   24.37    2.42 
   8   7   2   26.59    2.60 
  -8   7  -2   29.63    2.56 
  -8   7  -2   24.05    2.23 
  -8  -7  -2   26.41    2.25 
  -8  -7  -2   29.85    1.78 
  -8  -7  -2   27.86    2.19 
   8  -7   2   26.87    2.43 
   8  -7   2   26.13    2.28 
  -8  -7  -2   28.93    1.81 
  -8   7  -3   94.00    4.92 
   8   7   3  104.67    5.82 
  -8   7  -3   97.19    4.68 
   8   7   3   88.30    4.81 
   8  -7   3   99.74    4.75 
   8  -7   3   98.82    4.69 
  -8  -7  -3  101.75    4.35 
  -8  -7  -3   91.92    4.43 
  -8  -7  -3   98.60    4.65 
  -8  -7  -3  106.80    4.69 
   8   7   4    3.90    1.22 
  -8   7  -4    5.14    1.53 
  -8   7  -4    5.18    1.31 
   8   7   4    0.37    2.20 
   8  -7   4    6.46    1.35 
   8  -7   4    3.43    1.14 
  -8  -7  -4    5.47    0.97 
  -8  -7  -4    4.36    0.82 
  -8   7  -5    0.48    1.20 
   8   7   5   -0.66    2.55 
   8   7   5   -0.62    1.49 
  -8   7  -5   -1.54    1.64 
  -8  -7  -5    2.41    1.01 
   8  -7   5    1.47    1.10 
   8  -7   5    0.95    1.39 
  -8  -7  -5    1.00    1.26 
   8   8  -4    0.20    1.51 
  -8   8   4    1.30    1.44 
  -8   8   4   -1.09    1.17 
   8  -8  -4   -1.89    1.71 
  -8  -8   4    0.24    1.10 
  -8  -8   4   -0.09    1.21 
   8  -8  -4    1.41    1.39 
  -8   8   3  108.62    5.55 
  -8   8   3  112.41    5.56 
   8   8  -3  120.46    5.74 
  -8  -8   3  115.26    5.29 
   8  -8  -3  120.57    5.48 
  -8  -8   3  116.83    5.32 
   8  -8  -3  118.93    5.79 
   8   8  -2    8.21    1.65 
  -8   8   2    4.44    1.39 
  -8   8   2    4.36    1.41 
   8  -8  -2    4.42    1.83 
   8  -8  -2    7.95    1.70 
  -8  -8   2    5.61    1.17 
  -8  -8   2    8.21    1.29 
  -8   8   1  105.24    5.13 
  -8   8   1  105.48    5.66 
   8   8  -1  107.01    5.51 
  -8   8   1  104.12    5.14 
   8  -8  -1  111.98    5.37 
   8  -8  -1  108.01    5.12 
  -8  -8   1  102.01    4.96 
  -8  -8   1  107.85    4.83 
   8   8   0    0.82    1.73 
  -8   8   0    0.40    1.34 
  -8   8   0    1.04    1.11 
  -8   8   0    0.83    1.06 
   8  -8   0    1.10    1.57 
   8  -8   0    0.79    1.19 
  -8  -8   0    1.29    0.97 
  -8  -8   0    1.02    1.21 
  -8   8  -1   14.28    1.76 
  -8   8  -1   17.02    1.65 
   8   8   1   12.82    2.25 
  -8   8  -1   18.02    1.51 
  -8  -8  -1   12.46    1.46 
   8  -8   1   15.26    1.60 
   8  -8   1   17.06    1.90 
  -8  -8  -1   17.21    1.72 
  -8   8  -2    1.85    1.17 
   8   8   2    0.06    2.34 
  -8   8  -2    2.04    1.42 
  -8   8  -2    1.08    1.42 
  -8  -8  -2   -0.39    1.34 
   8  -8   2    0.77    1.59 
  -8  -8  -2    0.60    0.92 
   8  -8   2    2.44    1.18 
  -8   8  -3   43.95    3.06 
  -8   8  -3   43.54    2.99 
  -8   8  -3   37.71    3.28 
   8   8   3   44.03    3.72 
  -8  -8  -3   43.05    2.42 
   8  -8   3   38.94    3.23 
   8  -8   3   39.42    2.98 
  -9   0  10   53.81    2.69 
  -9   0  10   53.12    2.44 
   9   0 -10   58.09    3.84 
  -9   0  10   55.61    3.46 
  -9   0   9    1.01    1.06 
  -9   0   9   -0.94    1.10 
   9   0  -9   -0.69    1.33 
  -9   0   9    0.11    0.59 
   9   0  -9    0.60    0.86 
   9   0  -9   -0.35    1.25 
  -9   0   8  178.84    7.38 
  -9   0   8  156.36    7.02 
   9   0  -8  159.20    7.17 
   9   0  -8  178.40    7.31 
   9   0  -8  185.93    7.55 
   9   0  -8  168.06    7.12 
  -9   0   8  155.73    7.23 
   9   0  -7    0.33    1.09 
   9   0  -7   -0.08    0.95 
  -9   0   7    0.56    0.62 
   9   0  -7    0.96    0.77 
   9   0  -7    1.24    0.97 
  -9   0   7    1.54    0.84 
  -9   0   7    0.46    1.09 
  -9   0   7    0.76    0.46 
   9   0  -6  116.58    6.49 
  -9   0   6  124.89    5.43 
  -9   0   6  129.43    5.29 
  -9   0   6  114.35    5.39 
   9   0  -6  120.54    5.47 
   9   0  -6  123.07    5.43 
  -9   0   6  129.67    5.28 
   9   0  -6  130.52    5.54 
   9   0  -6  125.58    5.57 
  -9   0   5    1.41    0.72 
   9   0  -5    0.08    0.78 
   9   0  -5   -0.49    0.91 
  -9   0   5    0.01    0.60 
   9   0  -5    0.85    0.82 
   9   0  -5    0.16    0.90 
   9   0  -5    1.76    0.85 
  -9   0   5    0.22    0.60 
   9   0  -5    0.84    0.94 
  -9   0   5    0.25    0.90 
  -9   0   5   -0.19    0.71 
  -9   0   4   23.80    1.61 
   9   0  -4   27.20    1.84 
  -9   0   4   21.97    1.71 
   9   0  -4   21.07    1.83 
   9   0  -4   27.02    2.04 
   9   0  -4   25.73    2.16 
   9   0  -4   24.86    1.82 
  -9   0   4   24.31    1.67 
  -9   0   4   25.73    1.63 
   9   0  -4   21.75    1.94 
   9   0  -4   26.00    1.79 
   9   0  -3    0.62    0.94 
   9   0  -3    0.79    0.79 
   9   0  -3    0.81    0.66 
  -9   0   3    0.73    0.75 
   9   0  -3   -0.62    0.79 
  -9   0   3   -0.06    0.58 
   9   0  -3    1.69    0.89 
  -9   0   3    1.17    0.66 
  -9   0   3    0.71    0.94 
  -9   0   3    1.01    0.74 
   9   0  -3    1.50    0.87 
  -9   0   2  182.22    7.72 
   9   0  -2  181.88    7.80 
   9   0  -2  177.15    7.62 
   9   0  -2  151.31    8.13 
  -9   0   2  174.05    7.66 
  -9   0   2  189.55    7.69 
   9   0  -2  183.40    7.77 
  -9   0   2  190.51    7.92 
  -9   0   2  183.77    7.72 
   9   0  -2  194.23    7.82 
   9   0  -2  184.68    7.77 
   9   0  -1    0.41    0.87 
   9   0  -1    0.37    0.93 
  -9   0   1    1.10    0.86 
   9   0  -1    0.65    0.57 
   9   0  -1    0.19    0.76 
  -9   0   1    1.29    0.66 
  -9   0   1    1.11    0.93 
   9   0  -1    0.93    0.89 
   9   0  -1    0.06    0.64 
  -9   0   1   -0.51    0.61 
   9   0  -1   -0.16    0.79 
  -9   0   1    0.08    0.64 
   9   0   0  321.33   14.10 
  -9   0   0  319.26   13.97 
   9   0   0  317.31   14.16 
  -9   0   0  355.92   14.06 
  -9   0   0  362.00   14.21 
   9   0   0  335.56   13.82 
  -9   0   0  327.48   13.92 
   9   0   0  356.26   13.82 
   9   0   0  356.07   14.07 
   9   0   0  336.17   14.00 
  -9   0   0  341.18   13.97 
   9   0   1    0.51    0.94 
   9   0   1   -0.15    0.48 
   9   0   1    0.11    0.72 
  -9   0  -1    0.97    0.93 
   9   0   1    1.39    0.51 
   9   0   1   -1.01    0.71 
  -9   0  -1    0.15    0.62 
  -9   0  -1   -0.21    0.66 
   9   0   1    0.50    0.94 
   9   0   1    0.90    0.99 
  -9   0  -1    1.43    0.91 
  -9   0  -1    0.75    0.74 
  -9   0  -2   13.95    1.45 
  -9   0  -2   16.13    1.55 
  -9   0  -2   14.14    1.47 
   9   0   2   11.41    1.35 
   9   0   2   15.79    0.95 
   9   0   2   15.06    1.57 
  -9   0  -2   12.05    1.32 
  -9   0  -2   13.16    1.38 
   9   0   2   15.68    1.00 
   9   0   2   10.02    1.17 
   9   0   2   12.50    1.35 
   9   0   2   12.72    1.42 
  -9   0  -3   -0.07    0.72 
  -9   0  -3    1.77    1.18 
   9   0   3    0.58    0.25 
   9   0   3   -0.15    0.90 
  -9   0  -3    0.63    0.81 
  -9   0  -3    0.29    0.84 
   9   0   3   -2.78    1.04 
  -9   0  -3    0.04    1.27 
   9   0   3    0.57    0.90 
   9   0   3    0.36    0.23 
   9   0   3   -0.59    0.93 
   9   0   3    1.48    1.11 
  -9   0  -4   92.55    4.49 
   9   0   4   96.23    4.86 
  -9   0  -4   99.30    4.56 
   9   0   4   85.70    4.91 
  -9   0  -4  106.89    4.96 
   9   0   4  111.34    4.70 
  -9   0  -4  104.44    4.56 
   9   0   4   97.79    4.73 
   9   0   5    1.50    1.02 
  -9   0  -5    0.39    0.84 
   9   0   5   -1.27    0.83 
   9   0   5   -0.58    1.94 
  -9   0  -5   -0.57    0.71 
  -9   0  -6  309.55   12.29 
  -9   0  -6  290.38   12.24 
   9   0   6  252.54   12.55 
   9   0   6  314.07   12.58 
  -9   0  -6  302.07   12.29 
   9   0   7   -0.11    1.20 
   9   0   7   -0.68    1.34 
   9   0   7    0.35    1.53 
  -9   0  -7    1.54    0.92 
  -9   0  -7    0.00    0.95 
   9   0   8   46.26    3.47 
  -9   0  -8   45.30    2.86 
  -9   0  -8   45.81    2.82 
   9   0   8   42.95    3.57 
   9   0   9   -0.15    1.56 
   9   0   9    0.50    1.92 
  -9   0  -9   -1.20    1.34 
  -9   0  -9    0.38    1.17 
  -9   1  10   59.22    3.68 
   9   1 -10   60.33    3.20 
  -9   1  10   56.89    2.72 
   9   1 -10   67.40    4.00 
   9  -1 -10   63.32    4.03 
  -9  -1  10   54.19    3.46 
   9  -1 -10   57.03    2.84 
  -9   1   9    3.37    1.21 
   9   1  -9    2.75    1.59 
   9   1  -9    3.51    0.99 
  -9   1   9    3.81    1.34 
   9   1  -9    3.30    1.15 
  -9   1   9    2.57    0.69 
  -9  -1   9    3.33    1.19 
  -9  -1   9    2.39    0.59 
  -9  -1   9    2.60    0.84 
   9  -1  -9    3.69    1.54 
   9   1  -8    0.36    1.02 
  -9   1   8   -0.80    1.13 
  -9   1   8    0.64    0.62 
  -9   1   8   -0.04    0.45 
   9   1  -8    1.08    0.77 
   9   1  -8    0.07    0.97 
   9   1  -8   -0.39    1.22 
  -9   1   8    0.07    0.93 
  -9  -1   8    0.69    0.63 
   9  -1  -8    0.25    1.06 
   9  -1  -8   -1.10    1.26 
  -9  -1   8   -0.33    0.93 
   9  -1  -8    0.77    0.85 
  -9  -1   8   -1.00    0.90 
   9   1  -7   12.97    1.29 
   9   1  -7   16.64    1.42 
   9   1  -7   13.83    1.18 
  -9   1   7   13.83    1.07 
   9   1  -7   12.67    1.52 
  -9   1   7   10.33    1.92 
  -9   1   7   16.15    1.60 
  -9   1   7   12.41    1.29 
  -9  -1   7   13.31    1.37 
  -9  -1   7   15.38    1.54 
  -9  -1   7   13.31    0.90 
   9  -1  -7   14.57    1.49 
   9  -1  -7   15.32    1.35 
  -9  -1   7   12.37    1.43 
   9  -1  -7   14.84    1.54 
   9  -1  -7   16.05    1.44 
  -9   1   6   70.47    3.40 
  -9   1   6   77.04    3.21 
   9   1  -6   61.01    3.68 
   9   1  -6   70.18    3.42 
  -9   1   6   81.23    3.82 
  -9   1   6   67.68    3.52 
  -9   1   6   74.00    3.25 
   9   1  -6   79.36    3.60 
   9   1  -6   72.49    4.61 
   9   1  -6   73.69    3.53 
   9  -1  -6   71.13    3.56 
   9  -1  -6   74.71    3.46 
  -9  -1   6   71.70    3.41 
   9  -1  -6   74.93    3.59 
  -9  -1   6   78.08    3.24 
  -9  -1   6   79.33    3.42 
  -9  -1   6   77.05    3.80 
  -9  -1   6   63.46    3.42 
   9  -1  -6   69.50    4.27 
  -9   1   5  155.55    6.16 
   9   1  -5  152.18    6.57 
  -9   1   5  150.71    6.23 
   9   1  -5  145.36    6.34 
  -9   1   5  139.67    6.34 
   9   1  -5  147.66    6.51 
   9   1  -5  138.84    6.33 
   9   1  -5  141.02    6.55 
  -9   1   5  141.99    6.37 
  -9   1   5  156.57    6.61 
   9   1  -5  153.35    6.44 
  -9  -1   5  150.17    6.30 
  -9  -1   5  141.05    6.34 
   9  -1  -5  137.53    6.38 
   9  -1  -5  140.62    6.44 
   9  -1  -5  152.64    6.34 
   9  -1  -5  147.83    6.50 
   9  -1  -5  149.96    6.49 
  -9  -1   5  160.73    6.63 
  -9  -1   5  144.52    6.29 
   9  -1  -5  149.07    6.44 
  -9  -1   5  152.30    6.26 
   9   1  -4  192.77    8.11 
  -9   1   4  200.66    7.98 
   9   1  -4  188.62    8.01 
  -9   1   4  173.22    8.29 
   9   1  -4  174.34    8.03 
  -9   1   4  184.37    8.04 
  -9   1   4  196.47    7.91 
   9   1  -4  180.77    8.09 
   9   1  -4  212.27    8.22 
  -9   1   4  193.91    8.26 
   9   1  -4  178.23    8.19 
   9   1  -4  197.71    8.16 
  -9  -1   4  192.73    8.04 
   9  -1  -4  175.79    8.04 
   9  -1  -4  178.74    8.15 
  -9  -1   4  185.97    8.01 
   9  -1  -4  194.47    8.04 
  -9  -1   4  185.07    7.95 
   9  -1  -4  201.74    8.12 
   9  -1  -4  191.25    8.14 
   9  -1  -4  185.48    8.11 
  -9  -1   4  210.93    8.30 
  -9  -1   4  198.12    7.99 
  -9   1   3   40.95    2.34 
   9   1  -3   44.31    2.47 
  -9   1   3   43.17    2.69 
  -9   1   3   45.40    2.34 
   9   1  -3   40.28    2.47 
   9   1  -3   49.12    2.62 
   9   1  -3   45.76    2.50 
   9   1  -3   41.25    2.39 
   9   1  -3   41.76    2.59 
  -9   1   3   36.98    2.34 
   9   1  -3   49.11    2.55 
  -9   1   3   41.01    2.24 
   9  -1  -3   45.22    2.56 
  -9  -1   3   43.14    2.25 
  -9  -1   3   44.10    2.34 
   9  -1  -3   45.08    2.37 
   9  -1  -3   43.28    2.54 
  -9  -1   3   48.35    2.72 
   9  -1  -3   38.36    2.63 
   9  -1  -3   42.54    2.61 
  -9  -1   3   45.02    2.46 
   9  -1  -3   46.25    2.39 
   9   1  -2   12.92    1.21 
   9   1  -2    9.43    1.08 
   9   1  -2   14.78    1.44 
  -9   1   2   16.55    1.46 
   9   1  -2   14.25    1.38 
  -9   1   2   14.66    1.51 
  -9   1   2   14.10    1.40 
  -9   1   2   16.40    1.49 
   9   1  -2   14.80    1.48 
  -9   1   2   13.33    1.38 
   9   1  -2   14.78    1.57 
   9   1  -2   11.71    1.28 
  -9  -1   2   12.09    1.24 
   9  -1  -2   10.54    1.36 
   9  -1  -2   14.82    1.40 
  -9  -1   2   14.24    1.32 
   9  -1  -2   12.50    1.22 
  -9  -1   2   15.43    1.65 
  -9  -1   2   11.77    1.26 
   9  -1  -2   15.65    1.39 
  -9  -1   2   12.58    1.23 
   9  -1  -2   16.54    1.48 
   9  -1  -2   16.95    1.42 
  -9   1   1    0.67    0.73 
  -9   1   1    1.10    0.66 
   9   1  -1    0.91    0.80 
   9   1  -1    0.43    0.73 
   9   1  -1    0.75    0.71 
   9   1  -1    2.21    0.95 
  -9   1   1    0.94    0.79 
   9   1  -1    0.79    0.88 
   9   1  -1    0.94    0.62 
  -9   1   1    0.24    0.74 
  -9   1   1    0.46    1.01 
   9   1  -1    0.22    0.69 
   9  -1  -1    1.51    0.90 
   9  -1  -1   -0.24    0.79 
   9  -1  -1    0.69    0.64 
  -9  -1   1    0.14    0.67 
  -9  -1   1    0.06    0.86 
   9  -1  -1    1.66    1.00 
   9  -1  -1    0.58    0.89 
  -9  -1   1    0.38    0.92 
  -9  -1   1    0.35    0.58 
   9  -1  -1    0.72    0.98 
  -9  -1   1    0.08    0.70 
  -9   1   0   93.62    4.23 
  -9   1   0   90.86    4.15 
   9   1   0   92.62    4.34 
   9   1   0   99.92    4.36 
   9   1   0   86.24    4.39 
   9   1   0   95.21    4.00 
   9   1   0   88.67    4.21 
  -9   1   0   92.22    4.29 
  -9   1   0   91.34    4.26 
   9   1   0   93.34    4.02 
   9   1   0   89.05    4.46 
  -9   1   0   85.53    4.44 
   9  -1   0   97.21    4.05 
   9  -1   0   91.46    4.33 
   9  -1   0   91.58    4.30 
  -9  -1   0   90.86    4.20 
  -9  -1   0   98.81    4.51 
  -9  -1   0   98.96    4.42 
  -9  -1   0   87.42    4.17 
   9  -1   0   86.63    4.47 
   9  -1   0   91.60    4.34 
  -9  -1   0   89.64    4.09 
   9  -1   0   89.63    4.37 
   9   1   1  114.78    5.82 
   9   1   1  131.68    5.35 
  -9   1  -1  132.99    5.62 
   9   1   1  120.06    5.65 
  -9   1  -1  129.26    5.78 
  -9   1  -1  123.87    5.55 
   9   1   1  133.81    5.85 
   9   1   1  119.45    5.69 
  -9   1  -1  133.79    5.88 
   9   1   1  128.92    5.34 
  -9   1  -1  126.37    5.66 
   9  -1   1  117.11    5.76 
   9  -1   1  138.09    5.71 
  -9  -1  -1  138.97    5.83 
   9  -1   1  122.39    5.85 
   9  -1   1  130.65    5.38 
  -9  -1  -1  121.53    5.49 
   9  -1   1  126.57    5.67 
   9  -1   1  129.98    5.74 
  -9  -1  -1  120.49    5.59 
  -9  -1  -1  133.77    5.88 
  -9  -1  -1  130.53    5.62 
  -9   1  -2  191.91    8.87 
  -9   1  -2  211.79    8.72 
   9   1   2  190.80    8.69 
   9   1   2  197.86    8.90 
   9   1   2  222.14    8.79 
  -9   1  -2  216.06    8.90 
   9   1   2  192.09    8.33 
   9   1   2  223.90    8.36 
  -9   1  -2  219.54    8.69 
   9   1   2  193.84    8.88 
  -9   1  -2  197.34    8.61 
   9   1   2  201.01    8.76 
  -9  -1  -2  223.01    8.95 
   9  -1   2  221.84    8.75 
  -9  -1  -2  204.34    8.69 
   9  -1   2  199.38    8.92 
   9  -1   2  184.38    8.35 
   9  -1   2  210.28    8.80 
  -9  -1  -2  204.28    8.83 
  -9  -1  -2  201.82    8.61 
   9  -1   2  213.79    8.73 
   9  -1   2  181.67    8.83 
  -9  -1  -2  202.89    8.67 
  -9   1  -3   99.84    4.72 
  -9   1  -3   97.71    5.13 
  -9   1  -3  113.67    5.11 
  -9   1  -3  112.77    4.77 
   9   1   3   93.85    4.84 
   9   1   3  103.33    4.26 
   9   1   3  102.76    5.05 
   9   1   3  100.46    4.86 
   9   1   3  107.22    5.12 
   9   1   3  105.98    4.27 
   9   1   3   98.81    4.92 
  -9  -1  -3  106.26    5.12 
   9  -1   3   89.72    5.02 
   9  -1   3  104.01    5.10 
   9  -1   3  102.74    4.83 
  -9  -1  -3  107.42    4.79 
  -9  -1  -3  104.88    4.81 
   9  -1   3   99.57    4.95 
  -9  -1  -3  113.89    5.15 
   9  -1   3  119.34    4.87 
  -9  -1  -3  104.55    4.69 
   9  -1   3  116.63    4.34 
  -9   1  -4   91.89    4.25 
   9   1   4   86.50    4.34 
  -9   1  -4   91.03    4.18 
  -9   1  -4   96.86    4.69 
  -9   1  -4   95.45    4.27 
   9   1   4   81.70    4.59 
   9   1   4   89.54    4.33 
   9   1   4   92.37    4.55 
  -9  -1  -4   89.74    4.28 
   9  -1   4   89.54    4.54 
  -9  -1  -4   83.62    4.09 
   9  -1   4   80.35    4.54 
   9  -1   4   99.25    4.30 
  -9  -1  -4   89.76    4.25 
   9  -1   4   86.85    4.33 
  -9  -1  -4   94.41    4.68 
   9   1   5   48.61    2.84 
   9   1   5   38.46    3.44 
   9   1   5   45.96    3.05 
  -9   1  -5   43.28    2.62 
  -9   1  -5   47.27    2.65 
  -9   1  -5   48.63    2.72 
  -9  -1  -5   50.27    2.65 
  -9  -1  -5   42.17    2.86 
   9  -1   5   51.36    2.80 
  -9  -1  -5   48.53    4.02 
  -9  -1  -5   49.27    2.77 
   9  -1   5   46.13    3.36 
   9  -1   5   38.44    3.08 
   9   1   6   10.92    1.58 
   9   1   6   11.49    1.44 
   9   1   6    7.61    1.65 
  -9   1  -6   10.25    1.19 
  -9   1  -6   10.25    1.24 
  -9   1  -6   12.30    1.49 
  -9  -1  -6   11.28    1.19 
   9  -1   6    7.92    1.49 
  -9  -1  -6   10.42    1.25 
  -9  -1  -6    9.51    1.28 
   9  -1   6   11.43    1.31 
   9  -1   6   13.08    1.65 
   9   1   7   25.05    2.44 
   9   1   7   26.17    2.31 
  -9   1  -7   24.16    2.18 
   9   1   7   27.73    2.67 
  -9   1  -7   25.67    2.11 
   9  -1   7   27.07    2.49 
  -9  -1  -7   27.21    2.07 
  -9  -1  -7   27.21    2.32 
   9  -1   7   27.85    2.67 
   9  -1   7   28.45    2.88 
   9   1   8  106.24    5.14 
  -9   1  -8   96.14    4.72 
   9   1   8   90.01    5.39 
  -9   1  -8  102.58    4.64 
   9  -1   8   94.07    5.26 
  -9  -1  -8   95.65    4.75 
  -9  -1  -8   93.27    4.62 
   9  -1   8   98.92    5.04 
  -9   1  -9   28.71    2.48 
   9   1   9   30.42    3.17 
   9   1   9   23.18    2.52 
  -9   1  -9   27.25    2.61 
   9  -1   9   27.40    2.63 
   9  -1   9   29.78    2.99 
  -9  -1  -9   27.53    2.48 
  -9  -1  -9   25.15    2.63 
   9   2 -10   -0.60    1.89 
   9   2 -10    2.71    1.04 
  -9   2  10    0.32    1.53 
  -9   2  10    2.18    0.79 
   9  -2 -10    0.24    1.82 
   9  -2 -10    2.63    0.82 
  -9   2   9  127.33    5.61 
   9   2  -9  104.39    5.70 
  -9   2   9  103.21    5.20 
   9   2  -9  113.11    5.56 
   9   2  -9  110.37    4.92 
  -9   2   9  104.17    4.77 
   9  -2  -9  117.34    5.56 
  -9  -2   9  112.65    5.05 
  -9  -2   9  104.00    4.60 
   9  -2  -9  108.16    4.81 
   9   2  -8   35.09    2.12 
  -9   2   8   33.90    2.49 
   9   2  -8   31.00    2.52 
  -9   2   8   33.74    1.82 
   9   2  -8   28.44    2.32 
   9   2  -8   42.28    2.98 
  -9   2   8   34.68    1.99 
  -9   2   8   35.86    2.83 
  -9  -2   8   32.44    1.92 
   9  -2  -8   37.85    2.91 
  -9  -2   8   33.81    2.20 
  -9  -2   8   37.09    2.03 
   9   2  -7  138.87    5.97 
  -9   2   7  139.13    6.12 
   9   2  -7  135.90    6.04 
  -9   2   7  147.04    6.49 
   9   2  -7  122.23    6.25 
   9   2  -7  132.48    6.10 
  -9   2   7  134.66    5.93 
   9   2  -7  144.01    6.39 
  -9   2   7  138.67    5.82 
  -9  -2   7  151.71    6.06 
  -9  -2   7  124.49    5.92 
   9  -2  -7  149.79    6.37 
   9  -2  -7  136.90    6.05 
   9  -2  -7  143.03    6.05 
  -9  -2   7  140.65    5.94 
   9   2  -6    0.51    1.16 
  -9   2   6   -0.02    0.65 
   9   2  -6    0.92    0.90 
  -9   2   6    0.64    0.59 
   9   2  -6    1.01    1.19 
  -9   2   6    0.38    1.29 
   9   2  -6    2.81    0.90 
  -9   2   6    0.84    1.15 
   9   2  -6    0.31    1.07 
  -9  -2   6    0.72    0.64 
  -9  -2   6    1.58    0.90 
  -9  -2   6    0.35    0.67 
   9  -2  -6    0.41    0.88 
   9  -2  -6    0.85    0.64 
  -9  -2   6    1.01    0.92 
   9  -2  -6    0.38    0.81 
  -9  -2   6    1.03    0.72 
   9  -2  -6    0.03    1.03 
  -9   2   5   -0.21    0.79 
   9   2  -5    0.17    0.74 
   9   2  -5    2.22    0.85 
  -9   2   5    1.03    0.62 
  -9   2   5    0.87    0.46 
   9   2  -5    0.42    1.04 
   9   2  -5    0.58    0.82 
   9   2  -5    0.48    0.96 
  -9   2   5    0.45    0.65 
   9  -2  -5    1.42    0.98 
  -9  -2   5    0.81    0.94 
  -9  -2   5    0.99    1.01 
  -9  -2   5    2.29    0.87 
   9  -2  -5    2.34    1.22 
  -9  -2   5    0.87    0.64 
   9  -2  -5    1.19    0.74 
   9  -2  -5    1.84    0.76 
   9  -2  -5    0.22    0.70 
  -9  -2   5    1.38    0.70 
   9   2  -4    0.98    1.11 
  -9   2   4    3.78    0.67 
   9   2  -4    2.52    1.03 
   9   2  -4    3.33    0.88 
  -9   2   4    2.75    0.80 
   9   2  -4    4.33    0.92 
   9   2  -4    3.11    1.16 
  -9   2   4    2.00    0.77 
   9   2  -4    2.66    1.01 
   9   2  -4    1.42    0.92 
  -9   2   4    4.57    1.04 
   9  -2  -4    3.27    0.98 
   9  -2  -4    3.54    0.93 
  -9  -2   4    3.17    0.73 
   9  -2  -4    3.15    0.98 
  -9  -2   4    3.44    0.69 
  -9  -2   4    3.34    1.04 
   9  -2  -4    3.51    0.86 
  -9  -2   4    3.14    0.89 
  -9  -2   4    3.27    0.76 
   9  -2  -4    2.16    0.91 
   9  -2  -4    3.07    0.80 
   9   2  -3  165.24    6.61 
  -9   2   3  158.51    6.93 
  -9   2   3  163.81    6.64 
   9   2  -3  151.29    6.85 
   9   2  -3  149.94    6.74 
  -9   2   3  150.03    6.68 
  -9   2   3  142.70    6.66 
   9   2  -3  164.94    6.75 
   9   2  -3  151.42    6.72 
  -9   2   3  159.22    6.83 
   9   2  -3  149.32    6.69 
   9   2  -3  150.92    6.77 
  -9   2   3  162.36    6.53 
   9  -2  -3  148.08    6.66 
  -9  -2   3  160.18    6.59 
  -9  -2   3  152.90    6.88 
   9  -2  -3  150.61    6.63 
   9  -2  -3  157.90    6.76 
   9  -2  -3  158.08    6.71 
  -9  -2   3  161.34    6.75 
   9  -2  -3  150.01    6.74 
  -9  -2   3  152.25    6.53 
  -9  -2   3  151.56    6.64 
   9   2  -2  122.34    5.38 
  -9   2   2  126.79    5.70 
   9   2  -2  120.61    5.51 
   9   2  -2  130.70    5.36 
  -9   2   2  135.97    5.32 
   9   2  -2  132.04    5.38 
  -9   2   2  126.90    5.41 
   9   2  -2  116.46    5.49 
   9   2  -2  119.50    5.66 
  -9   2   2  120.33    5.45 
  -9   2   2  117.12    5.46 
   9   2  -2  120.40    5.53 
  -9   2   2  113.35    5.39 
  -9  -2   2  115.38    5.23 
   9  -2  -2  133.73    5.41 
  -9  -2   2  123.19    5.65 
   9  -2  -2  121.80    5.55 
   9  -2  -2  124.27    5.50 
   9  -2  -2  123.68    5.47 
   9  -2  -2  108.25    5.37 
  -9  -2   2  120.97    5.44 
  -9  -2   2  121.33    5.32 
   9  -2  -2  116.38    5.56 
  -9  -2   2  120.24    5.54 
   9   2  -1  331.21   14.27 
  -9   2   1  355.52   14.45 
  -9   2   1  342.92   14.20 
  -9   2   1  331.46   14.19 
  -9   2   1  320.58   14.22 
   9   2  -1  359.95   14.13 
   9   2  -1  320.34   14.35 
  -9   2   1  339.11   14.14 
   9   2  -1  361.84   14.10 
   9   2  -1  358.38   14.13 
  -9   2   1  373.13   14.18 
   9   2  -1  326.11   14.42 
   9   2  -1  343.54   14.29 
  -9  -2   1  364.00   14.07 
   9  -2  -1  321.57   14.36 
   9  -2  -1  356.01   14.31 
   9  -2  -1  308.80   14.21 
  -9  -2   1  332.32   14.21 
   9  -2  -1  362.08   14.29 
  -9  -2   1  338.07   14.30 
   9  -2  -1  357.85   14.14 
  -9  -2   1  360.84   14.44 
   9   2   0   31.62    1.71 
   9   2   0   32.98    2.32 
   9   2   0   27.51    2.18 
  -9   2   0   29.75    2.01 
   9   2   0   27.77    2.00 
   9   2   0   25.86    2.17 
  -9   2   0   30.64    1.90 
   9   2   0   24.05    2.35 
  -9   2   0   28.10    1.90 
  -9   2   0   25.72    2.01 
  -9   2   0   30.81    2.53 
   9   2   0   31.35    1.80 
  -9   2   0   30.61    2.16 
  -9  -2   0   26.86    1.90 
   9  -2   0   31.36    1.76 
   9  -2   0   26.14    2.11 
   9  -2   0   33.70    2.38 
   9  -2   0   29.06    2.12 
  -9  -2   0   33.28    2.43 
  -9  -2   0   31.90    2.39 
   9  -2   0   28.21    2.30 
   9  -2   0   34.42    2.28 
  -9  -2   0   31.63    2.05 
  -9  -2   0   28.85    1.70 
   9   2   1  103.49    4.80 
  -9   2  -1   99.27    4.87 
   9   2   1   94.81    4.64 
   9   2   1  107.96    4.47 
  -9   2  -1  100.10    4.77 
   9   2   1  100.28    4.83 
   9   2   1  100.30    4.40 
  -9   2  -1  113.71    4.76 
  -9   2  -1  103.15    4.50 
  -9   2  -1  110.03    4.66 
   9   2   1   94.01    4.96 
  -9   2  -1  104.27    5.04 
   9   2   1  104.73    4.97 
   9  -2   1   93.15    4.43 
  -9  -2  -1  104.81    4.53 
   9  -2   1  109.02    4.85 
  -9  -2  -1  107.49    4.74 
   9  -2   1  109.93    4.81 
   9  -2   1   93.39    4.78 
  -9  -2  -1  111.14    5.02 
   9  -2   1  105.01    4.86 
  -9  -2  -1   99.38    4.69 
  -9  -2  -1  111.68    5.01 
   9  -2   1   95.10    4.95 
   9   2   2    2.16    1.15 
   9   2   2    3.62    0.58 
  -9   2  -2    2.80    1.27 
  -9   2  -2    2.85    1.20 
  -9   2  -2    3.17    1.07 
   9   2   2    2.54    1.07 
  -9   2  -2    3.08    0.90 
   9   2   2    2.34    1.16 
   9   2   2    2.48    0.49 
   9   2   2    1.61    0.88 
   9   2   2    2.17    0.99 
  -9   2  -2    1.36    0.71 
  -9   2  -2    2.91    0.69 
   9  -2   2    2.11    0.55 
   9  -2   2    3.39    0.99 
  -9  -2  -2    2.77    0.82 
  -9  -2  -2    1.26    0.75 
   9  -2   2    0.57    0.96 
   9  -2   2    3.93    1.23 
  -9  -2  -2    1.82    0.71 
  -9  -2  -2    3.19    1.34 
  -9  -2  -2    3.57    1.16 
   9  -2   2    3.03    1.11 
   9  -2   2    1.80    1.01 
  -9   2  -3   44.43    2.46 
   9   2   3   47.90    1.99 
  -9   2  -3   43.44    3.02 
   9   2   3   43.21    2.63 
  -9   2  -3   42.55    2.73 
  -9   2  -3   46.28    3.01 
   9   2   3   42.59    1.93 
  -9   2  -3   45.34    2.56 
   9   2   3   45.15    2.96 
   9   2   3   46.27    2.75 
   9   2   3   41.24    2.95 
  -9   2  -3   44.67    2.16 
   9   2   3   45.47    2.82 
   9  -2   3   43.50    2.82 
   9  -2   3   42.58    2.03 
   9  -2   3   51.27    2.66 
  -9  -2  -3   47.99    2.93 
  -9  -2  -3   42.58    2.58 
  -9  -2  -3   43.75    2.36 
  -9  -2  -3   43.15    2.52 
   9  -2   3   46.05    2.71 
   9  -2   3   39.59    2.92 
   9   2   4   39.57    2.92 
  -9   2  -4   36.74    2.95 
   9   2   4   39.27    2.61 
  -9   2  -4   44.24    2.43 
  -9   2  -4   34.65    2.35 
  -9   2  -4   41.52    2.56 
   9   2   4   34.79    2.89 
   9   2   4   37.95    2.63 
   9  -2   4   35.93    1.83 
  -9  -2  -4   41.13    2.86 
  -9  -2  -4   38.71    2.45 
   9  -2   4   34.38    2.74 
  -9  -2  -4   38.72    2.17 
  -9  -2  -4   42.70    2.39 
   9  -2   4   40.75    2.43 
   9  -2   4   36.94    2.70 
   9   2   5  191.82    7.76 
   9   2   5  178.93    8.07 
  -9   2  -5  171.63    7.74 
  -9   2  -5  172.92    7.73 
   9   2   5  177.50    8.11 
   9  -2   5  169.17    7.91 
  -9  -2  -5  166.49    7.92 
   9  -2   5  163.72    7.93 
  -9  -2  -5  174.82    7.97 
   9  -2   5  204.75    7.75 
  -9  -2  -5  176.64    7.66 
   9   2   6   24.17    2.20 
  -9   2  -6   22.46    1.92 
   9   2   6   24.68    2.67 
  -9   2  -6   25.53    2.13 
   9   2   6   16.17    2.00 
  -9   2  -6   20.67    2.02 
   9  -2   6   22.71    2.13 
  -9  -2  -6   21.41    2.02 
  -9  -2  -6   20.76    1.75 
  -9  -2  -6   24.31    2.31 
   9  -2   6   21.87    2.13 
   9  -2   6   14.65    1.79 
   9   2   7  109.70    6.25 
   9   2   7  131.76    6.27 
  -9   2  -7  133.38    5.85 
  -9   2  -7  136.64    5.76 
  -9  -2  -7  131.39    5.62 
  -9  -2  -7  133.99    5.79 
   9  -2   7  126.05    6.19 
   9  -2   7  115.37    6.02 
   9  -2   7  108.84    6.14 
  -9   2  -8   16.56    1.74 
   9   2   8   13.35    2.20 
  -9   2  -8   16.09    1.55 
   9   2   8   17.30    2.03 
   9  -2   8   14.24    1.95 
  -9  -2  -8   15.45    1.64 
  -9  -2  -8   15.14    1.48 
   9  -2   8   14.49    1.82 
  -9   2  -9    0.38    1.29 
  -9   2  -9    1.44    1.43 
   9   2   9   -0.05    1.76 
   9   2   9    2.30    2.13 
  -9  -2  -9    1.33    1.22 
  -9  -2  -9    2.76    1.54 
   9  -2   9    0.60    1.81 
   9  -2   9    0.52    1.45 
  -9   3   9   48.91    3.30 
   9   3  -9   48.28    2.91 
  -9   3   9   49.02    2.64 
   9   3  -9   53.50    3.82 
   9  -3  -9   56.21    3.67 
  -9  -3   9   48.32    2.33 
  -9  -3   9   49.97    2.31 
   9  -3  -9   52.11    2.67 
   9   3  -8   -3.06    1.50 
  -9   3   8   -0.78    1.10 
   9   3  -8    0.32    0.94 
  -9   3   8   -0.86    0.77 
   9   3  -8   -0.99    0.87 
   9  -3  -8   -0.01    0.76 
  -9  -3   8   -0.27    0.77 
  -9  -3   8   -0.16    0.70 
   9  -3  -8    1.06    1.50 
   9   3  -7   43.09    2.36 
   9   3  -7   43.49    3.01 
  -9   3   7   38.14    2.56 
  -9   3   7   38.83    2.17 
  -9   3   7   41.86    2.86 
  -9   3   7   37.00    2.23 
   9   3  -7   41.49    3.20 
   9   3  -7   37.30    2.37 
   9   3  -7   36.37    2.52 
   9  -3  -7   38.53    2.23 
  -9  -3   7   40.35    2.27 
  -9  -3   7   39.70    2.23 
   9  -3  -7   43.86    2.94 
   9  -3  -7   34.62    2.47 
  -9  -3   7   40.33    2.15 
   9   3  -6    4.06    1.24 
  -9   3   6    3.94    0.86 
  -9   3   6    3.63    1.10 
   9   3  -6    5.40    1.44 
   9   3  -6    2.85    0.85 
   9   3  -6    2.66    0.99 
  -9   3   6    4.77    1.24 
  -9   3   6    3.57    0.76 
   9   3  -6    2.70    1.03 
  -9  -3   6    4.11    0.83 
  -9  -3   6    4.79    0.94 
   9  -3  -6    2.36    1.17 
  -9  -3   6    4.67    0.80 
   9  -3  -6    3.97    0.99 
   9  -3  -6    3.77    1.01 
  -9  -3   6    4.60    0.70 
   9   3  -5  172.23    8.15 
   9   3  -5  195.22    8.41 
  -9   3   5  201.44    7.76 
   9   3  -5  181.86    8.13 
  -9   3   5  197.54    8.04 
   9   3  -5  201.57    8.04 
  -9   3   5  189.14    8.32 
  -9   3   5  179.20    8.19 
   9  -3  -5  197.82    8.35 
  -9  -3   5  190.45    7.92 
   9  -3  -5  191.30    8.18 
  -9  -3   5  216.68    8.07 
  -9  -3   5  187.97    8.09 
   9  -3  -5  182.94    8.12 
  -9   3   4    7.28    1.08 
  -9   3   4    8.12    0.69 
   9   3  -4    7.26    1.46 
  -9   3   4    4.89    0.85 
   9   3  -4    8.24    0.90 
  -9   3   4    7.33    0.86 
  -9   3   4    5.58    1.08 
   9   3  -4    6.78    0.96 
   9   3  -4    5.51    0.97 
  -9  -3   4    5.83    1.48 
   9  -3  -4    7.78    1.04 
   9  -3  -4    5.62    1.00 
  -9  -3   4    6.37    0.88 
  -9  -3   4    6.80    1.01 
  -9  -3   4    7.00    0.73 
  -9  -3   4    6.46    0.84 
   9  -3  -4    5.16    1.01 
   9  -3  -4    7.38    1.13 
   9  -3  -4    7.60    0.71 
  -9   3   3  203.01    9.14 
   9   3  -3  196.64    9.34 
  -9   3   3  211.53    9.12 
  -9   3   3  222.82    9.28 
   9   3  -3  217.01    9.17 
   9   3  -3  216.46    9.17 
   9   3  -3  232.46    8.97 
  -9   3   3  211.67    9.22 
   9   3  -3  210.99    9.13 
  -9   3   3  232.37    9.07 
   9   3  -3  203.37    9.14 
  -9  -3   3  198.54    9.09 
   9  -3  -3  217.64    9.14 
   9  -3  -3  215.67    9.10 
  -9  -3   3  232.57    9.26 
   9  -3  -3  213.31    9.20 
  -9  -3   3  209.18    9.20 
   9  -3  -3  218.15    8.94 
  -9  -3   3  221.65    8.91 
   9  -3  -3  223.12    9.20 
  -9  -3   3  227.79    9.06 
  -9   3   2    1.88    0.80 
   9   3  -2    1.25    0.92 
   9   3  -2    1.25    1.01 
   9   3  -2    1.30    0.95 
  -9   3   2    2.23    1.10 
  -9   3   2    1.24    0.81 
   9   3  -2    0.66    0.91 
  -9   3   2    1.29    1.03 
  -9   3   2    0.10    0.77 
  -9   3   2    2.04    0.72 
   9   3  -2    0.81    0.82 
   9   3  -2    2.17    0.74 
  -9  -3   2    2.61    1.06 
   9  -3  -2    2.12    0.74 
  -9  -3   2    1.39    0.75 
   9  -3  -2    1.88    0.90 
  -9  -3   2    1.65    1.09 
   9  -3  -2    0.44    0.77 
  -9  -3   2    1.69    0.75 
   9  -3  -2    2.35    1.23 
  -9  -3   2    1.02    0.59 
   9  -3  -2    0.77    0.84 
   9   3  -1   14.52    1.39 
  -9   3   1   15.22    1.29 
  -9   3   1   12.12    1.28 
   9   3  -1   13.96    1.44 
   9   3  -1   12.76    1.39 
  -9   3   1   13.46    1.25 
  -9   3   1   15.38    1.34 
  -9   3   1   11.87    1.89 
  -9   3   1   15.09    1.27 
   9   3  -1   10.11    1.37 
   9   3  -1   16.05    1.54 
   9   3  -1   12.41    1.13 
  -9  -3   1   13.89    1.40 
   9  -3  -1   15.21    1.58 
  -9  -3   1   13.76    1.43 
  -9  -3   1   15.78    1.18 
   9  -3  -1    8.89    1.12 
  -9  -3   1   14.59    1.56 
   9  -3  -1   13.97    1.55 
  -9  -3   1   16.39    1.34 
   9  -3  -1   10.66    1.13 
   9  -3  -1    9.68    1.15 
   9  -3  -1   11.95    1.15 
   9   3   0    4.90    0.81 
  -9   3   0    4.77    0.89 
   9   3   0    2.85    1.21 
  -9   3   0    4.54    1.24 
  -9   3   0    5.38    1.06 
   9   3   0    3.00    1.09 
  -9   3   0    4.70    0.98 
  -9   3   0    4.52    1.08 
  -9   3   0    3.67    0.88 
   9   3   0    3.37    0.79 
   9   3   0    3.46    1.14 
   9   3   0    3.39    1.03 
   9  -3   0    5.10    1.19 
  -9  -3   0    4.72    0.95 
   9  -3   0    3.72    0.97 
   9  -3   0    5.89    1.22 
  -9  -3   0    4.73    1.36 
  -9  -3   0    3.97    0.67 
  -9  -3   0    3.00    0.73 
  -9  -3   0    2.65    0.95 
   9  -3   0    2.93    0.87 
   9  -3   0    2.96    0.78 
   9  -3   0    3.66    0.79 
  -9   3  -1  158.55    6.91 
  -9   3  -1  159.53    6.86 
   9   3   1  158.54    7.19 
  -9   3  -1  155.98    6.96 
   9   3   1  166.51    6.99 
  -9   3  -1  152.44    6.91 
   9   3   1  152.90    6.73 
  -9   3  -1  153.39    6.66 
  -9   3  -1  168.81    7.19 
   9   3   1  151.67    7.05 
   9   3   1  155.51    6.62 
   9   3   1  150.66    6.93 
   9  -3   1  156.07    6.91 
  -9  -3  -1  155.37    6.82 
   9  -3   1  144.43    6.67 
  -9  -3  -1  162.96    6.85 
  -9  -3  -1  175.24    7.10 
   9  -3   1  158.12    7.05 
  -9  -3  -1  168.90    7.30 
   9  -3   1  163.75    6.92 
  -9  -3  -1  158.77    6.70 
   9  -3   1  156.21    7.09 
   9  -3   1  163.99    7.04 
   9   3   2    9.60    0.82 
   9   3   2   10.93    1.13 
  -9   3  -2   10.87    1.30 
   9   3   2    9.21    1.35 
   9   3   2    9.54    1.47 
  -9   3  -2    9.48    1.37 
  -9   3  -2    9.93    1.70 
   9   3   2   11.83    1.42 
   9   3   2   10.81    1.32 
  -9   3  -2    7.56    1.03 
  -9   3  -2    8.43    0.87 
  -9   3  -2    9.23    1.19 
  -9  -3  -2    8.71    1.25 
   9  -3   2    7.49    1.15 
  -9  -3  -2    9.28    1.06 
  -9  -3  -2    8.07    0.94 
   9  -3   2   11.09    1.52 
   9  -3   2    9.94    0.84 
   9  -3   2   10.91    1.31 
  -9  -3  -2    8.92    1.05 
   9  -3   2    5.20    1.11 
   9   3   3  377.48   15.10 
   9   3   3  384.02   15.76 
  -9   3  -3  363.35   15.50 
   9   3   3  367.82   15.63 
   9   3   3  373.09   15.45 
  -9   3  -3  371.88   15.44 
  -9   3  -3  353.42   15.47 
  -9   3  -3  360.20   15.14 
  -9   3  -3  363.45   15.75 
   9   3   3  404.59   15.54 
   9  -3   3  348.84   15.63 
   9  -3   3  366.59   15.56 
  -9  -3  -3  371.39   15.30 
  -9  -3  -3  389.79   15.62 
   9  -3   3  383.88   15.51 
  -9  -3  -3  381.82   15.41 
   9  -3   3  372.00   15.16 
  -9  -3  -3  371.45   15.42 
   9  -3   3  397.89   15.54 
  -9   3  -4    5.11    1.11 
   9   3   4    1.51    1.25 
   9   3   4    3.47    0.42 
   9   3   4    2.19    1.12 
  -9   3  -4    2.55    1.02 
   9   3   4    5.34    1.48 
   9   3   4    1.44    1.11 
   9   3   4    3.31    0.42 
  -9   3  -4    1.77    0.89 
   9  -3   4    2.67    0.99 
  -9  -3  -4    1.93    1.32 
   9  -3   4    1.46    1.25 
  -9  -3  -4    2.57    0.90 
  -9  -3  -4    2.96    0.75 
  -9  -3  -4    2.18    0.89 
   9  -3   4    2.46    0.57 
  -9   3  -5    6.17    1.18 
  -9   3  -5    5.40    1.12 
   9   3   5    5.01    1.14 
   9   3   5    3.51    1.44 
   9   3   5    4.35    1.80 
  -9   3  -5    3.64    1.18 
  -9   3  -5    5.74    0.69 
   9  -3   5    5.59    0.64 
   9  -3   5    5.98    1.34 
   9  -3   5    5.08    1.38 
  -9  -3  -5    4.40    1.08 
  -9  -3  -5    5.96    1.14 
  -9  -3  -5    6.21    1.07 
   9   3   6    4.63    1.63 
   9   3   6    5.88    1.80 
  -9   3  -6    4.93    1.17 
  -9   3  -6    4.89    1.21 
  -9  -3  -6    2.83    1.36 
  -9  -3  -6    3.40    1.13 
  -9  -3  -6    5.01    0.99 
   9  -3   6    6.66    1.62 
   9  -3   6    3.18    1.21 
   9  -3   6    4.02    1.36 
   9   3   7   41.06    3.59 
  -9   3  -7   41.17    3.05 
  -9   3  -7   46.13    2.89 
   9   3   7   35.90    3.65 
   9  -3   7   38.43    3.33 
   9  -3   7   42.64    3.04 
  -9  -3  -7   43.12    2.55 
  -9  -3  -7   46.33    2.81 
  -9   3  -8    4.82    1.59 
   9   3   8    5.52    1.89 
  -9   3  -8    5.33    1.40 
   9   3   8    6.40    2.16 
  -9  -3  -8    7.58    1.48 
   9  -3   8    6.73    1.68 
   9  -3   8    4.51    1.38 
  -9  -3  -8    5.90    1.23 
   9   4  -9   60.84    3.33 
   9   4  -9   64.96    4.43 
  -9   4   9   54.91    3.67 
  -9   4   9   56.21    3.06 
  -9  -4   9   56.26    2.68 
   9  -4  -9   55.53    3.00 
  -9  -4   9   55.47    2.59 
   9  -4  -9   60.50    4.21 
   9   4  -8  102.99    4.81 
  -9   4   8  100.27    4.67 
   9   4  -8  108.70    5.43 
  -9   4   8   95.72    5.00 
   9  -4  -8  107.22    4.63 
  -9  -4   8  102.84    4.55 
  -9  -4   8  104.68    4.46 
   9  -4  -8   93.66    5.38 
  -9   4   7   57.23    3.15 
   9   4  -7   61.12    3.23 
  -9   4   7   62.10    3.42 
  -9  -4   7   64.21    3.05 
  -9  -4   7   61.28    3.01 
   9  -4  -7   64.61    3.09 
   9  -4  -7   63.63    3.82 
   9   4  -6   29.49    3.24 
  -9   4   6   25.01    2.22 
   9   4  -6   24.16    1.96 
  -9   4   6   22.21    2.37 
   9   4  -6   28.14    2.02 
  -9   4   6   25.99    1.90 
  -9   4   6   27.56    1.91 
  -9  -4   6   29.38    1.95 
   9  -4  -6   25.65    2.19 
   9  -4  -6   25.53    1.86 
   9  -4  -6   25.58    2.63 
  -9  -4   6   27.11    1.86 
   9  -4  -6   25.04    2.16 
  -9  -4   6   25.99    1.87 
   9   4  -5    2.22    0.91 
  -9   4   5    1.72    1.02 
   9   4  -5    1.75    1.49 
  -9   4   5    1.73    0.85 
   9   4  -5    2.69    0.76 
   9   4  -5    1.87    0.87 
  -9   4   5    3.99    1.03 
   9  -4  -5    1.99    0.94 
   9  -4  -5   -0.33    1.14 
  -9  -4   5    2.15    0.87 
   9  -4  -5    2.53    0.97 
  -9  -4   5    4.24    1.08 
  -9  -4   5    2.03    0.51 
   9  -4  -5    1.24    1.02 
  -9   4   4    1.36    0.92 
   9   4  -4    1.93    0.90 
   9   4  -4    1.09    0.69 
  -9   4   4    0.46    0.77 
   9   4  -4    0.80    0.83 
  -9   4   4    0.26    0.95 
   9   4  -4   -0.14    1.35 
  -9   4   4    1.07    0.46 
  -9   4   4    0.99    0.72 
   9  -4  -4    1.83    1.02 
   9  -4  -4    1.15    0.99 
  -9  -4   4    1.74    0.94 
   9  -4  -4   -1.02    1.11 
   9  -4  -4    0.61    0.73 
  -9  -4   4    2.13    0.85 
  -9  -4   4    1.13    0.46 
  -9  -4   4    2.06    0.80 
   9  -4  -4    1.08    0.94 
  -9   4   3   45.20    2.53 
   9   4  -3   42.33    2.17 
  -9   4   3   49.11    2.26 
  -9   4   3   45.16    2.49 
   9   4  -3   37.80    2.69 
  -9   4   3   34.38    3.18 
   9   4  -3   45.26    2.59 
  -9   4   3   46.10    2.81 
   9   4  -3   43.94    2.83 
   9  -4  -3   48.63    2.50 
  -9  -4   3   46.26    2.11 
  -9  -4   3   42.42    2.44 
   9  -4  -3   44.48    2.57 
   9  -4  -3   39.56    2.72 
   9  -4  -3   46.95    2.64 
   9  -4  -3   44.18    2.10 
   9  -4  -3   47.71    2.65 
  -9  -4   3   51.15    2.72 
  -9  -4   3   49.09    2.58 
   9   4  -2  179.14    7.43 
  -9   4   2  187.35    7.68 
  -9   4   2  195.53    7.58 
   9   4  -2  168.13    8.06 
   9   4  -2  185.42    7.75 
   9   4  -2  163.86    7.75 
  -9   4   2  167.76    7.69 
  -9   4   2  170.15    7.75 
   9   4  -2  182.38    7.89 
   9   4  -2  180.62    7.76 
   9  -4  -2  179.11    7.81 
  -9  -4   2  181.55    7.43 
   9  -4  -2  167.83    7.72 
  -9  -4   2  180.94    7.66 
   9  -4  -2  182.36    7.73 
  -9  -4   2  186.09    7.70 
   9  -4  -2  188.70    7.71 
   9  -4  -2  178.17    7.47 
  -9  -4   2  188.44    7.83 
   9   4  -1  126.43    5.80 
  -9   4   1  127.39    5.93 
   9   4  -1  125.82    5.79 
  -9   4   1  127.72    5.73 
   9   4  -1  125.59    5.87 
  -9   4   1  121.39    5.80 
   9   4  -1  133.28    5.93 
  -9   4   1  135.70    5.75 
  -9   4   1  120.96    5.66 
   9   4  -1  139.25    5.71 
   9   4  -1  125.86    5.45 
  -9   4   1  129.78    5.76 
   9  -4  -1  125.34    5.55 
  -9  -4   1  129.19    5.66 
   9  -4  -1  128.07    5.76 
  -9  -4   1  134.02    5.89 
  -9  -4   1  137.92    5.74 
   9  -4  -1  131.19    5.86 
  -9  -4   1  138.22    5.46 
   9  -4  -1  118.85    5.70 
   9  -4  -1  132.15    5.75 
   9   4   0   77.57    3.79 
   9   4   0   75.07    4.03 
  -9   4   0   71.51    3.74 
   9   4   0   73.95    3.82 
  -9   4   0   73.46    3.54 
  -9   4   0   79.13    3.79 
   9   4   0   76.18    3.58 
  -9   4   0   82.65    3.77 
   9   4   0   74.93    3.86 
  -9   4   0   75.68    3.94 
   9   4   0   71.64    3.41 
  -9   4   0   72.58    3.74 
   9  -4   0   73.10    3.56 
  -9  -4   0   79.34    3.66 
  -9  -4   0   80.55    3.94 
   9  -4   0   77.25    3.85 
   9  -4   0   77.45    3.64 
   9  -4   0   70.79    3.58 
   9  -4   0   73.86    3.81 
  -9  -4   0   81.93    3.40 
  -9  -4   0   71.55    3.59 
  -9   4  -1   25.34    2.05 
  -9   4  -1   25.23    2.45 
   9   4   1   29.25    1.78 
  -9   4  -1   25.11    1.79 
   9   4   1   26.67    2.25 
  -9   4  -1   28.20    2.07 
   9   4   1   29.45    2.57 
   9   4   1   24.90    2.16 
  -9   4  -1   25.11    2.11 
  -9   4  -1   24.02    2.19 
   9   4   1   28.14    2.32 
   9  -4   1   23.66    1.78 
  -9  -4  -1   24.32    1.89 
  -9  -4  -1   25.79    1.68 
   9  -4   1   24.19    1.91 
   9  -4   1   27.89    2.02 
   9  -4   1   26.48    2.15 
  -9  -4  -1   26.98    2.33 
  -9  -4  -1   27.08    1.91 
   9  -4   1   24.38    2.47 
  -9   4  -2   22.91    1.96 
   9   4   2   23.33    2.27 
   9   4   2   22.93    2.15 
  -9   4  -2   20.49    1.62 
   9   4   2   23.37    1.96 
  -9   4  -2   21.37    2.20 
   9   4   2   23.32    2.14 
  -9   4  -2   25.77    2.05 
  -9   4  -2   24.91    2.68 
  -9   4  -2   22.41    1.92 
   9  -4   2   22.03    2.07 
  -9  -4  -2   21.29    1.79 
   9  -4   2   19.81    1.95 
  -9  -4  -2   22.46    1.64 
  -9  -4  -2   28.02    2.44 
   9  -4   2   18.61    1.83 
   9  -4   2   22.05    1.97 
   9  -4   2   20.48    1.84 
  -9  -4  -2   20.42    1.79 
   9  -4   2   20.57    1.60 
  -9   4  -3   13.14    1.29 
   9   4   3   10.20    1.38 
   9   4   3   13.54    1.83 
   9   4   3    9.19    1.32 
   9   4   3   14.21    1.57 
  -9   4  -3   13.01    1.42 
   9   4   3   13.81    1.22 
  -9   4  -3   10.09    1.23 
  -9   4  -3   10.53    1.74 
   9  -4   3   12.70    1.35 
  -9  -4  -3   10.40    1.13 
  -9  -4  -3   13.23    1.37 
   9  -4   3   11.96    1.51 
   9  -4   3   11.09    1.00 
   9  -4   3   14.36    1.51 
  -9  -4  -3   10.21    1.15 
   9  -4   3   14.16    1.22 
  -9  -4  -3   11.18    1.59 
  -9   4  -4  140.41    6.44 
  -9   4  -4  152.63    6.42 
   9   4   4  150.58    6.85 
  -9   4  -4  133.46    6.00 
  -9   4  -4  146.67    6.46 
   9   4   4  141.86    6.56 
   9   4   4  145.59    5.95 
   9  -4   4  140.66    6.51 
   9  -4   4  137.27    6.48 
   9  -4   4  142.59    6.26 
  -9  -4  -4  145.78    6.68 
  -9  -4  -4  136.42    6.30 
   9  -4   4  156.42    6.56 
  -9  -4  -4  144.17    6.30 
  -9  -4  -4  145.58    6.16 
   9  -4   4  136.55    6.03 
   9   4   5  109.22    5.38 
  -9   4  -5   94.78    4.78 
   9   4   5  100.84    5.03 
  -9   4  -5  102.97    4.94 
  -9   4  -5   92.27    4.45 
  -9   4  -5  104.88    4.79 
   9   4   5   95.11    5.01 
   9  -4   5   96.47    4.31 
  -9  -4  -5   99.24    4.48 
  -9  -4  -5  100.30    4.70 
   9  -4   5   95.93    4.83 
   9  -4   5  106.06    4.74 
   9  -4   5   97.39    4.89 
  -9   4  -6   70.08    3.97 
   9   4   6   74.94    4.38 
  -9   4  -6   80.06    4.00 
   9   4   6   77.79    4.73 
   9  -4   6   68.67    3.99 
   9  -4   6   81.25    3.41 
   9  -4   6   78.21    4.23 
  -9  -4  -6   73.91    3.65 
  -9  -4  -6   77.36    3.87 
   9   4   7   51.71    3.81 
   9   4   7   47.57    4.28 
  -9   4  -7   53.36    3.36 
  -9   4  -7   57.56    3.39 
  -9  -4  -7   52.10    2.95 
  -9  -4  -7   51.15    3.22 
   9  -4   7   54.97    3.27 
   9  -4   7   55.11    3.75 
   9   4   8   31.16    3.05 
  -9   4  -8   28.67    3.05 
  -9   4  -8   27.63    2.85 
   9   4   8   34.03    3.65 
  -9  -4  -8   34.31    2.78 
  -9  -4  -8   30.08    2.50 
   9  -4   8   29.16    2.54 
   9  -4   8   27.53    2.51 
  -9   5   8   -0.34    1.05 
   9   5  -8   -0.04    1.20 
  -9   5   8    1.80    1.50 
   9  -5  -8   -0.20    0.88 
   9  -5  -8   -1.51    1.91 
  -9  -5   8    0.41    0.92 
  -9   5   7    2.09    1.27 
  -9   5   7    1.52    1.06 
   9   5  -7    1.82    1.14 
  -9  -5   7    1.07    0.90 
   9  -5  -7    1.49    1.79 
   9  -5  -7    1.80    0.98 
  -9   5   6  113.12    5.59 
   9   5  -6  124.94    5.51 
  -9   5   6  121.62    5.47 
  -9  -5   6  118.37    5.39 
  -9  -5   6  115.95    5.42 
   9  -5  -6  124.96    5.87 
   9  -5  -6  127.70    5.39 
  -9   5   5   28.84    2.37 
  -9   5   5   27.06    2.12 
   9   5  -5   27.14    2.16 
  -9   5   5   27.64    2.00 
   9  -5  -5   27.59    2.19 
  -9  -5   5   29.19    2.13 
   9  -5  -5   27.14    2.71 
  -9  -5   5   25.29    2.01 
   9  -5  -5   28.13    2.00 
   9   5  -4  152.04    6.88 
   9   5  -4  144.62    6.51 
  -9   5   4  157.17    6.50 
   9   5  -4  148.79    6.57 
  -9   5   4  138.75    6.52 
  -9   5   4  146.61    6.77 
  -9   5   4  146.95    6.63 
  -9  -5   4  150.43    6.52 
   9  -5  -4  141.22    6.73 
   9  -5  -4  149.71    6.58 
   9  -5  -4  147.67    6.57 
   9  -5  -4  152.36    6.48 
  -9  -5   4  151.35    6.47 
  -9  -5   4  154.36    6.52 
   9   5  -3    8.08    1.44 
  -9   5   3   11.18    1.60 
  -9   5   3    9.55    1.06 
  -9   5   3   10.86    1.33 
   9   5  -3    8.66    1.19 
   9   5  -3   11.32    1.36 
  -9   5   3   11.17    0.94 
  -9   5   3    9.46    1.18 
  -9  -5   3   11.34    1.13 
   9  -5  -3   10.13    1.19 
  -9  -5   3   10.78    1.25 
   9  -5  -3   10.79    1.44 
   9  -5  -3   11.95    1.31 
   9  -5  -3    9.24    1.19 
  -9  -5   3   10.25    1.33 
   9  -5  -3    8.14    1.30 
  -9   5   2   18.05    1.74 
  -9   5   2   15.74    1.73 
  -9   5   2   15.98    1.67 
  -9   5   2   15.15    1.71 
   9   5  -2   16.53    1.55 
  -9   5   2   14.67    1.46 
   9   5  -2   15.99    1.85 
   9   5  -2   16.68    1.59 
   9  -5  -2   17.27    1.88 
   9  -5  -2   15.92    1.68 
   9  -5  -2   14.94    1.47 
  -9  -5   2   16.69    1.75 
   9  -5  -2   14.94    1.48 
   9  -5  -2   14.76    1.46 
  -9  -5   2   18.12    1.94 
  -9  -5   2   15.65    1.60 
   9   5  -1    3.07    1.21 
  -9   5   1    1.71    1.14 
  -9   5   1    2.39    1.10 
  -9   5   1    2.37    0.93 
  -9   5   1    1.28    1.31 
  -9   5   1    1.90    0.91 
   9   5  -1    2.66    1.13 
   9   5  -1    1.81    1.17 
   9  -5  -1    2.82    1.16 
   9  -5  -1    3.95    1.26 
  -9  -5   1    0.85    0.85 
   9  -5  -1    1.41    0.91 
   9  -5  -1    1.79    1.00 
  -9  -5   1    2.27    0.57 
  -9  -5   1    1.45    0.67 
   9  -5  -1    1.72    1.02 
  -9  -5   1    2.42    1.14 
  -9  -5   1    1.02    0.95 
  -9   5   0   63.87    3.39 
   9   5   0   66.85    3.71 
   9   5   0   62.89    3.39 
  -9   5   0   60.44    3.45 
  -9   5   0   68.86    3.36 
   9   5   0   59.87    3.53 
  -9   5   0   65.35    3.41 
  -9   5   0   62.78    3.70 
   9   5   0   65.86    3.52 
  -9  -5   0   65.39    3.23 
   9  -5   0   69.60    3.28 
   9  -5   0   66.66    3.38 
   9  -5   0   59.18    3.33 
   9  -5   0   63.46    3.12 
  -9  -5   0   69.21    2.95 
  -9  -5   0   58.53    3.91 
  -9  -5   0   63.81    2.97 
  -9  -5   0   66.52    3.25 
   9  -5   0   64.24    3.46 
   9  -5   0   63.76    3.50 
  -9   5  -1   19.15    1.61 
  -9   5  -1   12.46    1.31 
   9   5   1   12.40    1.45 
   9   5   1   16.44    1.41 
  -9   5  -1   13.98    1.26 
  -9   5  -1   14.84    1.51 
  -9   5  -1   14.72    1.74 
   9   5   1   15.65    1.65 
  -9   5  -1   15.04    1.51 
   9   5   1   17.73    2.02 
   9   5   1   15.40    1.63 
   9  -5   1   12.34    1.93 
  -9  -5  -1   14.81    1.64 
  -9  -5  -1   15.68    1.35 
  -9  -5  -1   15.56    1.67 
   9  -5   1   17.10    1.72 
  -9  -5  -1   16.10    1.77 
   9  -5   1   15.41    1.65 
   9  -5   1   14.84    1.33 
  -9  -5  -1   17.32    1.22 
   9  -5   1   18.84    1.60 
   9  -5   1   16.24    1.60 
   9   5   2  228.00   10.19 
   9   5   2  236.07    9.81 
   9   5   2  229.84    9.54 
   9   5   2  217.04    9.85 
  -9   5  -2  242.17    9.79 
  -9   5  -2  213.29    9.47 
   9   5   2  213.21    9.74 
  -9   5  -2  230.10    9.77 
  -9   5  -2  237.07    9.82 
   9  -5   2  222.44    9.68 
  -9  -5  -2  236.27    9.52 
  -9  -5  -2  228.49    9.38 
   9  -5   2  238.27    9.64 
   9  -5   2  226.40    9.58 
  -9  -5  -2  221.39    9.64 
  -9  -5  -2  233.91    9.90 
   9  -5   2  233.83    9.74 
   9  -5   2  222.84    9.82 
  -9  -5  -2  238.70    9.65 
  -9   5  -3   -0.43    0.99 
   9   5   3   -1.47    1.52 
   9   5   3    0.62    1.06 
  -9   5  -3    0.65    1.01 
  -9   5  -3    1.04    0.89 
  -9   5  -3    1.15    1.14 
   9   5   3    0.43    1.06 
   9   5   3    1.07    0.95 
  -9  -5  -3    0.03    0.74 
   9  -5   3    0.02    1.07 
  -9  -5  -3   -0.79    0.95 
   9  -5   3    0.80    0.85 
  -9  -5  -3    1.11    0.95 
   9  -5   3   -0.13    1.24 
  -9  -5  -3    1.73    1.08 
  -9  -5  -3    0.42    0.53 
   9  -5   3    0.67    1.14 
   9  -5   3   -1.09    0.85 
  -9  -5  -3   -0.37    1.60 
  -9   5  -4   84.33    4.29 
  -9   5  -4   76.87    3.90 
  -9   5  -4   81.83    4.94 
   9   5   4   91.58    5.01 
  -9   5  -4   91.96    4.35 
  -9  -5  -4   85.14    4.19 
   9  -5   4   85.58    4.32 
  -9  -5  -4   86.63    3.93 
   9  -5   4   83.37    4.32 
  -9  -5  -4   85.84    4.13 
   9  -5   4   82.86    3.92 
  -9  -5  -4   87.47    3.64 
  -9   5  -5    5.96    1.40 
   9   5   5    4.19    1.83 
  -9   5  -5    3.77    1.38 
   9   5   5    6.96    1.69 
   9  -5   5    3.96    1.35 
  -9  -5  -5    3.98    1.14 
  -9  -5  -5    6.02    1.03 
   9  -5   5    5.51    0.99 
  -9  -5  -5    5.71    1.30 
   9  -5   5    5.15    1.21 
  -9   5  -6    2.18    1.34 
   9   5   6    5.56    1.69 
   9   5   6    4.73    2.10 
  -9   5  -6    4.69    1.42 
   9  -5   6    1.27    1.26 
   9  -5   6    2.86    1.12 
   9  -5   6    2.26    1.42 
  -9  -5  -6    2.30    1.17 
  -9  -5  -6    3.09    1.06 
  -9   5  -7    7.87    1.71 
   9   5   7    5.26    2.47 
  -9   5  -7    5.03    1.46 
   9   5   7    7.26    1.81 
  -9  -5  -7    7.22    1.38 
   9  -5   7    6.24    1.38 
  -9  -5  -7    8.67    1.31 
   9   6  -7   16.52    1.75 
  -9   6   7   15.10    1.92 
  -9   6   7   17.96    1.71 
  -9  -6   7   16.49    1.58 
   9  -6  -7   15.93    2.29 
   9  -6  -7   18.24    1.58 
   9   6  -6   66.90    3.83 
  -9   6   6   65.69    3.67 
  -9   6   6   69.27    3.90 
   9  -6  -6   71.39    4.39 
  -9  -6   6   65.41    3.54 
   9  -6  -6   73.24    3.54 
  -9   6   5    2.46    1.15 
   9   6  -5   -0.14    1.13 
  -9   6   5    1.80    1.34 
   9  -6  -5   -0.16    1.47 
  -9  -6   5    1.20    0.95 
   9  -6  -5   -0.01    1.06 
   9   6  -4   31.81    2.49 
  -9   6   4   29.53    2.59 
  -9   6   4   28.79    2.39 
  -9  -6   4   28.44    2.15 
   9  -6  -4   31.02    2.45 
   9  -6  -4   32.03    2.83 
   9  -6  -4   28.58    2.24 
   9   6  -3   22.57    2.24 
  -9   6   3   25.63    2.34 
  -9   6   3   22.74    2.00 
  -9   6   3   20.48    1.26 
  -9  -6   3   24.64    1.80 
  -9  -6   3   19.86    1.91 
   9  -6  -3   17.07    1.94 
   9  -6  -3   17.84    2.03 
   9  -6  -3   21.74    1.94 
   9  -6  -3   19.88    2.02 
   9   6  -2   74.02    4.20 
  -9   6   2   79.96    4.02 
  -9   6   2   77.99    4.49 
  -9   6   2   77.28    3.93 
   9   6  -2   79.14    4.05 
  -9   6   2   79.24    3.85 
   9  -6  -2   69.47    3.84 
  -9  -6   2   78.47    3.99 
  -9  -6   2   74.65    3.60 
  -9  -6   2   80.30    3.74 
   9  -6  -2   72.80    4.13 
   9  -6  -2   76.68    4.08 
   9  -6  -2   80.10    3.83 
   9  -6  -2   78.65    4.05 
  -9   6   1   30.87    3.16 
   9   6  -1   27.71    2.82 
  -9   6   1   34.35    2.62 
  -9   6   1   31.34    2.48 
  -9   6   1   24.44    2.25 
   9   6  -1   28.71    2.65 
  -9   6   1   28.00    2.24 
   9   6  -1   31.29    2.58 
  -9  -6   1   28.48    1.85 
   9  -6  -1   31.94    2.20 
   9  -6  -1   27.61    2.37 
  -9  -6   1   29.67    2.72 
   9  -6  -1   23.70    2.08 
  -9  -6   1   35.69    3.45 
   9  -6  -1   31.61    2.54 
  -9  -6   1   29.93    2.08 
   9  -6  -1   27.30    2.43 
  -9   6   0  146.18    6.37 
  -9   6   0  141.39    6.48 
   9   6   0  143.88    6.52 
   9   6   0  144.43    6.72 
   9   6   0  137.49    6.53 
  -9   6   0  142.21    6.77 
  -9   6   0  138.25    6.38 
  -9   6   0  137.71    6.39 
  -9  -6   0  149.77    5.93 
   9  -6   0  140.57    6.40 
  -9  -6   0  142.67    6.30 
   9  -6   0  143.69    6.29 
   9  -6   0  147.59    6.45 
  -9  -6   0  146.12    6.56 
   9  -6   0  136.46    6.36 
  -9   6  -1    5.12    1.25 
  -9   6  -1    5.23    1.31 
   9   6   1    6.33    1.37 
   9   6   1    3.88    1.52 
  -9   6  -1    5.14    1.07 
   9   6   1    6.26    1.79 
   9   6   1    6.86    1.51 
  -9  -6  -1    6.80    1.54 
  -9  -6  -1    4.99    0.78 
  -9  -6  -1    5.48    1.11 
  -9  -6  -1    6.22    0.78 
  -9  -6  -1    4.73    1.11 
   9  -6   1    5.01    1.14 
   9  -6   1    5.55    1.82 
   9  -6   1    3.84    1.19 
   9   6   2    4.81    1.74 
  -9   6  -2    4.14    1.24 
   9   6   2    4.42    1.33 
   9   6   2    2.89    1.91 
   9   6   2    1.76    1.30 
  -9   6  -2    3.89    1.35 
  -9   6  -2    3.30    1.22 
   9   6   2    1.66    1.49 
  -9  -6  -2    3.09    1.00 
   9  -6   2    2.29    1.17 
  -9  -6  -2    3.01    0.68 
  -9  -6  -2    5.50    1.73 
  -9  -6  -2    2.33    0.84 
  -9  -6  -2    0.99    1.08 
   9  -6   2    3.21    1.26 
   9  -6   2    2.06    1.10 
  -9   6  -3    0.83    1.29 
   9   6   3    2.37    1.39 
   9   6   3    0.98    1.89 
  -9   6  -3    0.29    1.15 
  -9  -6  -3    3.07    1.14 
   9  -6   3    1.66    1.16 
  -9  -6  -3   -0.99    1.66 
  -9  -6  -3    2.07    1.03 
  -9  -6  -3    0.39    0.85 
  -9  -6  -3    1.45    0.61 
  -9  -6  -3    1.97    1.59 
  -9   6  -4   52.99    3.24 
   9   6   4   43.64    4.08 
  -9   6  -4   48.76    3.12 
   9   6   4   47.27    3.36 
  -9  -6  -4   47.35    2.64 
  -9  -6  -4   47.29    2.29 
   9  -6   4   46.91    3.06 
   9  -6   4   43.12    2.82 
  -9  -6  -4   47.88    2.96 
  -9  -6  -4   49.91    3.06 
   9   6   5   18.89    2.03 
   9   6   5   25.02    2.70 
  -9   6  -5   24.64    2.09 
  -9   6  -5   25.83    2.08 
  -9  -6  -5   27.25    2.43 
   9  -6   5   21.56    2.45 
  -9  -6  -5   25.47    2.03 
   9  -6   5   25.43    2.31 
   9   6   6  184.76    8.31 
   9   6   6  161.38    7.78 
  -9   6  -6  180.73    7.56 
  -9   6  -6  151.03    7.32 
  -9  -6  -6  160.12    7.07 
  -9  -6  -6  164.69    7.29 
   9  -6   6  146.22    7.20 
  -9   7   5  143.03    6.78 
   9   7  -5  143.75    6.76 
  -9   7   5  138.84    6.70 
   9  -7  -5  159.38    7.14 
  -9  -7   5  141.26    6.49 
   9  -7  -5  154.64    6.58 
  -9   7   4   36.37    3.03 
  -9   7   4   28.44    2.79 
   9   7  -4   36.96    3.02 
  -9  -7   4   38.50    2.58 
  -9  -7   4   40.95    2.57 
   9  -7  -4   37.23    3.32 
   9  -7  -4   36.38    2.66 
   9   7  -3   40.58    3.01 
  -9   7   3   39.04    2.95 
  -9   7   3   39.47    2.81 
   9  -7  -3   39.79    3.24 
   9  -7  -3   34.76    3.19 
  -9  -7   3   39.28    2.55 
  -9  -7   3   37.69    2.48 
   9  -7  -3   28.26    2.90 
  -9   7   2    6.20    1.47 
  -9   7   2    7.16    1.40 
   9   7  -2    8.31    1.67 
  -9   7   2    5.61    2.28 
  -9  -7   2    8.11    1.18 
  -9  -7   2    6.87    1.12 
   9  -7  -2    7.63    1.67 
   9  -7  -2    4.98    1.12 
   9  -7  -2    6.63    1.34 
  -9   7   1    6.41    1.44 
  -9   7   1    2.63    1.16 
  -9   7   1    6.10    0.90 
  -9   7   1    1.68    1.38 
   9   7  -1    2.96    1.57 
  -9  -7   1    3.13    0.97 
   9  -7  -1    2.30    1.38 
   9  -7  -1    4.71    1.29 
   9  -7  -1    3.99    1.23 
  -9  -7   1    3.65    1.10 
  -9   7   0   10.23    1.53 
  -9   7   0    9.91    1.60 
  -9   7   0    7.47    1.36 
   9   7   0    9.17    1.84 
  -9  -7   0   12.57    1.40 
   9  -7   0   10.69    1.54 
   9  -7   0    8.46    1.57 
  -9  -7   0    8.69    1.04 
   9   7   1  170.26    7.88 
  -9   7  -1  173.09    7.60 
  -9   7  -1  169.32    7.73 
   9   7   1  180.52    8.28 
   9  -7   1  171.48    7.67 
   9  -7   1  170.00    7.66 
  -9  -7  -1  172.83    7.26 
  -9  -7  -1  172.48    7.51 
   9   7   2   45.58    3.57 
  -9   7  -2   50.08    3.16 
   9   7   2   50.63    4.38 
  -9   7  -2   50.41    3.41 
  -9  -7  -2   45.80    2.94 
  -9  -7  -2   49.80    2.51 
   9  -7   2   50.96    3.14 
   9  -7   2   42.06    3.26 
  -9   7  -3   59.10    3.63 
   9   7   3   55.78    3.99 
   9   7   3   61.87    4.88 
  -9   7  -3   53.51    3.79 
  -9  -7  -3   59.70    2.86 
  -9  -7  -3   60.72    3.53 
   9  -7   3   57.01    3.50 
  -9  -7  -3   61.07    3.45 
   9  -7   3   62.40    3.57 
   9   7   4   25.25    2.39 
  -9   7  -4   15.59    1.81 
  -9   7  -4   21.75    2.07 
   9   7   4   22.07    2.83 
   9  -7   4   21.11    1.87 
   9  -7   4   16.25    1.73 
  -9  -7  -4   18.92    1.76 
   9   8  -2    2.81    1.79 
  -9   8   2   -0.68    1.46 
  -9  -8   2    0.21    1.22 
   9  -8  -2    1.77    1.74 
  -9  -8   2    1.29    1.18 
   9   8  -1  159.47    7.89 
  -9   8   1  169.36    7.54 
   9  -8  -1  162.89    7.48 
   9  -8  -1  168.42    7.67 
  -9  -8   1  165.31    7.28 
  -9  -8   1  161.50    7.10 
  -9   8   0    6.50    1.67 
   9   8   0    3.78    2.21 
  -9   8   0    4.49    1.66 
   9  -8   0    2.47    1.52 
   9  -8   0    4.67    1.75 
  -9  -8   0    5.76    1.10 
  -9  -8   0    6.69    1.49 
  -9   8  -1   44.59    3.45 
  -9   8  -1   46.04    3.64 
  -9   8  -1   51.75    3.04 
   9   8   1   55.59    4.73 
   9  -8   1   48.29    3.47 
   9  -8   1   47.51    3.81 
  -9  -8  -1   56.22    3.27 
  -9  -8  -1   49.98    2.79 
  10   0 -10    4.69    1.95 
 -10   0  10    4.65    0.75 
 -10   0  10    4.43    1.26 
 -10   0  10    5.85    1.68 
  10   0  -9    0.91    1.46 
 -10   0   9   -0.36    0.74 
 -10   0   9   -0.14    1.27 
 -10   0   9    1.49    1.33 
 -10   0   8  179.53    8.55 
 -10   0   8  195.14    8.78 
 -10   0   8  225.18    8.94 
  10   0  -8  203.70    8.71 
  10   0  -8  227.28    9.01 
  10   0  -7   -1.35    1.02 
  10   0  -7    0.18    1.12 
  10   0  -7    0.19    1.28 
  10   0  -7    0.56    1.04 
 -10   0   7   -0.76    1.21 
 -10   0   7    2.22    0.64 
 -10   0   7    0.57    0.79 
 -10   0   6   77.61    3.87 
  10   0  -6   79.29    4.18 
  10   0  -6   84.19    4.07 
 -10   0   6   76.58    3.92 
  10   0  -6   86.74    4.07 
 -10   0   6   85.24    3.76 
  10   0  -6   83.21    4.00 
 -10   0   6   85.22    3.70 
 -10   0   5   -0.06    0.82 
  10   0  -5    1.48    1.07 
 -10   0   5    0.03    0.75 
  10   0  -5    0.38    0.88 
  10   0  -5   -0.58    0.95 
 -10   0   5    0.74    1.10 
  10   0  -5    0.46    1.10 
  10   0  -5    0.34    0.92 
 -10   0   5   -0.08    0.80 
 -10   0   5    0.86    0.74 
  10   0  -4   29.53    1.99 
 -10   0   4   26.34    1.99 
 -10   0   4   28.55    1.95 
  10   0  -4   36.74    2.68 
  10   0  -4   30.44    2.12 
  10   0  -4   27.92    2.30 
 -10   0   4   32.02    2.36 
  10   0  -4   27.07    2.11 
  10   0  -4   27.82    2.31 
 -10   0   4   26.21    1.87 
 -10   0   4   26.58    1.93 
  10   0  -4   30.56    2.32 
  10   0  -3    1.30    1.15 
  10   0  -3    1.33    0.91 
  10   0  -3   -0.33    0.97 
 -10   0   3   -0.62    0.75 
  10   0  -3   -0.17    0.82 
  10   0  -3    0.72    0.96 
 -10   0   3    0.69    0.85 
  10   0  -3    0.22    0.71 
 -10   0   3   -0.98    0.66 
 -10   0   3    0.26    0.70 
 -10   0   3    1.21    0.89 
  10   0  -3    0.85    1.04 
  10   0  -2  235.91   10.52 
  10   0  -2  252.44   10.40 
 -10   0   2  275.12   10.76 
  10   0  -2  250.24   10.55 
  10   0  -2  232.64   10.56 
 -10   0   2  248.78   10.49 
  10   0  -2  264.11   10.61 
  10   0  -2  263.65   10.45 
 -10   0   2  237.42   10.44 
  10   0  -2  247.71   10.74 
 -10   0   2  262.09   10.48 
 -10   0   2  239.57   10.49 
  10   0  -1    0.19    0.91 
  10   0  -1   -0.02    0.84 
 -10   0   1    0.81    0.93 
 -10   0   1    0.18    0.70 
  10   0  -1    0.18    0.61 
  10   0  -1    0.51    0.98 
  10   0  -1    0.80    0.71 
 -10   0   1    0.84    0.98 
  10   0  -1    0.70    0.79 
 -10   0   1    0.57    0.64 
 -10   0   1    0.74    0.77 
  10   0  -1    1.83    0.98 
  10   0   0  182.22    7.45 
 -10   0   0  172.14    7.56 
  10   0   0  172.97    7.79 
  10   0   0  183.69    7.75 
 -10   0   0  177.45    7.74 
 -10   0   0  174.80    7.65 
  10   0   0  188.01    7.45 
  10   0   0  177.08    7.71 
  10   0   0  175.82    7.72 
 -10   0   0  188.88    7.65 
  10   0   0  169.92    7.89 
  10   0   1    0.28    0.54 
  10   0   1   -0.88    0.96 
 -10   0  -1    0.93    0.76 
 -10   0  -1    2.37    1.20 
  10   0   1    0.22    0.52 
  10   0   1   -0.10    1.05 
  10   0   1    0.21    0.82 
  10   0   1    0.86    0.95 
 -10   0  -1   -0.34    0.76 
 -10   0  -1    0.80    0.68 
 -10   0  -1   -1.27    1.17 
  10   0   1    1.25    1.11 
 -10   0  -2  130.02    5.69 
  10   0   2  129.93    5.33 
  10   0   2  127.13    5.97 
  10   0   2  125.47    5.90 
 -10   0  -2  121.63    5.96 
  10   0   2  130.12    5.76 
  10   0   2  125.36    5.83 
  10   0   2  125.64    5.94 
 -10   0  -2  128.27    5.67 
 -10   0  -2  130.25    5.97 
 -10   0  -2  121.74    5.59 
  10   0   2  136.49    5.31 
  10   0   3   -0.15    1.18 
 -10   0  -3   -0.06    0.75 
  10   0   3    0.24    1.14 
  10   0   3   -0.06    0.81 
  10   0   3    0.85    1.00 
  10   0   3    0.06    0.28 
 -10   0  -3    0.46    0.72 
  10   0   3    0.33    0.31 
 -10   0  -3   -0.46    0.94 
 -10   0  -3   -0.02    0.77 
 -10   0  -4  129.32    5.88 
 -10   0  -4  141.19    6.30 
  10   0   4  147.34    6.08 
 -10   0  -4  131.08    5.89 
  10   0   4  121.63    6.26 
  10   0   4  124.66    6.16 
  10   0   5    0.05    1.34 
 -10   0  -5    0.23    0.95 
 -10   0  -5    0.27    0.90 
  10   0   5   -0.15    1.40 
  10   0   5   -0.30    1.00 
  10   0   6  131.68    5.86 
 -10   0  -6  121.53    5.55 
  10   0   6  103.91    6.02 
 -10   0  -6  120.98    5.46 
 -10   0  -6  116.54    5.45 
  10   0   6  119.81    5.64 
  10   0   7    0.37    1.42 
  10   0   7    1.43    1.89 
 -10   0  -7    0.89    1.13 
 -10   0  -7    0.41    1.06 
 -10   0  -8  117.62    5.38 
  10   0   8  102.57    6.10 
 -10   0  -8  109.81    5.37 
  10   0   8  123.51    5.85 
 -10   1  10   82.00    4.58 
 -10   1  10   79.02    3.74 
  10   1 -10   89.30    4.78 
  10  -1 -10   92.05    4.81 
 -10  -1  10   80.30    3.51 
 -10  -1  10   71.60    4.41 
 -10  -1  10   82.44    3.62 
  10   1  -9   33.21    2.89 
 -10   1   9   28.90    2.73 
  10   1  -9   28.35    2.25 
 -10   1   9   27.99    1.91 
  10  -1  -9   33.32    2.50 
 -10  -1   9   34.27    2.31 
 -10  -1   9   27.71    1.80 
 -10  -1   9   28.59    2.57 
  10   1  -8   21.19    1.84 
 -10   1   8   17.60    1.68 
 -10   1   8   18.30    1.62 
  10   1  -8   18.94    1.89 
 -10   1   8   21.61    1.37 
 -10   1   8   22.44    2.51 
 -10  -1   8   17.20    1.58 
  10  -1  -8   18.36    1.79 
 -10  -1   8   17.50    2.06 
 -10  -1   8   19.61    1.72 
  10  -1  -8   20.70    1.82 
  10   1  -7   30.39    2.45 
 -10   1   7   27.32    1.95 
  10   1  -7   29.28    2.38 
  10   1  -7   28.42    2.84 
 -10   1   7   27.35    2.24 
 -10   1   7   34.76    2.59 
  10   1  -7   27.37    2.09 
 -10   1   7   27.30    1.74 
  10  -1  -7   29.61    3.31 
  10  -1  -7   30.55    2.42 
 -10  -1   7   25.10    2.11 
 -10  -1   7   29.24    1.61 
 -10  -1   7   27.45    2.59 
  10  -1  -7   36.07    2.71 
 -10  -1   7   26.91    1.99 
  10  -1  -7   30.06    1.99 
 -10   1   6   62.31    3.45 
  10   1  -6   69.49    3.67 
 -10   1   6   74.44    3.26 
 -10   1   6   79.54    3.86 
  10   1  -6   72.93    3.73 
  10   1  -6   70.76    3.54 
  10   1  -6   75.18    3.67 
  10   1  -6   69.15    3.98 
 -10   1   6   70.45    3.33 
  10  -1  -6   75.69    3.73 
  10  -1  -6   68.82    3.76 
 -10  -1   6   67.09    3.51 
 -10  -1   6   81.11    3.97 
 -10  -1   6   70.60    3.47 
  10  -1  -6   73.77    3.46 
 -10  -1   6   76.42    3.34 
 -10  -1   6   72.25    3.53 
  10  -1  -6   71.98    3.81 
  10   1  -5   29.23    2.45 
  10   1  -5   27.75    2.45 
  10   1  -5   26.54    2.12 
 -10   1   5   31.70    2.39 
 -10   1   5   26.38    2.06 
 -10   1   5   31.44    1.88 
 -10   1   5   30.50    1.76 
  10   1  -5   29.20    2.09 
 -10   1   5   27.48    1.99 
  10   1  -5   27.95    2.23 
  10  -1  -5   30.81    1.97 
  10  -1  -5   31.89    2.41 
 -10  -1   5   27.80    1.94 
  10  -1  -5   26.59    2.25 
 -10  -1   5   31.02    1.94 
 -10  -1   5   33.41    2.51 
 -10  -1   5   27.78    1.98 
 -10  -1   5   28.29    2.06 
 -10   1   4  224.05    9.54 
 -10   1   4  196.40    9.31 
  10   1  -4  219.10    9.44 
  10   1  -4  211.86    9.47 
  10   1  -4  218.91    9.41 
  10   1  -4  219.52    9.36 
 -10   1   4  211.80    9.32 
  10   1  -4  221.49    9.34 
  10   1  -4  233.38    9.39 
 -10   1   4  224.40    9.27 
 -10   1   4  222.51    9.19 
  10  -1  -4  223.36    9.43 
  10  -1  -4  231.74    9.57 
 -10  -1   4  237.12    9.26 
  10  -1  -4  223.82    9.29 
  10  -1  -4  228.66    9.47 
 -10  -1   4  224.51    9.32 
 -10  -1   4  223.30    9.31 
  10  -1  -4  222.84    9.34 
 -10  -1   4  219.73    9.25 
  10  -1  -4  200.98    9.45 
 -10   1   3  164.38    7.35 
  10   1  -3  181.39    7.16 
 -10   1   3  140.38    7.06 
  10   1  -3  167.02    7.33 
 -10   1   3  162.00    7.08 
  10   1  -3  155.43    7.25 
  10   1  -3  165.74    7.08 
 -10   1   3  148.15    7.12 
  10   1  -3  173.22    7.16 
  10   1  -3  165.01    7.16 
  10   1  -3  174.75    7.26 
 -10   1   3  169.03    7.03 
 -10  -1   3  169.59    7.10 
  10  -1  -3  177.22    7.28 
  10  -1  -3  157.80    7.34 
  10  -1  -3  162.49    7.26 
  10  -1  -3  168.31    7.09 
  10  -1  -3  169.77    7.13 
 -10  -1   3  161.03    7.16 
 -10  -1   3  189.06    7.43 
 -10  -1   3  154.66    7.01 
  10  -1  -3  159.08    7.22 
 -10   1   2   73.76    4.01 
  10   1  -2   75.02    3.74 
  10   1  -2   76.83    3.76 
  10   1  -2   71.94    3.87 
 -10   1   2   70.76    3.73 
 -10   1   2   83.56    3.69 
  10   1  -2   84.30    3.89 
  10   1  -2   81.80    3.70 
  10   1  -2   73.00    4.00 
  10   1  -2   76.92    3.60 
 -10   1   2   83.87    4.55 
 -10   1   2   75.48    3.65 
  10  -1  -2   77.84    3.85 
 -10  -1   2   70.66    3.64 
  10  -1  -2   78.32    3.74 
  10  -1  -2   73.41    3.98 
 -10  -1   2   79.26    3.60 
 -10  -1   2   71.33    3.83 
  10  -1  -2   77.83    3.86 
  10  -1  -2   76.66    3.61 
 -10  -1   2   85.90    4.03 
 -10  -1   2   75.84    3.58 
  10  -1  -2   78.56    3.99 
 -10   1   1    0.58    1.09 
 -10   1   1    0.52    0.88 
  10   1  -1    1.13    0.66 
  10   1  -1    0.16    1.00 
  10   1  -1    0.32    0.74 
  10   1  -1    0.71    0.90 
 -10   1   1    0.51    0.86 
 -10   1   1    0.24    0.71 
  10   1  -1    0.43    0.97 
  10   1  -1    0.08    0.92 
  10   1  -1    0.63    0.98 
 -10   1   1    0.71    0.87 
  10  -1  -1    0.78    1.06 
 -10  -1   1    1.00    0.72 
  10  -1  -1    0.08    0.90 
  10  -1  -1    0.93    0.97 
 -10  -1   1   -0.08    0.63 
  10  -1  -1    0.35    1.07 
  10  -1  -1   -0.38    0.66 
 -10  -1   1    2.15    1.07 
 -10  -1   1    0.45    1.05 
 -10  -1   1    1.30    0.83 
  10  -1  -1    0.31    0.87 
 -10   1   0    3.19    1.02 
  10   1   0    2.38    0.65 
  10   1   0    3.37    1.12 
  10   1   0    2.02    1.01 
  10   1   0    4.05    1.20 
  10   1   0    4.88    1.21 
 -10   1   0    1.78    0.79 
  10   1   0    3.31    1.03 
 -10   1   0    3.19    1.00 
  10   1   0    3.58    0.72 
 -10   1   0    4.95    0.85 
 -10   1   0    4.31    1.25 
  10  -1   0    2.86    1.03 
 -10  -1   0    1.81    0.79 
  10  -1   0    2.58    1.00 
  10  -1   0    3.39    1.04 
 -10  -1   0    5.14    1.31 
  10  -1   0    3.84    0.73 
  10  -1   0    2.05    1.05 
 -10  -1   0    4.74    0.79 
 -10  -1   0    2.17    0.75 
  10  -1   0    2.71    1.06 
 -10  -1   0    3.22    1.19 
 -10   1  -1   11.99    1.40 
 -10   1  -1   15.67    1.62 
  10   1   1   11.70    1.49 
 -10   1  -1   15.35    1.53 
  10   1   1   16.71    1.19 
  10   1   1   20.70    1.90 
  10   1   1   16.68    1.60 
  10   1   1   10.67    1.38 
 -10   1  -1   17.36    1.62 
  10   1   1   13.80    1.46 
  10   1   1   16.89    1.18 
 -10   1  -1   16.71    1.70 
  10  -1   1   15.82    1.25 
 -10  -1  -1   12.93    1.52 
  10  -1   1   18.28    1.56 
 -10  -1  -1   15.03    1.54 
 -10  -1  -1   14.56    1.61 
  10  -1   1   16.98    1.61 
 -10  -1  -1   14.28    1.43 
  10  -1   1   11.60    1.40 
  10  -1   1   16.03    1.68 
 -10  -1  -1   15.42    1.60 
  10   1   2  195.21    9.05 
 -10   1  -2  204.49    8.77 
 -10   1  -2  223.46    9.08 
 -10   1  -2  215.60    8.87 
  10   1   2  228.24    8.48 
  10   1   2  198.84    8.96 
  10   1   2  211.72    9.08 
  10   1   2  189.91    8.87 
 -10   1  -2  194.11    9.02 
  10   1   2  205.51    8.46 
 -10   1  -2  210.99    8.80 
  10  -1   2  215.78    8.88 
 -10  -1  -2  200.06    8.72 
 -10  -1  -2  206.15    8.81 
  10  -1   2  208.09    8.89 
  10  -1   2  203.09    9.07 
 -10  -1  -2  206.05    8.81 
 -10  -1  -2  221.64    9.14 
  10  -1   2  200.99    8.49 
  10  -1   2  200.62    9.05 
  10   1   3  185.51    8.43 
  10   1   3  181.96    7.76 
 -10   1  -3  203.41    8.57 
  10   1   3  183.51    8.51 
  10   1   3  203.89    8.40 
 -10   1  -3  183.59    8.19 
  10   1   3  181.98    8.53 
  10   1   3  200.54    7.77 
 -10   1  -3  204.81    8.31 
 -10   1  -3  197.47    8.24 
  10  -1   3  185.04    8.32 
 -10  -1  -3  184.33    8.21 
 -10  -1  -3  192.77    8.26 
 -10  -1  -3  191.91    8.26 
  10  -1   3  182.21    7.82 
  10  -1   3  192.23    8.54 
 -10  -1  -3  211.07    8.63 
  10  -1   3  205.38    8.33 
  10  -1   3  206.93    7.83 
  10  -1   3  169.31    8.49 
 -10   1  -4  142.28    6.23 
  10   1   4  141.07    6.64 
  10   1   4  141.24    6.38 
  10   1   4  139.45    6.51 
 -10   1  -4  148.56    6.64 
 -10   1  -4  134.33    6.52 
 -10   1  -4  146.68    6.19 
 -10  -1  -4  140.02    6.25 
 -10  -1  -4  133.66    6.50 
  10  -1   4  118.54    6.53 
 -10  -1  -4  148.81    6.70 
 -10  -1  -4  135.04    6.23 
  10  -1   4  142.17    6.56 
  10  -1   4  148.81    6.31 
  10   1   5   19.76    1.97 
  10   1   5   14.11    1.55 
 -10   1  -5   22.12    2.17 
 -10   1  -5   13.38    1.46 
  10   1   5   13.89    1.85 
 -10   1  -5   18.67    1.82 
 -10  -1  -5   14.76    1.35 
  10  -1   5   19.28    1.73 
  10  -1   5   13.83    1.93 
 -10  -1  -5   20.61    2.19 
 -10  -1  -5   18.48    1.88 
  10  -1   5   17.46    1.88 
 -10   1  -6    1.60    2.43 
 -10   1  -6    2.45    0.94 
  10   1   6    1.11    1.24 
  10   1   6    1.14    1.68 
 -10   1  -6    0.11    1.07 
 -10  -1  -6    1.21    1.07 
 -10  -1  -6    1.73    1.01 
 -10  -1  -6    0.22    1.26 
  10  -1   6    2.08    1.63 
  10  -1   6    0.45    1.35 
 -10   1  -7    2.00    1.04 
  10   1   7    2.89    1.61 
  10   1   7    1.19    1.95 
 -10   1  -7    0.62    1.07 
  10  -1   7    0.95    1.53 
 -10  -1  -7    0.51    1.23 
  10  -1   7    1.84    1.77 
 -10  -1  -7    0.60    1.00 
 -10   1  -8   47.93    2.94 
  10   1   8   47.22    3.58 
  10   1   8   37.18    4.18 
 -10   1  -8   44.61    3.09 
  10  -1   8   42.71    4.07 
  10  -1   8   43.26    3.56 
 -10  -1  -8   47.54    3.09 
 -10  -1  -8   43.49    2.97 
  10   2  -9   90.12    4.84 
  10   2  -9   91.40    4.21 
 -10   2   9   82.10    3.98 
 -10   2   9   85.96    4.54 
 -10  -2   9   77.72    3.82 
  10  -2  -9   96.93    4.80 
 -10  -2   9   84.81    4.36 
  10  -2  -9   90.09    4.07 
  10   2  -8   16.61    1.93 
 -10   2   8   17.19    1.67 
  10   2  -8   17.67    1.49 
 -10   2   8   14.20    1.64 
 -10  -2   8   18.93    1.91 
  10  -2  -8   15.71    1.82 
 -10  -2   8   15.27    1.65 
 -10  -2   8   15.78    1.47 
 -10   2   7  152.68    6.87 
  10   2  -7  143.48    6.44 
  10   2  -7  156.21    6.78 
  10   2  -7  144.24    6.54 
  10   2  -7  159.69    6.62 
 -10   2   7  139.03    6.58 
 -10   2   7  140.35    6.39 
 -10  -2   7  148.14    6.10 
 -10  -2   7  137.85    6.36 
 -10  -2   7  153.92    6.59 
  10  -2  -7  160.39    6.76 
 -10  -2   7  140.57    6.35 
 -10   2   6   42.54    2.27 
  10   2  -6   44.96    2.79 
  10   2  -6   43.50    2.77 
 -10   2   6   39.72    3.06 
 -10   2   6   37.76    2.63 
  10   2  -6   44.77    2.88 
  10   2  -6   42.59    2.49 
 -10   2   6   38.16    2.43 
 -10   2   6   41.94    1.98 
  10   2  -6   44.48    3.18 
 -10  -2   6   42.39    2.40 
  10  -2  -6   44.24    2.83 
 -10  -2   6   42.55    2.30 
  10  -2  -6   42.85    2.22 
  10  -2  -6   37.38    2.73 
 -10  -2   6   46.26    2.88 
  10  -2  -6   40.88    2.84 
 -10  -2   6   42.32    2.35 
 -10   2   5   55.29    2.45 
  10   2  -5   50.47    3.00 
 -10   2   5   50.24    2.61 
 -10   2   5   47.86    2.85 
 -10   2   5   45.73    2.71 
 -10   2   5   50.06    3.35 
  10   2  -5   53.07    3.22 
  10   2  -5   44.51    2.76 
  10   2  -5   55.90    2.96 
  10   2  -5   52.23    3.05 
  10  -2  -5   54.02    2.95 
 -10  -2   5   51.85    2.64 
  10  -2  -5   49.08    2.95 
  10  -2  -5   51.22    2.60 
 -10  -2   5   53.18    3.14 
 -10  -2   5   48.93    2.59 
 -10  -2   5   49.57    2.67 
  10  -2  -5   48.61    2.99 
 -10  -2   5   53.90    3.03 
 -10   2   4   12.27    1.57 
  10   2  -4   16.47    1.40 
  10   2  -4   11.03    1.37 
 -10   2   4   13.53    1.34 
 -10   2   4   15.88    1.36 
  10   2  -4   15.52    1.50 
 -10   2   4   15.52    1.43 
 -10   2   4   15.82    1.55 
  10   2  -4   16.01    1.73 
  10   2  -4   16.10    1.47 
 -10  -2   4   16.97    1.65 
  10  -2  -4   14.68    1.29 
 -10  -2   4   17.13    1.53 
 -10  -2   4   14.87    1.89 
  10  -2  -4   16.85    1.45 
  10  -2  -4   15.22    1.64 
  10  -2  -4   15.16    1.51 
 -10  -2   4   15.31    1.54 
 -10  -2   4   15.47    1.43 
  10  -2  -4   16.73    1.86 
 -10   2   3  102.73    4.25 
  10   2  -3  101.65    4.54 
  10   2  -3   91.98    4.59 
  10   2  -3   99.74    4.55 
  10   2  -3  100.45    4.37 
  10   2  -3   94.48    4.45 
 -10   2   3   88.37    4.42 
  10   2  -3   95.81    4.63 
 -10   2   3   91.58    4.82 
  10   2  -3   90.99    4.53 
 -10   2   3   92.15    4.41 
 -10   2   3   98.24    4.38 
 -10  -2   3   94.06    4.61 
 -10  -2   3   89.55    4.22 
  10  -2  -3   96.92    4.62 
 -10  -2   3   91.64    4.33 
  10  -2  -3   87.82    4.64 
  10  -2  -3  100.91    4.40 
  10  -2  -3   93.60    4.57 
  10  -2  -3   94.74    4.37 
 -10  -2   3   94.17    4.74 
 -10   2   2    8.36    1.09 
  10   2  -2    9.99    1.13 
  10   2  -2    7.48    1.26 
  10   2  -2   11.03    1.18 
  10   2  -2    9.74    1.16 
 -10   2   2    4.94    0.98 
  10   2  -2   10.90    1.35 
  10   2  -2    8.88    1.40 
 -10   2   2    7.23    1.48 
 -10   2   2    6.42    1.02 
 -10   2   2    8.60    1.01 
 -10  -2   2    7.74    1.30 
  10  -2  -2    5.81    1.07 
 -10  -2   2    7.61    1.40 
  10  -2  -2    8.63    1.03 
  10  -2  -2    8.33    1.30 
  10  -2  -2    9.15    1.42 
  10  -2  -2    7.65    1.34 
 -10  -2   2    8.59    1.05 
 -10  -2   2    6.03    0.79 
 -10  -2   2    9.33    0.93 
  10   2  -1  325.35   14.21 
 -10   2   1  352.13   13.95 
  10   2  -1  343.42   13.93 
  10   2  -1  341.09   13.92 
  10   2  -1  333.95   14.10 
 -10   2   1  331.84   14.02 
 -10   2   1  340.00   14.00 
  10   2  -1  341.55   14.14 
 -10   2   1  298.82   14.02 
  10   2  -1  328.76   14.26 
  10   2  -1  356.92   13.89 
  10  -2  -1  358.99   14.15 
  10  -2  -1  358.37   13.93 
 -10  -2   1  329.78   13.96 
 -10  -2   1  376.23   14.33 
  10  -2  -1  313.01   14.21 
 -10  -2   1  337.65   14.02 
 -10  -2   1  347.28   13.85 
  10  -2  -1  344.28   14.14 
 -10  -2   1  321.58   14.11 
  10  -2  -1  318.39   14.05 
  10   2   0  125.74    5.83 
  10   2   0  123.22    5.94 
 -10   2   0  126.35    5.93 
 -10   2   0  127.24    5.51 
 -10   2   0  128.33    5.60 
  10   2   0  133.28    5.35 
 -10   2   0  120.38    5.64 
  10   2   0  123.65    5.54 
  10   2   0  126.08    5.38 
  10   2   0  112.60    5.69 
  10   2   0  127.89    5.77 
 -10   2   0  123.89    5.61 
  10  -2   0  114.16    5.67 
  10  -2   0  114.30    5.81 
 -10  -2   0  120.03    5.82 
  10  -2   0  124.49    5.37 
 -10  -2   0  125.44    5.38 
 -10  -2   0  126.36    5.55 
 -10  -2   0  132.01    5.93 
  10  -2   0  126.24    5.75 
 -10  -2   0  116.29    5.55 
  10  -2   0  130.51    5.69 
 -10   2  -1  216.16    8.78 
 -10   2  -1  213.78    8.93 
  10   2   1  203.30    9.05 
  10   2   1  197.03    9.13 
  10   2   1  216.23    8.57 
 -10   2  -1  205.89    8.97 
  10   2   1  213.41    8.55 
 -10   2  -1  216.24    9.11 
 -10   2  -1  217.56    8.85 
  10   2   1  196.01    8.79 
  10   2   1  200.08    8.96 
  10   2   1  205.14    8.96 
  10  -2   1  193.22    9.08 
 -10  -2  -1  200.33    8.83 
 -10  -2  -1  205.32    8.66 
  10  -2   1  210.41    8.93 
 -10  -2  -1  224.00    9.14 
 -10  -2  -1  202.52    8.84 
  10  -2   1  208.00    8.59 
  10  -2   1  180.42    8.91 
  10  -2   1  218.41    8.94 
  10   2   2    0.89    1.11 
 -10   2  -2    0.00    0.81 
  10   2   2    0.50    1.30 
  10   2   2    1.27    1.06 
 -10   2  -2   -0.07    1.40 
  10   2   2    2.18    1.29 
  10   2   2    0.82    1.15 
  10   2   2    2.06    0.55 
 -10   2  -2    0.21    0.99 
  10   2   2    0.85    0.54 
 -10   2  -2    0.73    1.39 
 -10   2  -2    0.58    0.83 
 -10  -2  -2    0.11    0.93 
  10  -2   2   -0.41    1.13 
  10  -2   2    1.82    1.12 
 -10  -2  -2    0.34    1.23 
  10  -2   2   -0.16    0.57 
 -10  -2  -2   -0.04    0.94 
  10  -2   2    0.67    1.21 
 -10  -2  -2    0.65    0.74 
  10  -2   2    0.07    1.04 
 -10   2  -3    1.48    0.99 
  10   2   3    0.95    0.39 
 -10   2  -3    0.57    1.08 
  10   2   3    0.87    1.35 
 -10   2  -3    0.66    0.97 
  10   2   3    0.07    1.28 
 -10   2  -3    1.38    1.31 
  10   2   3    1.55    1.19 
  10   2   3    2.30    1.44 
  10  -2   3   -0.70    1.06 
  10  -2   3    0.34    1.31 
  10  -2   3    0.91    1.27 
  10  -2   3    1.67    0.89 
 -10  -2  -3    1.07    0.80 
 -10  -2  -3    1.75    1.03 
 -10  -2  -3    0.17    1.10 
 -10  -2  -3   -0.11    1.47 
  10  -2   3    0.31    0.50 
 -10   2  -4    2.77    1.23 
  10   2   4    3.17    1.41 
  10   2   4    2.42    1.30 
 -10   2  -4    2.36    0.93 
  10   2   4    1.89    1.38 
 -10   2  -4    2.00    0.91 
  10  -2   4    4.36    1.46 
 -10  -2  -4    3.22    1.18 
  10  -2   4    2.38    1.11 
 -10  -2  -4    3.10    1.40 
 -10  -2  -4    2.24    1.00 
 -10  -2  -4    2.88    1.02 
  10   2   5  123.58    5.99 
  10   2   5  131.85    6.35 
  10   2   5  120.05    6.32 
 -10   2  -5  133.13    6.02 
 -10   2  -5  130.62    5.85 
 -10   2  -5  146.97    5.86 
 -10  -2  -5  123.29    5.89 
  10  -2   5  135.07    5.88 
 -10  -2  -5  124.93    5.68 
  10  -2   5  105.21    6.12 
  10  -2   5  133.18    6.23 
  10   2   6   53.71    3.71 
 -10   2  -6   49.47    3.14 
  10   2   6   46.96    3.85 
 -10   2  -6   50.91    2.93 
  10  -2   6   43.51    3.40 
 -10  -2  -6   49.29    2.76 
 -10  -2  -6   48.57    3.13 
  10  -2   6   42.71    3.64 
 -10   2  -7  175.84    7.30 
 -10   2  -7  162.01    7.45 
  10   2   7  174.71    7.77 
  10   2   7  141.47    7.86 
 -10  -2  -7  166.06    7.21 
  10  -2   7  161.53    7.70 
 -10  -2  -7  171.21    7.47 
  10  -2   7  159.08    7.88 
  10   2   8    1.13    1.66 
  10   2   8    4.47    2.22 
 -10   2  -8    3.99    1.53 
 -10   2  -8    3.41    1.28 
  10  -2   8    1.65    2.13 
 -10  -2  -8    1.19    1.56 
 -10  -2  -8    1.46    1.30 
  10  -2   8    2.82    1.75 
 -10   3   9   34.34    3.00 
  10   3  -9   35.03    3.51 
 -10   3   9   29.50    2.18 
  10   3  -9   28.16    2.46 
  10  -3  -9   31.20    2.23 
 -10  -3   9   27.87    1.87 
 -10  -3   9   29.77    1.91 
  10  -3  -9   36.86    3.43 
 -10   3   8   -0.59    1.35 
  10   3  -8    1.51    1.11 
  10   3  -8   -0.21    1.58 
 -10   3   8    0.83    0.95 
  10  -3  -8    1.82    1.60 
 -10  -3   8    1.00    0.91 
  10  -3  -8    0.85    0.92 
 -10  -3   8    1.17    0.98 
 -10  -3   8    2.32    1.06 
  10   3  -7   -0.10    1.55 
 -10   3   7    1.19    0.88 
 -10   3   7   -0.06    1.25 
  10   3  -7    1.00    1.02 
  10  -3  -7   -0.22    0.91 
 -10  -3   7   -0.86    0.99 
  10  -3  -7    0.62    1.43 
 -10  -3   7    0.03    0.84 
 -10  -3   7    1.25    0.87 
  10   3  -6    1.27    1.32 
  10   3  -6    0.69    0.94 
  10   3  -6    1.05    1.20 
 -10   3   6    0.95    1.17 
  10   3  -6    1.37    1.16 
 -10   3   6    1.40    0.90 
 -10   3   6    1.78    0.87 
  10  -3  -6   -1.97    1.23 
 -10  -3   6    1.49    1.10 
 -10  -3   6    0.65    0.91 
 -10  -3   6    1.09    0.82 
 -10  -3   6    1.06    0.75 
  10  -3  -6    1.88    1.18 
  10   3  -5  216.14   10.90 
  10   3  -5  265.27   11.05 
 -10   3   5  258.14   11.15 
  10   3  -5  240.83   11.21 
 -10   3   5  236.73   10.85 
 -10   3   5  268.13   10.80 
  10   3  -5  274.34   10.79 
 -10   3   5  276.09   10.52 
  10   3  -5  261.13   11.12 
 -10   3   5  249.04   10.95 
 -10  -3   5  253.10   10.66 
  10  -3  -5  277.91   11.06 
 -10  -3   5  282.09   10.77 
  10  -3  -5  260.68   10.92 
  10  -3  -5  261.34   11.01 
  10  -3  -5  256.22   10.55 
 -10  -3   5  273.18   11.02 
 -10  -3   5  259.70   10.82 
 -10   3   4   14.94    1.26 
  10   3  -4   16.40    1.70 
 -10   3   4   15.06    1.43 
  10   3  -4   12.15    1.48 
  10   3  -4   16.31    1.68 
 -10   3   4   10.62    1.17 
 -10   3   4   13.20    1.63 
  10   3  -4   12.56    1.57 
  10  -3  -4   14.92    1.52 
  10  -3  -4   13.96    1.28 
 -10  -3   4   11.44    1.13 
  10  -3  -4    9.93    1.23 
 -10  -3   4   15.65    1.47 
 -10  -3   4   13.48    1.34 
  10  -3  -4   11.43    1.40 
 -10  -3   4   14.29    1.48 
  10   3  -3  119.51    5.67 
  10   3  -3  119.14    5.42 
 -10   3   3  131.59    5.12 
  10   3  -3  127.76    5.16 
 -10   3   3  124.23    5.69 
  10   3  -3  102.99    5.44 
 -10   3   3  111.64    5.32 
 -10   3   3  126.56    5.82 
 -10   3   3   94.68    5.53 
 -10  -3   3  123.79    5.60 
 -10  -3   3  120.97    5.10 
  10  -3  -3  112.43    5.47 
  10  -3  -3  116.61    5.36 
  10  -3  -3  118.05    5.44 
 -10  -3   3  115.02    5.30 
 -10  -3   3  121.06    5.20 
  10  -3  -3  112.65    5.15 
  10  -3  -3  122.52    5.40 
  10   3  -2   10.76    1.60 
 -10   3   2   11.47    1.46 
  10   3  -2   15.35    1.35 
 -10   3   2   10.95    1.31 
  10   3  -2    7.90    1.28 
 -10   3   2    7.52    1.16 
 -10   3   2   11.12    1.09 
 -10   3   2   10.58    1.54 
 -10   3   2   10.36    1.22 
  10   3  -2    9.68    1.40 
  10   3  -2   11.42    1.14 
 -10  -3   2   12.65    1.32 
  10  -3  -2   11.23    1.19 
 -10  -3   2    8.31    1.04 
 -10  -3   2   11.84    0.99 
  10  -3  -2    9.22    1.34 
  10  -3  -2    9.26    1.17 
 -10  -3   2   10.89    1.40 
  10  -3  -2   12.06    1.43 
  10  -3  -2   13.82    1.26 
 -10   3   1   24.84    2.10 
  10   3  -1   24.60    1.87 
  10   3  -1   23.35    2.30 
  10   3  -1   24.54    1.83 
 -10   3   1   25.72    2.05 
 -10   3   1   22.76    1.89 
 -10   3   1   21.11    1.90 
 -10   3   1   21.97    2.00 
  10   3  -1   22.93    2.51 
 -10   3   1   23.95    2.22 
  10   3  -1   22.46    2.55 
  10   3  -1   23.30    2.35 
 -10  -3   1   19.98    2.01 
  10  -3  -1   24.46    2.12 
  10  -3  -1   24.22    2.31 
 -10  -3   1   24.53    2.37 
  10  -3  -1   20.49    1.81 
  10  -3  -1   18.63    1.91 
 -10  -3   1   24.27    1.54 
 -10  -3   1   20.92    1.85 
  10  -3  -1   21.70    1.98 
  10   3   0    3.68    1.37 
 -10   3   0    4.07    1.01 
  10   3   0    6.79    0.93 
 -10   3   0    4.93    1.22 
 -10   3   0    5.59    1.19 
  10   3   0    3.59    1.19 
 -10   3   0    3.98    1.09 
  10   3   0    5.62    1.48 
 -10   3   0    3.93    0.93 
 -10   3   0    4.98    1.46 
  10   3   0    7.54    1.45 
  10   3   0    4.07    0.98 
 -10  -3   0    5.48    1.20 
  10  -3   0    5.16    1.09 
 -10  -3   0    4.31    1.35 
  10  -3   0    3.87    1.14 
  10  -3   0    5.78    0.93 
  10  -3   0    4.09    1.49 
 -10  -3   0    3.78    0.92 
 -10  -3   0    5.73    0.82 
  10  -3   0    3.31    1.01 
 -10   3  -1  178.80    7.59 
  10   3   1  169.51    7.73 
  10   3   1  167.41    7.16 
 -10   3  -1  173.10    7.49 
 -10   3  -1  160.54    7.49 
  10   3   1  182.03    7.64 
 -10   3  -1  169.01    7.59 
  10   3   1  158.93    7.32 
 -10   3  -1  175.18    7.89 
  10   3   1  147.06    8.28 
  10   3   1  170.84    7.59 
 -10   3  -1  169.04    7.23 
 -10  -3  -1  182.01    7.76 
  10  -3   1  156.40    7.67 
 -10  -3  -1  183.09    7.47 
  10  -3   1  173.24    7.66 
 -10  -3  -1  183.19    7.24 
  10  -3   1  192.53    7.64 
  10  -3   1  159.34    7.49 
  10  -3   1  163.01    7.21 
 -10  -3  -1  171.75    7.43 
  10   3   2   10.80    1.61 
 -10   3  -2    7.67    0.99 
  10   3   2    9.93    1.32 
  10   3   2    9.87    0.89 
  10   3   2    6.90    0.99 
  10   3   2    8.81    1.47 
 -10   3  -2    9.76    1.21 
 -10   3  -2    8.09    1.32 
  10   3   2    6.40    1.30 
 -10   3  -2    7.49    1.76 
 -10   3  -2    8.47    1.16 
  10   3   2    7.45    1.59 
  10  -3   2    8.31    0.88 
 -10  -3  -2    8.90    1.06 
 -10  -3  -2    9.17    1.68 
 -10  -3  -2   10.58    1.31 
  10  -3   2    6.87    1.37 
 -10  -3  -2    5.81    0.98 
  10  -3   2   10.30    1.55 
  10  -3   2    6.18    1.17 
  10  -3   2    6.10    1.94 
  10   3   3  168.24    7.83 
  10   3   3  164.76    7.05 
 -10   3  -3  163.61    7.19 
  10   3   3  183.94    7.71 
 -10   3  -3  152.01    7.57 
  10   3   3  187.54    7.87 
 -10   3  -3  176.99    7.57 
  10   3   3  164.16    7.65 
 -10   3  -3  177.22    7.47 
  10   3   3  184.83    7.09 
 -10   3  -3  179.75    8.25 
 -10  -3  -3  175.83    7.51 
 -10  -3  -3  192.09    7.89 
  10  -3   3  162.01    7.13 
 -10  -3  -3  167.04    7.50 
  10  -3   3  144.01    7.71 
  10  -3   3  184.86    7.61 
 -10  -3  -3  168.78    7.35 
  10   3   4    1.68    1.36 
 -10   3  -4    1.69    1.33 
  10   3   4    3.13    1.47 
 -10   3  -4    1.59    1.13 
  10   3   4    2.49    1.45 
 -10   3  -4    1.29    1.08 
 -10  -3  -4    2.69    1.37 
  10  -3   4    3.24    1.35 
  10  -3   4    2.04    1.06 
  10  -3   4    5.40    1.57 
 -10  -3  -4    3.20    1.08 
 -10  -3  -4    1.82    1.92 
 -10  -3  -4    3.79    1.15 
  10  -3   4    2.17    0.61 
  10   3   5   95.68    5.43 
 -10   3  -5   93.72    5.21 
 -10   3  -5  106.10    4.97 
 -10   3  -5  101.31    4.86 
  10   3   5  106.48    5.50 
 -10  -3  -5  108.05    4.92 
  10  -3   5   89.52    5.20 
  10  -3   5  107.41    5.40 
 -10  -3  -5   97.04    4.98 
  10  -3   5  111.47    4.30 
 -10  -3  -5  106.41    4.70 
  10   3   6    2.20    1.83 
 -10   3  -6    2.15    1.20 
  10   3   6    3.58    1.77 
 -10   3  -6    4.77    1.32 
  10  -3   6    2.07    1.51 
 -10  -3  -6    1.94    1.23 
 -10  -3  -6    2.22    1.00 
  10  -3   6    2.90    1.68 
 -10   3  -7   27.35    2.60 
 -10   3  -7   27.68    2.70 
  10   3   7   25.78    2.69 
  10   3   7   26.27    2.80 
  10  -3   7   22.03    2.22 
 -10  -3  -7   22.41    1.96 
  10  -3   7   25.67    2.57 
 -10  -3  -7   24.00    2.26 
  10   3   8   19.29    2.61 
 -10   3  -8   11.72    1.75 
 -10   3  -8   16.64    2.03 
  10   3   8   15.21    2.57 
 -10  -3  -8   15.32    1.93 
  10  -3   8   10.23    2.11 
  10  -3   8    9.14    2.12 
 -10  -3  -8   12.87    1.54 
 -10   4   8   44.09    3.41 
  10   4  -8   48.53    3.86 
 -10   4   8   44.97    2.83 
  10   4  -8   49.40    3.00 
  10  -4  -8   47.08    3.80 
  10  -4  -8   48.46    2.79 
 -10  -4   8   46.78    2.63 
 -10   4   7   63.80    3.82 
 -10   4   7   64.94    3.50 
  10   4  -7   67.48    3.56 
  10   4  -7   66.08    4.16 
  10  -4  -7   69.54    4.09 
 -10  -4   7   68.11    3.29 
  10  -4  -7   67.30    3.45 
 -10   4   6   97.12    4.76 
  10   4  -6  101.85    4.83 
 -10   4   6  101.56    5.00 
 -10  -4   6  107.37    4.40 
 -10  -4   6  105.79    4.80 
 -10  -4   6  101.35    4.66 
  10  -4  -6  103.36    5.21 
  10  -4  -6   99.97    4.74 
  10   4  -5   14.95    1.45 
  10   4  -5   11.84    1.62 
 -10   4   5   13.07    1.51 
 -10   4   5    6.93    2.09 
 -10   4   5    9.15    1.18 
  10  -4  -5   11.73    1.79 
 -10  -4   5   10.24    1.11 
  10  -4  -5   12.59    1.31 
  10  -4  -5   11.37    1.65 
 -10  -4   5   12.04    1.25 
 -10  -4   5   11.54    1.47 
 -10   4   4    5.47    0.70 
 -10   4   4    4.60    1.44 
  10   4  -4    5.89    1.67 
  10   4  -4    2.25    1.13 
 -10   4   4    3.27    0.90 
 -10   4   4    5.89    1.17 
  10   4  -4    4.91    1.09 
 -10   4   4    3.99    1.15 
  10  -4  -4    5.47    0.59 
 -10  -4   4    3.87    1.17 
 -10  -4   4    3.89    0.90 
  10  -4  -4    4.41    1.04 
  10  -4  -4    5.80    1.33 
 -10  -4   4    4.91    0.68 
  10  -4  -4    6.71    1.24 
 -10  -4   4    5.31    1.11 
  10   4  -3    7.73    1.77 
 -10   4   3    8.67    1.60 
 -10   4   3    4.65    1.17 
  10   4  -3    8.09    1.00 
 -10   4   3    8.24    1.24 
  10   4  -3    7.58    1.28 
  10   4  -3    8.34    1.46 
 -10   4   3   11.13    0.95 
 -10   4   3    6.95    1.11 
 -10  -4   3    7.60    0.80 
  10  -4  -3    7.28    1.41 
 -10  -4   3    7.35    1.17 
  10  -4  -3    8.37    1.36 
 -10  -4   3    7.32    1.42 
  10  -4  -3    7.33    1.26 
  10  -4  -3    6.21    1.22 
 -10  -4   3    8.18    1.14 
  10  -4  -3    8.71    0.85 
 -10   4   2   53.03    2.60 
 -10   4   2   47.26    2.85 
  10   4  -2   45.77    2.94 
  10   4  -2   45.79    3.22 
 -10   4   2   51.10    3.23 
 -10   4   2   48.77    2.80 
  10   4  -2   47.18    3.12 
 -10   4   2   41.38    2.82 
  10   4  -2   45.02    2.50 
  10  -4  -2   44.07    2.97 
  10  -4  -2   47.27    2.48 
  10  -4  -2   47.18    2.91 
  10  -4  -2   45.96    2.80 
  10  -4  -2   48.48    2.93 
 -10  -4   2   43.12    2.69 
 -10  -4   2   54.90    3.22 
 -10  -4   2   50.67    2.81 
 -10  -4   2   46.43    2.34 
 -10   4   1  179.66    7.39 
 -10   4   1  171.67    7.31 
 -10   4   1  166.79    7.41 
 -10   4   1  159.65    7.40 
  10   4  -1  171.68    7.50 
  10   4  -1  164.72    7.65 
  10   4  -1  164.98    7.29 
  10   4  -1  167.31    7.59 
 -10   4   1  164.47    7.61 
  10   4  -1  165.69    7.59 
  10   4  -1  158.98    7.08 
 -10  -4   1  169.97    7.37 
 -10  -4   1  176.27    7.62 
  10  -4  -1  178.12    7.42 
 -10  -4   1  177.16    7.05 
  10  -4  -1  166.47    7.31 
  10  -4  -1  164.12    7.20 
  10  -4  -1  171.06    7.44 
  10  -4  -1  166.35    7.53 
 -10  -4   1  162.30    7.28 
  10   4   0  161.63    7.41 
 -10   4   0  174.60    7.12 
  10   4   0  155.91    6.90 
 -10   4   0  156.65    7.12 
  10   4   0  149.82    6.80 
 -10   4   0  167.50    7.43 
  10   4   0  159.79    7.19 
 -10   4   0  168.48    7.09 
  10   4   0  159.32    7.20 
 -10   4   0  157.76    7.13 
 -10   4   0  153.55    6.92 
  10   4   0  157.70    7.25 
 -10  -4   0  172.72    7.62 
  10  -4   0  161.43    7.08 
  10  -4   0  145.41    6.89 
 -10  -4   0  164.06    6.98 
  10  -4   0  152.05    6.97 
  10  -4   0  155.33    7.21 
 -10  -4   0  169.30    6.75 
  10  -4   0  156.59    7.21 
 -10  -4   0  168.05    7.03 
  10   4   1   45.61    2.59 
  10   4   1   45.63    3.20 
 -10   4  -1   40.64    2.62 
  10   4   1   45.29    3.20 
 -10   4  -1   46.12    2.94 
 -10   4  -1   51.31    2.86 
 -10   4  -1   45.85    2.94 
 -10   4  -1   46.33    3.21 
 -10   4  -1   50.63    3.53 
  10   4   1   48.48    3.19 
  10   4   1   45.07    3.32 
 -10  -4  -1   46.89    3.35 
 -10  -4  -1   46.08    2.78 
  10  -4   1   49.80    2.95 
  10  -4   1   44.72    3.05 
 -10  -4  -1   47.40    2.41 
  10  -4   1   50.59    3.47 
  10  -4   1   44.76    2.79 
  10  -4   1   43.19    2.56 
 -10  -4  -1   44.55    2.67 
 -10   4  -2    5.81    1.35 
  10   4   2    6.43    1.58 
 -10   4  -2    6.23    1.20 
 -10   4  -2    9.54    1.98 
  10   4   2    4.15    1.31 
 -10   4  -2    5.49    1.03 
  10   4   2    7.93    1.71 
  10   4   2    4.58    1.37 
  10   4   2    6.29    0.95 
 -10   4  -2    4.40    1.21 
  10  -4   2    7.17    1.48 
 -10  -4  -2    7.19    1.79 
 -10  -4  -2    8.43    1.25 
 -10  -4  -2    3.95    1.02 
 -10  -4  -2    7.05    1.12 
  10  -4   2    4.60    1.25 
  10  -4   2    4.89    1.24 
  10  -4   2    7.45    0.97 
 -10   4  -3    1.46    1.32 
  10   4   3   -0.41    1.52 
  10   4   3    1.54    1.22 
 -10   4  -3   -0.17    1.22 
  10   4   3    0.51    1.45 
 -10   4  -3    1.01    1.19 
  10   4   3    0.60    0.73 
 -10   4  -3   -0.18    1.05 
  10  -4   3    0.57    1.29 
  10  -4   3    1.96    1.00 
 -10  -4  -3    0.06    0.84 
  10  -4   3    0.58    1.21 
 -10  -4  -3    1.49    1.07 
  10  -4   3   -0.61    1.24 
 -10  -4  -3   -0.31    1.05 
  10  -4   3   -0.54    0.75 
 -10  -4  -3   -1.33    1.81 
  10   4   4    2.33    0.70 
 -10   4  -4    2.26    1.25 
 -10   4  -4    2.06    1.53 
 -10   4  -4    1.93    1.19 
  10   4   4    2.20    1.81 
  10   4   4    1.30    1.79 
  10   4   4    1.11    1.61 
 -10  -4  -4    3.81    1.13 
  10  -4   4    2.67    1.26 
 -10  -4  -4    2.13    1.16 
  10  -4   4    2.37    0.80 
  10  -4   4    0.16    1.32 
 -10   4  -5   66.91    3.50 
 -10   4  -5   57.30    3.67 
  10   4   5   56.21    4.04 
  10   4   5   63.20    4.26 
  10  -4   5   65.98    2.95 
  10  -4   5   63.79    3.86 
 -10  -4  -5   64.13    3.91 
 -10  -4  -5   62.01    3.53 
  10  -4   5   59.11    3.89 
 -10  -4  -5   62.84    3.23 
  10   4   6   97.58    5.41 
 -10   4  -6   84.79    4.70 
 -10   4  -6   94.06    4.66 
  10   4   6   87.84    5.16 
 -10  -4  -6   93.17    4.35 
 -10  -4  -6   87.98    4.60 
  10  -4   6   86.51    5.01 
  10  -4   6   93.32    4.85 
  10   4   7   77.73    5.19 
  10   4   7   79.48    4.95 
 -10   4  -7   68.99    4.24 
 -10   4  -7   80.53    4.24 
 -10  -4  -7   73.34    4.15 
  10  -4   7   74.02    4.32 
 -10  -4  -7   70.01    3.86 
  10  -4   7   71.91    4.71 
 -10   5   7    2.62    1.18 
 -10   5   7    0.77    1.47 
  10   5  -7    3.84    1.41 
  10  -5  -7    4.86    1.98 
 -10  -5   7    1.98    1.00 
  10  -5  -7    1.84    1.21 
 -10   5   6   54.44    3.20 
 -10   5   6   51.77    3.49 
  10   5  -6   54.41    3.24 
  10  -5  -6   59.17    3.73 
  10  -5  -6   51.47    3.05 
 -10  -5   6   50.96    2.99 
 -10   5   5    1.86    1.17 
 -10   5   5    1.48    1.29 
  10   5  -5    2.44    1.18 
  10  -5  -5    0.58    1.04 
 -10  -5   5    1.55    1.08 
  10  -5  -5    3.56    1.51 
 -10   5   4  202.52    9.00 
 -10   5   4  215.92    9.00 
 -10   5   4  210.38    9.13 
  10   5  -4  210.62    9.09 
  10  -5  -4  208.02    9.17 
  10  -5  -4  206.09    9.07 
 -10  -5   4  203.71    8.94 
  10  -5  -4  221.22    8.99 
 -10   5   3   22.45    2.11 
 -10   5   3   22.17    2.21 
  10   5  -3   22.85    2.34 
  10   5  -3   24.04    2.30 
 -10   5   3   22.35    2.20 
 -10   5   3   22.88    2.35 
 -10  -5   3   20.90    2.01 
  10  -5  -3   23.38    2.24 
 -10  -5   3   26.04    2.54 
  10  -5  -3   25.57    2.17 
  10  -5  -3   22.45    1.93 
  10  -5  -3   24.39    2.12 
 -10  -5   3   21.08    2.04 
 -10   5   2  107.24    5.21 
 -10   5   2  121.11    5.05 
  10   5  -2  102.25    5.87 
  10   5  -2  110.91    5.36 
  10   5  -2  110.69    5.52 
 -10   5   2  120.87    5.23 
 -10   5   2  109.14    5.32 
 -10   5   2  116.56    5.62 
 -10  -5   2  121.12    5.48 
  10  -5  -2  104.96    5.43 
 -10  -5   2  112.63    5.21 
  10  -5  -2  108.00    5.33 
  10  -5  -2  117.13    5.21 
  10  -5  -2  103.78    5.24 
  10  -5  -2  104.10    5.23 
 -10  -5   2  111.67    4.71 
 -10  -5   2  112.25    5.09 
 -10   5   1    2.11    1.36 
  10   5  -1    0.87    1.17 
 -10   5   1    1.65    1.08 
  10   5  -1   -0.74    1.57 
 -10   5   1   -1.43    1.58 
 -10   5   1   -0.01    1.06 
  10   5  -1    0.48    1.40 
 -10   5   1    0.07    0.93 
 -10  -5   1    1.72    1.48 
  10  -5  -1    1.58    1.37 
 -10  -5   1   -0.89    1.18 
  10  -5  -1    1.49    0.81 
  10  -5  -1   -1.04    1.09 
  10  -5  -1    2.60    1.29 
 -10  -5   1    1.13    0.65 
 -10  -5   1    0.84    0.86 
  10  -5  -1    2.59    1.41 
  10  -5  -1    1.45    1.06 
 -10   5   0   14.32    1.55 
 -10   5   0    9.71    1.39 
  10   5   0    9.24    1.90 
 -10   5   0   14.04    2.09 
 -10   5   0   14.49    1.57 
 -10   5   0   12.50    1.76 
  10   5   0   12.83    1.84 
  10   5   0   14.13    1.70 
  10  -5   0   10.40    1.36 
  10  -5   0   11.32    1.25 
  10  -5   0   11.34    1.45 
  10  -5   0   13.45    1.66 
  10  -5   0    9.44    1.64 
 -10  -5   0   10.55    1.71 
 -10  -5   0   11.66    1.38 
 -10  -5   0   13.30    1.23 
  10  -5   0    9.98    1.43 
 -10  -5   0   11.94    1.40 
  10   5   1    1.77    1.20 
  10   5   1    0.06    1.55 
 -10   5  -1    1.02    1.27 
  10   5   1    3.41    1.74 
  10   5   1    2.19    1.27 
 -10   5  -1    0.38    1.10 
  10   5   1    1.52    1.24 
 -10   5  -1    2.47    1.90 
 -10   5  -1    0.36    1.25 
 -10  -5  -1   -0.36    1.01 
  10  -5   1   -0.13    0.99 
  10  -5   1    0.49    1.16 
 -10  -5  -1    0.62    1.04 
 -10  -5  -1    1.34    1.69 
  10  -5   1    0.62    1.22 
  10  -5   1   -0.29    1.13 
  10  -5   1    1.64    1.06 
 -10  -5  -1   -0.08    0.70 
  10   5   2  153.53    7.29 
  10   5   2  162.13    7.41 
  10   5   2  143.06    7.34 
 -10   5  -2  163.56    7.23 
  10   5   2  170.11    7.68 
  10   5   2  153.37    6.88 
 -10   5  -2  161.56    7.19 
 -10   5  -2  174.63    7.18 
 -10  -5  -2  158.81    7.01 
 -10  -5  -2  169.15    7.55 
 -10  -5  -2  169.03    6.86 
  10  -5   2  154.38    7.11 
  10  -5   2  154.67    7.31 
  10  -5   2  165.72    7.08 
 -10  -5  -2  153.59    7.03 
  10  -5   2  152.39    6.91 
 -10   5  -3   29.05    2.32 
 -10   5  -3   32.17    2.78 
 -10   5  -3   33.08    2.48 
 -10   5  -3   31.86    2.93 
  10   5   3   26.16    2.77 
  10   5   3   31.09    3.35 
  10  -5   3   28.40    2.16 
 -10  -5  -3   28.04    2.38 
 -10  -5  -3   29.72    2.15 
 -10  -5  -3   31.08    2.40 
  10  -5   3   30.63    2.69 
  10  -5   3   28.39    2.83 
 -10  -5  -3   26.77    2.48 
 -10   5  -4  158.41    7.17 
 -10   5  -4  159.91    7.07 
  10   5   4  171.44    7.65 
  10   5   4  163.02    7.37 
  10  -5   4  149.25    6.69 
  10  -5   4  141.17    7.16 
 -10  -5  -4  158.15    6.78 
  10  -5   4  153.41    7.22 
 -10  -5  -4  157.82    6.95 
 -10  -5  -4  155.75    7.00 
  10   5   5   -1.10    1.91 
 -10   5  -5   -0.43    1.44 
  10   5   5    1.36    1.50 
 -10   5  -5    0.38    1.36 
 -10  -5  -5    0.64    1.01 
  10  -5   5    1.30    1.53 
  10  -5   5    1.54    1.68 
  10  -5   5   -0.66    0.98 
 -10  -5  -5    0.93    1.23 
  10   5   6    5.28    2.23 
 -10   5  -6    4.04    1.59 
 -10   5  -6    1.31    1.65 
  10   5   6    1.45    2.06 
  10  -5   6    2.76    1.49 
 -10  -5  -6    2.08    1.20 
 -10  -5  -6    4.46    1.47 
  10  -5   6    2.61    1.79 
  10   6  -6   50.04    3.42 
 -10   6   6   48.60    3.63 
 -10   6   6   49.15    3.30 
 -10  -6   6   46.91    3.12 
  10  -6  -6   45.25    4.00 
  10  -6  -6   55.72    3.14 
 -10   6   5    3.27    1.42 
 -10   6   5    3.81    1.64 
  10   6  -5    4.31    1.47 
  10  -6  -5    3.85    1.25 
 -10  -6   5    4.53    1.25 
  10  -6  -5    3.21    1.81 
 -10   6   4    4.46    1.46 
  10   6  -4    8.74    1.62 
 -10   6   4    2.35    1.49 
 -10  -6   4    6.27    1.16 
  10  -6  -4    5.54    1.66 
  10  -6  -4    7.30    1.45 
 -10   6   3    5.10    1.47 
  10   6  -3    4.25    1.41 
 -10   6   3    6.22    1.52 
 -10  -6   3    4.38    1.06 
  10  -6  -3    5.38    1.27 
  10  -6  -3    2.94    1.50 
  10  -6  -3    4.04    1.20 
 -10   6   2  120.21    5.48 
 -10   6   2  121.30    5.68 
 -10   6   2  108.38    5.51 
  10   6  -2  112.23    5.71 
  10  -6  -2  120.20    5.58 
  10  -6  -2  119.77    5.46 
 -10  -6   2  114.84    5.38 
  10  -6  -2  117.74    5.59 
  10   6  -1   40.86    3.58 
 -10   6   1   31.75    2.88 
 -10   6   1   33.80    2.66 
  10   6  -1   33.83    3.11 
 -10   6   1   33.23    2.82 
 -10  -6   1   38.08    2.49 
  10  -6  -1   33.77    2.74 
  10  -6  -1   34.31    2.60 
 -10  -6   1   34.56    2.12 
  10  -6  -1   28.23    2.74 
 -10   6   0  124.07    5.65 
 -10   6   0  113.39    5.70 
  10   6   0  115.76    6.15 
  10   6   0  121.76    5.95 
 -10   6   0  120.59    5.69 
  10  -6   0  118.32    6.02 
 -10  -6   0  127.32    5.09 
 -10  -6   0  115.63    5.22 
 -10  -6   0  121.62    5.52 
  10  -6   0  100.36    5.57 
  10  -6   0  123.23    5.60 
 -10  -6   0  139.54    6.44 
 -10   6  -1   24.74    2.66 
  10   6   1   30.32    2.77 
  10   6   1   29.67    2.93 
 -10   6  -1   23.86    2.25 
 -10   6  -1   28.98    2.71 
  10  -6   1   22.18    1.90 
 -10  -6  -1   28.20    1.76 
 -10  -6  -1   28.13    2.42 
  10  -6   1   28.37    2.73 
 -10  -6  -1   24.82    2.00 
 -10  -6  -1   23.66    2.35 
 -10   6  -2   35.78    2.97 
 -10   6  -2   38.63    2.97 
  10   6   2   32.59    3.12 
  10   6   2   37.72    3.81 
 -10  -6  -2   34.53    2.64 
 -10  -6  -2   33.53    2.17 
 -10  -6  -2   30.03    2.61 
  10  -6   2   34.01    2.93 
  10  -6   2   31.03    2.64 
 -10  -6  -2   34.66    1.97 
 -10   6  -3   -0.12    1.41 
 -10   6  -3   -0.09    1.40 
  10   6   3    0.31    1.62 
  10   6   3    2.33    2.06 
 -10  -6  -3   -0.62    0.70 
  10  -6   3    0.82    1.37 
 -10  -6  -3   -0.11    1.01 
  10  -6   3   -1.82    1.15 
 -10  -6  -3    0.56    1.33 
 -10  -6  -3    0.38    1.21 
  10   6   4   38.09    3.51 
 -10   6  -4   40.22    3.31 
  10   6   4   42.46    4.18 
 -10   6  -4   43.48    3.14 
  10  -6   4   36.22    3.24 
 -10  -6  -4   40.21    3.01 
  10  -6   4   37.38    2.73 
 -10  -6  -4   36.18    2.55 
 -10   6  -5   41.96    3.29 
  10   6   5   41.32    3.79 
  10   6   5   45.87    4.40 
 -10   6  -5   39.59    3.46 
 -10  -6  -5   39.29    3.20 
  10  -6   5   35.62    3.32 
 -10  -6  -5   41.40    2.71 
 -10   7   4   28.91    2.96 
 -10   7   4   35.62    3.28 
  10   7  -4   29.17    2.49 
  10  -7  -4   35.91    2.80 
  10  -7  -4   34.11    2.75 
 -10  -7   4   31.19    2.67 
 -10   7   3  105.58    5.64 
 -10   7   3  110.67    5.59 
  10   7  -3  119.03    5.79 
  10  -7  -3  118.91    5.41 
  10  -7  -3  111.45    5.83 
 -10  -7   3  110.46    5.36 
 -10   7   2    6.54    1.62 
 -10   7   2    8.23    1.85 
  10   7  -2    8.33    1.93 
 -10  -7   2   10.37    1.28 
 -10  -7   2    8.34    1.43 
  10  -7  -2   10.61    1.97 
  10  -7  -2    9.14    1.65 
  10  -7  -2    8.91    1.76 
 -10   7   1    0.97    1.33 
  10   7  -1    3.42    1.85 
 -10   7   1    0.00    1.53 
 -10   7   1    1.47    1.52 
 -10   7   1    0.19    1.59 
 -10  -7   1    1.70    1.29 
 -10  -7   1    0.93    1.04 
  10  -7  -1    1.99    1.52 
  10  -7  -1    2.70    1.59 
 -10   7   0    2.09    1.44 
 -10   7   0    4.23    1.65 
  10   7   0    6.45    2.17 
  10  -7   0    5.40    1.59 
  10  -7   0    3.15    1.57 
 -10  -7   0    3.07    1.02 
 -10  -7   0    3.52    1.38 
 -10   7  -1   31.28    3.14 
 -10   7  -1   36.73    3.02 
  10   7   1   34.41    3.16 
  10  -7   1   33.27    3.01 
  10  -7   1   28.02    2.36 
 -10  -7  -1   33.80    2.15 
 -10  -7  -1   33.55    2.72 
 -10   7  -2   23.98    2.18 
 -10   7  -2   30.10    3.12 
  10   7   2   25.58    2.96 
  10  -7   2   22.93    2.23 
 -10  -7  -2   26.15    2.64 
  10  -7   2   24.53    2.20 
 -10  -7  -2   24.35    1.89 
  10   7   3  160.66    7.97 
 -10   7  -3  151.92    7.08 
 -10   7  -3  159.46    7.16 
  10   7   3  132.78    7.72 
  10  -7   3  147.49    7.07 
  10  -7   3  150.52    6.90 
 -11   0   9    2.54    1.55 
  11   0  -9   -0.57    1.48 
 -11   0   9   -1.00    0.90 
  11   0  -8  103.62    5.03 
  11   0  -8  108.80    4.89 
 -11   0   8   89.77    4.57 
 -11   0   8  102.02    4.94 
 -11   0   7    0.58    1.15 
  11   0  -7    1.20    1.24 
 -11   0   7    0.93    1.36 
  11   0  -7    1.25    1.16 
 -11   0   7    0.40    0.97 
 -11   0   6  241.54   11.37 
 -11   0   6  281.85   11.29 
 -11   0   6  258.66   11.65 
 -11   0   6  277.69   11.29 
  11   0  -6  276.76   11.46 
  11   0  -6  229.54   11.75 
 -11   0   6  315.01   11.69 
  11   0  -6  285.58   11.51 
  11   0  -6  282.45   11.49 
  11   0  -5   -0.23    0.91 
  11   0  -5   -0.56    1.37 
 -11   0   5   -0.47    0.94 
 -11   0   5   -0.09    1.13 
 -11   0   5    0.36    0.94 
 -11   0   5    0.56    0.90 
 -11   0   5   -0.97    0.98 
  11   0  -5    1.78    1.09 
  11   0  -5    0.74    1.10 
 -11   0   4   35.47    2.22 
  11   0  -4   35.82    2.23 
  11   0  -4   34.52    2.37 
  11   0  -4   33.46    2.71 
  11   0  -4   34.30    2.51 
 -11   0   4   31.30    2.30 
 -11   0   4   31.31    2.31 
 -11   0   4   30.78    2.24 
 -11   0   4   37.74    2.71 
  11   0  -3    0.01    1.06 
 -11   0   3    0.15    0.83 
  11   0  -3    0.00    1.19 
 -11   0   3    0.92    1.03 
 -11   0   3   -0.31    0.85 
  11   0  -3    1.05    0.81 
  11   0  -3   -0.87    1.30 
  11   0  -3    0.58    1.09 
 -11   0   3    1.26    0.87 
  11   0  -3   -0.64    0.94 
  11   0  -3   -0.13    1.24 
 -11   0   3    0.89    1.24 
  11   0  -2   86.79    4.33 
 -11   0   2   88.51    4.30 
  11   0  -2   91.28    4.55 
  11   0  -2   82.77    4.29 
  11   0  -2   88.41    4.44 
  11   0  -2   90.55    4.41 
  11   0  -2  100.70    4.20 
 -11   0   2   85.67    4.22 
 -11   0   2   85.22    4.15 
 -11   0   2   94.46    4.58 
  11   0  -2   93.73    4.10 
  11   0  -1    1.35    1.04 
 -11   0   1    1.61    0.89 
 -11   0   1    1.09    1.08 
  11   0  -1   -0.78    0.93 
  11   0  -1   -0.99    0.84 
 -11   0   1   -1.19    1.05 
 -11   0   1    0.12    0.71 
  11   0  -1    0.70    0.67 
  11   0  -1   -0.45    0.94 
  11   0  -1   -0.88    0.74 
 -11   0   1   -0.04    0.87 
  11   0  -1   -0.79    1.14 
  11   0   0  386.76   15.16 
 -11   0   0  375.82   15.34 
 -11   0   0  363.72   15.44 
 -11   0   0  369.01   15.37 
  11   0   0  388.55   15.18 
  11   0   0  392.70   15.48 
 -11   0   0  390.33   15.63 
  11   0   0  358.53   15.40 
 -11   0   0  351.83   15.27 
  11   0   0  366.93   15.50 
  11   0   0  347.21   15.56 
  11   0   1    0.60    0.63 
  11   0   1    0.05    1.06 
 -11   0  -1   -0.43    0.93 
  11   0   1   -0.24    1.19 
 -11   0  -1    2.02    1.11 
  11   0   1    0.61    0.60 
 -11   0  -1   -0.23    0.73 
  11   0   1    1.40    1.10 
 -11   0  -1    2.19    0.88 
  11   0   1   -0.73    0.80 
  11   0   2   46.94    2.77 
 -11   0  -2   39.56    2.55 
  11   0   2   31.84    3.41 
  11   0   2   40.73    1.98 
 -11   0  -2   46.01    3.08 
  11   0   2   41.28    1.99 
  11   0   2   38.92    2.99 
 -11   0  -2   40.22    2.41 
  11   0   2   42.62    2.94 
 -11   0  -2   42.19    2.57 
 -11   0  -3    0.47    0.93 
  11   0   3    0.02    1.12 
  11   0   3    0.10    0.33 
 -11   0  -3   -0.51    1.38 
  11   0   3   -0.47    1.32 
  11   0   3    0.19    0.37 
 -11   0  -3    0.95    1.02 
  11   0   3   -0.60    1.28 
 -11   0  -3    0.05    0.85 
  11   0   4   -0.32    1.78 
 -11   0  -4    0.76    1.03 
 -11   0  -4    1.76    1.10 
 -11   0  -4    0.10    0.98 
  11   0   4   -1.03    1.09 
  11   0   4   -0.71    1.43 
  11   0   5    2.87    1.52 
  11   0   5    0.50    1.61 
 -11   0  -5   -1.04    1.06 
 -11   0  -5    0.39    1.15 
 -11   0  -5    1.37    1.11 
 -11   0  -6  201.37    9.08 
  11   0   6  225.29    9.42 
  11   0   6  202.38    9.60 
 -11   0  -6  210.05    9.04 
  11   0   7   -1.99    2.14 
 -11   0  -7    0.64    1.34 
 -11   0  -7    0.26    1.26 
  11   0   7   -0.34    1.56 
  11   0   8   44.57    4.61 
 -11   0  -8   60.19    3.50 
  11   0   8   56.25    3.90 
 -11   0  -8   46.26    3.44 
 -11   1   9   20.09    1.92 
  11   1  -9   24.08    2.25 
 -11   1   9   24.50    2.16 
 -11  -1   9   20.01    1.97 
  11  -1  -9   16.78    1.98 
 -11  -1   9   18.15    1.81 
 -11   1   8   38.81    2.46 
  11   1  -8   44.93    3.07 
  11   1  -8   36.27    3.82 
 -11   1   8   38.32    2.99 
 -11  -1   8   37.26    2.73 
 -11  -1   8   33.38    2.34 
  11  -1  -8   40.24    2.97 
  11   1  -7    8.75    1.41 
  11   1  -7    5.31    1.41 
 -11   1   7    7.21    1.40 
 -11   1   7    5.76    1.15 
 -11  -1   7    7.15    1.65 
  11  -1  -7   10.04    1.15 
  11  -1  -7   10.19    1.54 
 -11  -1   7    8.29    1.21 
 -11   1   6   10.44    1.27 
  11   1  -6   12.26    1.52 
  11   1  -6    9.56    1.42 
 -11   1   6   11.39    1.61 
 -11   1   6   13.84    1.20 
  11   1  -6    9.54    1.38 
 -11   1   6    8.60    1.19 
 -11   1   6   11.26    1.37 
  11  -1  -6    8.73    1.34 
 -11  -1   6   10.40    1.32 
 -11  -1   6   12.61    1.75 
 -11  -1   6   14.36    1.30 
  11  -1  -6   13.53    2.16 
 -11  -1   6   11.58    1.46 
  11  -1  -6   13.44    1.25 
 -11  -1   6   10.86    1.28 
  11   1  -5  121.88    5.54 
 -11   1   5  108.08    5.47 
  11   1  -5  116.25    5.65 
  11   1  -5  124.05    5.68 
 -11   1   5  125.72    5.42 
  11   1  -5  125.60    5.86 
  11   1  -5  127.13    5.62 
 -11   1   5  126.66    5.34 
 -11   1   5  113.97    5.51 
  11  -1  -5  118.79    5.77 
 -11  -1   5  140.89    5.87 
 -11  -1   5  125.10    5.41 
  11  -1  -5  121.66    5.42 
 -11  -1   5  122.02    5.44 
 -11  -1   5  120.21    5.54 
  11  -1  -5  128.68    5.55 
 -11  -1   5  118.23    5.45 
  11  -1  -5  108.14    5.73 
 -11   1   4  182.01    7.90 
 -11   1   4  172.71    7.50 
  11   1  -4  183.55    7.67 
 -11   1   4  165.59    7.75 
  11   1  -4  171.07    7.80 
  11   1  -4  182.90    7.75 
 -11   1   4  160.56    7.71 
  11   1  -4  178.56    7.88 
  11   1  -4  185.58    7.73 
 -11  -1   4  170.96    7.68 
 -11  -1   4  195.88    7.94 
  11  -1  -4  165.73    7.94 
  11  -1  -4  174.18    7.84 
  11  -1  -4  166.35    7.86 
 -11  -1   4  187.38    7.56 
  11  -1  -4  183.10    7.69 
 -11  -1   4  178.96    7.59 
  11   1  -3   55.65    3.33 
  11   1  -3   61.71    3.01 
 -11   1   3   61.26    3.55 
  11   1  -3   62.47    3.65 
  11   1  -3   58.41    3.38 
 -11   1   3   54.97    3.08 
  11   1  -3   58.82    3.29 
 -11   1   3   57.29    3.13 
  11   1  -3   56.87    3.21 
  11   1  -3   68.69    3.61 
 -11   1   3   58.10    3.04 
 -11   1   3   54.91    3.16 
  11  -1  -3   61.26    3.04 
 -11  -1   3   53.22    2.98 
 -11  -1   3   67.63    3.56 
  11  -1  -3   57.51    3.54 
 -11  -1   3   58.15    3.05 
 -11  -1   3   53.01    3.30 
  11  -1  -3   61.54    3.37 
  11  -1  -3   57.32    3.42 
  11  -1  -3   61.23    3.12 
 -11  -1   3   59.60    2.97 
  11   1  -2  142.13    6.20 
 -11   1   2  150.98    6.41 
  11   1  -2  145.28    6.47 
 -11   1   2  145.86    6.30 
  11   1  -2  139.63    6.58 
 -11   1   2  141.88    6.40 
  11   1  -2  144.61    6.44 
 -11   1   2  140.93    6.63 
  11   1  -2  140.90    6.53 
  11   1  -2  137.89    6.38 
  11   1  -2  154.35    6.30 
 -11   1   2  137.49    6.30 
 -11  -1   2  150.77    6.64 
 -11  -1   2  142.65    6.23 
 -11  -1   2  140.43    6.30 
 -11  -1   2  144.93    6.49 
  11  -1  -2  149.14    6.50 
  11  -1  -2  144.62    6.23 
 -11  -1   2  147.32    6.25 
  11  -1  -2  141.96    6.64 
  11  -1  -2  142.11    6.38 
  11   1  -1   62.87    3.51 
  11   1  -1   66.05    3.13 
 -11   1   1   68.93    3.35 
  11   1  -1   66.94    3.54 
 -11   1   1   63.28    3.37 
 -11   1   1   59.69    3.21 
 -11   1   1   67.20    3.37 
  11   1  -1   67.63    3.74 
  11   1  -1   65.87    3.08 
  11   1  -1   63.61    3.47 
  11   1  -1   60.85    3.48 
  11  -1  -1   62.77    3.70 
  11  -1  -1   65.31    3.59 
 -11  -1   1   63.32    3.13 
 -11  -1   1   61.01    3.27 
 -11  -1   1   65.56    3.25 
  11  -1  -1   68.33    3.11 
  11  -1  -1   64.91    3.44 
  11  -1  -1   65.66    3.51 
 -11   1   0   12.13    1.51 
 -11   1   0    9.54    1.37 
 -11   1   0   16.42    1.43 
 -11   1   0   11.93    1.29 
 -11   1   0   13.10    1.18 
  11   1   0    9.86    1.37 
  11   1   0   10.91    1.41 
  11   1   0   14.88    1.29 
  11   1   0    9.42    1.33 
  11   1   0   11.95    1.46 
  11   1   0   13.02    1.06 
  11   1   0   15.71    1.46 
 -11  -1   0    9.90    1.34 
  11  -1   0   16.30    1.57 
 -11  -1   0   13.42    1.42 
  11  -1   0   16.65    1.76 
 -11  -1   0   13.74    1.34 
  11  -1   0   13.39    1.52 
  11  -1   0   13.30    1.34 
  11  -1   0   11.13    1.36 
 -11  -1   0   14.70    1.34 
  11   1   1   50.36    3.29 
  11   1   1   55.23    3.46 
  11   1   1   55.40    3.18 
 -11   1  -1   55.34    3.42 
 -11   1  -1   51.11    3.05 
  11   1   1   56.53    2.58 
  11   1   1   52.74    3.21 
  11   1   1   67.40    4.79 
 -11   1  -1   54.31    2.98 
  11   1   1   57.88    2.56 
 -11   1  -1   55.89    2.86 
 -11  -1  -1   53.61    3.45 
  11  -1   1   54.47    2.61 
  11  -1   1   48.63    3.20 
 -11  -1  -1   52.83    2.79 
  11  -1   1   56.04    3.16 
  11  -1   1   50.96    3.23 
 -11  -1  -1   52.72    2.96 
  11  -1   1   53.88    3.35 
 -11  -1  -1   54.06    2.92 
  11   1   2   84.34    4.73 
  11   1   2   91.91    3.87 
  11   1   2   95.63    3.85 
 -11   1  -2   92.37    4.31 
  11   1   2   94.12    4.55 
 -11   1  -2   97.85    4.75 
 -11   1  -2   82.58    4.21 
 -11   1  -2   90.19    4.37 
  11   1   2   85.78    4.61 
  11   1   2   83.53    4.62 
 -11  -1  -2   90.32    4.34 
 -11  -1  -2   88.39    4.19 
  11  -1   2   80.57    4.66 
  11  -1   2   93.27    3.88 
  11  -1   2   86.26    4.66 
  11  -1   2   91.55    3.91 
 -11  -1  -2   88.92    4.33 
  11  -1   2   85.44    4.50 
  11  -1   2  105.01    4.52 
 -11  -1  -2   93.93    4.82 
  11   1   3   55.08    4.68 
 -11   1  -3   42.13    3.48 
 -11   1  -3   39.98    2.60 
  11   1   3   43.05    3.16 
  11   1   3   45.60    3.14 
  11   1   3   43.82    1.94 
  11   1   3   46.71    1.94 
 -11   1  -3   48.17    2.82 
 -11   1  -3   47.75    2.69 
 -11  -1  -3   41.29    2.79 
  11  -1   3   44.06    2.09 
  11  -1   3   45.60    3.20 
  11  -1   3   47.70    2.92 
  11  -1   3   42.27    3.25 
  11  -1   3   49.94    2.06 
 -11  -1  -3   41.41    2.66 
 -11  -1  -3   47.07    2.77 
 -11  -1  -3   52.13    3.67 
 -11   1  -4  113.10    5.49 
  11   1   4  126.91    5.81 
 -11   1  -4  119.29    5.50 
  11   1   4  117.08    5.92 
 -11   1  -4  124.33    5.61 
  11  -1   4  105.05    5.95 
  11  -1   4  131.31    5.66 
 -11  -1  -4  117.16    5.53 
  11  -1   4  124.02    5.89 
 -11  -1  -4  121.18    5.53 
 -11  -1  -4  124.83    5.57 
  11   1   5   50.06    3.80 
  11   1   5   55.68    3.56 
 -11   1  -5   49.71    3.11 
 -11   1  -5   56.93    3.45 
 -11   1  -5   52.81    3.03 
  11  -1   5   51.97    3.56 
 -11  -1  -5   53.79    3.04 
 -11  -1  -5   50.85    3.14 
  11  -1   5   43.04    3.76 
 -11  -1  -5   53.99    3.16 
 -11   1  -6   29.34    2.69 
 -11   1  -6   30.79    2.42 
  11   1   6   27.49    3.04 
  11   1   6   29.45    2.77 
 -11  -1  -6   29.06    2.38 
 -11  -1  -6   29.38    2.58 
  11  -1   6   28.18    3.03 
  11  -1   6   29.13    2.68 
  11   1   7    4.54    1.74 
 -11   1  -7    3.18    1.31 
  11   1   7    3.09    2.23 
 -11   1  -7    1.84    1.30 
 -11  -1  -7    0.77    1.32 
 -11  -1  -7    2.91    1.23 
  11  -1   7    2.90    2.21 
  11  -1   7    3.82    1.74 
  11   1   8   18.64    2.29 
  11   1   8   14.77    2.76 
 -11   1  -8   16.34    1.77 
 -11   1  -8   16.35    2.01 
  11  -1   8   14.94    2.88 
 -11  -1  -8   18.30    1.89 
 -11  -1  -8   16.40    1.83 
  11  -1   8   16.07    2.44 
  11   2  -9   35.58    3.44 
 -11   2   9   31.76    3.28 
  11   2  -9   39.75    2.86 
  11  -2  -9   35.66    3.38 
  11  -2  -9   34.74    2.93 
 -11  -2   9   40.29    3.07 
 -11  -2   9   33.56    2.24 
 -11   2   8   33.96    2.89 
  11   2  -8   32.76    2.58 
 -11   2   8   28.87    2.33 
  11   2  -8   33.41    3.06 
  11  -2  -8   32.50    2.98 
 -11  -2   8   31.97    2.28 
  11   2  -7  127.60    5.72 
 -11   2   7  113.25    5.39 
 -11   2   7  117.10    5.56 
  11   2  -7  113.30    5.45 
 -11  -2   7  111.89    5.31 
  11  -2  -7  131.98    5.66 
 -11  -2   7  115.15    5.30 
 -11   2   6    9.50    1.22 
  11   2  -6   14.14    1.77 
 -11   2   6    8.72    1.34 
  11   2  -6    9.65    1.55 
  11   2  -6   10.27    1.53 
  11  -2  -6   11.51    1.54 
 -11  -2   6    8.72    1.66 
  11  -2  -6   12.16    1.10 
 -11  -2   6    8.82    1.13 
 -11  -2   6    8.56    1.20 
  11   2  -5  105.32    5.04 
 -11   2   5   99.56    5.23 
 -11   2   5   97.29    4.83 
  11   2  -5  105.59    4.97 
  11   2  -5  105.69    4.95 
  11   2  -5   96.12    4.95 
 -11   2   5  104.88    4.51 
 -11   2   5   96.33    4.86 
 -11   2   5  107.65    4.74 
  11   2  -5   97.52    5.10 
  11  -2  -5  103.65    5.23 
  11  -2  -5  110.38    4.86 
 -11  -2   5   97.09    4.67 
 -11  -2   5  106.57    4.69 
  11  -2  -5  102.60    4.61 
 -11  -2   5  109.57    5.19 
  11  -2  -5  101.64    5.15 
 -11  -2   5  105.48    4.71 
 -11   2   4   27.52    2.80 
  11   2  -4   25.74    2.44 
 -11   2   4   26.93    2.19 
  11   2  -4   24.06    2.57 
 -11   2   4   24.07    2.20 
  11   2  -4   28.59    2.53 
 -11   2   4   27.08    2.11 
  11   2  -4   27.53    2.22 
  11   2  -4   26.60    2.32 
 -11   2   4   27.43    1.91 
  11  -2  -4   27.53    2.86 
 -11  -2   4   29.57    1.92 
  11  -2  -4   26.05    2.00 
  11  -2  -4   28.40    2.14 
  11  -2  -4   23.62    2.56 
 -11  -2   4   32.65    2.00 
 -11  -2   4   29.20    1.97 
 -11   2   3    3.24    1.56 
 -11   2   3    5.31    0.96 
  11   2  -3    4.47    1.15 
 -11   2   3    2.54    0.98 
  11   2  -3    5.15    1.43 
 -11   2   3    4.73    1.14 
  11   2  -3    3.87    1.28 
 -11   2   3    3.01    1.06 
  11   2  -3    5.21    1.12 
  11   2  -3    6.55    1.40 
  11  -2  -3    3.28    1.44 
  11  -2  -3    6.29    1.61 
 -11  -2   3    4.02    0.89 
  11  -2  -3    3.25    1.06 
  11  -2  -3    4.89    1.06 
 -11  -2   3    4.29    1.46 
  11  -2  -3    4.21    1.38 
 -11   2   2   33.37    2.46 
 -11   2   2   38.19    2.49 
 -11   2   2   35.73    3.02 
  11   2  -2   40.73    2.33 
  11   2  -2   34.21    2.74 
  11   2  -2   37.26    2.88 
  11   2  -2   36.57    2.43 
  11   2  -2   35.45    2.76 
 -11   2   2   36.45    2.24 
  11   2  -2   36.47    2.37 
  11   2  -2   34.72    2.85 
 -11   2   2   26.79    2.80 
 -11  -2   2   37.87    3.04 
 -11  -2   2   34.20    2.31 
  11  -2  -2   35.08    2.76 
  11  -2  -2   38.88    2.24 
 -11  -2   2   36.28    2.20 
 -11  -2   2   36.25    2.13 
  11  -2  -2   37.02    2.89 
  11  -2  -2   38.81    2.80 
  11  -2  -2   36.87    2.43 
  11   2  -1  176.23    7.17 
 -11   2   1  168.52    7.70 
  11   2  -1  166.53    7.50 
  11   2  -1  169.12    7.59 
 -11   2   1  166.46    7.27 
  11   2  -1  164.47    7.61 
 -11   2   1  175.03    7.37 
  11   2  -1  165.65    7.16 
  11   2  -1  172.73    7.56 
  11   2  -1  166.61    7.30 
 -11   2   1  158.05    7.38 
 -11  -2   1  179.06    7.76 
  11  -2  -1  155.54    7.58 
  11  -2  -1  164.74    7.52 
  11  -2  -1  159.62    7.38 
 -11  -2   1  161.84    7.54 
 -11  -2   1  169.57    7.26 
 -11  -2   1  168.45    7.12 
  11  -2  -1  177.89    7.51 
  11  -2  -1  177.76    7.20 
 -11   2   0   14.98    1.45 
 -11   2   0   13.76    1.63 
  11   2   0   18.26    1.55 
  11   2   0   20.28    2.60 
  11   2   0   13.87    1.67 
 -11   2   0   17.12    1.60 
 -11   2   0   20.38    2.16 
  11   2   0   14.23    1.55 
  11   2   0   21.17    1.93 
  11   2   0   15.36    1.58 
 -11   2   0   20.09    2.11 
  11   2   0   16.22    1.75 
 -11  -2   0   21.08    2.03 
  11  -2   0   20.40    1.87 
 -11  -2   0   17.42    1.80 
  11  -2   0   17.26    1.75 
  11  -2   0   20.53    2.01 
  11  -2   0   18.72    1.75 
 -11  -2   0   19.65    1.60 
  11  -2   0   17.28    1.57 
 -11  -2   0   17.57    1.50 
 -11   2  -1  202.93    8.75 
  11   2   1  192.76    8.86 
  11   2   1  190.11    8.67 
  11   2   1  212.68    8.38 
  11   2   1  191.58    8.96 
  11   2   1  214.20    8.36 
 -11   2  -1  193.32    8.56 
 -11   2  -1  216.50    8.69 
  11   2   1  212.73    8.90 
 -11   2  -1  200.19    8.96 
  11   2   1  200.35    8.88 
  11  -2   1  208.41    8.77 
 -11  -2  -1  192.21    8.65 
 -11  -2  -1  216.56    9.26 
  11  -2   1  193.56    8.96 
 -11  -2  -1  204.13    8.65 
  11  -2   1  210.14    8.41 
  11  -2   1  185.14    8.78 
 -11  -2  -1  198.35    8.48 
  11  -2   1  191.05    8.81 
 -11   2  -2   51.35    2.94 
 -11   2  -2   51.01    3.58 
  11   2   2   50.99    3.23 
 -11   2  -2   48.83    3.08 
  11   2   2   49.62    3.37 
  11   2   2   53.55    2.32 
  11   2   2   43.19    3.46 
 -11   2  -2   50.81    2.76 
  11   2   2   46.44    3.45 
  11  -2   2   50.25    3.22 
 -11  -2  -2   47.13    3.65 
  11  -2   2   39.20    3.62 
 -11  -2  -2   49.42    2.99 
  11  -2   2   48.98    3.38 
 -11  -2  -2   48.43    2.66 
  11  -2   2   47.67    2.42 
 -11  -2  -2   50.48    2.98 
 -11   2  -3   22.17    2.05 
  11   2   3   20.95    2.11 
 -11   2  -3   23.44    2.30 
  11   2   3   21.96    2.28 
  11   2   3   22.75    2.15 
  11   2   3   18.22    1.08 
 -11   2  -3   17.00    1.84 
  11  -2   3   20.90    2.11 
  11  -2   3   19.33    1.78 
 -11  -2  -3   16.92    2.13 
 -11  -2  -3   20.62    1.77 
 -11  -2  -3   21.92    1.86 
  11  -2   3   15.82    1.91 
  11  -2   3   17.84    1.28 
  11   2   4    1.70    1.71 
  11   2   4    0.09    1.79 
 -11   2  -4    1.20    1.01 
  11   2   4    1.35    1.43 
 -11   2  -4    1.97    1.09 
 -11   2  -4    1.80    1.30 
  11  -2   4    1.30    1.54 
 -11  -2  -4    0.53    1.15 
 -11  -2  -4    0.47    1.19 
  11  -2   4    1.83    1.18 
  11  -2   4    2.47    0.45 
 -11  -2  -4    1.42    1.02 
  11  -2   4    1.30    0.49 
  11  -2   4    1.45    1.62 
 -11   2  -5   62.25    3.30 
  11   2   5   60.47    3.91 
 -11   2  -5   54.63    3.23 
  11   2   5   58.28    4.00 
 -11  -2  -5   61.28    3.49 
  11  -2   5   52.79    3.80 
 -11  -2  -5   53.21    3.11 
 -11  -2  -5   53.73    3.49 
  11  -2   5   46.09    3.87 
 -11   2  -6    8.19    1.39 
 -11   2  -6    6.67    1.58 
  11   2   6    6.95    2.18 
  11   2   6    6.91    1.87 
 -11  -2  -6    6.26    1.48 
  11  -2   6    8.19    1.92 
 -11  -2  -6    6.21    1.25 
  11  -2   6    2.32    2.06 
 -11   2  -7  145.60    6.39 
 -11   2  -7  138.83    6.54 
  11   2   7  129.69    7.16 
  11   2   7  146.24    6.86 
  11  -2   7  139.86    6.88 
  11  -2   7  122.83    7.16 
 -11  -2  -7  135.53    6.33 
 -11  -2  -7  145.09    6.58 
  11   3  -8    1.21    1.28 
 -11   3   8    1.96    1.59 
  11   3  -8    3.73    1.76 
 -11   3   8    1.41    1.18 
  11  -3  -8   -0.03    1.75 
 -11  -3   8    3.03    1.07 
  11  -3  -8    1.53    1.17 
  11   3  -7    1.19    1.18 
  11   3  -7   -1.19    1.53 
 -11   3   7    0.42    1.30 
 -11   3   7   -0.02    1.12 
 -11  -3   7    2.14    0.94 
  11  -3  -7   -1.59    1.49 
 -11  -3   7   -0.33    0.99 
  11   3  -6   -1.83    1.39 
 -11   3   6    0.27    1.35 
  11   3  -6    1.22    1.15 
 -11   3   6    0.11    1.10 
 -11  -3   6    0.47    0.90 
 -11  -3   6    0.15    0.90 
  11  -3  -6   -0.78    1.33 
 -11   3   5   60.01    3.56 
  11   3  -5   64.79    3.48 
  11   3  -5   64.55    3.71 
  11   3  -5   67.63    4.14 
 -11   3   5   58.99    3.42 
 -11  -3   5   65.01    3.27 
  11  -3  -5   64.72    3.97 
 -11  -3   5   61.67    3.10 
  11  -3  -5   69.68    3.62 
  11  -3  -5   59.34    2.92 
 -11  -3   5   66.41    3.76 
  11   3  -4    6.30    1.49 
 -11   3   4    6.29    1.66 
  11   3  -4    8.21    1.31 
  11   3  -4    5.66    1.56 
 -11   3   4    5.07    1.23 
  11   3  -4    5.90    1.24 
 -11   3   4    7.24    0.95 
 -11   3   4    4.14    1.30 
  11   3  -4    9.91    1.46 
 -11   3   4    6.03    1.09 
  11  -3  -4    6.74    1.33 
 -11  -3   4    7.44    1.00 
  11  -3  -4    5.89    0.95 
  11  -3  -4    5.63    1.32 
  11  -3  -4    5.84    1.53 
 -11  -3   4    6.99    1.01 
 -11  -3   4    6.41    1.09 
  11   3  -3  225.01   10.25 
  11   3  -3  237.39   10.29 
 -11   3   3  224.05   10.02 
 -11   3   3  219.81   10.04 
  11   3  -3  245.50    9.86 
 -11   3   3  251.00   10.04 
  11   3  -3  232.26   10.16 
  11   3  -3  225.31   10.17 
 -11   3   3  240.30   10.43 
 -11   3   3  257.49    9.80 
  11  -3  -3  222.89   10.20 
  11  -3  -3  243.03   10.20 
  11  -3  -3  252.55   10.01 
 -11  -3   3  254.57   10.34 
 -11  -3   3  229.94    9.77 
  11  -3  -3  213.02    9.84 
 -11  -3   3  219.32   10.15 
 -11  -3   3  240.90    9.96 
  11   3  -2    3.35    1.37 
 -11   3   2    3.84    1.08 
  11   3  -2    4.50    1.12 
 -11   3   2    4.79    1.71 
 -11   3   2    3.00    1.01 
 -11   3   2    3.59    1.20 
  11   3  -2    2.97    1.56 
  11   3  -2    4.54    1.13 
 -11   3   2    2.58    1.20 
  11   3  -2    4.34    1.42 
  11  -3  -2    3.25    1.33 
 -11  -3   2    4.64    1.56 
  11  -3  -2    3.83    1.10 
  11  -3  -2    3.53    1.04 
 -11  -3   2    6.99    0.90 
 -11  -3   2    2.27    0.98 
  11  -3  -2    5.44    1.59 
  11  -3  -2    3.68    1.66 
 -11  -3   2    4.02    0.96 
 -11   3   1   25.80    2.33 
 -11   3   1   29.62    3.30 
 -11   3   1   25.40    2.12 
 -11   3   1   27.50    2.20 
 -11   3   1   29.68    2.60 
 -11   3   1   23.23    2.32 
  11   3  -1   24.95    2.68 
  11   3  -1   25.30    2.18 
  11   3  -1   25.83    2.10 
  11   3  -1   26.50    2.15 
  11   3  -1   30.42    2.18 
  11   3  -1   28.32    3.08 
  11   3  -1   20.21    2.07 
  11  -3  -1   23.04    2.60 
 -11  -3   1   27.48    1.75 
  11  -3  -1   27.69    2.72 
 -11  -3   1   26.40    2.19 
 -11  -3   1   26.18    2.88 
  11  -3  -1   29.96    3.02 
  11  -3  -1   26.23    2.01 
  11  -3  -1   21.11    2.27 
 -11  -3   1   28.35    2.19 
  11   3   0    6.60    1.05 
  11   3   0    8.24    1.12 
 -11   3   0    3.25    2.16 
  11   3   0    7.82    1.61 
  11   3   0    4.72    1.21 
 -11   3   0    7.28    1.26 
 -11   3   0    5.07    1.11 
  11   3   0    4.69    1.69 
 -11   3   0    7.37    1.46 
  11   3   0    5.83    1.56 
 -11   3   0    4.35    1.30 
  11   3   0    4.99    1.41 
 -11   3   0    3.44    1.08 
  11  -3   0    9.56    1.65 
 -11  -3   0    5.71    1.23 
  11  -3   0    6.49    1.69 
 -11  -3   0    5.95    0.86 
  11  -3   0    5.35    1.00 
  11  -3   0    4.67    1.25 
 -11  -3   0    6.80    1.72 
  11  -3   0    5.83    1.46 
 -11  -3   0    3.45    0.96 
  11   3   1   11.33    1.48 
  11   3   1   15.06    1.81 
  11   3   1   13.98    1.90 
 -11   3  -1   11.21    1.27 
 -11   3  -1    9.40    1.39 
 -11   3  -1   16.03    2.18 
  11   3   1   13.78    1.18 
 -11   3  -1   11.66    1.42 
  11   3   1   16.10    1.99 
  11   3   1   13.84    2.08 
  11   3   1   14.83    1.20 
 -11   3  -1   10.74    1.43 
  11  -3   1   13.26    1.79 
 -11  -3  -1   13.68    1.60 
  11  -3   1   12.97    1.17 
 -11  -3  -1   15.29    1.52 
  11  -3   1   14.11    1.67 
  11  -3   1   13.23    1.90 
 -11  -3  -1   12.01    1.37 
  11  -3   1   10.48    1.51 
 -11  -3  -1   16.00    2.05 
  11   3   2   10.30    1.97 
 -11   3  -2   12.09    2.15 
 -11   3  -2   11.26    1.42 
  11   3   2   11.45    1.04 
  11   3   2   12.46    1.92 
 -11   3  -2   10.70    1.29 
  11   3   2   10.80    0.96 
 -11   3  -2   12.03    1.53 
  11   3   2   11.18    1.79 
  11   3   2   11.82    1.91 
 -11   3  -2   10.95    1.38 
 -11  -3  -2    9.48    1.13 
  11  -3   2   11.03    1.83 
 -11  -3  -2   10.44    1.48 
 -11  -3  -2   11.08    1.95 
  11  -3   2    5.62    1.45 
  11  -3   2   10.58    1.75 
  11  -3   2    9.83    1.01 
 -11  -3  -2    9.11    1.49 
 -11   3  -3  288.46   11.75 
  11   3   3  282.03   12.26 
  11   3   3  268.99   12.42 
 -11   3  -3  302.87   12.08 
 -11   3  -3  288.41   11.97 
  11   3   3  294.41   12.31 
 -11   3  -3  279.16   12.12 
  11   3   3  290.75   11.56 
  11   3   3  317.11   11.57 
  11  -3   3  305.38   12.14 
  11  -3   3  258.10   12.28 
  11  -3   3  278.93   11.64 
 -11  -3  -3  272.16   12.03 
 -11  -3  -3  288.24   12.42 
 -11  -3  -3  289.26   12.06 
  11  -3   3  245.37   12.20 
  11   3   4    5.11    1.74 
 -11   3  -4    5.85    1.71 
 -11   3  -4    4.71    1.39 
  11   3   4    4.23    1.94 
 -11   3  -4    3.31    1.25 
  11  -3   4    3.85    0.68 
  11  -3   4    5.07    1.73 
 -11  -3  -4    2.99    1.40 
 -11  -3  -4    4.37    1.16 
  11  -3   4    2.19    1.48 
 -11  -3  -4    5.21    1.34 
  11   3   5   66.42    4.34 
 -11   3  -5   63.76    3.56 
 -11   3  -5   71.21    3.72 
  11   3   5   62.91    4.50 
 -11  -3  -5   66.38    3.75 
  11  -3   5   57.19    4.27 
 -11  -3  -5   59.22    3.39 
  11  -3   5   54.41    4.12 
  11   3   6    2.37    1.98 
 -11   3  -6    5.24    1.42 
  11   3   6    3.10    2.13 
 -11   3  -6    6.16    1.56 
 -11  -3  -6    4.21    1.25 
 -11  -3  -6    6.24    1.55 
  11  -3   6    2.79    1.96 
  11  -3   6    3.54    1.85 
 -11   3  -7    0.89    1.54 
 -11   3  -7    2.52    1.58 
  11   3   7    0.73    2.15 
  11   3   7    0.90    2.11 
 -11  -3  -7    3.32    1.77 
  11  -3   7    0.64    2.17 
 -11  -3  -7   -0.66    1.27 
  11  -3   7    0.51    1.83 
 -11   4   7   78.66    4.56 
  11   4  -7   88.98    4.89 
  11   4  -7   81.69    4.32 
 -11   4   7   74.58    4.20 
 -11  -4   7   80.24    3.90 
  11  -4  -7   82.40    4.17 
  11  -4  -7   85.86    4.75 
 -11   4   6   63.88    3.68 
 -11   4   6   64.54    4.01 
  11   4  -6   67.34    3.78 
  11   4  -6   67.78    4.12 
 -11  -4   6   69.23    3.47 
  11  -4  -6   70.06    3.68 
  11  -4  -6   74.60    4.10 
  11   4  -5   39.12    2.77 
 -11   4   5   35.82    2.66 
 -11   4   5   33.06    2.92 
  11  -4  -5   38.52    2.68 
  11  -4  -5   37.41    2.88 
 -11  -4   5   36.36    2.07 
 -11  -4   5   36.33    2.45 
 -11   4   4   27.32    2.44 
  11   4  -4   24.60    2.52 
 -11   4   4   30.81    2.45 
 -11   4   4   28.35    2.61 
  11  -4  -4   27.71    2.73 
  11  -4  -4   31.30    2.58 
 -11  -4   4   31.99    2.30 
 -11  -4   4   30.03    1.84 
  11  -4  -4   28.65    1.67 
 -11   4   3    0.65    1.24 
  11   4  -3    0.98    1.26 
  11   4  -3    0.15    1.76 
 -11   4   3    0.70    1.53 
 -11   4   3    1.42    1.04 
  11   4  -3    0.62    1.79 
 -11   4   3    1.09    1.81 
 -11   4   3    0.28    0.94 
 -11  -4   3    0.32    1.12 
 -11  -4   3    0.29    1.03 
  11  -4  -3    0.91    1.22 
  11  -4  -3    0.43    0.78 
  11  -4  -3    1.66    1.54 
  11  -4  -3    2.20    1.40 
 -11  -4   3   -0.05    0.75 
 -11  -4   3   -0.21    1.65 
  11   4  -2   52.97    3.61 
  11   4  -2   60.83    3.95 
 -11   4   2   53.21    3.25 
 -11   4   2   57.19    3.38 
  11   4  -2   51.82    3.05 
 -11   4   2   56.22    3.00 
 -11   4   2   55.96    4.03 
 -11   4   2   58.38    3.30 
  11   4  -2   52.27    3.83 
 -11  -4   2   55.44    2.74 
 -11  -4   2   55.72    3.15 
 -11  -4   2   57.01    3.18 
 -11  -4   2   59.45    3.89 
  11  -4  -2   57.45    3.57 
  11  -4  -2   57.58    3.86 
  11  -4  -2   51.77    3.47 
  11  -4  -2   43.31    3.96 
  11  -4  -2   61.96    3.23 
 -11   4   1   83.81    4.71 
  11   4  -1   82.73    4.36 
  11   4  -1   96.83    5.02 
 -11   4   1   91.32    5.23 
  11   4  -1   83.57    5.14 
  11   4  -1   90.79    4.96 
 -11   4   1   96.75    4.54 
 -11   4   1   96.59    4.58 
 -11   4   1   99.78    4.65 
  11  -4  -1   95.09    4.50 
  11  -4  -1   82.43    4.75 
 -11  -4   1  103.48    5.19 
  11  -4  -1   90.67    4.44 
  11  -4  -1   92.65    5.06 
  11  -4  -1   90.83    4.76 
 -11  -4   1   98.25    4.64 
 -11  -4   1   97.37    4.11 
  11   4   0   96.84    4.88 
  11   4   0   96.02    4.99 
 -11   4   0   85.54    4.54 
  11   4   0   86.02    5.16 
 -11   4   0   90.54    4.44 
 -11   4   0   85.03    4.57 
  11   4   0   93.29    4.38 
 -11   4   0   92.11    4.72 
  11   4   0   77.59    4.33 
 -11   4   0   89.41    5.27 
  11   4   0   94.83    4.93 
 -11  -4   0   82.35    4.34 
  11  -4   0   92.62    4.29 
  11  -4   0   81.73    4.45 
 -11  -4   0   98.26    5.12 
  11  -4   0   92.44    4.70 
  11  -4   0   88.96    4.98 
 -11  -4   0   94.88    4.02 
 -11  -4   0   90.21    4.51 
  11  -4   0   86.63    4.75 
 -11   4  -1   63.40    3.84 
  11   4   1   67.18    3.48 
 -11   4  -1   66.51    3.81 
 -11   4  -1   57.10    3.61 
  11   4   1   67.48    4.28 
  11   4   1   74.60    4.27 
  11   4   1   62.11    4.44 
  11   4   1   59.80    4.11 
 -11   4  -1   72.99    3.60 
 -11   4  -1   69.00    5.03 
  11  -4   1   63.73    3.42 
 -11  -4  -1   69.74    3.70 
 -11  -4  -1   75.84    4.53 
 -11  -4  -1   73.45    3.27 
  11  -4   1   62.69    3.80 
  11  -4   1   72.03    4.04 
 -11  -4  -1   67.11    3.64 
  11  -4   1   65.59    4.06 
 -11   4  -2   99.48    5.06 
 -11   4  -2  115.03    5.15 
 -11   4  -2  111.67    5.36 
  11   4   2  103.64    5.63 
  11   4   2  112.98    4.92 
  11   4   2  121.93    5.73 
  11   4   2  102.86    5.96 
 -11   4  -2  106.90    5.47 
  11   4   2  117.85    5.89 
 -11  -4  -2  110.52    4.95 
  11  -4   2  103.45    5.41 
 -11  -4  -2  112.49    5.22 
  11  -4   2  126.88    6.87 
  11  -4   2   91.98    5.57 
 -11  -4  -2  114.97    5.27 
  11  -4   2  109.06    4.92 
 -11  -4  -2  116.35    6.03 
  11   4   3    4.24    1.85 
  11   4   3    4.44    0.89 
 -11   4  -3    2.48    1.46 
  11   4   3    4.08    1.59 
 -11   4  -3    4.06    1.18 
 -11   4  -3    6.77    1.72 
  11  -4   3    1.93    1.48 
 -11  -4  -3    2.19    1.31 
 -11  -4  -3    3.26    2.73 
  11  -4   3    3.63    0.92 
 -11  -4  -3    3.77    1.35 
  11  -4   3    2.50    1.53 
  11   4   4   13.38    2.16 
 -11   4  -4   13.09    1.76 
 -11   4  -4   13.23    1.50 
  11   4   4   13.19    1.97 
  11  -4   4   13.67    1.11 
 -11  -4  -4    9.86    1.44 
  11  -4   4    7.71    1.75 
 -11  -4  -4   12.87    1.41 
  11  -4   4   12.91    2.00 
 -11   4  -5   38.80    3.10 
  11   4   5   40.78    3.65 
 -11   4  -5   36.81    2.86 
  11   4   5   36.18    3.06 
 -11  -4  -5   29.98    2.89 
  11  -4   5   25.44    2.48 
 -11  -4  -5   32.02    2.53 
  11  -4   5   30.02    2.72 
  11   4   6   31.86    3.03 
 -11   4  -6   31.86    3.15 
  11   4   6   36.85    3.33 
 -11   4  -6   31.47    2.90 
 -11  -4  -6   28.20    2.62 
  11  -4   6   32.91    3.48 
  11  -4   6   29.34    2.86 
 -11  -4  -6   30.74    3.08 
 -11   5   6   22.35    2.02 
 -11   5   6   25.03    2.29 
  11   5  -6   23.61    2.09 
  11  -5  -6   25.18    2.28 
 -11  -5   6   22.05    2.21 
  11  -5  -6   18.99    1.78 
  11   5  -5   15.05    1.81 
 -11   5   5   17.09    1.88 
 -11   5   5   15.63    2.05 
 -11  -5   5   19.76    2.20 
  11  -5  -5   17.72    2.03 
  11  -5  -5   17.35    1.82 
 -11   5   4  159.10    7.45 
  11   5  -4  164.32    7.41 
 -11   5   4  158.91    7.32 
 -11  -5   4  159.61    7.23 
  11  -5  -4  175.91    7.45 
  11  -5  -4  160.61    7.27 
 -11   5   3    0.39    1.41 
  11   5  -3    0.45    1.41 
 -11   5   3    1.26    1.12 
  11  -5  -3    0.82    2.24 
  11  -5  -3   -0.27    1.47 
 -11  -5   3    0.72    1.21 
  11  -5  -3    3.42    1.42 
 -11   5   2  178.56    8.15 
 -11   5   2  193.40    8.09 
 -11   5   2  165.86    8.10 
  11   5  -2  190.24    8.31 
 -11  -5   2  170.18    7.58 
  11  -5  -2  192.37    8.05 
  11  -5  -2  184.26    8.24 
  11  -5  -2  193.55    8.08 
  11  -5  -2  176.63    7.69 
  11  -5  -2  197.56    9.89 
 -11  -5   2  179.98    7.97 
  11   5  -1   16.66    2.10 
 -11   5   1   19.33    1.85 
 -11   5   1   14.19    2.40 
 -11   5   1   15.20    1.69 
 -11   5   1   20.67    2.54 
 -11   5   1   11.22    1.53 
  11   5  -1   19.10    2.24 
  11  -5  -1   17.26    1.47 
  11  -5  -1   11.70    1.74 
  11  -5  -1   18.90    2.05 
  11  -5  -1   16.99    1.76 
 -11  -5   1   17.61    1.66 
 -11  -5   1   17.70    1.51 
  11  -5  -1   16.93    1.65 
  11   5   0    1.00    1.73 
 -11   5   0    1.52    1.46 
 -11   5   0    3.47    1.42 
 -11   5   0    2.14    2.23 
 -11   5   0    3.92    1.38 
  11   5   0    3.03    1.49 
  11  -5   0    0.55    1.29 
 -11  -5   0    3.43    0.78 
  11  -5   0    2.58    1.24 
 -11  -5   0    2.73    1.36 
  11  -5   0    3.24    1.49 
 -11  -5   0    4.00    1.12 
  11  -5   0    3.40    1.23 
 -11   5  -1    1.13    1.51 
  11   5   1    3.66    1.64 
  11   5   1    0.38    1.72 
 -11   5  -1    1.80    1.36 
 -11   5  -1    3.06    1.57 
 -11  -5  -1    5.28    1.45 
 -11  -5  -1    1.67    1.13 
 -11  -5  -1    2.50    0.84 
  11  -5   1    1.76    1.42 
  11  -5   1    1.48    1.55 
  11  -5   1    3.73    1.38 
 -11   5  -2   59.59    4.33 
 -11   5  -2   70.44    3.98 
 -11   5  -2   69.80    3.68 
  11   5   2   56.55    4.30 
  11   5   2   71.34    4.50 
 -11  -5  -2   59.24    3.68 
  11  -5   2   64.50    3.42 
  11  -5   2   57.08    4.17 
  11  -5   2   58.56    3.83 
 -11  -5  -2   66.67    3.21 
 -11  -5  -2   66.09    3.60 
  11   5   3    1.34    1.62 
 -11   5  -3    1.57    1.24 
 -11   5  -3   -0.49    1.53 
  11   5   3    1.47    1.95 
  11  -5   3   -1.67    1.09 
  11  -5   3   -0.02    1.87 
 -11  -5  -3   -0.11    1.39 
 -11  -5  -3    1.39    1.24 
  11  -5   3    1.60    1.62 
  11   5   4  153.35    7.42 
 -11   5  -4  143.64    7.02 
 -11   5  -4  150.07    6.76 
  11   5   4  147.79    7.33 
 -11  -5  -4  149.45    6.82 
 -11  -5  -4  148.36    6.58 
  11  -5   4  135.47    7.15 
  11  -5   4  154.45    6.42 
  11  -5   4  146.42    7.12 
 -11   5  -5    6.12    1.64 
  11   5   5    4.12    2.31 
  11   5   5    2.43    1.94 
 -11   5  -5    7.44    1.88 
 -11  -5  -5    6.16    1.73 
 -11  -5  -5    6.35    1.37 
  11  -5   5    6.64    2.10 
  11  -5   5    6.54    1.99 
 -11   6   5    9.87    1.86 
  11   6  -5    9.96    1.81 
 -11   6   5    7.16    1.99 
 -11  -6   5    8.50    1.60 
  11  -6  -5    9.76    1.59 
  11  -6  -5   10.59    2.06 
 -11   6   4    2.72    1.71 
  11   6  -4    3.73    1.64 
 -11   6   4    4.11    1.64 
 -11  -6   4    5.15    1.45 
  11  -6  -4    2.67    1.38 
  11  -6  -4    5.46    1.82 
 -11   6   3   -0.01    1.64 
  11   6  -3   -0.77    1.62 
 -11   6   3   -1.04    1.40 
  11  -6  -3    0.96    1.65 
 -11  -6   3    0.20    1.30 
  11  -6  -3    0.82    1.51 
 -11   6   2   12.92    1.82 
  11   6  -2   18.22    2.16 
 -11   6   2   12.62    1.76 
 -11  -6   2   16.59    1.71 
  11  -6  -2   15.98    1.87 
  11  -6  -2   15.65    1.73 
  11  -6  -2   13.62    1.90 
 -11   6   1   23.37    2.18 
 -11   6   1   21.85    2.07 
  11   6  -1   21.09    2.41 
 -11   6   1   20.55    2.10 
  11  -6  -1   25.05    2.17 
  11  -6  -1   16.82    1.94 
 -11  -6   1   16.81    1.65 
  11  -6  -1   17.18    1.98 
 -11   6   0  178.47    7.89 
  11   6   0  169.94    8.39 
 -11   6   0  171.14    7.99 
 -11   6   0  180.75    7.87 
  11  -6   0  166.69    7.94 
  11  -6   0  171.68    7.75 
 -11  -6   0  172.36    7.64 
  11   6   1   17.55    2.56 
 -11   6  -1   17.19    2.02 
 -11   6  -1   14.76    1.80 
  11  -6   1   15.53    1.75 
  11  -6   1   18.63    2.05 
 -11  -6  -1   14.37    1.52 
  11   6   2   34.65    3.12 
  11   6   2   32.38    3.47 
 -11   6  -2   37.29    3.16 
 -11   6  -2   39.43    3.34 
  11  -6   2   33.88    3.59 
 -11  -6  -2   32.21    2.75 
 -11  -6  -2   33.88    2.48 
  11  -6   2   28.75    2.80 
 -11   6  -3    1.64    1.82 
  11   6   3   -0.37    2.12 
  11   6   3    3.42    2.01 
 -11   6  -3    0.91    1.52 
  11  -6   3   -0.02    1.34 
  11  -6   3    1.37    1.81 
 -11   7   1   30.68    2.63 
  11   7  -1   24.07    2.83 
 -11  -7   1   27.35    2.82 
  11  -7  -1   30.75    2.50 
  11  -7  -1   25.02    3.30 
  11   7   0    2.09    2.51 
  11  -7   0    2.85    1.58 
 -12   0   8   74.27    4.32 
  12   0  -8   89.38    4.33 
 -12   0   8   68.24    3.86 
 -12   0   7    0.13    1.12 
  12   0  -7    0.14    1.27 
 -12   0   7   -0.89    1.34 
  12   0  -7    0.87    1.26 
 -12   0   6  129.16    6.16 
  12   0  -6  141.11    6.17 
  12   0  -6  143.91    6.16 
 -12   0   6  127.83    6.09 
 -12   0   5   -0.02    0.98 
 -12   0   5    2.18    1.26 
  12   0  -5    0.71    1.22 
 -12   0   5   -0.15    1.09 
  12   0  -5   -0.25    1.02 
  12   0  -4  116.74    5.27 
 -12   0   4  115.04    5.35 
 -12   0   4  105.93    5.38 
  12   0  -4  121.88    5.42 
  12   0  -4  122.84    5.75 
 -12   0   4  123.94    5.33 
  12   0  -4  116.75    5.56 
 -12   0   4  127.31    5.70 
 -12   0   4   99.60    5.31 
 -12   0   3    0.12    1.19 
 -12   0   3    1.03    0.98 
  12   0  -3   -0.83    0.87 
 -12   0   3   -0.16    1.27 
 -12   0   3   -0.02    1.00 
  12   0  -3    0.99    1.04 
 -12   0   3    0.28    0.93 
  12   0  -3    0.81    1.37 
  12   0  -3    0.10    1.38 
 -12   0   2   26.00    2.08 
  12   0  -2   23.89    2.18 
 -12   0   2   24.63    2.20 
  12   0  -2   24.39    2.45 
 -12   0   2   24.43    1.96 
  12   0  -2   26.17    2.50 
  12   0  -2   22.53    2.23 
  12   0  -2   27.25    2.53 
 -12   0   2   24.99    2.62 
  12   0  -2   28.89    1.86 
 -12   0   1   -0.35    0.89 
  12   0  -1   -0.67    1.24 
  12   0  -1    2.40    1.32 
  12   0  -1   -0.48    0.75 
  12   0  -1    3.64    1.33 
  12   0  -1    0.77    1.09 
 -12   0   1    0.46    0.84 
 -12   0   1    0.63    1.48 
 -12   0   1    0.40    0.88 
  12   0  -1    0.16    0.92 
 -12   0   0  157.97    6.92 
 -12   0   0  165.96    7.35 
 -12   0   0  157.97    6.96 
  12   0   0  167.86    6.72 
  12   0   0  150.09    7.22 
 -12   0   0  134.65    7.20 
  12   0   0  168.93    6.70 
  12   0   0  166.92    7.13 
  12   0   0  151.44    7.06 
 -12   0  -1   -0.89    0.80 
  12   0   1   -0.36    1.08 
  12   0   1    0.24    0.62 
  12   0   1    0.50    0.69 
  12   0   1    0.76    1.16 
 -12   0  -1    0.50    1.06 
  12   0   1    0.55    1.21 
 -12   0  -1   -1.19    1.32 
  12   0   1   -1.65    1.25 
 -12   0  -1   -0.96    1.01 
  12   0   2  209.19    8.88 
  12   0   2  174.08    9.23 
  12   0   2  211.09    8.37 
  12   0   2  205.19    9.04 
  12   0   2  206.84    9.02 
 -12   0  -2  211.57    8.75 
 -12   0  -2  202.37    8.69 
 -12   0  -2  197.91    9.06 
 -12   0  -2  211.37    8.79 
 -12   0  -3   -0.41    1.06 
 -12   0  -3    0.46    0.97 
  12   0   3    0.10    1.46 
  12   0   3    1.03    1.36 
  12   0   3    0.45    1.47 
 -12   0  -3    0.31    1.13 
  12   0   4    0.96    1.37 
 -12   0  -4    1.21    1.19 
 -12   0  -4    1.42    1.25 
  12   0   4   -0.34    1.56 
 -12   0  -4    0.82    1.19 
  12   0   5    0.76    1.87 
 -12   0  -5   -0.42    1.20 
  12   0   5   -0.19    1.52 
 -12   0  -5   -0.50    1.20 
  12   0   6   77.54    4.61 
  12   0   6   74.91    5.03 
 -12   0  -6   73.89    4.13 
 -12   0  -6   74.29    4.22 
  12   0   7    0.14    2.30 
 -12   0  -7   -1.17    1.42 
  12   0   7   -1.20    1.68 
 -12   0  -7    1.60    1.46 
  12   1  -8   75.47    3.99 
 -12   1   8   64.34    4.05 
 -12   1   8   61.39    3.55 
  12   1  -8   66.65    4.06 
 -12  -1   8   52.32    3.40 
  12  -1  -8   72.57    3.93 
 -12  -1   8   67.57    3.88 
  12   1  -7    5.51    1.41 
 -12   1   7    2.49    1.43 
 -12   1   7    2.68    1.26 
 -12  -1   7    4.17    1.36 
 -12  -1   7    2.30    1.15 
  12  -1  -7    5.34    1.37 
 -12   1   6    1.84    1.30 
  12   1  -6    1.51    1.20 
 -12   1   6    0.95    1.17 
  12   1  -6    2.28    1.45 
 -12  -1   6   -0.15    1.04 
  12  -1  -6    2.03    1.04 
  12  -1  -6   -0.07    1.23 
 -12  -1   6    0.84    1.23 
 -12   1   5    2.51    1.11 
  12   1  -5    3.95    1.46 
 -12   1   5    4.71    1.27 
  12   1  -5    2.76    1.12 
 -12   1   5    3.83    1.26 
 -12  -1   5    4.98    1.18 
  12  -1  -5    4.07    1.12 
 -12  -1   5    4.82    1.06 
  12  -1  -5    2.89    1.15 
 -12   1   4  110.37    5.25 
  12   1  -4  110.27    5.25 
  12   1  -4  102.11    4.77 
  12   1  -4   98.69    5.07 
  12   1  -4  106.04    5.08 
 -12   1   4   98.10    4.90 
 -12   1   4   91.36    4.83 
 -12   1   4  101.83    4.78 
  12  -1  -4  104.29    5.27 
 -12  -1   4  106.57    4.76 
  12  -1  -4  102.18    5.28 
  12  -1  -4  105.05    4.80 
  12  -1  -4  105.29    4.78 
 -12  -1   4   92.46    4.73 
 -12  -1   4  100.41    4.75 
 -12  -1   4  110.90    5.25 
  12   1  -3  102.68    5.09 
  12   1  -3  102.94    4.61 
 -12   1   3  102.74    4.90 
 -12   1   3   91.54    4.68 
 -12   1   3   95.78    5.04 
  12   1  -3   98.26    4.95 
 -12   1   3   96.51    4.70 
 -12   1   3  104.67    4.75 
  12   1  -3  102.17    4.96 
  12  -1  -3   95.18    5.16 
  12  -1  -3   86.25    5.33 
 -12  -1   3  103.68    4.63 
 -12  -1   3  108.37    5.13 
 -12  -1   3  100.10    4.61 
 -12  -1   3  103.16    4.69 
  12  -1  -3   99.02    5.09 
  12  -1  -3  103.90    4.74 
 -12   1   2  144.42    6.53 
 -12   1   2  142.87    6.18 
  12   1  -2  136.21    5.96 
 -12   1   2  137.46    6.09 
  12   1  -2  130.04    6.37 
  12   1  -2  148.45    6.09 
  12   1  -2  135.23    6.50 
  12   1  -2  133.26    6.32 
 -12   1   2  137.62    6.13 
 -12   1   2  135.63    6.19 
 -12  -1   2  134.52    6.10 
 -12  -1   2  142.92    6.49 
  12  -1  -2  139.17    5.96 
  12  -1  -2  130.75    6.43 
  12  -1  -2  131.28    6.16 
  12  -1  -2  136.62    6.46 
 -12  -1   2  130.14    5.98 
  12  -1  -2  139.97    6.40 
  12   1  -1   23.67    2.16 
 -12   1   1   23.85    2.05 
  12   1  -1   16.75    1.73 
  12   1  -1   21.43    2.13 
  12   1  -1   23.88    1.95 
  12   1  -1   23.92    2.53 
 -12   1   1   22.71    1.87 
 -12   1   1   23.01    2.11 
  12   1  -1   22.77    2.09 
 -12   1   1   16.50    1.79 
  12  -1  -1   24.79    1.75 
 -12  -1   1   17.53    1.87 
  12  -1  -1   19.40    1.79 
 -12  -1   1   19.57    1.75 
  12  -1  -1   21.20    2.04 
 -12  -1   1   22.35    1.97 
  12  -1  -1   22.22    2.16 
  12  -1  -1   18.49    1.81 
  12   1   0   33.97    2.97 
 -12   1   0   35.41    2.55 
  12   1   0   38.30    2.93 
  12   1   0   36.77    2.09 
  12   1   0   38.66    2.74 
  12   1   0   40.06    2.23 
  12   1   0   39.14    2.92 
 -12   1   0   37.86    2.52 
 -12   1   0   35.64    3.23 
 -12   1   0   36.26    2.32 
  12  -1   0   39.27    2.26 
  12  -1   0   38.72    2.18 
  12  -1   0   41.01    3.00 
 -12  -1   0   38.08    3.13 
 -12  -1   0   37.76    2.25 
  12  -1   0   38.39    3.05 
  12  -1   0   38.96    2.70 
 -12  -1   0   38.28    2.48 
  12  -1   0   36.08    2.93 
 -12  -1   0   35.30    2.40 
  12   1   1   10.06    1.85 
 -12   1  -1    6.98    1.63 
 -12   1  -1    8.89    1.10 
  12   1   1    9.33    1.64 
 -12   1  -1   10.70    1.30 
  12   1   1   11.51    0.97 
  12   1   1    9.02    1.52 
  12   1   1   10.18    0.90 
  12   1   1   11.27    1.58 
 -12   1  -1   11.45    1.41 
 -12  -1  -1    8.30    1.24 
 -12  -1  -1   11.09    1.39 
  12  -1   1   11.62    0.98 
  12  -1   1    7.33    1.37 
  12  -1   1   10.71    1.01 
  12  -1   1    8.26    1.47 
 -12  -1  -1   11.73    2.01 
  12  -1   1    8.58    1.52 
  12  -1   1   12.24    1.59 
  12   1   2   64.27    3.82 
  12   1   2   57.43    3.86 
 -12   1  -2   57.43    4.24 
  12   1   2   57.23    4.05 
 -12   1  -2   63.46    3.35 
 -12   1  -2   63.90    3.43 
 -12   1  -2   63.32    3.49 
  12   1   2   69.78    2.86 
  12   1   2   64.02    3.79 
 -12  -1  -2   61.27    3.40 
 -12  -1  -2   60.73    3.44 
  12  -1   2   66.11    3.83 
  12  -1   2   67.17    2.92 
  12  -1   2   60.23    3.85 
 -12  -1  -2   66.72    3.31 
 -12  -1  -2   64.67    4.28 
  12  -1   2   65.82    2.93 
  12  -1   2   65.18    3.70 
  12   1   3   73.33    4.14 
 -12   1  -3   67.81    3.60 
 -12   1  -3   67.91    3.71 
  12   1   3   70.24    4.19 
  12   1   3   63.86    4.07 
 -12   1  -3   63.34    3.49 
  12  -1   3   67.12    4.11 
  12  -1   3   71.29    4.21 
 -12  -1  -3   71.03    3.66 
  12  -1   3   66.15    4.46 
  12  -1   3   69.19    2.93 
 -12  -1  -3   65.58    3.48 
 -12  -1  -3   67.08    3.65 
 -12   1  -4  112.84    5.27 
 -12   1  -4  116.31    5.46 
  12   1   4  113.20    5.77 
 -12   1  -4  115.86    5.27 
  12   1   4  111.30    5.75 
 -12  -1  -4  101.94    5.22 
 -12  -1  -4  111.46    5.34 
 -12  -1  -4  114.27    5.32 
  12  -1   4  111.67    5.87 
  12  -1   4  116.54    5.69 
  12   1   5   29.99    2.72 
  12   1   5   30.41    3.10 
 -12   1  -5   28.92    2.42 
 -12   1  -5   26.20    2.45 
 -12  -1  -5   28.40    2.62 
  12  -1   5   29.59    3.10 
 -12  -1  -5   24.97    2.65 
  12  -1   5   23.56    2.58 
  12   1   6   37.42    3.44 
 -12   1  -6   35.77    2.87 
  12   1   6   31.51    2.94 
 -12   1  -6   34.82    2.68 
 -12  -1  -6   34.05    2.96 
  12  -1   6   32.31    3.34 
 -12  -1  -6   33.87    2.83 
  12  -1   6   31.64    3.02 
  12   1   7   10.62    2.63 
 -12   1  -7   11.33    1.68 
  12   1   7   12.68    2.23 
 -12   1  -7   10.32    1.77 
  12  -1   7    9.51    2.04 
  12  -1   7    6.82    2.59 
 -12  -1  -7   11.34    1.70 
 -12  -1  -7   13.16    1.77 
 -12   2   8    5.77    1.84 
  12   2  -8    2.65    1.73 
  12   2  -8    2.59    1.62 
 -12   2   8    2.12    1.36 
  12  -2  -8    5.50    1.76 
 -12  -2   8    1.73    1.53 
 -12  -2   8    4.71    1.59 
  12   2  -7  113.59    5.29 
 -12   2   7   93.46    5.02 
  12   2  -7  103.11    5.30 
 -12   2   7  102.33    5.29 
 -12  -2   7  105.81    4.89 
  12  -2  -7  111.60    5.23 
  12   2  -6   54.79    3.43 
 -12   2   6   51.16    3.36 
 -12   2   6   44.30    3.14 
  12   2  -6   53.78    3.57 
 -12  -2   6   54.22    2.96 
 -12  -2   6   53.14    3.06 
  12  -2  -6   58.72    3.27 
  12   2  -5  144.13    6.24 
 -12   2   5  126.46    6.25 
 -12   2   5  120.75    6.22 
  12   2  -5  139.15    6.44 
 -12  -2   5  143.04    6.07 
  12  -2  -5  141.77    6.19 
 -12  -2   5  132.35    6.05 
  12  -2  -5  143.31    5.99 
  12   2  -4    8.89    1.60 
 -12   2   4    8.78    1.26 
  12   2  -4    8.19    1.94 
 -12   2   4    7.77    1.41 
 -12   2   4    6.83    1.28 
  12   2  -4    8.24    1.34 
  12   2  -4    9.83    1.66 
 -12   2   4    8.22    1.40 
  12  -2  -4   10.03    1.25 
 -12  -2   4    8.00    2.31 
 -12  -2   4    8.44    1.17 
  12  -2  -4    9.98    1.32 
 -12  -2   4    6.77    1.21 
  12  -2  -4    7.64    1.64 
 -12   2   3    6.34    1.27 
  12   2  -3    3.58    1.47 
  12   2  -3    4.93    1.36 
 -12   2   3    6.01    1.90 
  12   2  -3    5.10    1.41 
 -12   2   3    5.53    1.24 
  12   2  -3    4.20    1.68 
  12   2  -3    4.76    1.59 
 -12   2   3    4.92    1.14 
 -12  -2   3    6.31    1.08 
 -12  -2   3    4.78    1.00 
  12  -2  -3    5.51    1.23 
  12  -2  -3    5.28    1.07 
 -12  -2   3    5.58    1.71 
 -12  -2   3    5.76    1.11 
  12  -2  -3    4.87    1.38 
  12  -2  -3    7.00    1.91 
  12   2  -2   -0.04    1.80 
 -12   2   2    0.82    1.10 
  12   2  -2    0.03    1.11 
  12   2  -2    0.34    1.31 
  12   2  -2    0.11    0.94 
 -12   2   2    1.50    1.06 
 -12   2   2    1.05    1.17 
  12   2  -2    1.65    1.32 
 -12   2   2    1.99    1.67 
 -12   2   2   -0.16    1.00 
 -12  -2   2    1.54    1.75 
 -12  -2   2   -0.74    0.75 
  12  -2  -2   -0.39    1.82 
  12  -2  -2    0.64    1.43 
 -12  -2   2    0.30    1.02 
 -12  -2   2    0.38    0.85 
  12  -2  -2    0.74    1.09 
  12  -2  -2    0.02    0.90 
  12  -2  -2    1.06    1.53 
  12   2  -1   95.45    4.31 
  12   2  -1   93.43    5.03 
  12   2  -1   96.79    4.40 
 -12   2   1   87.12    4.53 
  12   2  -1   91.85    4.62 
 -12   2   1   92.16    5.12 
  12   2  -1   98.53    5.04 
  12   2  -1   90.45    4.81 
 -12   2   1   96.75    4.60 
  12   2  -1   89.89    4.84 
 -12   2   1   91.09    4.46 
 -12   2   1   93.96    4.64 
 -12  -2   1   92.33    5.58 
 -12  -2   1   91.78    4.25 
  12  -2  -1   99.39    4.33 
  12  -2  -1   94.48    4.90 
  12  -2  -1  100.25    5.03 
 -12  -2   1   91.55    4.50 
  12  -2  -1   90.75    4.93 
  12  -2  -1   94.80    4.65 
 -12  -2   1   93.22    4.44 
 -12   2   0   54.75    2.98 
 -12   2   0   54.30    3.18 
  12   2   0   58.27    2.87 
  12   2   0   48.65    3.88 
  12   2   0   55.35    2.74 
  12   2   0   56.13    3.74 
  12   2   0   57.26    3.65 
 -12   2   0   55.46    3.88 
 -12   2   0   50.29    3.29 
  12   2   0   50.76    3.44 
  12  -2   0   56.65    3.51 
  12  -2   0   53.34    3.69 
 -12  -2   0   57.61    3.91 
  12  -2   0   54.71    2.80 
 -12  -2   0   53.94    2.80 
 -12  -2   0   53.60    3.01 
  12  -2   0   52.85    3.30 
 -12  -2   0   51.06    3.09 
  12  -2   0   49.41    3.59 
  12   2   1  157.06    7.19 
  12   2   1  160.48    6.64 
  12   2   1  166.76    6.58 
 -12   2  -1  168.04    6.99 
  12   2   1  167.19    7.38 
 -12   2  -1  148.69    7.41 
 -12   2  -1  156.20    7.06 
  12   2   1  149.30    7.34 
 -12   2  -1  149.97    6.83 
  12   2   1  141.91    7.35 
 -12  -2  -1  154.28    6.94 
 -12  -2  -1  159.33    6.77 
  12  -2   1  145.23    7.13 
  12  -2   1  162.99    6.65 
  12  -2   1  154.34    7.29 
 -12  -2  -1  170.43    7.54 
  12  -2   1  157.60    7.15 
 -12  -2  -1  151.62    6.97 
  12  -2   1  144.99    7.17 
 -12   2  -2   13.15    1.61 
 -12   2  -2    9.87    1.28 
  12   2   2   12.32    1.12 
  12   2   2   14.17    2.08 
  12   2   2   12.07    1.00 
 -12   2  -2    7.14    1.71 
 -12   2  -2   13.58    1.53 
  12   2   2   10.20    1.65 
  12   2   2    5.08    2.19 
  12   2   2   11.08    1.87 
  12  -2   2    8.20    1.69 
  12  -2   2   10.03    0.96 
 -12  -2  -2   12.05    1.54 
  12  -2   2    8.77    1.49 
  12  -2   2   10.14    1.75 
 -12  -2  -2    9.12    1.37 
 -12  -2  -2   11.88    2.25 
 -12  -2  -2   10.43    1.18 
 -12   2  -3   29.54    2.40 
  12   2   3   19.37    2.20 
 -12   2  -3   29.24    2.64 
 -12   2  -3   25.35    2.23 
  12   2   3   30.05    2.89 
  12   2   3   24.83    1.46 
  12  -2   3   27.46    3.04 
 -12  -2  -3   23.86    2.48 
 -12  -2  -3   26.02    2.16 
 -12  -2  -3   24.79    2.43 
  12  -2   3   27.55    2.93 
  12  -2   3   27.45    1.56 
 -12   2  -4    4.55    1.31 
  12   2   4    1.28    1.55 
  12   2   4   -0.36    1.51 
 -12   2  -4    2.79    1.24 
 -12  -2  -4    0.73    1.35 
  12  -2   4    3.42    1.70 
 -12  -2  -4    3.12    1.21 
  12  -2   4    3.99    1.82 
 -12  -2  -4    1.11    1.25 
 -12   2  -5   22.82    2.44 
 -12   2  -5   27.07    2.51 
  12   2   5   20.53    2.47 
  12   2   5   21.04    2.25 
 -12  -2  -5   24.50    2.19 
 -12  -2  -5   24.07    1.98 
  12  -2   5   26.15    2.57 
  12  -2   5   21.16    2.58 
  12   2   6   20.37    2.72 
 -12   2  -6   19.43    1.91 
 -12   2  -6   19.43    1.77 
  12   2   6   15.13    2.17 
  12  -2   6   16.21    2.41 
  12  -2   6   17.76    2.75 
 -12  -2  -6   16.06    1.86 
 -12  -2  -6   16.10    1.83 
  12   3  -7   58.59    3.77 
 -12   3   7   54.75    3.54 
 -12   3   7   56.45    3.88 
  12   3  -7   64.42    4.03 
  12  -3  -7   65.34    3.95 
 -12  -3   7   60.39    3.20 
  12   3  -6    3.28    1.46 
 -12   3   6    1.68    1.44 
 -12   3   6    2.44    1.41 
  12   3  -6    1.89    1.67 
 -12  -3   6   -0.24    1.06 
 -12  -3   6    0.95    1.31 
  12  -3  -6    2.70    1.51 
  12   3  -5   38.73    3.20 
  12   3  -5   46.65    3.18 
 -12   3   5   38.88    3.08 
 -12   3   5   41.59    2.96 
 -12  -3   5   42.50    2.59 
 -12  -3   5   36.17    2.52 
  12  -3  -5   45.77    3.04 
 -12   3   4   15.11    1.72 
  12   3  -4   17.54    1.99 
  12   3  -4   17.02    1.79 
 -12   3   4   18.96    1.88 
  12  -3  -4   17.74    3.35 
 -12  -3   4   21.75    2.00 
 -12  -3   4   21.58    1.89 
  12  -3  -4   17.01    1.83 
  12  -3  -4   21.96    1.77 
 -12   3   3  117.93    5.32 
  12   3  -3  115.07    5.25 
  12   3  -3  110.64    5.18 
 -12   3   3  112.35    5.25 
 -12   3   3  100.27    5.30 
 -12   3   3  119.94    4.98 
  12   3  -3  103.31    5.56 
  12   3  -3  107.93    5.75 
 -12  -3   3  112.22    4.91 
 -12  -3   3  111.34    5.13 
  12  -3  -3  100.91    5.03 
  12  -3  -3   89.80    5.49 
  12  -3  -3  118.47    5.12 
  12   3  -2    6.43    1.47 
  12   3  -2    5.10    1.57 
 -12   3   2    4.12    1.39 
 -12   3   2    5.16    1.23 
  12   3  -2    9.04    2.60 
  12   3  -2    4.26    1.26 
  12   3  -2    5.68    1.38 
 -12   3   2    7.46    1.27 
 -12   3   2    6.24    1.48 
 -12   3   2    7.67    2.19 
  12  -3  -2    5.66    1.29 
  12  -3  -2   10.08    2.40 
 -12  -3   2    6.84    1.15 
 -12  -3   2    4.00    1.95 
 -12  -3   2    7.58    0.99 
  12  -3  -2    1.93    2.69 
  12  -3  -2    5.25    1.18 
 -12  -3   2    7.10    1.23 
  12  -3  -2    3.87    1.35 
  12   3  -1  134.14    7.06 
 -12   3   1  140.95    6.31 
 -12   3   1  137.42    7.09 
 -12   3   1  149.57    6.49 
 -12   3   1  134.13    6.51 
  12   3  -1  150.01    6.27 
  12   3  -1  145.55    6.81 
  12   3  -1  169.09    7.05 
  12   3  -1  135.46    6.37 
 -12   3   1  142.09    6.32 
  12   3  -1  142.56    6.79 
  12  -3  -1  141.31    7.01 
  12  -3  -1  139.12    6.72 
 -12  -3   1  143.19    6.32 
 -12  -3   1  141.40    6.05 
  12  -3  -1  121.23    6.63 
  12  -3  -1  124.77    6.39 
 -12  -3   1  134.28    6.77 
  12  -3  -1  150.10    6.20 
  12   3   0   -0.04    1.46 
 -12   3   0   -0.26    0.98 
  12   3   0    1.68    2.01 
 -12   3   0    0.74    1.34 
  12   3   0    0.32    1.45 
  12   3   0    0.85    2.02 
 -12   3   0    1.54    1.17 
  12   3   0    1.16    0.98 
  12   3   0    0.99    1.14 
 -12   3   0    1.00    2.08 
  12   3   0    1.22    1.64 
  12  -3   0   -2.65    1.79 
 -12  -3   0   -0.46    1.01 
 -12  -3   0    0.49    1.23 
  12  -3   0    0.48    1.27 
 -12  -3   0   -0.02    1.94 
  12  -3   0    1.48    1.63 
  12  -3   0    1.41    1.33 
  12  -3   0   -0.51    0.97 
 -12  -3   0   -1.02    0.78 
 -12   3  -1   22.27    2.51 
  12   3   1   13.87    1.98 
  12   3   1   24.02    1.77 
 -12   3  -1   18.47    2.05 
 -12   3  -1   23.54    2.72 
  12   3   1   17.31    2.22 
 -12   3  -1   21.42    1.86 
  12   3   1   24.81    2.06 
  12   3   1   19.50    2.53 
  12   3   1   25.33    2.59 
  12  -3   1   22.35    2.08 
  12  -3   1   23.64    2.38 
 -12  -3  -1   23.76    1.88 
  12  -3   1   21.78    1.87 
 -12  -3  -1   24.13    2.76 
 -12  -3  -1   22.41    2.42 
 -12  -3  -1   23.95    2.45 
  12  -3   1   16.12    1.98 
 -12   3  -2    4.47    1.26 
  12   3   2    5.12    0.81 
  12   3   2    5.40    1.81 
  12   3   2    5.82    2.07 
 -12   3  -2    4.16    1.15 
  12   3   2    3.94    1.59 
 -12   3  -2    1.44    1.51 
  12  -3   2    3.65    1.54 
  12  -3   2    4.39    0.91 
 -12  -3  -2    1.23    1.20 
 -12  -3  -2    4.31    1.49 
 -12  -3  -2    4.05    2.19 
 -12  -3  -2    3.05    1.06 
  12  -3   2    3.23    1.53 
  12   3   3   97.07    5.17 
 -12   3  -3   97.90    5.10 
 -12   3  -3  100.11    4.68 
 -12   3  -3  102.33    4.88 
  12  -3   3   97.98    4.24 
 -12  -3  -3   95.98    4.88 
  12  -3   3   84.62    5.21 
 -12  -3  -3   97.23    4.97 
  12  -3   3   85.96    5.28 
 -12  -3  -3   96.58    4.58 
  12   3   4    9.56    2.46 
 -12   3  -4    9.05    1.66 
 -12   3  -4    9.90    1.62 
  12   3   4    7.41    1.76 
 -12  -3  -4   10.65    1.83 
 -12  -3  -4    8.99    1.50 
  12  -3   4    6.62    1.90 
  12  -3   4    7.11    2.14 
 -12   3  -5  148.29    6.62 
  12   3   5  153.22    7.30 
  12   3   5  143.32    7.48 
 -12   3  -5  150.49    6.74 
  12  -3   5  140.15    7.14 
  12  -3   5  128.03    7.43 
 -12  -3  -5  144.23    6.89 
 -12  -3  -5  143.70    6.57 
 -12   3  -6    3.38    1.68 
 -12   3  -6    4.80    1.67 
  12   3   6    4.97    2.36 
  12   3   6    4.15    2.34 
 -12  -3  -6    2.79    1.41 
 -12  -3  -6    4.24    1.89 
  12  -3   6    3.25    2.18 
  12  -3   6    4.85    2.48 
  12   4  -6  139.66    6.59 
 -12   4   6  129.60    6.71 
 -12   4   6  128.62    6.48 
  12   4  -6  147.73    6.78 
  12  -4  -6  152.72    6.70 
 -12  -4   6  133.94    6.18 
  12  -4  -6  146.96    6.54 
 -12   4   5   61.53    3.93 
  12   4  -5   63.38    3.80 
 -12   4   5   57.39    3.69 
  12   4  -5   61.06    3.96 
  12  -4  -5   64.52    3.79 
 -12  -4   5   57.98    4.03 
  12  -4  -5   58.19    3.69 
 -12   4   4   26.04    2.79 
 -12   4   4   26.57    2.32 
  12   4  -4   30.84    3.11 
  12   4  -4   32.01    2.86 
 -12  -4   4   32.68    2.45 
 -12  -4   4   28.54    2.07 
  12  -4  -4   25.72    2.68 
  12   4  -3    2.09    1.73 
 -12   4   3    3.78    1.46 
  12   4  -3    3.13    1.42 
 -12   4   3    2.25    1.33 
  12  -4  -3    2.98    1.01 
  12  -4  -3    4.23    1.34 
 -12  -4   3    2.96    1.26 
 -12  -4   3    2.62    0.95 
  12  -4  -3    2.18    1.76 
 -12   4   2    2.60    2.14 
  12   4  -2    0.45    1.28 
  12   4  -2    0.76    1.69 
 -12   4   2    0.89    1.16 
 -12  -4   2    0.27    1.15 
  12  -4  -2    1.37    1.13 
  12  -4  -2    1.19    1.45 
  12  -4  -2    0.41    1.19 
 -12  -4   2    0.21    0.88 
  12   4  -1   42.67    3.57 
 -12   4   1   32.61    3.14 
  12   4  -1   36.31    3.07 
 -12   4   1   42.15    3.13 
  12   4  -1   41.50    3.73 
 -12   4   1   41.22    2.87 
 -12   4   1   38.83    3.05 
 -12  -4   1   42.39    2.25 
  12  -4  -1   36.74    3.25 
 -12  -4   1   38.77    2.87 
 -12  -4   1   44.34    3.56 
  12  -4  -1   34.70    3.29 
  12  -4  -1   43.00    2.75 
  12  -4  -1   43.88    3.94 
  12  -4  -1   37.94    2.86 
 -12   4   0  128.06    6.63 
  12   4   0  151.80    6.32 
 -12   4   0  148.81    6.66 
 -12   4   0  131.75    7.64 
  12   4   0  153.55    7.06 
  12   4   0  142.23    7.20 
 -12   4   0  149.69    6.50 
  12  -4   0  113.74    6.83 
  12  -4   0  133.43    7.24 
 -12  -4   0  146.81    6.55 
 -12  -4   0  150.82    6.61 
 -12  -4   0  152.28    6.10 
  12  -4   0  129.87    6.84 
 -12   4  -1   51.41    3.06 
  12   4   1   46.68    4.03 
  12   4   1   53.12    2.83 
  12   4   1   48.45    3.82 
 -12   4  -1   48.63    3.36 
 -12   4  -1   42.98    3.45 
  12   4   1   29.70    4.44 
  12   4   1   54.33    5.15 
 -12  -4  -1   45.19    3.18 
 -12  -4  -1   48.86    2.67 
  12  -4   1   49.43    2.87 
 -12  -4  -1   44.67    3.41 
  12  -4   1   43.04    3.48 
  12   4   2   53.47    2.77 
 -12   4  -2   55.95    3.49 
 -12   4  -2   53.17    3.10 
  12   4   2   53.71    3.86 
  12   4   2   46.33    4.16 
 -12   4  -2   48.28    3.86 
  12  -4   2   36.03    3.78 
  12  -4   2   45.54    3.66 
 -12  -4  -2   48.98    3.30 
  12  -4   2   52.50    2.83 
 -12  -4  -2   47.34    3.49 
 -12   4  -3   28.38    2.39 
  12   4   3   27.25    2.80 
 -12   4  -3   27.93    2.55 
  12   4   3   29.60    2.75 
 -12  -4  -3   24.80    2.36 
 -12  -4  -3   31.82    3.04 
 -12  -4  -3   25.22    2.84 
  12  -4   3   27.96    2.06 
  12  -4   3   27.98    2.65 
  12   4   4   11.10    2.76 
  12   4   4   13.52    2.37 
 -12   4  -4   11.30    1.60 
 -12   4  -4   12.34    1.93 
  12  -4   4    8.88    2.12 
  12  -4   4    7.87    1.98 
 -12  -4  -4   10.92    1.63 
 -12  -4  -4   15.08    1.83 
  12   4   5   21.58    2.86 
 -12   4  -5   20.04    2.19 
 -12   4  -5   17.78    2.02 
  12   4   5   13.73    2.35 
 -12  -4  -5   16.55    1.81 
  12  -4   5   11.98    2.15 
 -12  -4  -5   23.07    2.23 
  12  -4   5   17.34    2.73 
 -12   5   5    0.79    1.83 
 -12   5   5   -0.11    1.65 
  12   5  -5    0.24    1.77 
  12  -5  -5    1.84    1.72 
  12  -5  -5   -1.46    1.55 
 -12  -5   5    0.19    1.22 
  12   5  -4   98.58    5.29 
 -12   5   4   93.35    5.19 
 -12   5   4   93.20    5.23 
  12  -5  -4  108.35    5.18 
  12  -5  -4  104.16    5.19 
 -12  -5   4   95.50    4.93 
  12   5  -3   13.17    2.11 
 -12   5   3   11.72    1.78 
 -12   5   3   15.33    1.99 
 -12  -5   3   14.60    1.71 
  12  -5  -3   13.63    1.83 
  12  -5  -3   10.90    1.81 
  12   5  -2  179.68    8.26 
 -12   5   2  159.79    7.91 
 -12   5   2  179.42    7.92 
  12  -5  -2  190.03    7.80 
  12  -5  -2  175.35    7.92 
  12  -5  -2  170.11    7.47 
 -12  -5   2  169.10    7.78 
  12  -5  -2  171.41    8.20 
  12   5  -1    2.00    1.93 
 -12   5   1   -0.15    1.58 
 -12   5   1    1.77    1.66 
 -12   5   1    0.16    1.28 
 -12  -5   1   -0.03    1.01 
  12  -5  -1    0.07    1.66 
  12  -5  -1   -0.02    1.23 
 -12  -5   1    1.82    1.43 
  12  -5  -1   -0.38    1.36 
  12  -5  -1    1.27    1.71 
 -12   5   0   17.09    1.83 
 -12   5   0   21.06    2.10 
  12   5   0   18.00    2.50 
 -12   5   0   14.17    1.93 
  12  -5   0   16.58    1.76 
 -12  -5   0   17.99    1.66 
  12  -5   0   17.35    2.34 
  12  -5   0   17.58    2.34 
 -12  -5   0   15.04    1.61 
  12  -5   0   19.25    1.84 
 -12   5  -1    5.25    2.09 
  12   5   1    3.01    2.03 
  12   5   1    3.43    2.11 
 -12   5  -1    5.82    1.57 
  12  -5   1    3.56    1.31 
 -12  -5  -1    4.73    1.34 
  12  -5   1    2.46    1.60 
  12  -5   1    0.33    1.83 
 -12  -5  -1    4.35    0.97 
 -12   5  -2   31.11    2.68 
  12   5   2   26.64    2.70 
 -12   5  -2   28.13    2.51 
  12   5   2   29.14    3.19 
 -12  -5  -2   23.85    2.35 
  12  -5   2   25.07    2.79 
  12  -5   2   27.07    2.41 
  12  -5   2   20.02    2.34 
 -12  -5  -2   23.04    2.50 
  12   5   3    6.12    1.98 
  12   5   3    9.39    2.32 
 -12   5  -3    6.64    1.89 
 -12   5  -3    7.39    1.56 
  12  -5   3    7.86    3.24 
  12  -5   3    8.22    2.12 
 -12  -5  -3    5.30    1.92 
 -12  -5  -3    7.46    1.33 
  12  -5   3    3.92    1.34 
 -12   5  -4  127.75    6.37 
 -12   5  -4  129.34    5.93 
  12   5   4  133.75    6.70 
  12   5   4  127.24    6.83 
  12  -5   4  102.69    6.62 
 -12  -5  -4  128.11    5.84 
 -12  -5  -4  116.17    6.16 
  12  -5   4  116.04    6.56 
 -12   6   3   -1.70    1.56 
  12   6  -3   -0.27    2.05 
 -12   6   3    1.24    1.82 
  12  -6  -3    0.92    1.75 
 -12  -6   3    0.54    1.52 
  12  -6  -3    0.18    1.77 
 -12   6   2   22.04    2.23 
 -12   6   2   25.17    2.39 
  12   6  -2   26.65    2.90 
  12  -6  -2   31.51    2.40 
 -12  -6   2   26.48    2.80 
 -12   6   1    2.49    1.89 
  12   6  -1    5.62    2.41 
 -12   6   1    7.43    1.79 
 -12  -6   1    6.91    1.73 
  12  -6  -1    8.44    1.78 
  12  -6  -1   10.74    2.47 
  12   6   0   51.70    4.66 
 -12   6   0   50.86    3.57 
  12  -6   0   53.14    3.57 
 -12  -6   0   45.27    3.43 
  12  -6   0   49.14    4.03 
  12   6   1   18.63    2.79 
 -12   6  -1   23.25    2.26 
 -12   6  -1   22.27    2.51 
 -12  -6  -1   19.18    1.90 
  12  -6   1   23.23    2.64 
  12  -6   1   20.32    2.00 
 -13   0   7   -0.52    1.51 
  13   0  -7    1.65    1.54 
 -13   0   7   -0.25    1.27 
  13   0  -6  199.96    8.36 
 -13   0   6  180.50    8.39 
 -13   0   6  183.84    8.32 
  13   0  -6  198.72    8.34 
 -13   0   5    0.46    1.22 
 -13   0   5    0.85    1.18 
  13   0  -5    0.33    1.25 
  13   0  -5    0.46    1.10 
  13   0  -4   50.61    3.63 
 -13   0   4   52.09    3.16 
 -13   0   4   55.57    3.20 
  13   0  -4   55.17    3.06 
  13   0  -3    0.85    1.61 
 -13   0   3   -0.86    1.06 
  13   0  -3   -0.25    1.43 
 -13   0   3   -0.54    0.99 
  13   0  -3    0.74    1.01 
  13   0  -2    0.65    1.24 
 -13   0   2    0.45    1.02 
  13   0  -2    1.43    1.53 
 -13   0   2    0.14    1.14 
  13   0  -2    0.45    1.40 
  13   0  -2    0.10    0.97 
 -13   0   2    0.41    0.99 
  13   0  -1   -1.19    1.23 
  13   0  -1   -1.25    1.46 
 -13   0   1    0.08    1.74 
  13   0  -1   -2.80    1.80 
 -13   0   1    0.06    1.00 
 -13   0   1   -0.81    0.87 
  13   0  -1    0.28    1.37 
  13   0  -1   -0.71    0.83 
  13   0  -1    3.13    1.10 
 -13   0   1    1.16    1.01 
  13   0   0  226.14    9.62 
 -13   0   0  204.96    9.26 
  13   0   0  203.20    9.63 
 -13   0   0  226.12    9.79 
 -13   0   0  215.38    9.40 
 -13   0   0  213.96    9.35 
  13   0   0  222.61    9.69 
  13   0   0  223.96    9.58 
  13   0   0  226.17    9.17 
  13   0   0  231.61    9.13 
 -13   0  -1   -0.47    0.96 
 -13   0  -1    0.92    1.07 
  13   0   1   -1.12    1.26 
 -13   0  -1    0.48    1.82 
  13   0   1    0.48    2.25 
 -13   0  -1   -0.82    0.92 
  13   0   1    0.25    0.71 
  13   0   1    0.08    1.56 
  13   0   1    0.41    2.03 
 -13   0  -2  117.77    5.60 
 -13   0  -2  124.27    5.67 
  13   0   2  128.31    5.18 
  13   0   2  121.21    5.99 
 -13   0  -2  125.00    7.00 
  13   0   2  121.39    6.15 
 -13   0  -2  123.23    5.70 
  13   0   3   -0.19    1.68 
 -13   0  -3    0.20    1.10 
 -13   0  -3   -1.06    1.55 
  13   0   3    2.82    1.69 
 -13   0  -3    1.63    1.17 
  13   0   4   46.83    3.76 
 -13   0  -4   45.43    3.04 
 -13   0  -4   46.61    3.07 
  13   0   4   43.49    3.93 
 -13   0  -5    0.73    1.40 
  13   0   5   -1.07    2.11 
  13   0   5    1.81    1.66 
 -13   0  -5   -0.65    1.27 
  13   0   6   87.77    5.85 
  13   0   6   95.89    5.47 
 -13   0  -6   90.75    4.97 
 -13   0  -6  102.61    4.93 
 -13   1   7   34.49    3.06 
  13   1  -7   45.37    3.29 
  13   1  -7   48.87    3.59 
 -13   1   7   44.53    3.48 
 -13  -1   7   37.15    2.88 
  13  -1  -7   50.13    3.24 
 -13  -1   7   40.98    3.27 
  13   1  -6    6.59    1.52 
  13   1  -6   10.27    1.74 
 -13   1   6    4.77    1.59 
 -13   1   6    7.23    1.48 
  13  -1  -6    7.78    1.52 
 -13  -1   6    7.18    1.53 
  13  -1  -6    7.93    1.46 
 -13  -1   6    8.62    1.39 
 -13   1   5    5.89    1.47 
 -13   1   5    4.47    1.24 
  13   1  -5    3.98    1.65 
  13   1  -5    5.81    1.33 
 -13  -1   5    7.00    1.28 
  13  -1  -5    8.01    1.39 
  13  -1  -5    8.09    1.30 
 -13  -1   5    5.57    1.40 
 -13   1   4   48.55    3.09 
  13   1  -4   49.56    3.36 
 -13   1   4   47.70    3.14 
  13   1  -4   50.85    2.97 
 -13  -1   4   47.00    2.98 
  13  -1  -4   49.80    2.98 
  13  -1  -4   53.71    2.98 
 -13  -1   4   49.64    2.95 
  13   1  -3   18.60    1.88 
  13   1  -3   16.55    1.48 
 -13   1   3   18.14    1.78 
 -13   1   3   15.51    1.51 
  13   1  -3   20.71    2.38 
  13  -1  -3   20.64    1.91 
 -13  -1   3   16.09    1.50 
  13  -1  -3   16.95    1.67 
  13  -1  -3   16.06    1.96 
 -13  -1   3   16.13    1.48 
 -13   1   2  156.97    6.66 
  13   1  -2  154.80    6.43 
 -13   1   2  150.00    6.67 
 -13   1   2  146.65    6.55 
  13   1  -2  147.43    6.77 
  13   1  -2  148.06    6.89 
  13  -1  -2  145.42    6.71 
  13  -1  -2  151.26    7.02 
  13  -1  -2  137.71    7.00 
 -13  -1   2  145.36    6.53 
 -13  -1   2  143.60    6.44 
 -13  -1   2  146.82    6.58 
  13  -1  -2  137.55    7.52 
  13   1  -1  107.75    5.57 
  13   1  -1  105.66    4.86 
  13   1  -1  107.57    5.24 
 -13   1   1  112.11    5.12 
 -13   1   1  109.30    5.05 
 -13   1   1  105.07    4.92 
  13   1  -1  108.38    5.41 
 -13   1   1  109.71    5.69 
  13   1  -1  112.14    4.76 
  13  -1  -1  106.26    5.41 
 -13  -1   1  104.71    4.82 
 -13  -1   1   87.34    5.40 
 -13  -1   1  109.15    5.80 
  13  -1  -1  104.91    5.12 
  13  -1  -1  107.81    4.76 
  13  -1  -1   99.21    5.54 
  13  -1  -1  106.24    5.41 
 -13  -1   1  102.54    4.89 
  13   1   0   44.09    2.56 
 -13   1   0   41.76    2.76 
 -13   1   0   44.69    3.89 
  13   1   0   40.45    3.99 
  13   1   0   42.61    3.35 
 -13   1   0   42.51    2.63 
  13   1   0   42.19    2.33 
  13   1   0   41.64    3.03 
 -13   1   0   41.07    2.84 
  13   1   0   43.18    3.49 
  13  -1   0   43.44    3.43 
  13  -1   0   42.06    3.44 
 -13  -1   0   39.44    3.82 
  13  -1   0   41.21    3.27 
  13  -1   0   37.51    2.97 
 -13  -1   0   42.72    2.85 
 -13  -1   0   39.30    2.47 
  13  -1   0   41.45    2.54 
  13  -1   0   44.48    2.37 
 -13  -1   0   40.02    2.66 
 -13   1  -1    0.04    1.90 
 -13   1  -1    1.78    1.02 
  13   1   1    3.20    2.12 
  13   1   1    2.80    0.73 
  13   1   1    1.56    1.60 
 -13   1  -1    2.63    1.28 
  13   1   1    1.21    1.36 
 -13   1  -1    1.80    1.08 
  13   1   1    0.43    1.32 
  13  -1   1    1.17    1.59 
 -13  -1  -1    1.85    1.07 
  13  -1   1    0.88    0.78 
 -13  -1  -1    1.82    0.99 
 -13  -1  -1    1.05    1.84 
  13  -1   1    5.03    1.53 
  13  -1   1    3.61    1.48 
 -13  -1  -1    0.61    1.08 
  13   1   2   15.85    1.90 
  13   1   2   21.51    2.25 
 -13   1  -2   18.70    1.64 
  13   1   2   17.32    1.29 
 -13   1  -2   19.64    1.78 
 -13   1  -2   11.57    1.42 
 -13  -1  -2   18.29    1.81 
  13  -1   2   18.08    2.12 
 -13  -1  -2   18.62    2.59 
 -13  -1  -2   17.27    1.63 
  13  -1   2   12.59    2.43 
 -13  -1  -2   14.31    1.47 
  13  -1   2   16.03    1.38 
  13   1   3    6.58    1.91 
  13   1   3    8.10    1.98 
 -13   1  -3    5.75    1.33 
 -13   1  -3    3.76    1.30 
 -13   1  -3    6.60    1.61 
  13  -1   3    5.26    1.79 
  13  -1   3    4.17    1.64 
 -13  -1  -3    4.19    1.20 
 -13  -1  -3    5.24    1.35 
 -13  -1  -3    4.76    1.36 
 -13   1  -4  113.47    5.49 
 -13   1  -4  112.77    5.55 
  13   1   4  120.78    6.09 
  13   1   4  118.60    6.10 
 -13  -1  -4  115.13    5.47 
  13  -1   4  118.58    6.00 
  13  -1   4  120.78    6.15 
 -13  -1  -4  116.00    5.61 
 -13   1  -5   68.60    3.99 
  13   1   5   74.40    4.87 
 -13   1  -5   70.62    3.96 
  13   1   5   70.13    4.71 
  13  -1   5   69.66    4.89 
 -13  -1  -5   76.08    4.10 
  13  -1   5   66.06    4.50 
 -13  -1  -5   66.67    3.96 
  13   2  -7   63.34    3.89 
 -13   2   7   56.65    4.04 
 -13   2   7   48.61    3.55 
  13   2  -7   62.78    4.19 
  13  -2  -7   63.38    3.71 
 -13  -2   7   54.80    3.71 
 -13   2   6    3.31    1.42 
  13   2  -6    5.36    1.51 
 -13   2   6    4.63    1.64 
  13   2  -6   11.21    1.99 
 -13  -2   6    8.12    1.32 
 -13  -2   6    7.53    1.43 
  13  -2  -6    8.61    1.59 
  13   2  -5  155.90    6.98 
 -13   2   5  138.21    7.02 
  13   2  -5  158.45    7.35 
 -13   2   5  142.19    7.04 
  13  -2  -5  166.54    6.93 
  13  -2  -5  163.64    6.79 
 -13  -2   5  154.93    6.81 
 -13   2   4   45.22    3.31 
  13   2  -4   56.23    3.21 
 -13   2   4   45.34    3.26 
  13   2  -4   51.46    3.75 
 -13  -2   4   49.73    2.98 
  13  -2  -4   52.64    3.04 
  13  -2  -4   60.01    3.09 
 -13  -2   4   56.57    3.09 
  13   2  -3   38.67    3.19 
  13   2  -3   34.34    2.53 
 -13   2   3   32.20    2.74 
 -13   2   3   32.42    2.62 
  13  -2  -3   33.44    2.44 
 -13  -2   3   32.73    2.56 
  13  -2  -3   37.32    2.62 
  13  -2  -3   34.49    3.43 
 -13  -2   3   34.51    2.39 
 -13   2   2   13.96    1.61 
  13   2  -2   13.99    1.88 
  13   2  -2   13.82    2.07 
  13   2  -2   12.54    1.79 
 -13   2   2   11.00    1.39 
 -13   2   2   15.91    1.68 
  13  -2  -2   16.67    1.43 
  13  -2  -2   12.65    1.66 
 -13  -2   2   14.78    1.35 
 -13  -2   2   13.33    1.46 
  13  -2  -2   12.34    1.84 
 -13   2   1   22.24    2.24 
  13   2  -1   27.36    2.46 
  13   2  -1   26.86    2.28 
  13   2  -1   23.85    1.99 
 -13   2   1   23.60    2.56 
 -13   2   1   26.42    2.57 
 -13  -2   1   23.78    2.21 
  13  -2  -1   18.76    2.20 
  13  -2  -1   28.96    2.67 
 -13  -2   1   21.72    2.39 
  13  -2  -1   24.59    2.83 
  13  -2  -1   26.05    2.03 
  13  -2  -1   28.72    2.97 
 -13   2   0    1.08    1.94 
  13   2   0    1.77    1.58 
  13   2   0    0.82    1.47 
 -13   2   0    0.85    1.30 
  13   2   0    2.06    1.19 
  13   2   0    1.75    0.85 
  13   2   0    2.68    2.29 
 -13   2   0    1.16    1.18 
 -13   2   0    0.54    1.05 
  13  -2   0    1.89    1.44 
 -13  -2   0    1.56    1.28 
  13  -2   0    1.30    0.93 
  13  -2   0    1.23    1.58 
 -13  -2   0    1.54    0.90 
 -13  -2   0    0.16    1.05 
  13  -2   0   -0.53    1.84 
  13  -2   0    2.15    1.37 
  13   2   1  148.22    7.92 
  13   2   1  172.25    6.67 
  13   2   1  164.38    7.72 
  13   2   1  156.21    7.35 
 -13   2  -1  145.72    6.94 
 -13   2  -1  158.01    7.18 
  13   2   1  158.10    7.46 
 -13   2  -1  149.03    7.68 
 -13   2  -1  172.31    7.15 
 -13  -2  -1  159.29    7.06 
  13  -2   1  149.43    7.31 
 -13  -2  -1  152.76    6.86 
  13  -2   1  155.40    7.46 
 -13  -2  -1  159.46    7.13 
  13  -2   1  167.47    6.76 
 -13   2  -2   42.06    2.79 
  13   2   2   45.80    2.17 
 -13   2  -2   46.07    3.24 
  13   2   2   43.40    3.42 
  13   2   2   40.96    3.52 
 -13   2  -2   46.06    3.01 
 -13  -2  -2   37.61    4.00 
  13  -2   2   38.59    3.65 
 -13  -2  -2   40.67    3.02 
 -13  -2  -2   41.12    2.69 
  13  -2   2   46.80    2.34 
 -13  -2  -2   43.59    3.03 
  13  -2   2   43.78    3.49 
  13   2   3   73.00    4.36 
 -13   2  -3   67.02    3.72 
 -13   2  -3   67.40    3.90 
  13   2   3   66.72    4.36 
 -13  -2  -3   66.08    3.63 
 -13  -2  -3   68.55    3.92 
 -13  -2  -3   71.99    3.94 
  13  -2   3   62.93    4.41 
  13  -2   3   66.10    4.41 
  13   2   4    0.27    1.76 
 -13   2  -4    0.62    1.25 
 -13   2  -4    0.03    1.25 
  13   2   4   -0.49    1.92 
  13  -2   4   -1.08    1.76 
 -13  -2  -4    0.06    1.47 
 -13  -2  -4    0.40    1.27 
  13  -2   4    0.75    1.82 
 -13   2  -5    1.74    1.33 
 -13   2  -5    1.84    1.54 
  13   2   5    3.11    2.04 
  13   2   5    2.52    2.14 
 -13  -2  -5    2.50    1.47 
 -13  -2  -5    0.59    1.70 
  13  -2   5   -1.62    2.23 
  13  -2   5    4.41    2.06 
  13   3  -6   -1.40    1.85 
  13   3  -6    1.59    1.65 
 -13   3   6    1.61    1.63 
 -13   3   6    2.18    1.81 
  13  -3  -6    2.99    1.66 
 -13  -3   6    1.83    1.17 
  13   3  -5   -0.34    1.55 
 -13   3   5    0.69    1.63 
 -13   3   5    2.62    1.62 
  13   3  -5    2.75    1.80 
 -13  -3   5    0.29    1.25 
  13  -3  -5    1.18    1.48 
 -13  -3   5    1.24    1.18 
 -13   3   4    0.63    1.55 
  13   3  -4    5.29    1.54 
  13   3  -4    5.66    1.91 
 -13   3   4    3.34    1.50 
  13  -3  -4    3.68    1.32 
 -13  -3   4    4.11    1.22 
  13  -3  -4    3.27    1.38 
 -13  -3   4    4.31    1.18 
  13   3  -3  138.13    6.08 
 -13   3   3  121.17    6.28 
 -13   3   3  128.67    6.14 
  13   3  -3  128.79    6.60 
  13  -3  -3  124.78    5.96 
  13  -3  -3  142.17    5.97 
 -13  -3   3  135.22    5.81 
 -13  -3   3  130.05    6.02 
  13   3  -2   16.24    2.17 
 -13   3   2   12.56    1.79 
 -13   3   2   11.63    1.61 
  13   3  -2   11.28    1.50 
  13  -3  -2   10.70    1.63 
 -13  -3   2   12.81    1.58 
 -13  -3   2   13.49    1.26 
  13  -3  -2   12.07    1.45 
  13  -3  -2   16.13    2.21 
  13   3  -1   66.43    4.36 
  13   3  -1   70.04    4.59 
 -13   3   1   61.55    3.97 
 -13   3   1   72.28    3.73 
  13   3  -1   71.88    3.59 
 -13   3   1   74.81    4.05 
 -13  -3   1   68.74    3.37 
  13  -3  -1   70.09    3.57 
 -13  -3   1   66.81    3.85 
  13  -3  -1   61.67    4.23 
 -13   3   0    1.99    1.47 
 -13   3   0    1.73    1.17 
  13   3   0    3.86    1.76 
  13   3   0    1.33    1.05 
 -13   3   0    5.37    1.70 
  13   3   0    2.29    1.67 
  13  -3   0    1.89    1.47 
  13  -3   0    1.94    1.13 
 -13  -3   0    2.44    1.45 
 -13  -3   0    3.26    1.31 
  13  -3   0    4.07    1.50 
  13   3   1   14.89    2.25 
  13   3   1   11.44    1.14 
 -13   3  -1   13.11    1.88 
 -13   3  -1   11.60    1.76 
  13   3   1   13.85    2.06 
 -13   3  -1    9.61    1.45 
  13  -3   1   12.36    1.91 
 -13  -3  -1   11.55    1.70 
  13  -3   1    8.33    1.21 
 -13  -3  -1   10.19    1.53 
 -13  -3  -1   10.40    1.23 
  13  -3   1    9.77    2.35 
 -13   3  -2   -0.56    2.25 
  13   3   2    2.95    1.83 
  13   3   2    1.81    1.77 
 -13   3  -2    1.21    1.40 
 -13   3  -2   -0.21    1.16 
  13  -3   2    1.62    1.77 
  13  -3   2    1.52    0.93 
 -13  -3  -2    0.84    1.06 
  13  -3   2    2.20    1.67 
 -13  -3  -2    1.22    1.53 
 -13  -3  -2    1.87    1.39 
  13   3   3  121.68    6.34 
 -13   3  -3  126.70    5.75 
 -13   3  -3  111.48    5.56 
  13   3   3  115.69    6.11 
 -13  -3  -3  113.03    6.12 
  13  -3   3  117.32    6.23 
 -13  -3  -3  115.31    5.47 
  13  -3   3  104.87    6.19 
 -13  -3  -3  142.85    7.24 
 -13   3  -4   14.79    1.76 
 -13   3  -4   18.32    2.01 
  13   3   4   15.09    2.18 
  13   3   4   15.39    2.46 
  13  -3   4   12.32    2.44 
 -13  -3  -4   11.24    1.84 
 -13  -3  -4   11.88    1.66 
  13  -3   4   10.68    2.16 
 -13   4   5   41.46    3.76 
 -13   4   5   48.98    3.88 
  13   4  -5   51.86    4.18 
  13   4  -5   56.44    3.87 
  13  -4  -5   60.69    3.64 
 -13  -4   5   50.07    3.20 
  13  -4  -5   51.35    3.75 
  13   4  -4   60.93    3.85 
 -13   4   4   51.04    3.87 
 -13   4   4   56.92    3.88 
  13   4  -4   62.46    4.35 
  13  -4  -4   62.80    3.69 
 -13  -4   4   59.89    3.50 
  13   4  -3   15.58    1.93 
  13   4  -3   14.68    2.40 
 -13   4   3   13.81    2.10 
 -13   4   3   12.64    1.78 
 -13  -4   3   15.82    1.76 
  13  -4  -3   15.22    1.73 
 -13   4   2    3.40    1.39 
  13   4  -2    4.19    1.49 
 -13   4   2    2.46    1.62 
  13   4  -2    0.72    1.96 
 -13  -4   2    2.20    1.24 
 -13  -4   2    3.54    1.07 
  13  -4  -2    3.10    1.40 
  13  -4  -2    5.98    1.43 
 -13   4   1   24.12    2.09 
 -13   4   1   32.31    3.20 
 -13   4   1   19.87    2.33 
  13   4  -1   23.18    1.95 
  13   4  -1   26.65    2.70 
  13  -4  -1   18.19    2.44 
 -13  -4   1   24.17    2.17 
  13  -4  -1   23.27    2.58 
  13  -4  -1   24.30    2.42 
 -13  -4   1   21.41    1.93 
 -13   4   0   33.36    3.30 
 -13   4   0   35.91    2.77 
  13   4   0   34.09    3.67 
  13   4   0   38.84    2.72 
 -13   4   0   34.14    3.29 
 -13  -4   0   31.88    3.04 
  13  -4   0   34.97    2.64 
 -13  -4   0   33.34    2.23 
  13  -4   0   34.82    3.81 
  13   4   1   56.44    4.76 
 -13   4  -1   75.41    6.17 
  13   4   1   65.70    3.19 
 -13   4  -1   50.76    4.44 
  13   4   1   57.03    4.33 
 -13   4  -1   58.98    3.51 
 -13  -4  -1   57.96    3.09 
  13  -4   1   51.69    4.22 
 -13  -4  -1   52.80    3.78 
  13  -4   1   54.80    4.16 
 -13   4  -2  104.83    5.25 
  13   4   2  102.76    5.58 
 -13   4  -2  101.15    4.97 
  13   4   2  100.72    6.25 
 -13  -4  -2  102.95    4.68 
 -13  -4  -2   75.53    5.90 
  13  -4   2   94.38    5.50 
  13  -4   2   90.16    5.72 
  13  -4   2  108.28    4.68 
  13   4   3   41.16    3.85 
 -13   4  -3   36.40    3.46 
  13   4   3   43.55    3.66 
 -13   4  -3   34.35    2.97 
 -13  -4  -3   35.84    2.75 
  13  -4   3   33.70    3.12 
 -13  -4  -3   28.04    3.44 
  13  -4   3   39.82    3.39 
 -13   5   3    0.11    1.74 
  13   5  -3    0.19    1.78 
  13   5  -3    0.41    2.14 
 -13   5   3   -0.45    1.77 
 -13  -5   3    0.26    1.48 
  13  -5  -3   -0.28    1.61 
  13  -5  -3   -0.77    1.74 
  13   5  -2  138.94    7.58 
 -13   5   2  147.84    6.99 
 -13   5   2  130.09    7.10 
  13   5  -2  158.85    6.92 
  13  -5  -2  155.60    7.22 
  13  -5  -2  165.49    6.89 
 -13  -5   2  138.52    6.94 
  13   5  -1   20.42    2.64 
 -13   5   1   14.43    2.09 
  13   5  -1   24.43    2.06 
 -13   5   1   19.22    2.05 
  13  -5  -1   24.07    2.08 
  13  -5  -1   23.26    1.99 
 -13  -5   1   15.51    1.78 
  13   5   0   58.43    3.66 
  13   5   0   66.61    4.88 
 -13   5   0   65.16    3.89 
  13  -5   0   50.95    4.70 
 -13  -5   0   59.89    3.88 
  13  -5   0   55.65    3.90 
  13  -5   0   63.57    3.66 
 -13   5  -1    2.10    2.07 
  13   5   1    4.08    2.31 
 -13   5  -1    1.31    1.53 
 -13  -5  -1    0.42    1.79 
  13  -5   1    3.31    1.41 
  13  -5   1   -0.16    2.19 
  13  -5   1    1.31    1.86 
 -14   0   6   76.67    4.23 
  14   0  -6   79.79    4.44 
  14   0  -6   87.67    4.27 
 -14   0   6   68.45    4.41 
  14   0  -5   -0.31    1.35 
  14   0  -5   -2.32    1.37 
 -14   0   5    2.26    1.31 
 -14   0   5   -0.96    1.41 
  14   0  -4  151.09    6.69 
  14   0  -4  155.71    6.83 
 -14   0   4  147.78    6.76 
 -14   0   4  142.92    6.72 
 -14   0   3   -1.08    1.11 
  14   0  -3    0.12    1.34 
  14   0  -3   -0.43    1.16 
 -14   0   3    0.73    1.30 
 -14   0   2    2.37    1.11 
  14   0  -2    2.34    1.10 
 -14   0   2    2.71    1.31 
  14   0  -2    0.44    1.37 
  14   0  -1    0.48    0.94 
  14   0  -1   -1.11    1.70 
 -14   0   1   -0.30    1.06 
  14   0  -1   -1.35    1.28 
 -14   0   1    1.49    1.21 
  14   0   0   75.39    4.16 
 -14   0   0   72.44    3.89 
  14   0   0   76.88    3.46 
 -14   0   0   70.06    3.72 
  14   0   0   69.91    4.41 
 -14   0  -1   -1.06    1.23 
 -14   0  -1    1.49    1.15 
  14   0   1   -0.63    0.80 
  14   0   1    0.30    2.04 
 -14   0  -1   -0.70    1.25 
  14   0   1    1.13    1.44 
 -14   0  -2  255.49   10.64 
  14   0   2  245.53   10.96 
 -14   0  -2  256.23   10.71 
  14   0   2  257.56   11.06 
 -14   0  -2  239.68   10.73 
  14   0   3   -0.03    1.72 
  14   0   3    1.04    2.76 
 -14   0  -3   -1.20    1.31 
 -14   0  -3    0.71    1.34 
 -14   0  -4   31.48    2.87 
 -14   0  -4   26.50    2.78 
  14   0   4   27.95    2.72 
  14   0   4   30.59    2.74 
 -14   1   6    9.51    1.75 
  14   1  -6   11.66    1.93 
 -14   1   6    8.09    1.91 
  14   1  -6    8.56    1.63 
 -14  -1   6   11.36    1.58 
  14  -1  -6   10.70    1.67 
 -14  -1   6   10.40    1.75 
  14   1  -5    2.38    1.73 
  14   1  -5    1.18    1.35 
 -14   1   5    3.10    1.54 
 -14   1   5    6.32    1.56 
  14  -1  -5    1.12    1.65 
  14  -1  -5    3.90    1.41 
 -14  -1   5    3.90    1.43 
 -14  -1   5    1.74    1.42 
 -14   1   4   10.53    1.69 
  14   1  -4    9.56    1.82 
 -14   1   4    9.87    1.58 
  14   1  -4    8.89    1.45 
 -14  -1   4    9.22    1.43 
  14  -1  -4    8.36    1.49 
  14  -1  -4   11.29    1.48 
 -14  -1   4   10.07    1.51 
  14   1  -3   50.48    3.43 
 -14   1   3   47.27    3.12 
 -14   1   3   48.80    3.28 
  14   1  -3   52.14    3.04 
 -14  -1   3   49.09    3.07 
  14  -1  -3   49.19    3.18 
  14  -1  -3   51.32    2.96 
 -14  -1   3   47.57    3.02 
  14   1  -2  120.19    5.38 
 -14   1   2  113.81    5.68 
 -14   1   2  116.84    5.53 
  14   1  -2  113.04    5.81 
  14  -1  -2  129.04    5.70 
  14  -1  -2  121.06    5.39 
 -14  -1   2  119.98    5.46 
 -14  -1   2  123.50    5.61 
 -14   1   1   50.95    3.19 
 -14   1   1   47.33    2.95 
  14   1  -1   50.29    3.78 
  14   1  -1   48.11    2.71 
  14   1  -1   49.30    3.35 
 -14  -1   1   44.48    3.16 
 -14  -1   1   43.90    2.79 
  14  -1  -1   43.37    3.18 
  14  -1  -1   53.46    3.82 
  14  -1  -1   45.57    3.24 
  14   1   0   78.69    4.64 
  14   1   0   85.32    3.70 
 -14   1   0   77.01    4.22 
 -14   1   0   74.71    3.97 
  14   1   0   77.58    4.43 
 -14   1   0   82.52    4.17 
  14  -1   0   76.44    4.57 
  14  -1   0   79.18    3.70 
 -14  -1   0   77.20    4.11 
 -14  -1   0   80.42    4.19 
 -14  -1   0   75.08    3.88 
  14  -1   0   73.92    4.34 
 -14   1  -1   16.37    1.78 
 -14   1  -1   16.12    1.82 
  14   1   1   18.79    1.59 
  14   1   1   20.42    2.32 
 -14   1  -1   17.99    1.66 
  14   1   1   21.83    2.13 
  14  -1   1   16.93    2.36 
 -14  -1  -1   17.92    1.85 
  14  -1   1   16.77    1.64 
 -14  -1  -1   19.08    2.06 
  14  -1   1   16.71    1.94 
 -14  -1  -1   17.07    1.76 
 -14   1  -2    2.64    1.22 
  14   1   2    3.37    1.80 
 -14   1  -2    1.43    1.92 
 -14   1  -2    3.20    1.40 
  14   1   2    2.19    1.72 
  14  -1   2    4.32    1.92 
  14  -1   2    4.19    1.80 
 -14  -1  -2    4.30    1.21 
 -14  -1  -2    0.28    1.52 
 -14  -1  -2    4.64    1.35 
 -14   1  -3   14.27    1.77 
 -14   1  -3   12.71    1.62 
  14   1   3   15.15    2.14 
  14   1   3   12.30    2.13 
  14  -1   3   15.19    2.26 
 -14  -1  -3   11.72    1.68 
 -14  -1  -3   11.90    1.57 
  14  -1   3    8.58    2.06 
 -14   1  -4   62.03    3.80 
  14   1   4   66.59    4.64 
 -14   1  -4   61.30    3.79 
  14   1   4   69.28    4.72 
 -14  -1  -4   63.41    3.84 
 -14  -1  -4   61.33    4.03 
  14  -1   4   64.98    4.61 
  14  -1   4   65.61    4.50 
 -14   2   5  124.69    6.18 
  14   2  -5  136.09    6.55 
  14   2  -5  133.10    6.03 
 -14   2   5  120.66    6.15 
  14  -2  -5  132.81    5.92 
 -14  -2   5  124.32    5.83 
 -14  -2   5  118.56    5.95 
  14   2  -4    6.49    1.94 
 -14   2   4   11.47    1.67 
  14   2  -4    8.27    1.54 
 -14   2   4    4.13    1.54 
  14  -2  -4    6.57    1.44 
 -14  -2   4    8.30    1.37 
  14  -2  -4    5.24    1.52 
 -14  -2   4    6.77    1.36 
 -14   2   3   63.01    3.81 
 -14   2   3   67.47    3.96 
  14   2  -3   69.69    4.30 
  14   2  -3   70.69    3.65 
 -14  -2   3   69.47    3.55 
 -14  -2   3   67.43    3.72 
  14  -2  -3   54.25    4.03 
  14  -2  -3   67.20    3.67 
  14   2  -2   17.56    1.53 
  14   2  -2   15.11    2.07 
 -14   2   2   14.78    1.67 
 -14   2   2   13.44    1.72 
  14  -2  -2   14.42    1.78 
 -14  -2   2   15.70    1.42 
  14  -2  -2   15.92    1.53 
 -14  -2   2   12.95    1.70 
  14   2  -1    3.71    1.65 
 -14   2   1    3.84    1.20 
 -14   2   1    2.40    1.45 
  14  -2  -1    2.43    1.12 
  14  -2  -1    4.83    1.57 
 -14  -2   1    2.99    1.07 
 -14  -2   1    3.96    1.45 
  14  -2  -1    3.93    1.67 
 -14   2   0   22.64    2.01 
 -14   2   0   16.36    1.66 
  14   2   0   20.45    2.58 
  14   2   0   18.45    1.84 
 -14   2   0   21.52    2.11 
  14   2   0   20.25    2.18 
  14  -2   0   18.17    1.48 
 -14  -2   0   17.11    1.81 
 -14  -2   0   17.99    1.56 
  14  -2   0   20.63    2.28 
  14  -2   0   21.39    2.13 
 -14   2  -1   97.34    4.82 
 -14   2  -1   92.44    4.57 
  14   2   1   98.93    5.44 
 -14   2  -1   96.18    4.85 
  14   2   1   84.85    5.06 
  14  -2   1   88.90    5.28 
  14  -2   1   87.95    5.00 
  14  -2   1  101.77    4.25 
 -14  -2  -1   87.09    4.42 
 -14  -2  -1   85.83    4.92 
 -14   2  -2   13.90    1.83 
  14   2   2    9.44    2.03 
  14   2   2   13.12    1.95 
 -14   2  -2   10.80    1.53 
  14  -2   2   14.62    2.32 
 -14  -2  -2   15.37    1.90 
  14  -2   2   15.44    2.12 
 -14  -2  -2   16.03    1.88 
 -14  -2  -2   10.76    1.46 
  14   2   3  125.19    6.46 
 -14   2  -3  125.68    6.00 
 -14   2  -3  120.20    5.88 
  14   2   3  125.04    6.63 
 -14  -2  -3  129.43    5.87 
  14  -2   3  131.78    6.56 
 -14  -2  -3  127.67    6.09 
  14  -2   3  114.70    6.43 
  14   3  -4   -1.83    2.02 
 -14   3   4   -0.27    1.89 
 -14   3   4    1.06    1.54 
  14   3  -4   -0.89    1.58 
 -14  -3   4    0.99    1.31 
  14  -3  -4    1.53    1.46 
  14   3  -3   71.07    4.47 
 -14   3   3   61.56    3.75 
 -14   3   3   58.41    3.98 
  14   3  -3   60.22    3.70 
  14  -3  -3   61.42    3.61 
 -14  -3   3   57.77    3.34 
 -14  -3   3   60.69    3.66 
  14  -3  -3   58.75    3.63 
  14   3  -2    7.70    1.42 
  14   3  -2    3.33    1.92 
 -14   3   2    6.37    1.51 
 -14   3   2    7.63    1.76 
 -14  -3   2    6.49    1.64 
  14  -3  -2    4.29    1.53 
  14  -3  -2    6.08    1.39 
 -14  -3   2    5.39    1.20 
  14   3  -1  195.03    9.34 
 -14   3   1  206.81    8.94 
  14   3  -1  211.15    8.74 
 -14   3   1  198.50    9.13 
  14  -3  -1  210.96   10.98 
  14  -3  -1  203.28    9.02 
 -14  -3   1  197.08    9.00 
 -14  -3   1  203.21    8.67 
  14  -3  -1  215.83    8.76 
  14   3   0    0.50    1.90 
 -14   3   0    2.40    1.34 
  14   3   0    4.39    1.14 
  14  -3   0    2.97    1.65 
 -14  -3   0    3.95    1.65 
  14  -3   0    2.52    1.15 
 -14  -3   0    1.93    1.09 
 -14   3  -1   21.07    2.45 
 -14   3  -1   12.13    1.59 
  14   3   1   11.35    2.12 
  14  -3   1   16.76    2.42 
 -14  -3  -1   15.77    1.50 
 -14  -3  -1   14.46    1.85 
  14  -3   1   16.50    1.43 
  14  -3   1   15.47    2.10 
 -14   3  -2   -3.10    1.64 
 -14   3  -2    0.27    1.37 
  14   3   2   -0.16    1.94 
  14   3   2    0.14    2.26 
 -14  -3  -2   -0.54    1.26 
  14  -3   2    0.33    1.81 
  14  -3   2    0.32    2.00 
  14   3   3   15.25    2.28 
 -14   3  -3   23.26    2.21 
  14   3   3   22.74    2.71 
 -14   3  -3   17.54    1.96 
  14  -3   3   17.85    2.39 
 -14  -3  -3   23.18    1.91 
  14  -3   3   19.49    2.65 
  14   4  -2   16.66    2.62 
 -14   4   2   13.96    2.30 
 -14   4   2   13.08    1.92 
  14   4  -2   13.37    1.81 
 -14  -4   2   14.75    1.92 
  14  -4  -2   14.04    1.73 
 -14   4   1    5.40    2.17 
 -14   4   1    2.20    1.58 
  14   4  -1    5.23    1.52 
  14   4  -1    4.38    2.37 
  14  -4  -1    6.21    1.91 
  14  -4  -1    6.09    1.43 
 -14  -4   1    5.97    1.76 
  14   4   0   57.31    4.61 
 -14   4   0   55.82    3.65 
  14   4   0   62.10    3.52 
  14  -4   0   52.18    4.15 
  14  -4   0   62.12    3.44 
 -14  -4   0   59.42    3.15 
 -14  -4   0   55.84    3.90 
  14  -4   0   58.29    4.82 
 -14   4  -1   51.59    3.61 
  14   4   1   62.40    4.60 
  14  -4   1   52.59    3.59 
  14  -4   1   54.91    4.55 
  14  -4   1   56.73    4.35 
 -14  -4  -1   58.14    3.19 
 -14  -4  -1   55.57    3.95 
 -15   0   4   90.82    4.83 
 -15   0   4   92.74    4.81 
  15   0  -4   98.94    4.75 
  15   0  -4   91.96    4.92 
 -15   0   3    1.22    1.30 
  15   0  -3    0.18    1.27 
 -15   0   3    0.98    1.44 
  15   0  -3    1.78    1.56 
  15   0  -2   53.64    3.75 
 -15   0   2   59.13    3.57 
 -15   0   2   58.84    3.42 
  15   0  -2   56.75    3.21 
  15   0  -1    0.08    1.05 
 -15   0   1   -0.17    1.23 
  15   0  -1   -0.96    1.54 
 -15   0   1    1.72    1.32 
  15   0   0   31.79    3.21 
 -15   0   0   32.52    2.65 
 -15   0   0   33.06    2.89 
  15   0   0   36.57    2.85 
 -15   0  -1    1.06    1.25 
  15   0   1    0.15    1.79 
  15   0   1   -0.33    1.67 
 -15   0  -1    0.21    1.83 
  15   0   2  108.91    5.96 
 -15   0  -2  109.43    5.31 
  15   0   2  112.05    5.88 
 -15   1   3    0.05    1.32 
  15   1  -3    2.59    1.33 
 -15   1   3    1.99    1.66 
  15   1  -3    0.15    1.67 
 -15  -1   3    1.35    1.34 
 -15  -1   3   -0.61    1.35 
  15  -1  -3   -0.86    1.43 
  15  -1  -3    0.39    1.25 
  15   1  -2   93.30    4.39 
  15   1  -2   89.44    4.94 
 -15   1   2   88.56    4.56 
 -15   1   2   88.26    4.77 
 -15  -1   2   84.80    4.59 
  15  -1  -2   86.10    4.73 
 -15  -1   2   88.13    4.43 
  15  -1  -2   93.66    4.33 
 -15   1   1   87.18    4.55 
  15   1  -1   86.14    4.76 
 -15   1   1   77.70    4.26 
  15   1  -1   88.17    4.08 
  15  -1  -1   81.78    4.62 
  15  -1  -1   86.11    4.06 
 -15  -1   1   82.06    4.22 
 -15  -1   1   78.13    4.41 
 -15   1   0   80.31    4.21 
  15   1   0   81.29    4.70 
 -15   1   0   79.26    4.47 
 -15  -1   0   82.02    4.41 
  15  -1   0   82.30    4.67 
  15  -1   0   88.00    3.96 
 -15  -1   0   76.51    4.13 
 -15   1  -1   15.28    1.71 
  15   1   1   22.71    2.40 
  15  -1   1   21.78    2.41 
  15  -1   1   20.77    2.39 
 -15  -1  -1   16.77    1.69 
 -15  -1  -1   19.53    2.17 
  15   1   2    8.26    2.09 
 -15   1  -2    6.43    1.47 
  15   1   2    5.64    2.12 
  15  -1   2    7.44    2.06 
  15  -1   2    8.78    1.98 
 -15  -1  -2    8.35    1.53 
 -15   2   2    0.98    1.34 
  15   2  -2    0.08    1.29 
 -15   2   2   -0.50    1.37 
  15   2  -2    3.81    1.84 
  15  -2  -2   -0.03    1.25 
 -15  -2   2    0.79    1.49 
 -15  -2   2   -2.72    1.18 
  15  -2  -2    0.67    1.52 
  15   2  -1   -2.62    1.78 
  15   2  -1   -0.04    1.16 
 -15   2   1   -0.14    1.63 
 -15   2   1    0.04    1.32 
 -15  -2   1    0.50    1.56 
  15  -2  -1   -0.87    1.20 
  15  -2  -1    0.23    1.64 
 -15  -2   1   -1.07    1.19 
 -15   2   0   -0.11    1.65 
 -15   2   0   -0.87    1.26 
  15   2   0    1.31    1.87 
  15  -2   0   -2.27    1.75 
  15  -2   0    1.68    1.41 
 -15  -2   0    3.20    1.65 
 -15  -2   0    1.49    1.16 
  15   2   1   61.04    4.25 
 -15   2  -1   53.52    3.54 
  15  -2   1   66.89    4.69 
  15  -2   1   61.58    4.20 
 -15  -2  -1   60.59    3.42 
 -15  -2  -1   54.27    4.04 
   0   0   0    0.00    0.00 
;
_shelx_hkl_checksum              27299
loop_
_space_group_symop_operation_xyz
'x, y, z'
'-x, y+1/2, -z+1/2'
'-x, -y, -z'
'x, -y-1/2, z-1/2'
loop_
_atom_site_label
_atom_site_type_symbol
_atom_site_fract_x
_atom_site_fract_y
_atom_site_fract_z
_atom_site_U_iso_or_equiv
_atom_site_adp_type
_atom_site_occupancy
_atom_site_site_symmetry_order
_atom_site_calc_flag
_atom_site_refinement_flags_posn
_atom_site_refinement_flags_occupancy
U1 U 0.04621(2) 0.34530(2) 0.17665(2) 0.00694(4) Uani 1 1 d . .
Zn1 Zn 0.5000 0.0000 0.5000 0.00906(8) Uani 1 2 d S P
F1 F 0.24666(14) 0.33436(18) 0.21432(17) 0.0123(3) Uani 1 1 d . .
F2 F 0.11341(13) 0.64071(18) 0.29301(16) 0.0100(3) Uani 1 1 d . .
F3 F 0.10178(12) 0.02816(19) 0.21385(15) 0.0094(3) Uani 1 1 d . .
F4 F 0.06847(13) 0.2952(2) 0.43882(15) 0.0108(3) Uani 1 1 d . .
F5 F 0.11303(12) 0.56302(19) -0.00022(15) 0.0100(3) Uani 1 1 d . .
O1 O 0.33768(16) 0.0243(3) 0.3656(2) 0.0126(3) Uani 1 1 d D .
H1A H 0.278(2) -0.007(5) 0.401(4) 0.025(10) Uiso 1 1 d D .
H1B H 0.322(4) 0.116(4) 0.318(4) 0.028(10) Uiso 1 1 d D .
O2 O 0.47346(17) 0.2752(3) 0.5740(2) 0.0137(3) Uani 1 1 d D .
H2A H 0.512(3) 0.314(5) 0.645(3) 0.025(10) Uiso 1 1 d D .
H2B H 0.418(3) 0.344(4) 0.555(4) 0.022(10) Uiso 1 1 d D .
O3 O 0.60499(17) 0.1176(3) 0.3336(2) 0.0118(3) Uani 1 1 d D .
H3A H 0.653(3) 0.042(4) 0.310(4) 0.033(11) Uiso 1 1 d D .
H3B H 0.642(4) 0.209(5) 0.354(6) 0.056(14) Uiso 1 1 d D .
O4 O 0.28726(16) 0.5680(3) 0.5376(2) 0.0134(3) Uani 1 1 d D .
H4A H 0.249(3) 0.593(5) 0.461(2) 0.023(9) Uiso 1 1 d D .
H4B H 0.232(3) 0.550(5) 0.588(3) 0.029(10) Uiso 1 1 d D .
loop_
_atom_site_aniso_label
_atom_site_aniso_U_11
_atom_site_aniso_U_22
_atom_site_aniso_U_33
_atom_site_aniso_U_23
_atom_site_aniso_U_13
_atom_site_aniso_U_12
U1 0.00631(5) 0.00719(5) 0.00733(5) 0.00024(3) 0.00054(3) 0.00007(3)
Zn1 0.00712(17) 0.01015(17) 0.00982(17) 0.00040(12) 0.00002(13) -0.00014(13)
F1 0.0082(7) 0.0123(7) 0.0166(7) 0.0019(5) 0.0020(6) 0.0004(5)
F2 0.0092(7) 0.0096(6) 0.0111(6) -0.0003(5) 0.0005(5) 0.0002(5)
F3 0.0084(6) 0.0089(6) 0.0111(6) 0.0001(5) 0.0019(5) 0.0005(5)
F4 0.0124(7) 0.0105(6) 0.0097(6) 0.0009(5) 0.0010(5) -0.0002(5)
F5 0.0101(7) 0.0103(6) 0.0096(6) 0.0002(5) 0.0002(5) -0.0007(5)
O1 0.0086(8) 0.0150(8) 0.0140(8) 0.0029(7) -0.0003(7) 0.0000(7)
O2 0.0101(8) 0.0134(8) 0.0172(9) -0.0044(7) -0.0009(7) 0.0019(7)
O3 0.0106(8) 0.0118(8) 0.0129(8) 0.0004(6) 0.0008(7) 0.0011(7)
O4 0.0089(8) 0.0177(9) 0.0133(8) 0.0017(7) -0.0001(7) -0.0012(7)
loop_
_atom_type_symbol
_atom_type_description
_atom_type_scat_dispersion_real
_atom_type_scat_dispersion_imag
_atom_type_scat_source
O O 0.0106 0.0060 'International Tables Vol C Tables 4.2.6.8 and 6.1.1.4'
H H 0.0000 0.0000 'International Tables Vol C Tables 4.2.6.8 and 6.1.1.4'
F F 0.0171 0.0103 'International Tables Vol C Tables 4.2.6.8 and 6.1.1.4'
Zn Zn 0.2839 1.4301 'International Tables Vol C Tables 4.2.6.8 and 6.1.1.4'
U U -9.6767 9.6646 'International Tables Vol C Tables 4.2.6.8 and 6.1.1.4'
loop_
_geom_angle_atom_site_label_1
_geom_angle_atom_site_label_2
_geom_angle_atom_site_label_3
_geom_angle
_geom_angle_site_symmetry_1
_geom_angle_site_symmetry_3
F1 U1 F2 136.25(5) . 2_545
F1 U1 F3 72.36(5) . .
F2 U1 F3 65.03(5) 2_545 .
F1 U1 F4 79.34(5) . .
F2 U1 F4 79.34(5) 2_545 .
F3 U1 F4 73.07(5) . .
F1 U1 F3 132.41(5) . 2
F2 U1 F3 74.77(5) 2_545 2
F3 U1 F3 130.68(3) . 2
F4 U1 F3 72.46(5) . 2
F1 U1 F5 76.39(5) . .
F2 U1 F5 139.99(5) 2_545 .
F3 U1 F5 128.93(5) . .
F4 U1 F5 138.04(5) . .
F3 U1 F5 100.19(5) 2 .
F1 U1 F5 142.92(5) . 3_565
F2 U1 F5 73.26(5) 2_545 3_565
F3 U1 F5 122.12(5) . 3_565
F4 U1 F5 135.87(5) . 3_565
F3 U1 F5 67.40(5) 2 3_565
F5 U1 F5 68.45(5) . 3_565
F1 U1 F4 87.20(5) . 4_565
F2 U1 F4 88.34(5) 2_545 4_565
F3 U1 F4 71.29(5) . 4_565
F4 U1 F4 144.23(2) . 4_565
F3 U1 F4 136.27(5) 2 4_565
F5 U1 F4 67.78(5) . 4_565
F5 U1 F4 69.17(5) 3_565 4_565
F1 U1 F2 72.23(5) . .
F2 U1 F2 134.64(2) 2_545 .
F3 U1 F2 134.22(5) . .
F4 U1 F2 72.66(5) . .
F3 U1 F2 63.21(5) 2 .
F5 U1 F2 67.58(5) . .
F5 U1 F2 103.61(5) 3_565 .
F4 U1 F2 134.02(5) 4_565 .
F1 U1 U1 109.89(4) . 3_565
F2 U1 U1 106.79(4) 2_545 3_565
F3 U1 U1 134.55(3) . 3_565
F4 U1 U1 152.10(3) . 3_565
F3 U1 U1 82.79(3) 2 3_565
F5 U1 U1 34.23(3) . 3_565
F5 U1 U1 34.22(3) 3_565 3_565
F4 U1 U1 63.66(3) 4_565 3_565
F2 U1 U1 84.93(3) . 3_565
F1 U1 U1 101.51(3) . 2_545
F2 U1 U1 34.81(3) 2_545 2_545
F3 U1 U1 33.18(3) . 2_545
F4 U1 U1 63.05(4) . 2_545
F3 U1 U1 98.82(3) 2 2_545
F5 U1 U1 155.62(3) . 2_545
F5 U1 U1 105.57(3) 3_565 2_545
F4 U1 U1 87.91(3) 4_565 2_545
F2 U1 U1 135.58(3) . 2_545
U1 U1 U1 135.486(4) 3_565 2_545
F1 U1 U1 105.22(3) . 2
F2 U1 U1 107.84(3) 2_545 2
F3 U1 U1 152.51(3) . 2
F4 U1 U1 79.55(3) . 2
F3 U1 U1 33.08(3) 2 2
F5 U1 U1 74.56(3) . 2
F5 U1 U1 76.88(3) 3_565 2
F4 U1 U1 136.18(3) 4_565 2
F2 U1 U1 33.00(3) . 2
U1 U1 U1 72.641(4) 3_565 2
U1 U1 U1 128.354(5) 2_545 2
O2 Zn1 O2 180.0 . 3_656
O2 Zn1 O1 88.17(7) . .
O2 Zn1 O1 91.83(7) 3_656 .
O2 Zn1 O1 91.83(7) . 3_656
O2 Zn1 O1 88.17(7) 3_656 3_656
O1 Zn1 O1 180.00(10) . 3_656
O2 Zn1 O3 87.10(7) . .
O2 Zn1 O3 92.90(7) 3_656 .
O1 Zn1 O3 93.47(7) . .
O1 Zn1 O3 86.53(7) 3_656 .
O2 Zn1 O3 92.90(7) . 3_656
O2 Zn1 O3 87.10(7) 3_656 3_656
O1 Zn1 O3 86.53(7) . 3_656
O1 Zn1 O3 93.47(7) 3_656 3_656
O3 Zn1 O3 180.0 . 3_656
U1 F2 U1 112.20(6) 2 .
U1 F3 U1 113.74(5) . 2_545
U1 F4 U1 159.81(7) . 4_566
U1 F5 U1 111.55(5) . 3_565
Zn1 O1 H1A 117(3) . .
Zn1 O1 H1B 121(3) . .
H1A O1 H1B 107(4) . .
Zn1 O2 H2A 120(3) . .
Zn1 O2 H2B 129(3) . .
H2A O2 H2B 109(4) . .
Zn1 O3 H3A 109(3) . .
Zn1 O3 H3B 118(4) . .
H3A O3 H3B 105(5) . .
H4A O4 H4B 98(3) . .
loop_
_geom_bond_atom_site_label_1
_geom_bond_atom_site_label_2
_geom_bond_distance
_geom_bond_site_symmetry_2
U1 F1 2.2092(15) .
U1 F2 2.3055(14) 2_545
U1 F3 2.3371(13) .
U1 F4 2.3412(13) .
U1 F3 2.3437(13) 2
U1 F5 2.3498(13) .
U1 F5 2.3506(13) 3_565
U1 F4 2.3553(13) 4_565
U1 F2 2.4168(13) .
U1 U1 3.88633(19) 3_565
U1 U1 3.91997(16) 2_545
U1 U1 3.92000(16) 2
Zn1 O2 2.0767(18) .
Zn1 O2 2.0767(18) 3_656
Zn1 O1 2.0796(18) .
Zn1 O1 2.0796(18) 3_656
Zn1 O3 2.1085(18) .
Zn1 O3 2.1085(18) 3_656
F2 U1 2.3056(14) 2
F3 U1 2.3437(13) 2_545
F4 U1 2.3553(13) 4_566
F5 U1 2.3506(13) 3_565
O1 H1A 0.785(18) .
O1 H1B 0.783(19) .
O2 H2A 0.785(19) .
O2 H2B 0.784(18) .
O3 H3A 0.791(19) .
O3 H3B 0.780(19) .
O4 H4A 0.789(18) .
O4 H4B 0.793(18) .
loop_
_geom_hbond_atom_site_label_D
_geom_hbond_atom_site_label_H
_geom_hbond_atom_site_label_A
_geom_hbond_distance_DH
_geom_hbond_distance_HA
_geom_hbond_distance_DA
_geom_hbond_angle_DHA
_geom_hbond_site_symmetry_A
O1 H1A F3 0.785(18) 2.47(3) 2.834(2) 110(3) .
O1 H1A F5 0.785(18) 2.106(19) 2.889(2) 174(4) 4_566
O1 H1B F1 0.783(19) 1.95(2) 2.717(2) 167(4) .
O2 H2A O3 0.785(19) 1.949(19) 2.730(3) 173(4) 4_566
O2 H2B O4 0.784(18) 2.140(19) 2.912(3) 168(4) .
O3 H3A F1 0.791(19) 1.86(2) 2.635(2) 168(4) 2_645
O3 H3B O4 0.780(19) 1.97(2) 2.726(3) 163(5) 3_666
O4 H4A F2 0.789(18) 2.06(2) 2.828(2) 166(4) .
O4 H4B F3 0.793(18) 1.957(19) 2.745(2) 172(4) 4_566
