#------------------------------------------------------------------------------
#$Date: 2019-11-23 14:05:40 +0200 (Sat, 23 Nov 2019) $
#$Revision: 233555 $
#$URL: file:///home/coder/svn-repositories/cod/cif/4/34/90/4349038.cif $
#------------------------------------------------------------------------------
#
# This file is available in the Crystallography Open Database (COD),
# http://www.crystallography.net/
#
# All data on this site have been placed in the public domain by the
# contributors.
#
data_4349038
loop_
_publ_author_name
'Tong, King-Lung'
'Yee, Chi-Chung'
'Tse, Yuen Cheong'
'Au-Yeung, Ho Yu'
_publ_section_title
;
 Discoveries from a phenanthroline-based dynamic combinatorial library:
 catenane from a copper(i) or copper(ii) template?
;
_journal_issue                   3
_journal_name_full               'Inorganic Chemistry Frontiers'
_journal_page_first              348
_journal_paper_doi               10.1039/C5QI00227C
_journal_volume                  3
_journal_year                    2016
_chemical_formula_moiety         'C16 H16 Cl2 Cu N2 O2'
_chemical_formula_sum            'C16 H16 Cl2 Cu N2 O2'
_chemical_formula_weight         402.75
_space_group_crystal_system      triclinic
_space_group_IT_number           2
_space_group_name_Hall           '-P 1'
_space_group_name_H-M_alt        'P -1'
_atom_sites_solution_hydrogens   geom
_audit_creation_method           SHELXL-2014/7
_audit_update_record
;
2015-10-15 deposited with the CCDC.
2015-12-08 downloaded from the CCDC.
;
_cell_angle_alpha                89.797(1)
_cell_angle_beta                 85.558(1)
_cell_angle_gamma                74.370(1)
_cell_formula_units_Z            2
_cell_length_a                   8.4793(3)
_cell_length_b                   8.9464(3)
_cell_length_c                   11.1491(4)
_cell_measurement_reflns_used    9252
_cell_measurement_temperature    300(2)
_cell_measurement_theta_max      26.37
_cell_measurement_theta_min      2.36
_cell_volume                     811.91(5)
_computing_cell_refinement       'SAINT v8.34A (Bruker, 2014)'
_computing_data_collection       'APEX3 v2015.1-0 (Bruker, 2015)'
_computing_data_reduction        'SAINT v8.34A (Bruker, 2014)'
_computing_molecular_graphics    'Mercury (Macrae et. al, 2008)'
_computing_publication_material  'SHELXL-2014/7 (Sheldrick, 2014)'
_computing_structure_refinement  'SHELXL-2014/7 (Sheldrick, 2014)'
_computing_structure_solution    'XT (Sheldrick, 2015)'
_diffrn_ambient_temperature      300(2)
_diffrn_detector_area_resol_mean 1024
_diffrn_measured_fraction_theta_full 0.999
_diffrn_measured_fraction_theta_max 0.999
_diffrn_measurement_device_type  'PHOTON100 CMOS detector'
_diffrn_measurement_method       '\w scan'
_diffrn_radiation_type           MoK\a
_diffrn_radiation_wavelength     0.71073
_diffrn_reflns_av_R_equivalents  0.0725
_diffrn_reflns_av_unetI/netI     0.0250
_diffrn_reflns_Laue_measured_fraction_full 0.999
_diffrn_reflns_Laue_measured_fraction_max 0.999
_diffrn_reflns_limit_h_max       10
_diffrn_reflns_limit_h_min       -10
_diffrn_reflns_limit_k_max       10
_diffrn_reflns_limit_k_min       -10
_diffrn_reflns_limit_l_max       13
_diffrn_reflns_limit_l_min       -13
_diffrn_reflns_number            26210
_diffrn_reflns_point_group_measured_fraction_full 0.999
_diffrn_reflns_point_group_measured_fraction_max 0.999
_diffrn_reflns_theta_full        25.027
_diffrn_reflns_theta_max         25.027
_diffrn_reflns_theta_min         2.943
_diffrn_source                   'microfocus I\mS'
_exptl_absorpt_coefficient_mu    1.683
_exptl_absorpt_correction_T_max  0.7454
_exptl_absorpt_correction_T_min  0.5298
_exptl_absorpt_correction_type   multi-scan
_exptl_absorpt_process_details   'SADABS (Sheldrick, 2014)'
_exptl_crystal_colour            yellow
_exptl_crystal_density_diffrn    1.647
_exptl_crystal_description       block
_exptl_crystal_F_000             410
_exptl_crystal_size_max          0.344
_exptl_crystal_size_mid          0.175
_exptl_crystal_size_min          0.132
_refine_diff_density_max         0.608
_refine_diff_density_min         -0.496
_refine_diff_density_rms         0.061
_refine_ls_extinction_method     none
_refine_ls_goodness_of_fit_ref   1.081
_refine_ls_hydrogen_treatment    constr
_refine_ls_matrix_type           full
_refine_ls_number_parameters     210
_refine_ls_number_reflns         2858
_refine_ls_number_restraints     0
_refine_ls_restrained_S_all      1.081
_refine_ls_R_factor_all          0.0306
_refine_ls_R_factor_gt           0.0280
_refine_ls_shift/su_max          0.000
_refine_ls_shift/su_mean         0.000
_refine_ls_structure_factor_coef Fsqd
_refine_ls_weighting_details
'w=1/[\s^2^(Fo^2^)+(0.0382P)^2^+0.5940P] where P=(Fo^2^+2Fc^2^)/3'
_refine_ls_weighting_scheme      calc
_refine_ls_wR_factor_gt          0.0791
_refine_ls_wR_factor_ref         0.0808
_reflns_Friedel_coverage         0.000
_reflns_number_gt                2657
_reflns_number_total             2858
_reflns_threshold_expression     'I > 2\s(I)'
_cod_data_source_file            c5qi00227c2.cif
_cod_data_source_block           mo_CHEM0128_a0ma
_cod_database_code               4349038
_shelx_shelxl_version_number     2014/7
_shelx_space_group_comment
;
The symmetry employed for this shelxl refinement is uniquely defined
by the following loop, which should always be used as a source of
symmetry information in preference to the above space-group names.
They are only intended as comments.
;
_shelx_estimated_absorpt_t_min   0.595
_shelx_estimated_absorpt_t_max   0.808
_shelx_res_file
;

    mo_CHEM0128_a0ma.res created by SHELXL-2014/7


TITL mo_CHEM0128_a0ma_a.res in P-1
REM Old TITL mo_CHEM0128_a0ma in P-1
REM SHELXT solution in P-1
REM R1 0.108,  Rweak 0.008,  Alpha 0.036,  Orientation as input
REM Formula found by SHELXT:  C17 N3 Cl2 Cu
CELL  0.71073   8.4793   8.9464  11.1491   89.797   85.558   74.370
ZERR    2.000   0.0003   0.0003   0.0004    0.001    0.001    0.001
LATT  1
SFAC C H N O CL CU
UNIT 32 32 4 4 4 2
TEMP 27.060
SIZE 0.132 0.175 0.344
L.S. 10
SHEL 8 0.84
ACTA 52
BOND $H
HTAB
CONF
MPLA 14 N1 N2 C1 > C12 Cu1 C13 C14 O1 O2 C15 C16 Cl1 Cl2
LIST 4
FMAP 2
PLAN 20
WGHT    0.038200    0.594000
FVAR       0.33235
CU1   6    0.219580    0.343604    0.780801    11.00000    0.04199    0.03261 =
         0.03109   -0.00192   -0.00379   -0.01377
CL1   5    0.047701    0.199865    0.773305    11.00000    0.05658    0.05553 =
         0.04206   -0.00090   -0.00177   -0.03277
CL2   5    0.483895    0.172801    0.794205    11.00000    0.04104    0.03832 =
         0.05054   -0.00034   -0.00780   -0.01150
O1    4    0.169905    0.366464    0.982558    11.00000    0.06592    0.05243 =
         0.03009   -0.00040   -0.00229   -0.01993
O2    4    0.141918    0.220162    0.367262    11.00000    0.16183    0.07698 =
         0.03521   -0.00106   -0.01416   -0.08500
N1    3    0.264832    0.538209    0.825565    11.00000    0.03639    0.03153 =
         0.03108   -0.00589   -0.00421   -0.00759
N2    3    0.232989    0.440908    0.606395    11.00000    0.03450    0.02718 =
         0.02903   -0.00111   -0.00277   -0.00947
C1    1    0.270513    0.583594    0.937515    11.00000    0.03799    0.04334 =
         0.03406   -0.00997   -0.00556   -0.00529
C2    1    0.308598    0.722707    0.962769    11.00000    0.05516    0.05110 =
         0.04214   -0.01931   -0.00959   -0.01312
AFIX  43
H2    2    0.309160    0.754449    1.042039    11.00000   -1.20000
AFIX   0
C3    1    0.344788    0.811092    0.870340    11.00000    0.05030    0.03884 =
         0.05633   -0.01641   -0.01086   -0.01371
AFIX  43
H3    2    0.371144    0.902974    0.886613    11.00000   -1.20000
AFIX   0
C4    1    0.342441    0.763959    0.750567    11.00000    0.03696    0.02939 =
         0.04983   -0.00592   -0.00937   -0.00729
C5    1    0.381855    0.845771    0.647458    11.00000    0.04704    0.02796 =
         0.06255   -0.00073   -0.01001   -0.01436
AFIX  43
H5    2    0.414252    0.936018    0.657536    11.00000   -1.20000
AFIX   0
C6    1    0.372670    0.793757    0.535634    11.00000    0.04268    0.03190 =
         0.05130    0.00647   -0.00493   -0.01220
AFIX  43
H6    2    0.401253    0.847638    0.469665    11.00000   -1.20000
AFIX   0
C7    1    0.319839    0.657303    0.516245    11.00000    0.03289    0.02814 =
         0.04065    0.00338   -0.00593   -0.00657
C8    1    0.301244    0.601978    0.402432    11.00000    0.04512    0.03933 =
         0.03512    0.00772   -0.00495   -0.01277
AFIX  43
H8    2    0.323909    0.653947    0.333594    11.00000   -1.20000
AFIX   0
C9    1    0.249734    0.471554    0.393598    11.00000    0.05053    0.04300 =
         0.02836    0.00093   -0.00670   -0.01581
AFIX  43
H9    2    0.235679    0.435136    0.318226    11.00000   -1.20000
AFIX   0
C10   1    0.217403    0.390935    0.496959    11.00000    0.03356    0.03239 =
         0.02942   -0.00230   -0.00495   -0.00872
C11   1    0.282660    0.572822    0.615534    11.00000    0.03004    0.02620 =
         0.03384   -0.00194   -0.00473   -0.00536
C12   1    0.297654    0.626265    0.733139    11.00000    0.03315    0.02769 =
         0.03749   -0.00410   -0.00609   -0.00565
C13   1    0.237241    0.477003    1.033940    11.00000    0.04827    0.05425 =
         0.02993   -0.00843   -0.00533   -0.01025
AFIX  23
H13A  2    0.338473    0.425077    1.068968    11.00000   -1.20000
H13B  2    0.160790    0.535784    1.097102    11.00000   -1.20000
AFIX   0
C14   1    0.167965    0.239130    1.060204    11.00000    0.08196    0.06936 =
         0.04528    0.01579   -0.00520   -0.02874
AFIX 137
H14A  2    0.123807    0.166242    1.020410    11.00000   -1.50000
H14B  2    0.100863    0.276876    1.132897    11.00000   -1.50000
H14C  2    0.277925    0.188859    1.079388    11.00000   -1.50000
AFIX   0
C15   1    0.165413    0.244738    0.485824    11.00000    0.05406    0.03892 =
         0.03130   -0.00385   -0.00383   -0.02012
AFIX  23
H15A  2    0.249196    0.157657    0.513504    11.00000   -1.20000
H15B  2    0.064199    0.253163    0.535511    11.00000   -1.20000
AFIX   0
C16   1    0.095528    0.083885    0.345897    11.00000    0.07114    0.04341 =
         0.03995   -0.00304   -0.00696   -0.03113
AFIX 137
H16A  2    0.179934   -0.004448    0.368440    11.00000   -1.50000
H16B  2    0.080337    0.075562    0.261990    11.00000   -1.50000
H16C  2   -0.005393    0.087400    0.392659    11.00000   -1.50000
AFIX   0
HKLF 4

REM  mo_CHEM0128_a0ma_a.res in P-1
REM R1 =  0.0280 for    2657 Fo > 4sig(Fo)  and  0.0306 for all    2858 data
REM    210 parameters refined using      0 restraints

END

WGHT      0.0352      0.6939

REM Instructions for potential hydrogen bonds
EQIV $1 -x+1, -y+1, -z+2
HTAB C2 Cl2_$1
EQIV $2 -x, -y+1, -z+2
HTAB C13 Cl1_$2
HTAB C14 Cl1
HTAB C15 Cl1

REM Highest difference peak  0.608,  deepest hole -0.496,  1-sigma level  0.061
Q1    1   0.2300  0.1505  0.3952  11.00000  0.05    0.61
Q2    1   0.2485  0.1945  0.7960  11.00000  0.05    0.43
Q3    1   0.0753  0.2446  0.4118  11.00000  0.05    0.31
Q4    1   0.1827  0.0115  0.2867  11.00000  0.05    0.27
Q5    1   0.4883  0.2549  0.7977  11.00000  0.05    0.27
Q6    1   0.1091  0.0068  0.4182  11.00000  0.05    0.24
Q7    1   0.0296  0.3014  0.7764  11.00000  0.05    0.24
Q8    1   0.1938  0.1868  0.5633  11.00000  0.05    0.23
Q9    1   0.3036  0.5905  0.6799  11.00000  0.05    0.23
Q10   1   0.1745  0.3377  0.5004  11.00000  0.05    0.22
Q11   1   0.2264  0.4881  0.7961  11.00000  0.05    0.21
Q12   1   0.4295  0.1600  0.8566  11.00000  0.05    0.20
Q13   1   0.3128  0.7009  0.7437  11.00000  0.05    0.20
Q14   1   0.0310  0.3811  0.7636  11.00000  0.05    0.18
Q15   1   0.2786  0.3370  0.9938  11.00000  0.05    0.18
Q16   1   0.3357  0.6177  0.4681  11.00000  0.05    0.17
Q17   1   0.2567  0.5416  0.9842  11.00000  0.05    0.17
Q18   1   0.3672  0.7008  0.5225  11.00000  0.05    0.17
Q19   1   0.3348  0.8260  0.5995  11.00000  0.05    0.16
Q20   1   0.1862  0.4308  0.6618  11.00000  0.05    0.16
;
_shelx_res_checksum              78110
_shelx_hkl_file
;
   0   0  -2  160.86    0.74
   0   0  -2  149.23    0.83
   0   0  -2  158.84    0.76
   0   0  -2  137.73    0.77
   0   0  -2  166.76    0.88
   0   0  -2  169.75    0.88
   0   0   2  163.85    0.75
   0   0   2  154.53    0.84
   0   0   2  158.23    0.75
   0   0   2  136.53    0.77
   0   0   2  167.73    0.88
   0   0  -3   86.69    0.67
   0   0  -3   86.23    0.70
   0   0  -3   74.94    0.71
   0   0  -3  124.82    1.12
   0   0  -3   87.55    0.79
   0   0   3   88.61    0.69
   0   0   3   83.77    0.77
   0   0   3   88.65    0.70
   0   0   3   76.40    0.72
   0   0  -4  368.14    1.59
   0   0  -4  321.34    1.74
   0   0  -4  370.49    1.65
   0   0  -4  321.26    1.69
   0   0  -4  381.04    1.89
   0   0  -4  317.20    2.12
   0   0   4  380.35    1.63
   0   0   4  338.51    1.77
   0   0   4  380.55    1.66
   0   0   4  342.02    1.75
   0   0   4  377.06    1.88
   0   0  -5  671.12    2.40
   0   0  -5  605.14    2.67
   0   0  -5  670.35    2.49
   0   0  -5  678.11    2.83
   0   0  -5  685.68    2.86
   0   0   5  683.42    2.45
   0   0   5  722.08    2.20
   0   0   5  647.79    2.74
   0   0   5  689.84    2.51
   0   0   5  628.19    2.66
   0   0   5  680.97    2.83
   0   0   5  711.89    2.91
   0   0  -6   13.10    0.52
   0   0  -6   13.70    0.52
   0   0  -6   14.55    0.47
   0   0  -6   12.86    0.48
   0   0  -6   13.83    0.51
   0   0  -6   15.38    0.55
   0   0   6   14.62    0.46
   0   0   6   15.70    0.41
   0   0   6   14.71    0.53
   0   0   6   15.86    0.49
   0   0   6   13.96    0.51
   0   0   6   15.50    0.55
   0   0  -7  542.13    2.59
   0   0  -7  489.97    2.90
   0   0  -7  531.30    2.66
   0   0  -7  465.33    2.73
   0   0  -7  506.19    2.94
   0   0  -7  553.17    3.09
   0   0   7  544.36    2.62
   0   0   7  583.49    2.36
   0   0   7  545.24    3.03
   0   0   7  544.89    2.67
   0   0   7  513.75    2.90
   0   0   7  519.55    2.98
   0   0   7  896.85    4.90
   0   0  -8   37.57    0.81
   0   0  -8   34.01    0.91
   0   0  -8   38.24    0.85
   0   0  -8   32.65    0.86
   0   0  -8   38.20    0.98
   0   0  -8   38.05    0.96
   0   0   8   39.84    0.83
   0   0   8   43.17    0.75
   0   0   8   38.43    0.93
   0   0   8   39.78    0.85
   0   0   8   38.54    0.93
   0   0   8   39.68    1.00
   0   0   8   39.13    0.99
   0   0  -9   25.05    0.76
   0   0  -9   23.05    0.86
   0   0  -9   23.48    0.79
   0   0  -9   22.50    0.84
   0   0  -9   23.79    0.88
   0   0  -9   25.95    0.91
   0   0   9   27.17    0.78
   0   0   9   28.76    0.70
   0   0   9   23.78    0.83
   0   0   9   27.91    0.82
   0   0   9   23.83    0.86
   0   0   9   26.45    0.96
   0   0   9   30.46    0.99
   0   0 -10   16.51    0.77
   0   0 -10   14.89    0.82
   0   0 -10   16.93    0.77
   0   0 -10   15.75    0.89
   0   0 -10   19.50    0.96
   0   0  10   18.60    0.75
   0   0  10   19.32    0.68
   0   0  10   18.09    0.81
   0   0  10   15.81    0.92
   0   0  10   16.99    1.00
   0   0  10   20.51    0.98
   0   0 -11   60.42    1.30
   0   0 -11   62.49    1.12
   0   0 -11   56.14    1.40
   0   0 -11   63.27    1.33
   0   0 -11   62.66    1.59
   0   0 -11   66.76    1.58
   0   0  11   64.14    1.28
   0   0  11   72.95    1.18
   0   0  11   61.31    1.35
   0   0  11   63.71    1.47
   0   0  11   68.46    1.71
   0   0  11   69.69    1.63
   0   0 -12   19.50    1.28
   0   0 -12   19.79    1.06
   0   0 -12   18.73    1.24
   0   0 -12   21.10    1.32
   0   0 -12   21.99    1.24
   0   0  12   25.01    1.01
   0   0  12   20.95    1.11
   0   0  12   23.32    1.50
   0   0  12   25.61    1.32
   0   0 -13    4.55    0.67
   0   0 -13    5.20    0.71
   0   0 -13    6.12    0.91
   0   0  13    5.50    0.67
   0   0  13    6.82    0.79
   0   0  13    5.44    0.89
   0  -1  13    3.14    0.69
   0  -1  13    3.04    0.68
   0  -1  13    2.02    0.86
   0   1 -13    2.20    0.57
   0   1 -13    2.54    0.62
   0   1 -13    2.39    0.61
   0   1 -13    2.28    0.58
   0  -1  12   12.99    0.83
   0  -1  12   16.26    0.88
   0  -1  12   13.54    1.18
   0  -1  12   12.92    0.97
   0  -1  12   13.97    1.19
   0   1 -12   12.68    0.96
   0   1 -12   12.17    0.87
   0   1 -12   11.93    0.92
   0   1 -12   13.16    0.89
   0   1 -12   12.55    1.09
   0  -1  11    1.17    0.39
   0  -1  11    2.33    0.43
   0  -1  11    1.39    0.48
   0  -1  11    1.25    0.46
   0  -1  11    2.05    0.61
   0  -1  11    1.62    0.56
   0   1 -11    2.28    0.49
   0   1 -11    1.38    0.41
   0   1 -11    1.85    0.43
   0   1 -11    1.10    0.48
   0   1 -11    1.35    0.53
   0  -1  10  229.25    2.03
   0  -1  10  231.78    2.07
   0  -1  10  234.64    2.49
   0  -1  10  235.31    2.56
   0  -1  10  254.11    2.65
   0   1 -10  231.05    2.04
   0   1 -10  210.86    2.41
   0   1 -10  226.36    2.05
   0   1 -10  224.70    2.50
   0   1 -10  232.33    2.54
   0  -1   9  125.69    1.43
   0  -1   9  140.64    1.52
   0  -1   9  122.05    1.74
   0  -1   9  134.26    1.48
   0  -1   9  125.31    1.73
   0  -1   9  136.85    1.85
   0  -1   9  136.33    1.84
   0   1  -9  129.53    1.45
   0   1  -9  121.72    1.73
   0   1  -9  129.34    1.47
   0   1  -9  105.80    1.59
   0   1  -9  122.00    1.82
   0   1  -9  133.77    1.83
   0  -1   8   59.23    0.95
   0  -1   8   65.13    1.00
   0  -1   8   59.93    1.17
   0  -1   8   62.12    0.96
   0  -1   8   56.72    1.13
   0  -1   8   63.50    1.21
   0  -1   8   67.31    1.23
   0   1  -8   61.68    0.96
   0   1  -8   58.87    1.16
   0   1  -8   59.45    0.95
   0   1  -8   53.38    1.05
   0   1  -8   58.28    1.14
   0   1  -8   60.37    1.17
   0  -1   7   27.82    0.63
   0  -1   7   30.16    0.66
   0  -1   7   27.73    0.76
   0  -1   7   28.96    0.63
   0  -1   7   27.08    0.76
   0  -1   7   28.93    0.77
   0  -1   7   31.77    0.82
   0   1  -7   29.41    0.64
   0   1  -7   24.94    0.75
   0   1  -7   28.43    0.64
   0   1  -7   27.20    0.76
   0  -1   6  160.49    1.26
   0  -1   6  182.66    1.41
   0  -1   6  174.59    1.62
   0  -1   6  168.03    1.26
   0  -1   6  164.39    1.56
   0   1  -6  175.85    1.30
   0   1  -6  162.86    1.58
   0   1  -6  172.50    1.29
   0   1  -6  157.66    1.52
   0   1  -6  170.40    1.59
   0   1  -6  172.66    1.60
   0  -1   5  337.25    1.63
   0  -1   5  380.85    1.88
   0  -1   5  350.32    2.07
   0  -1   5  351.04    1.62
   0  -1   5  339.43    2.02
   0  -1   5  365.50    2.07
   0  -1   5  372.77    2.10
   0   1  -5  351.77    1.66
   0   1  -5  337.28    2.04
   0   1  -5  364.44    1.66
   0   1  -5  333.24    1.99
   0   1  -5  355.13    2.05
   0   1  -5  354.75    2.06
   0  -1   4  350.32    1.65
   0  -1   4  334.65    1.81
   0  -1   4  332.68    1.37
   0  -1   4  316.85    1.76
   0  -1   4  333.06    1.76
   0  -1   4  343.42    1.79
   0   1  -4  331.34    1.43
   0   1  -4  320.33    1.78
   0   1  -4  342.27    1.39
   0   1  -4  321.97    1.76
   0   1  -4  330.16    1.76
   0   1  -4  320.68    1.74
   0  -1   3  899.30    4.23
   0  -1   3  955.90    3.42
   0  -1   3  970.53    5.58
   0  -1   3  958.15    4.14
   0  -1   3  921.94    4.90
   0  -1   3  937.01    5.37
   0   1  -3  961.42    4.20
   0   1  -3  972.66    5.49
   0   1  -3  979.90    4.25
   0   1  -3  875.62    4.56
   0   1  -3  892.61    4.85
   0   1  -3  866.14    3.85
   0  -1   2  574.22    2.89
   0  -1   2  570.24    2.39
   0  -1   2  638.35    2.62
   0  -1   2  566.73    2.24
   0   1  -2  612.85    2.76
   0   1  -2  515.70    2.65
   0   1  -2  643.26    2.66
   0   1  -2  591.97    3.15
   0   1  -2  576.44    3.33
   0   1  -2  565.20    3.22
   0  -1   1  228.23    1.22
   0  -1   1  253.69    1.58
   0  -1   1  242.49    0.97
   0  -1   1  238.38    1.18
   0  -1   1  222.68    1.34
   0   1  -1  243.97    1.35
   0   1  -1  250.80    1.48
   0   1  -1  258.39    1.08
   0   1  -1  235.04    1.14
   0   1  -1  234.96    1.29
   0   1  -1  213.52    0.84
   0  -1   0  734.30    4.33
   0  -1   0  717.92    4.07
   0  -1   0  619.10    2.06
   0   1   0  701.86    3.46
   0   1   0  657.05    2.64
   0   1   0  677.05    3.00
   0   1   0  701.54    3.36
   0   1   0   67.82    0.24
   0  -1  -1  126.41    0.58
   0  -1  -1  124.85    0.69
   0  -1  -1  123.81    0.64
   0  -1  -1  139.27    0.59
   0  -1  -1  131.12    0.57
   0   1   1  144.19    0.74
   0   1   1  131.67    0.70
   0   1   1  130.05    0.59
   0   1   1  134.45    0.71
   0   1   1  127.89    0.65
   0   1   1  142.04    0.59
   0   1   1  131.78    0.57
   0  -1  -2   22.46    0.36
   0  -1  -2   19.84    0.32
   0  -1  -2   20.47    0.35
   0  -1  -2   19.88    0.33
   0  -1  -2   20.43    0.32
   0   1   2   20.58    0.32
   0   1   2   21.11    0.34
   0   1   2   22.17    0.33
   0   1   2   22.07    0.34
   0  -1  -3 1013.86    5.45
   0  -1  -3  807.79    3.43
   0  -1  -3  914.13    5.52
   0  -1  -3  902.60    5.44
   0  -1  -3  983.01    5.76
   0  -1  -3 1007.20    5.43
   0   1   3 1007.14    5.63
   0   1   3  852.43    4.51
   0   1   3 1008.99    5.87
   0   1   3  959.53    5.35
   0   1   3  912.19    4.32
   0   1   3  997.98    5.54
   0  -1  -4  789.41    4.36
   0  -1  -4  662.77    2.99
   0  -1  -4  701.17    3.04
   0  -1  -4  673.44    3.36
   0  -1  -4  768.18    4.34
   0  -1  -4 1143.42    4.07
   0   1   4  803.46    4.76
   0   1   4  733.40    3.53
   0   1   4  755.74    3.84
   0   1   4  704.17    3.82
   0   1   4  784.42    4.39
   0   1   4  799.98    4.11
   0  -1  -5    0.20    0.16
   0  -1  -5    0.50    0.17
   0  -1  -5    0.46    0.14
   0  -1  -5    0.31    0.14
   0   1   5    0.38    0.15
   0   1   5    0.29    0.14
   0   1   5    0.23    0.13
   0   1   5    0.41    0.16
   0   1   5    0.70    0.18
   0   1   5    0.42    0.15
   0  -1  -6  389.76    2.17
   0  -1  -6  335.62    2.19
   0  -1  -6  377.10    2.24
   0  -1  -6  319.34    2.08
   0   1   6  406.90    2.24
   0   1   6  384.26    2.32
   0   1   6  407.04    2.30
   0   1   6  362.22    2.24
   0   1   6  395.09    2.40
   0   1   6  414.02    2.47
   0  -1  -7    5.76    0.42
   0  -1  -7    4.59    0.44
   0  -1  -7    5.02    0.45
   0  -1  -7    4.22    0.41
   0  -1  -7    5.80    0.45
   0  -1  -7    5.12    0.47
   0   1   7    5.92    0.44
   0   1   7    5.91    0.32
   0   1   7    5.95    0.43
   0   1   7    5.68    0.45
   0   1   7    5.31    0.45
   0   1   7    5.63    0.49
   0   1   7    6.37    0.50
   0  -1  -8  147.18    1.56
   0  -1  -8  128.11    1.63
   0  -1  -8  144.53    1.64
   0  -1  -8  117.97    1.52
   0  -1  -8  141.47    1.71
   0  -1  -8  235.62    2.73
   0   1   8  156.34    1.63
   0   1   8  166.64    1.17
   0   1   8  145.58    1.70
   0   1   8  155.99    1.68
   0   1   8  145.76    1.71
   0   1   8  156.23    1.82
   0   1   8  245.62    2.80
   0  -1  -9   11.50    0.64
   0  -1  -9   11.08    0.50
   0  -1  -9    9.21    0.65
   0  -1  -9   10.13    0.66
   0  -1  -9    9.13    0.70
   0  -1  -9    9.82    0.70
   0  -1  -9   10.84    0.71
   0   1   9   11.19    0.64
   0   1   9    9.33    0.62
   0   1   9   13.34    0.70
   0   1   9   10.96    0.68
   0   1   9   11.93    0.84
   0   1   9   13.28    0.77
   0  -1 -10   58.67    1.22
   0  -1 -10   59.33    0.89
   0  -1 -10   54.54    1.28
   0  -1 -10   58.98    1.27
   0  -1 -10   58.67    1.38
   0  -1 -10   61.33    1.40
   0   1  10   63.81    1.24
   0   1  10   60.26    1.29
   0   1  10   48.64    1.53
   0   1  10   62.75    1.49
   0   1  10   65.87    1.46
   0  -1 -11   55.30    0.93
   0  -1 -11   51.19    1.34
   0  -1 -11   51.11    2.01
   0  -1 -11   52.83    1.48
   0  -1 -11   60.35    1.54
   0   1  11   64.17    1.31
   0   1  11   60.83    1.44
   0   1  11   59.53    1.64
   0   1  11   64.50    1.57
   0  -1 -12    6.34    0.70
   0  -1 -12    7.29    0.91
   0  -1 -12    7.87    0.88
   0   1  12    7.43    0.84
   0   1  12    7.60    0.92
   0   1  12    9.58    1.08
   0  -1 -13   21.57    1.24
   0  -1 -13   18.52    1.19
   0  -1 -13   19.46    1.74
   0   1  13   24.44    1.17
   0   1  13   23.30    1.27
   0   1  13   23.90    1.46
   0  -2  13    4.46    0.60
   0  -2  13    5.51    0.71
   0  -2  13    4.43    0.79
   0   2 -13    4.98    0.70
   0   2 -13    3.81    0.60
   0   2 -13    4.03    0.62
   0   2 -13    4.13    0.82
   0  -2  12    2.23    0.47
   0  -2  12    2.89    0.54
   0  -2  12    2.19    0.62
   0  -2  12    2.35    0.57
   0  -2  12    1.84    0.65
   0   2 -12    1.02    0.44
   0   2 -12    2.13    0.47
   0   2 -12    1.65    0.51
   0  -2  11   16.12    0.75
   0  -2  11   19.34    0.88
   0  -2  11   16.20    0.85
   0  -2  11   17.35    0.97
   0  -2  11   18.91    1.12
   0   2 -11   17.02    0.84
   0   2 -11   15.29    0.90
   0   2 -11   16.89    0.78
   0   2 -11   16.73    1.07
   0   2 -11   16.37    1.00
   0  -2  10   34.76    0.87
   0  -2  10   42.84    1.05
   0  -2  10   38.60    0.93
   0  -2  10   40.27    1.17
   0  -2  10   39.66    1.26
   0  -2  10   44.68    1.27
   0   2 -10   39.22    0.94
   0   2 -10   37.02    1.12
   0   2 -10   40.92    0.92
   0   2 -10   39.58    1.30
   0   2 -10   38.45    1.19
   0  -2   9   32.76    0.79
   0  -2   9   42.54    0.99
   0  -2   9   42.26    1.45
   0  -2   9   36.70    0.81
   0  -2   9   37.42    1.06
   0  -2   9   37.08    1.09
   0  -2   9   40.60    1.13
   0   2  -9   41.50    0.89
   0   2  -9   33.25    1.08
   0   2  -9   38.69    0.82
   0   2  -9   32.64    0.98
   0   2  -9   35.96    1.04
   0   2  -9   38.21    1.08
   0  -2   8   28.29    0.67
   0  -2   8   35.28    0.84
   0  -2   8   32.66    0.93
   0  -2   8   32.39    0.68
   0  -2   8   32.91    0.93
   0  -2   8   39.18    1.03
   0   2  -8   36.93    0.76
   0   2  -8   32.38    0.91
   0   2  -8   33.57    0.69
   0   2  -8   34.05    0.94
   0   2  -8   32.98    0.91
   0   2  -8   33.66    0.92
   0  -2   7   55.19    0.82
   0  -2   7   70.54    1.07
   0  -2   7   63.11    1.12
   0  -2   7   63.08    0.82
   0  -2   7   63.53    1.13
   0  -2   7   67.15    1.11
   0  -2   7   69.58    1.15
   0   2  -7   67.03    0.89
   0   2  -7   62.04    1.12
   0   2  -7   66.97    0.84
   0   2  -7   61.33    1.09
   0   2  -7   65.65    1.13
   0   2  -7   64.62    1.12
   0  -2   6   55.36    0.75
   0  -2   6   67.90    0.98
   0  -2   6   59.55    1.00
   0  -2   6   61.56    0.71
   0  -2   6   61.90    1.03
   0  -2   6   58.76    0.94
   0  -2   6   64.81    1.00
   0   2  -6   66.25    0.81
   0   2  -6   62.35    1.03
   0   2  -6   64.75    0.74
   0   2  -6   59.86    0.97
   0   2  -6   60.80    0.98
   0  -2   5   23.91    0.47
   0  -2   5   25.55    0.59
   0  -2   5   26.28    0.63
   0  -2   5   25.86    0.42
   0  -2   5   24.75    0.63
   0  -2   5   23.84    0.56
   0  -2   5   25.44    0.59
   0   2  -5   27.04    0.50
   0   2  -5   26.17    0.63
   0   2  -5   22.17    0.63
   0   2  -5   26.44    0.64
   0   2  -5   25.36    0.60
   0   2  -5   24.56    0.59
   0  -2   4  338.60    1.61
   0  -2   4  377.81    1.97
   0  -2   4  383.40    2.04
   0  -2   4  397.23    1.32
   0  -2   4  340.82    1.96
   0   2  -4  404.67    1.63
   0   2  -4  397.25    2.07
   0   2  -4  406.08    1.34
   0   2  -4  366.11    1.87
   0   2  -4  348.54    1.83
   0  -2   3  256.65    1.20
   0  -2   3  271.88    1.55
   0  -2   3  276.86    1.54
   0  -2   3  278.87    0.94
   0  -2   3  245.97    1.53
   0  -2   3  256.41    1.34
   0   2  -3  288.41    1.27
   0   2  -3  277.05    1.55
   0   2  -3  305.86    0.98
   0   2  -3  269.78    1.58
   0   2  -3  259.97    1.37
   0   2  -3  239.65    1.31
   0  -2   2   11.58    0.27
   0  -2   2   12.10    0.35
   0  -2   2   12.52    0.32
   0  -2   2   12.06    0.19
   0  -2   2   10.86    0.33
   0  -2   2   12.29    0.26
   0  -2   2   10.86    0.25
   0   2  -2   12.88    0.28
   0   2  -2   13.26    0.33
   0   2  -2   13.68    0.20
   0   2  -2   12.58    0.36
   0   2  -2   11.61    0.26
   0   2  -2   11.06    0.26
   0  -2   1    7.80    0.22
   0  -2   1    8.14    0.26
   0  -2   1    8.58    0.23
   0  -2   1    7.83    0.26
   0  -2   1    8.16    0.16
   0  -2   1    7.55    0.15
   0   2  -1    8.39    0.23
   0   2  -1    8.73    0.23
   0   2  -1    9.07    0.19
   0   2  -1    7.55    0.17
   0   2  -1    8.27    0.26
   0   2  -1    8.84    0.17
   0   2  -1    7.36    0.16
   0  -2   0  599.55    2.91
   0  -2   0  608.86    2.72
   0  -2   0  686.55    2.16
   0  -2   0  606.17    1.95
   0   2   0  647.54    3.78
   0   2   0  645.99    3.06
   0   2   0  583.04    3.24
   0   2   0  619.77    3.08
   0   2   0  586.99    2.54
   0   2   0  656.09    2.26
   0  -2  -1  103.14    0.65
   0  -2  -1   93.35    0.79
   0  -2  -1   95.19    0.75
   0  -2  -1  119.36    0.58
   0  -2  -1  105.94    0.54
   0   2   1  114.17    0.86
   0   2   1  111.59    0.67
   0   2   1  115.67    0.83
   0   2   1  120.71    0.60
   0   2   1  110.16    0.57
   0  -2  -2  287.39    1.55
   0  -2  -2  326.26    1.58
   0  -2  -2  341.55    1.52
   0  -2  -2  375.89    1.36
   0  -2  -2  361.96    1.61
   0   2   2  380.25    1.71
   0   2   2  353.64    1.64
   0   2   2  374.94    1.71
   0   2   2  366.65    1.67
   0   2   2  354.17    1.55
   0   2   2  378.73    1.38
   0   2   2  357.68    1.35
   0  -2  -3  121.78    1.06
   0  -2  -3   98.47    0.86
   0  -2  -3  101.79    1.00
   0  -2  -3  102.39    0.93
   0  -2  -3  108.94    0.89
   0  -2  -3  106.60    1.08
   0   2   3  113.82    1.03
   0   2   3  107.33    1.00
   0   2   3  108.37    0.89
   0   2   3  111.07    1.03
   0   2   3  110.27    0.97
   0   2   3  114.22    0.93
   0   2   3  111.63    0.92
   0  -2  -4  306.53    1.88
   0  -2  -4  263.26    1.58
   0  -2  -4  279.44    1.79
   0  -2  -4  277.72    1.67
   0  -2  -4  294.57    1.67
   0   2   4  325.48    1.87
   0   2   4  292.62    1.65
   0   2   4  291.00    1.72
   0   2   4  314.29    1.75
   0   2   4  312.31    1.75
   0  -2  -5    0.87    0.19
   0  -2  -5    0.46    0.17
   0  -2  -5    0.69    0.19
   0  -2  -5    0.30    0.13
   0  -2  -5    0.35    0.12
   0  -2  -5    0.68    0.18
   0   2   5    0.50    0.17
   0   2   5    0.59    0.16
   0   2   5    0.73    0.20
   0   2   5    0.53    0.18
   0   2   5    0.47    0.16
   0   2   5    0.69    0.19
   0  -2  -6   10.06    0.45
   0  -2  -6    8.36    0.45
   0  -2  -6    8.52    0.47
   0  -2  -6    7.38    0.42
   0  -2  -6    9.01    0.43
   0  -2  -6    9.37    0.46
   0   2   6   10.26    0.48
   0   2   6    8.99    0.45
   0   2   6    9.76    0.46
   0   2   6    7.76    0.46
   0   2   6    9.68    0.49
   0   2   6    9.19    0.48
   0  -2  -7  198.93    1.80
   0  -2  -7  164.20    1.69
   0  -2  -7  187.85    1.84
   0  -2  -7  153.22    1.62
   0  -2  -7  191.99    1.83
   0  -2  -7  207.87    1.92
   0   2   7  206.85    1.85
   0   2   7  191.06    1.80
   0   2   7  207.80    1.91
   0   2   7  189.69    1.81
   0   2   7  202.66    1.91
   0   2   7  213.35    1.97
   0  -2  -8    5.03    0.51
   0  -2  -8    4.06    0.43
   0  -2  -8    3.27    0.39
   0  -2  -8    2.63    0.37
   0  -2  -8    4.26    0.51
   0  -2  -8    4.96    0.50
   0   2   8    4.95    0.50
   0   2   8    4.79    0.54
   0   2   8    5.17    0.55
   0   2   8    3.88    0.41
   0   2   8    4.55    0.48
   0   2   8    6.25    0.58
   0  -2  -9   90.57    1.42
   0  -2  -9   73.91    1.37
   0  -2  -9   84.60    1.46
   0  -2  -9   63.60    1.27
   0  -2  -9   82.76    1.46
   0  -2  -9   87.47    1.51
   0   2   9   93.41    1.46
   0   2   9   84.29    1.45
   0   2   9   88.24    1.48
   0   2   9   82.27    1.44
   0   2   9   89.54    1.58
   0   2   9   97.22    1.60
   0  -2 -10   25.69    0.96
   0  -2 -10   23.24    0.93
   0  -2 -10   25.37    0.98
   0  -2 -10   23.69    1.03
   0  -2 -10   28.30    1.06
   0   2  10   29.03    0.96
   0   2  10   26.84    1.01
   0   2  10   26.03    1.15
   0   2  10   30.43    1.11
   0  -2 -11    2.53    0.52
   0  -2 -11    2.62    0.52
   0  -2 -11    3.03    0.63
   0   2  11    1.36    0.46
   0   2  11    3.23    0.69
   0   2  11    2.69    0.52
   0  -2 -12   13.45    1.02
   0  -2 -12   12.03    1.02
   0  -2 -12   16.78    1.24
   0   2  12   15.42    1.00
   0   2  12   14.79    1.05
   0   2  12   15.13    1.14
   0  -2 -13   -0.12    0.56
   0  -2 -13    1.23    0.67
   0   2  13    0.00    0.54
   0   2  13    0.88    0.63
   0   2  13    0.08    0.72
   0  -3  13   -0.38    0.48
   0  -3  13    0.79    0.56
   0  -3  13    0.46    0.62
   0   3 -13   -0.75    0.53
   0   3 -13   -0.07    0.56
   0  -3  12    0.56    0.39
   0  -3  12    1.20    0.46
   0  -3  12    1.46    0.53
   0   3 -12    0.71    0.50
   0   3 -12    1.42    0.45
   0   3 -12    1.26    0.47
   0  -3  11    8.88    0.63
   0  -3  11   19.43    0.94
   0  -3  11   10.17    0.70
   0  -3  11   20.08    1.03
   0  -3  11   20.91    1.20
   0   3 -11   17.73    0.88
   0   3 -11   14.83    0.93
   0   3 -11   16.91    0.73
   0   3 -11   18.02    1.02
   0  -3  10   -0.38    0.27
   0  -3  10    1.20    0.41
   0  -3  10    0.62    0.31
   0  -3  10    1.45    0.40
   0  -3  10    1.26    0.46
   0   3 -10    1.24    0.43
   0   3 -10    0.87    0.37
   0   3 -10    0.83    0.29
   0   3 -10    1.85    0.56
   0   3 -10    1.62    0.45
   0  -3   9    4.15    0.43
   0  -3   9    5.41    0.57
   0  -3   9    3.58    0.42
   0  -3   9    5.49    0.64
   0  -3   9    4.98    0.59
   0  -3   9    5.41    0.56
   0   3  -9    4.15    0.51
   0   3  -9    3.52    0.43
   0   3  -9    4.75    0.44
   0   3  -9    4.95    0.56
   0   3  -9    5.08    0.55
   0  -3   8    0.54    0.21
   0  -3   8    0.20    0.27
   0  -3   8   -0.21    0.27
   0  -3   8    0.23    0.19
   0  -3   8    0.25    0.26
   0  -3   8    0.08    0.21
   0  -3   8    0.58    0.30
   0   3  -8    0.26    0.25
   0   3  -8   -0.13    0.27
   0   3  -8    0.23    0.20
   0   3  -8    0.26    0.28
   0   3  -8    0.20    0.29
   0   3  -8   -0.42    0.25
   0  -3   7    0.27    0.18
   0  -3   7    0.52    0.26
   0  -3   7    0.29    0.24
   0  -3   7    0.80    0.19
   0  -3   7    0.36    0.24
   0  -3   7    1.14    0.26
   0  -3   7    0.64    0.28
   0   3  -7    0.74    0.23
   0   3  -7    0.52    0.27
   0   3  -7    0.58    0.18
   0   3  -7    0.53    0.25
   0   3  -7    0.60    0.27
   0   3  -7    0.26    0.24
   0  -3   6    1.70    0.22
   0  -3   6    1.66    0.30
   0  -3   6    1.08    0.24
   0  -3   6    1.48    0.17
   0  -3   6    1.13    0.27
   0  -3   6    0.69    0.17
   0   3  -6    1.71    0.24
   0   3  -6    1.66    0.29
   0   3  -6    1.46    0.30
   0   3  -6    1.11    0.24
   0   3  -6    1.22    0.24
   0  -3   5   25.54    0.52
   0  -3   5   26.83    0.67
   0  -3   5   27.75    0.67
   0  -3   5   27.99    0.41
   0  -3   5   26.75    0.69
   0  -3   5   25.38    0.58
   0  -3   5   28.63    0.63
   0   3  -5   31.43    0.57
   0   3  -5   29.16    0.71
   0   3  -5   30.28    0.42
   0   3  -5   30.02    0.74
   0   3  -5   25.85    0.61
   0   3  -5   24.62    0.60
   0  -3   4  182.44    1.23
   0  -3   4  190.06    1.57
   0  -3   4  198.39    1.54
   0  -3   4  194.40    0.89
   0  -3   4  176.21    1.54
   0  -3   4  197.65    1.37
   0   3  -4  210.50    1.31
   0   3  -4  213.27    1.61
   0   3  -4  223.65    0.94
   0   3  -4  207.46    1.66
   0   3  -4  187.00    1.36
   0   3  -4  180.13    1.34
   0  -3   3   38.52    0.57
   0  -3   3   40.02    0.70
   0  -3   3   44.76    0.68
   0  -3   3   43.01    0.41
   0  -3   3   38.94    0.71
   0  -3   3   41.98    0.56
   0  -3   3   39.72    0.55
   0   3  -3   46.70    0.61
   0   3  -3   46.16    0.70
   0   3  -3   48.25    0.43
   0   3  -3   42.91    0.77
   0   3  -3   40.96    0.57
   0   3  -3   37.93    0.55
   0  -3   2    7.98    0.29
   0  -3   2    8.75    0.36
   0  -3   2    8.76    0.30
   0  -3   2    8.56    0.35
   0  -3   2    9.07    0.23
   0  -3   2    8.87    0.23
   0   3  -2    9.08    0.30
   0   3  -2   10.11    0.33
   0   3  -2   10.14    0.24
   0   3  -2    8.68    0.22
   0   3  -2    8.17    0.35
   0   3  -2    9.78    0.25
   0   3  -2    8.81    0.24
   0  -3   1   18.12    0.40
   0  -3   1   21.46    0.46
   0  -3   1   18.96    0.37
   0  -3   1   18.81    0.33
   0  -3   1   18.73    0.46
   0  -3   1   20.43    0.25
   0  -3   1   20.40    0.25
   0   3  -1   20.29    0.42
   0   3  -1   22.40    0.41
   0   3  -1   19.19    0.33
   0   3  -1   21.23    0.30
   0   3  -1   18.40    0.26
   0  -3   0   68.28    0.77
   0  -3   0   74.45    0.74
   0  -3   0   61.77    0.78
   0  -3   0   75.23    0.37
   0  -3   0   70.02    0.36
   0   3   0   68.99    0.77
   0   3   0   65.98    0.62
   0   3   0   70.38    0.69
   0   3   0   65.90    0.77
   0   3   0   71.47    0.79
   0   3   0   64.86    0.41
   0  -3  -1    2.10    0.23
   0  -3  -1    1.92    0.19
   0  -3  -1    2.02    0.22
   0  -3  -1    2.20    0.22
   0  -3  -1    2.35    0.12
   0  -3  -1    1.97    0.11
   0   3   1    1.65    0.21
   0   3   1    2.29    0.17
   0   3   1    1.98    0.20
   0   3   1    1.84    0.21
   0   3   1    2.16    0.13
   0   3   1    2.08    0.13
   0  -3  -2    0.87    0.17
   0  -3  -2    0.71    0.12
   0  -3  -2    0.61    0.14
   0  -3  -2    0.82    0.15
   0  -3  -2    0.95    0.11
   0  -3  -2    0.63    0.10
   0   3   2    0.72    0.15
   0   3   2    1.10    0.13
   0   3   2    0.46    0.13
   0   3   2    0.49    0.13
   0   3   2    0.93    0.12
   0   3   2    0.95    0.12
   0  -3  -3   32.89    0.54
   0  -3  -3   32.07    0.65
   0  -3  -3   33.01    0.61
   0  -3  -3   33.74    0.51
   0  -3  -3   35.43    0.53
   0   3   3   36.05    0.68
   0   3   3   33.77    0.65
   0   3   3   36.55    0.56
   0   3   3   36.28    0.68
   0   3   3   36.09    0.65
   0   3   3   35.67    0.55
   0   3   3   34.73    0.54
   0  -3  -4  119.48    1.11
   0  -3  -4  117.34    1.29
   0  -3  -4  120.75    1.20
   0  -3  -4  127.41    1.12
   0  -3  -4  136.13    1.16
   0   3   4  142.36    1.39
   0   3   4  127.59    1.31
   0   3   4  130.34    1.15
   0   3   4  139.50    1.39
   0   3   4  129.50    1.26
   0   3   4  137.16    1.19
   0   3   4  136.88    1.19
   0  -3  -5    0.76    0.20
   0  -3  -5    0.84    0.24
   0  -3  -5    1.16    0.22
   0  -3  -5    0.64    0.16
   0  -3  -5    0.70    0.18
   0   3   5    1.02    0.23
   0   3   5    0.57    0.19
   0   3   5    0.81    0.19
   0   3   5    1.13    0.26
   0   3   5    0.58    0.20
   0   3   5    1.11    0.21
   0   3   5    0.64    0.19
   0  -3  -6    2.55    0.30
   0  -3  -6    3.62    0.43
   0  -3  -6    2.90    0.32
   0  -3  -6    3.92    0.33
   0   3   6    3.50    0.41
   0   3   6    3.35    0.37
   0   3   6    3.85    0.39
   0   3   6    2.49    0.32
   0   3   6    3.85    0.39
   0   3   6    3.44    0.40
   0   3   6    3.91    0.39
   0  -3  -7    4.26    0.47
   0  -3  -7    4.06    0.45
   0  -3  -7    4.96    0.52
   0  -3  -7    3.90    0.40
   0  -3  -7    5.20    0.43
   0  -3  -7    5.60    0.49
   0   3   7    4.36    0.47
   0   3   7    4.09    0.44
   0   3   7    4.38    0.47
   0   3   7    4.97    0.49
   0   3   7    4.53    0.50
   0   3   7    5.17    0.50
   0   3   7    4.95    0.46
   0  -3  -8    4.80    0.58
   0  -3  -8    5.95    0.54
   0  -3  -8    5.46    0.59
   0  -3  -8    4.04    0.45
   0  -3  -8    6.31    0.55
   0  -3  -8    5.68    0.58
   0   3   8    5.83    0.57
   0   3   8    5.05    0.55
   0   3   8    7.07    0.59
   0   3   8    5.22    0.55
   0   3   8    5.66    0.59
   0   3   8    5.70    0.60
   0   3   8    6.54    0.58
   0  -3  -9   20.00    0.81
   0  -3  -9   22.05    0.92
   0  -3  -9   16.34    0.83
   0  -3  -9   21.72    0.88
   0  -3  -9   25.57    0.92
   0   3   9   26.29    0.92
   0   3   9   19.32    0.85
   0   3   9   23.97    0.93
   0   3   9   22.95    0.90
   0   3   9   26.42    1.02
   0   3   9   26.16    0.95
   0  -3 -10    3.79    0.51
   0  -3 -10    4.66    0.62
   0  -3 -10    4.13    0.55
   0   3  10    4.46    0.56
   0   3  10    4.73    0.62
   0   3  10    4.49    0.96
   0  -3 -11    0.00    0.42
   0  -3 -11    0.13    0.48
   0  -3 -11    0.98    0.55
   0   3  11    0.44    0.43
   0   3  11    0.48    0.44
   0   3  11    0.82    0.50
   0  -3 -12    1.16    0.50
   0  -3 -12    0.54    0.57
   0   3  12   -0.02    0.49
   0   3  12    0.32    0.54
   0   3  12    0.12    0.51
   0  -3 -13    0.39    0.60
   0  -3 -13    1.26    0.68
   0   3  13    1.09    0.65
   0   3  13    0.91    0.68
   0   3  13    1.63    0.75
   0  -4  13    0.83    0.75
   0   4 -13    1.96    0.74
   0  -4  12    1.80    0.47
   0  -4  12    1.76    0.55
   0  -4  12    1.10    0.57
   0   4 -12    1.28    0.51
   0   4 -12    1.83    0.56
   0  -4  11    2.80    0.42
   0  -4  11    3.29    0.58
   0  -4  11    3.36    0.63
   0   4 -11    3.16    0.54
   0   4 -11    3.41    0.39
   0   4 -11    2.86    0.57
   0  -4  10    6.20    0.53
   0  -4  10    7.61    0.74
   0  -4  10    6.06    0.59
   0  -4  10    6.47    0.65
   0  -4  10    8.28    0.88
   0   4 -10    6.72    0.70
   0   4 -10    7.34    0.79
   0   4 -10    6.75    0.49
   0   4 -10    7.80    0.84
   0   4 -10    7.77    0.73
   0  -4   9   34.84    0.82
   0  -4   9   45.70    1.16
   0  -4   9   40.85    0.71
   0  -4   9   40.64    1.18
   0  -4   9   46.55    1.20
   0   4  -9   47.16    0.95
   0   4  -9   45.27    1.21
   0   4  -9   44.38    0.71
   0   4  -9   44.17    1.17
   0   4  -9   40.33    1.20
   0  -4   8    0.54    0.25
   0  -4   8    0.39    0.28
   0  -4   8   -0.08    0.33
   0  -4   8    0.54    0.21
   0  -4   8    0.52    0.29
   0   4  -8    0.67    0.28
   0   4  -8    0.07    0.29
   0   4  -8    0.94    0.21
   0   4  -8    0.34    0.31
   0   4  -8    0.81    0.30
   0  -4   7   15.23    0.53
   0  -4   7   15.80    0.69
   0  -4   7   15.82    0.68
   0  -4   7   16.12    0.40
   0  -4   7   15.27    0.70
   0  -4   7   14.19    0.58
   0  -4   7   16.77    0.67
   0   4  -7   17.98    0.57
   0   4  -7   16.84    0.73
   0   4  -7   17.12    0.77
   0   4  -7   15.92    0.67
   0   4  -7   14.90    0.62
   0  -4   6    1.30    0.23
   0  -4   6    0.67    0.26
   0  -4   6    1.08    0.26
   0  -4   6    0.95    0.16
   0  -4   6    0.94    0.29
   0  -4   6    0.77    0.19
   0  -4   6    0.68    0.23
   0   4  -6    0.99    0.25
   0   4  -6    1.00    0.29
   0   4  -6    0.93    0.15
   0   4  -6    1.16    0.35
   0   4  -6    1.14    0.27
   0   4  -6    1.02    0.24
   0  -4   5   20.23    0.53
   0  -4   5   23.26    0.67
   0  -4   5   22.79    0.36
   0  -4   5   20.34    0.68
   0  -4   5   21.33    0.55
   0  -4   5   23.68    0.59
   0   4  -5   24.67    0.61
   0   4  -5   23.36    0.70
   0   4  -5   26.05    0.38
   0   4  -5   23.69    0.74
   0   4  -5   21.40    0.57
   0   4  -5   20.63    0.56
   0  -4   4   68.60    0.87
   0  -4   4   71.02    1.08
   0  -4   4   75.50    1.03
   0  -4   4   67.66    1.07
   0  -4   4   70.29    0.83
   0  -4   4   73.05    0.85
   0   4  -4   76.71    1.09
   0   4  -4   83.53    1.10
   0   4  -4   89.41    0.65
   0   4  -4   65.66    0.56
   0   4  -4   78.42    1.15
   0   4  -4   71.49    0.87
   0   4  -4   67.12    0.84
   0  -4   3    1.32    0.20
   0  -4   3    1.55    0.24
   0  -4   3    1.18    0.19
   0  -4   3    0.98    0.20
   0  -4   3    1.23    0.15
   0   4  -3    1.56    0.21
   0   4  -3    1.16    0.19
   0   4  -3    1.38    0.14
   0   4  -3    1.31    0.16
   0   4  -3    0.83    0.21
   0   4  -3    1.23    0.18
   0   4  -3    1.34    0.16
   0  -4   2   32.76    0.61
   0  -4   2   35.64    0.70
   0  -4   2   37.10    0.62
   0  -4   2   33.82    0.71
   0  -4   2   36.37    0.43
   0  -4   2   36.13    0.43
   0   4  -2   38.02    0.67
   0   4  -2   40.15    0.65
   0   4  -2   33.47    0.47
   0   4  -2   38.99    0.49
   0   4  -2   33.18    0.45
   0  -4   1    4.67    0.29
   0  -4   1    5.28    0.32
   0  -4   1    4.16    0.25
   0  -4   1    4.94    0.35
   0  -4   1    4.91    0.15
   0  -4   1    4.56    0.14
   0   4  -1    5.28    0.28
   0   4  -1    4.51    0.27
   0   4  -1    4.51    0.25
   0   4  -1    5.13    0.33
   0   4  -1    5.12    0.18
   0   4  -1    4.31    0.17
   0  -4   0   77.09    0.95
   0  -4   0   90.59    0.95
   0  -4   0   78.28    0.85
   0   4   0   83.77    0.98
   0   4   0   89.46    0.84
   0   4   0   78.46    0.78
   0   4   0   84.57    0.88
   0   4   0   75.96    0.96
   0   4   0   84.75    1.04
   0   4   0   89.87    0.56
   0   4   0   75.88    0.51
   0  -4  -1   15.60    0.49
   0  -4  -1   17.96    0.43
   0  -4  -1   14.53    0.38
   0  -4  -1   14.43    0.44
   0  -4  -1   14.43    0.46
   0  -4  -1   17.30    0.25
   0  -4  -1   15.22    0.23
   0   4   1   15.77    0.48
   0   4   1   15.45    0.38
   0   4   1   14.30    0.46
   0   4   1   16.39    0.50
   0   4   1   17.37    0.30
   0   4   1   16.02    0.28
   0  -4  -2   91.58    1.12
   0  -4  -2  104.67    0.85
   0  -4  -2   83.24    0.84
   0  -4  -2   85.34    1.04
   0  -4  -2   83.85    1.01
   0  -4  -2   86.50    0.67
   0   4   2  104.23    1.19
   0   4   2   88.32    1.09
   0   4   2   91.79    0.87
   0   4   2   90.51    1.05
   0   4   2   91.04    1.07
   0   4   2  101.67    0.80
   0   4   2   93.45    0.76
   0  -4  -3   44.02    0.68
   0  -4  -3   43.72    0.83
   0  -4  -3   41.56    0.76
   0  -4  -3   45.82    0.60
   0  -4  -3   51.11    0.64
   0   4   3   51.65    0.90
   0   4   3   48.24    0.87
   0   4   3   49.33    0.70
   0   4   3   46.94    0.82
   0   4   3   48.37    0.68
   0   4   3   49.84    0.66
   0  -4  -4   22.65    0.56
   0  -4  -4   22.28    0.66
   0  -4  -4   22.76    0.62
   0  -4  -4   23.43    0.51
   0  -4  -4   25.74    0.54
   0   4   4   27.53    0.73
   0   4   4   22.31    0.64
   0   4   4   23.21    0.65
   0   4   4   24.42    0.69
   0   4   4   24.70    0.66
   0   4   4   25.01    0.56
   0   4   4   25.48    0.57
   0  -4  -5   26.00    0.65
   0  -4  -5   25.02    0.75
   0  -4  -5   25.46    0.70
   0  -4  -5   26.05    0.60
   0  -4  -5   29.10    0.65
   0   4   5   31.88    0.81
   0   4   5   24.32    0.71
   0   4   5   27.74    0.67
   0   4   5   29.14    0.81
   0   4   5   27.93    0.75
   0   4   5   29.76    0.68
   0   4   5   29.05    0.67
   0  -4  -6    1.27    0.26
   0  -4  -6    1.11    0.33
   0  -4  -6    1.15    0.27
   0  -4  -6    1.58    0.25
   0  -4  -6    1.36    0.26
   0   4   6    1.59    0.31
   0   4   6    1.62    0.31
   0   4   6    1.45    0.28
   0   4   6    1.88    0.37
   0   4   6    1.18    0.32
   0   4   6    1.37    0.29
   0   4   6    1.33    0.25
   0  -4  -7   21.83    0.73
   0  -4  -7   23.20    0.85
   0  -4  -7   20.82    0.78
   0  -4  -7   22.47    0.70
   0  -4  -7   25.04    0.77
   0   4   7   26.48    0.87
   0   4   7   22.80    0.78
   0   4   7   24.93    0.77
   0   4   7   24.12    0.86
   0   4   7   25.45    0.86
   0   4   7   25.74    0.80
   0   4   7   26.84    0.80
   0  -4  -8    0.12    0.28
   0  -4  -8    0.51    0.33
   0  -4  -8    0.44    0.39
   0  -4  -8    0.66    0.31
   0   4   8    0.49    0.37
   0   4   8    0.64    0.34
   0   4   8    0.42    0.34
   0   4   8    1.31    0.39
   0   4   8    0.25    0.29
   0  -4  -9    9.06    0.70
   0  -4  -9   10.41    0.77
   0  -4  -9   10.22    0.75
   0   4   9   12.54    0.82
   0   4   9   11.74    0.82
   0   4   9    8.88    0.96
   0   4   9   11.94    0.82
   0   4   9   12.49    0.76
   0  -4 -10   11.16    0.83
   0  -4 -10   12.68    0.92
   0  -4 -10   15.66    0.94
   0   4  10   16.26    0.94
   0   4  10   14.43    0.91
   0   4  10   13.63    0.99
   0   4  10   15.15    0.91
   0  -4 -11    2.41    0.55
   0  -4 -11    2.97    0.62
   0   4  11    3.10    0.61
   0   4  11    2.44    0.58
   0   4  11    4.13    0.64
   0  -4 -12    0.17    0.53
   0  -4 -12   -0.42    0.57
   0   4  12   -0.07    0.57
   0   4  12    0.17    0.60
   0   4  12    0.87    0.62
   0  -5  12    6.03    0.76
   0  -5  12    5.60    0.73
   0   5 -12    5.64    0.78
   0   5 -12    5.35    0.69
   0  -5  11    3.45    0.49
   0  -5  11    4.27    0.61
   0  -5  11    2.33    0.56
   0   5 -11    3.94    0.67
   0   5 -11    3.52    0.58
   0  -5  10   22.90    0.80
   0  -5  10   29.23    1.14
   0  -5  10   27.24    1.17
   0   5 -10   29.47    1.08
   0   5 -10   29.89    1.18
   0   5 -10   27.29    1.04
   0  -5   9    0.83    0.32
   0  -5   9    0.58    0.37
   0  -5   9    0.59    0.22
   0  -5   9    0.19    0.41
   0  -5   9    0.82    0.43
   0   5  -9    0.62    0.40
   0   5  -9    0.98    0.42
   0   5  -9    0.67    0.29
   0   5  -9    0.94    0.44
   0   5  -9    1.29    0.36
   0  -5   8   14.12    0.61
   0  -5   8   16.60    0.81
   0  -5   8   16.31    0.39
   0  -5   8   14.60    0.82
   0  -5   8   17.12    0.78
   0   5  -8   17.70    0.70
   0   5  -8   15.04    0.80
   0   5  -8   15.21    0.37
   0   5  -8   15.50    0.78
   0   5  -8   15.29    0.70
   0  -5   7    2.51    0.35
   0  -5   7    2.23    0.37
   0  -5   7    2.20    0.39
   0  -5   7    2.54    0.36
   0   5  -7    3.24    0.39
   0   5  -7    2.29    0.41
   0   5  -7    2.86    0.25
   0   5  -7    2.21    0.24
   0   5  -7    2.32    0.35
   0   5  -7    1.93    0.29
   0  -5   6   89.05    1.14
   0  -5   6   98.68    1.53
   0  -5   6   95.69    1.43
   0  -5   6   93.63    1.50
   0  -5   6   91.55    1.18
   0  -5   6   99.10    1.23
   0   5  -6  115.98    1.29
   0   5  -6  112.88    1.55
   0   5  -6  112.39    0.72
   0   5  -6   88.11    0.65
   0   5  -6  104.82    1.61
   0   5  -6   98.10    1.27
   0   5  -6   90.47    1.21
   0  -5   5   87.19    1.10
   0  -5   5   96.04    1.45
   0  -5   5   95.05    1.32
   0  -5   5   91.96    1.41
   0  -5   5   90.68    1.06
   0  -5   5   96.34    1.09
   0   5  -5  112.25    1.23
   0   5  -5  111.13    1.43
   0   5  -5  120.21    0.78
   0   5  -5   87.24    0.67
   0   5  -5  101.39    1.49
   0   5  -5   88.99    1.10
   0  -5   4   19.83    0.58
   0  -5   4   20.69    0.71
   0  -5   4   22.77    0.65
   0  -5   4   19.58    0.71
   0  -5   4   20.75    0.49
   0  -5   4   21.86    0.50
   0   5  -4   24.25    0.63
   0   5  -4   25.29    0.71
   0   5  -4   24.91    0.43
   0   5  -4   19.14    0.38
   0   5  -4   21.70    0.74
   0   5  -4   21.79    0.54
   0   5  -4   19.56    0.50
   0  -5   3  118.93    1.26
   0  -5   3  136.99    1.59
   0  -5   3  136.74    1.36
   0  -5   3  124.50    1.49
   0  -5   3  130.41    0.95
   0  -5   3  136.30    0.97
   0   5  -3  148.02    1.39
   0   5  -3  149.06    1.43
   0   5  -3  153.50    1.04
   0   5  -3  124.78    0.93
   0   5  -3  134.30    1.54
   0   5  -3  139.39    1.08
   0   5  -3  121.91    1.01
   0  -5   2   27.95    0.65
   0  -5   2   31.22    0.75
   0  -5   2   31.29    0.65
   0  -5   2   29.49    0.75
   0  -5   2   31.86    0.40
   0   5  -2   31.95    0.69
   0   5  -2   33.62    0.67
   0   5  -2   33.93    0.58
   0   5  -2   28.64    0.53
   0   5  -2   33.14    0.78
   0   5  -2   31.98    0.48
   0   5  -2   27.70    0.44
   0  -5   1  208.71    1.70
   0  -5   1  239.54    1.83
   0  -5   1  216.48    1.45
   0   5  -1  239.60    1.80
   0   5  -1  242.46    1.59
   0   5  -1  205.66    1.46
   0   5  -1  225.82    1.48
   0   5  -1  193.10    1.73
   0   5  -1  232.79    1.87
   0   5  -1  245.15    1.07
   0   5  -1  195.92    0.95
   0  -5   0  190.38    1.67
   0  -5   0  218.83    1.65
   0  -5   0  193.68    1.49
   0   5   0  207.00    1.72
   0   5   0  213.13    1.44
   0   5   0  191.53    1.36
   0   5   0  202.96    1.51
   0   5   0  179.95    1.65
   0   5   0  209.33    1.76
   0   5   0  209.05    0.92
   0   5   0  182.69    0.86
   0  -5  -1  384.15    2.43
   0  -5  -1  443.03    2.19
   0  -5  -1  378.57    2.22
   0  -5  -1  378.79    1.14
   0   5   1  407.08    2.47
   0   5   1  403.44    1.95
   0   5   1  386.18    1.89
   0   5   1  413.90    2.30
   0   5   1  373.14    2.35
   0   5   1  405.47    2.42
   0   5   1  405.26    1.40
   0   5   1  385.28    1.36
   0  -5  -2  108.19    1.36
   0  -5  -2  127.61    1.11
   0  -5  -2   97.60    1.00
   0  -5  -2  102.96    1.26
   0  -5  -2  100.89    1.25
   0  -5  -2  103.21    0.71
   0  -5  -2  115.16    0.76
   0   5   2  126.09    1.46
   0   5   2  106.35    1.33
   0   5   2  110.06    1.05
   0   5   2  115.78    1.31
   0   5   2  109.66    1.32
   0   5   2  115.96    0.89
   0   5   2  111.65    0.86
   0  -5  -3   21.25    0.48
   0  -5  -3   14.30    0.47
   0  -5  -3   15.75    0.61
   0  -5  -3   15.14    0.57
   0  -5  -3   15.38    0.37
   0  -5  -3   17.86    0.41
   0   5   3   18.16    0.66
   0   5   3   16.43    0.62
   0   5   3   17.57    0.47
   0   5   3   18.07    0.51
   0   5   3   18.12    0.61
   0   5   3   17.18    0.62
   0   5   3   18.38    0.47
   0   5   3   17.41    0.43
   0  -5  -4  107.51    1.18
   0  -5  -4  109.44    1.47
   0  -5  -4  113.80    1.41
   0  -5  -4  111.50    1.05
   0  -5  -4  126.06    1.13
   0   5   4  129.48    1.61
   0   5   4  116.22    1.52
   0   5   4  125.98    1.26
   0   5   4  124.90    1.54
   0   5   4  124.42    1.49
   0   5   4  130.32    1.22
   0   5   4  127.46    1.20
   0  -5  -5   22.01    0.66
   0  -5  -5   22.94    0.79
   0  -5  -5   22.94    0.76
   0  -5  -5   23.36    0.59
   0  -5  -5   25.98    0.64
   0   5   5   26.63    0.84
   0   5   5   21.78    0.77
   0   5   5   25.49    0.69
   0   5   5   25.73    0.83
   0   5   5   24.27    0.77
   0   5   5   23.55    0.78
   0   5   5   27.13    0.67
   0  -5  -6  230.41    1.95
   0  -5  -6  234.82    2.34
   0  -5  -6  230.83    2.16
   0  -5  -6  228.26    1.84
   0  -5  -6  271.80    2.03
   0   5   6  284.21    2.56
   0   5   6  225.19    2.26
   0   5   6  260.81    2.06
   0   5   6  233.90    2.34
   0   5   6  267.85    2.34
   0   5   6  265.86    2.09
   0   5   6  271.01    2.11
   0  -5  -7   22.91    0.78
   0  -5  -7   23.47    1.03
   0  -5  -7   21.38    0.86
   0  -5  -7   28.04    0.83
   0   5   7   29.48    0.98
   0   5   7   25.63    0.83
   0   5   7   27.14    0.94
   0   5   7   26.41    0.85
   0  -5  -8   58.87    1.22
   0  -5  -8   66.82    1.46
   0  -5  -8   70.27    1.29
   0   5   8   79.42    1.54
   0   5   8   67.46    1.31
   0   5   8   63.10    1.73
   0   5   8   71.63    1.35
   0   5   8   79.60    1.40
   0  -5  -9    1.03    0.47
   0  -5  -9    1.85    0.50
   0  -5  -9    1.51    0.45
   0   5   9    2.19    0.52
   0   5   9    1.45    0.48
   0   5   9    1.67    0.46
   0   5   9    2.08    0.42
   0  -5 -10    7.52    0.83
   0  -5 -10   11.05    0.92
   0   5  10   11.65    0.92
   0   5  10   10.46    0.94
   0   5  10   10.92    0.92
   0  -5 -11   11.07    1.00
   0  -5 -11   18.99    1.15
   0   5  11   17.92    1.14
   0   5  11   14.89    1.12
   0   5  11   21.54    1.18
   0  -5 -12    0.85    0.65
   0  -5 -12    3.12    0.71
   0   5  12    2.73    0.72
   0   5  12    2.86    0.77
   0   5  12    2.39    0.65
   0  -6  11   11.22    1.07
   0  -6  11   12.32    1.12
   0   6 -11   10.15    1.16
   0   6 -11   11.26    0.94
   0  -6  10    2.66    0.49
   0  -6  10    3.06    0.60
   0  -6  10    2.70    0.60
   0   6 -10    3.60    0.60
   0   6 -10    2.43    0.45
   0  -6   9   59.79    1.15
   0  -6   9   77.16    1.68
   0  -6   9   62.42    1.57
   0   6  -9   76.57    1.33
   0   6  -9   71.90    1.61
   0   6  -9   63.13    1.34
   0  -6   8    0.45    0.32
   0  -6   8    0.33    0.35
   0  -6   8    0.39    0.36
   0  -6   8    0.07    0.36
   0   6  -8    0.71    0.44
   0   6  -8    0.86    0.39
   0   6  -8    1.10    0.40
   0   6  -8    0.06    0.28
   0  -6   7   30.84    0.83
   0  -6   7   36.41    1.12
   0  -6   7   32.08    1.08
   0  -6   7   33.87    0.90
   0   6  -7   41.88    0.97
   0   6  -7   35.13    1.63
   0   6  -7   29.39    1.14
   0   6  -7   32.58    0.86
   0  -6   6   61.02    1.07
   0  -6   6   69.71    1.42
   0  -6   6   63.77    1.25
   0  -6   6   64.44    1.37
   0  -6   6   67.76    1.04
   0   6  -6   79.24    1.20
   0   6  -6   80.59    1.40
   0   6  -6   67.31    1.11
   0   6  -6   61.34    1.03
   0  -6   5   31.11    0.79
   0  -6   5   36.63    1.01
   0  -6   5   34.33    0.92
   0  -6   5   32.58    0.98
   0  -6   5   32.37    0.66
   0  -6   5   36.36    0.71
   0   6  -5   42.11    0.91
   0   6  -5   41.35    0.99
   0   6  -5   42.92    0.61
   0   6  -5   33.48    0.50
   0   6  -5   35.16    1.03
   0   6  -5   35.73    0.76
   0   6  -5   32.00    0.70
   0  -6   4  136.38    1.49
   0  -6   4  152.52    1.86
   0  -6   4  149.34    1.62
   0  -6   4  145.25    1.82
   0  -6   4  144.53    1.13
   0  -6   4  150.71    1.19
   0   6  -4  168.22    1.64
   0   6  -4  179.38    1.78
   0   6  -4  184.13    1.18
   0   6  -4  142.51    1.04
   0   6  -4  162.33    1.92
   0   6  -4  152.64    1.31
   0   6  -4  138.01    1.24
   0  -6   3   15.58    0.61
   0  -6   3   16.91    0.68
   0  -6   3   17.79    0.62
   0  -6   3   15.76    0.70
   0  -6   3   16.91    0.36
   0  -6   3   17.42    0.38
   0   6  -3   17.46    0.65
   0   6  -3   19.70    0.65
   0   6  -3   20.10    0.51
   0   6  -3   15.91    0.46
   0   6  -3   18.04    0.73
   0   6  -3   17.96    0.45
   0   6  -3   14.66    0.40
   0  -6   2  249.43    2.03
   0  -6   2  274.85    2.26
   0  -6   2  258.11    2.26
   0  -6   2  267.28    0.91
   0   6  -2  281.85    2.13
   0   6  -2  297.59    2.02
   0   6  -2  234.00    1.79
   0   6  -2  296.66    1.77
   0   6  -2  235.65    2.16
   0   6  -2  276.78    2.31
   0   6  -2  275.09    1.35
   0   6  -2  234.35    1.24
   0  -6   1    3.03    0.35
   0  -6   1    4.18    0.45
   0  -6   1    3.92    0.38
   0   6  -1    3.81    0.47
   0   6  -1    3.78    0.37
   0   6  -1    3.64    0.39
   0   6  -1    3.91    0.40
   0   6  -1    3.68    0.38
   0   6  -1    2.72    0.34
   0   6  -1    3.91    0.44
   0   6  -1    4.28    0.23
   0   6  -1    3.43    0.20
   0  -6   0   75.83    1.21
   0  -6   0   87.17    1.19
   0  -6   0   76.65    1.07
   0   6   0   79.30    1.21
   0   6   0   87.00    1.04
   0   6   0   73.14    0.97
   0   6   0   79.66    1.08
   0   6   0   70.73    1.19
   0   6   0   81.90    1.25
   0   6   0   87.75    0.64
   0   6   0   75.90    0.60
   0  -6  -1  123.09    1.55
   0  -6  -1  145.86    1.43
   0  -6  -1  122.91    1.42
   0   6   1  127.89    1.55
   0   6   1  133.83    1.25
   0   6   1  110.33    1.53
   0   6   1  127.92    1.43
   0   6   1  117.69    1.50
   0   6   1  131.42    1.56
   0   6   1  131.09    0.84
   0   6   1  126.96    0.83
   0  -6  -2   61.92    1.16
   0  -6  -2   74.93    0.99
   0  -6  -2   58.82    0.88
   0  -6  -2   59.50    1.08
   0  -6  -2   59.79    0.49
   0  -6  -2   66.20    0.52
   0   6   2   71.14    1.24
   0   6   2   61.22    1.14
   0   6   2   63.02    0.90
   0   6   2   65.37    1.12
   0   6   2   61.93    1.14
   0   6   2   62.44    1.12
   0   6   2   65.64    0.70
   0   6   2   65.82    0.69
   0  -6  -3  224.76    1.53
   0  -6  -3  160.34    1.44
   0  -6  -3  165.78    1.82
   0  -6  -3  161.10    1.77
   0  -6  -3  169.99    1.06
   0  -6  -3  185.38    1.12
   0   6   3  193.69    2.05
   0   6   3  170.50    1.90
   0   6   3  190.16    1.42
   0   6   3  183.42    1.53
   0   6   3  188.58    1.92
   0   6   3  182.53    1.90
   0   6   3  188.00    1.32
   0   6   3  187.46    1.31
   0  -6  -4   15.36    0.59
   0  -6  -4   15.98    0.73
   0  -6  -4   15.33    0.71
   0  -6  -4   15.48    0.43
   0  -6  -4   17.70    0.53
   0   6   4   18.68    0.78
   0   6   4   15.97    0.74
   0   6   4   18.15    0.50
   0   6   4   17.73    0.62
   0   6   4   18.44    0.76
   0   6   4   17.80    0.75
   0   6   4   18.92    0.57
   0   6   4   18.30    0.53
   0  -6  -5  111.86    1.36
   0  -6  -5  120.98    1.75
   0  -6  -5  112.56    1.59
   0  -6  -5  109.45    1.21
   0  -6  -5  136.33    1.31
   0   6   5  143.94    1.91
   0   6   5  132.30    1.46
   0   6   5  137.41    1.76
   0   6   5  137.88    1.43
   0   6   5  133.65    1.45
   0  -6  -6   54.92    1.06
   0  -6  -6   47.92    1.57
   0  -6  -6   50.05    1.19
   0  -6  -6   63.31    1.03
   0   6   6   67.37    1.43
   0   6   6   62.31    1.14
   0   6   6   61.80    1.29
   0   6   6   66.24    1.14
   0   6   6   66.36    1.10
   0  -6  -7   15.40    0.73
   0  -6  -7   17.45    0.90
   0  -6  -7   18.89    0.76
   0   6   7   23.52    0.95
   0   6   7   18.81    0.82
   0   6   7   13.19    1.41
   0   6   7   20.75    0.75
   0  -6  -8    7.16    0.71
   0  -6  -8    8.49    0.79
   0  -6  -8    7.58    0.74
   0   6   8    9.68    0.82
   0   6   8    6.34    0.62
   0   6   8    7.66    0.83
   0   6   8    7.76    0.76
   0   6   8    9.96    0.70
   0  -6  -9   37.94    1.15
   0  -6  -9   42.97    1.39
   0   6   9   48.88    1.43
   0   6   9   46.04    1.41
   0   6   9   49.59    1.27
   0  -6 -10   36.31    1.30
   0  -6 -10   45.43    1.54
   0   6  10   55.01    1.58
   0   6  10   45.48    1.49
   0   6  10   50.64    1.40
   0  -6 -11    0.16    0.62
   0  -6 -11    0.44    0.64
   0   6  11    0.18    0.61
   0   6  11   -0.03    0.63
   0   6  11    1.34    0.53
   0  -7  10    2.90    0.58
   0  -7  10    2.09    0.55
   0  -7  10    4.14    0.75
   0   7 -10    2.82    0.66
   0   7 -10    2.51    0.51
   0  -7   9   10.26    0.78
   0  -7   9   12.44    0.95
   0  -7   9   14.75    1.09
   0   7  -9   11.25    1.03
   0   7  -9   10.65    0.76
   0  -7   8   11.98    0.74
   0  -7   8   16.08    0.93
   0  -7   8   16.19    1.02
   0   7  -8   16.53    0.97
   0   7  -8   17.19    1.00
   0   7  -8   12.37    0.71
   0  -7   7   21.45    0.80
   0  -7   7   27.46    1.09
   0  -7   7   24.02    1.07
   0  -7   7   24.93    0.82
   0   7  -7   27.52    0.99
   0   7  -7   28.77    1.08
   0   7  -7   24.64    0.89
   0   7  -7   23.25    0.78
   0  -7   6   14.64    0.69
   0  -7   6   17.30    0.89
   0  -7   6   15.15    0.87
   0  -7   6   16.74    0.92
   0  -7   6   15.80    0.63
   0   7  -6   20.11    0.84
   0   7  -6   18.96    0.87
   0   7  -6   17.00    0.71
   0   7  -6   14.80    0.61
   0  -7   5   48.59    1.04
   0  -7   5   54.42    1.32
   0  -7   5   52.43    1.19
   0  -7   5   49.50    1.27
   0  -7   5   53.27    0.83
   0   7  -5   61.87    1.18
   0   7  -5   64.78    1.26
   0   7  -5   70.96    0.76
   0   7  -5   53.74    0.67
   0   7  -5   53.67    0.92
   0   7  -5   49.53    0.87
   0  -7   4   21.62    0.77
   0  -7   4   23.72    0.90
   0  -7   4   24.57    0.85
   0  -7   4   22.57    0.92
   0  -7   4   23.78    0.51
   0   7  -4   27.60    0.86
   0   7  -4   27.64    0.85
   0   7  -4   28.89    0.62
   0   7  -4   22.89    0.57
   0   7  -4   22.79    0.60
   0   7  -4   20.94    0.55
   0  -7   3  145.87    1.71
   0  -7   3  164.05    2.01
   0  -7   3  152.78    2.01
   0  -7   3  157.97    0.79
   0   7  -3  172.86    1.85
   0   7  -3  184.51    1.82
   0   7  -3  141.71    1.61
   0   7  -3  183.23    1.45
   0   7  -3  157.07    1.34
   0   7  -3  133.59    1.87
   0   7  -3  158.26    2.05
   0   7  -3  162.04    1.20
   0   7  -3  140.74    1.12
   0  -7   2    8.56    0.60
   0  -7   2    8.51    0.62
   0   7  -2    8.83    0.63
   0   7  -2    9.51    0.55
   0   7  -2    7.31    0.55
   0   7  -2   10.16    0.52
   0   7  -2    8.36    0.51
   0   7  -2    8.03    0.64
   0   7  -2    8.82    0.64
   0   7  -2    9.32    0.34
   0   7  -2    7.82    0.30
   0  -7   1   81.19    1.34
   0  -7   1   95.07    1.43
   0   7  -1   88.30    1.40
   0   7  -1  102.40    1.27
   0   7  -1   80.88    1.14
   0   7  -1   99.63    1.26
   0   7  -1   89.43    1.19
   0   7  -1   80.68    1.40
   0   7  -1   87.78    1.45
   0   7  -1   94.75    0.71
   0   7  -1   80.57    0.65
   0  -7   0   82.26    1.38
   0  -7   0   92.89    1.35
   0  -7   0   83.74    1.23
   0   7   0   87.24    1.43
   0   7   0   94.72    1.18
   0   7   0   81.50    1.12
   0   7   0   88.22    1.26
   0   7   0   80.39    1.39
   0   7   0   87.01    1.44
   0   7   0   96.23    0.68
   0   7   0   82.54    0.63
   0  -7  -1   53.18    1.16
   0  -7  -1   63.37    1.09
   0  -7  -1   54.76    1.07
   0   7   1   64.70    1.27
   0   7   1   52.52    1.15
   0   7   1   58.52    0.95
   0   7   1   52.88    0.91
   0   7   1   55.93    1.10
   0   7   1   52.91    1.16
   0   7   1   54.07    1.18
   0   7   1   59.34    0.59
   0   7   1   56.40    0.57
   0  -7  -2  104.01    1.29
   0  -7  -2   81.88    1.36
   0   7   2   97.43    1.57
   0   7   2   85.50    1.76
   0   7   2   91.11    1.16
   0   7   2   85.90    1.13
   0   7   2   91.25    1.42
   0   7   2   86.10    1.45
   0   7   2   89.82    1.49
   0   7   2   90.77    0.83
   0   7   2   87.94    0.81
   0  -7  -3   11.71    0.57
   0  -7  -3   12.31    0.72
   0  -7  -3   11.16    0.30
   0  -7  -3   13.01    0.33
   0   7   3   13.16    0.72
   0   7   3   13.58    0.58
   0   7   3   14.36    0.62
   0   7   3   14.30    0.79
   0   7   3   13.09    0.76
   0   7   3   11.48    0.75
   0   7   3   14.12    0.46
   0   7   3   11.64    0.68
   0  -7  -4  126.60    1.44
   0  -7  -4  131.20    1.84
   0  -7  -4  121.61    1.75
   0  -7  -4  145.02    1.12
   0   7   4  160.54    2.10
   0   7   4  148.32    1.29
   0   7   4  147.04    1.54
   0   7   4  146.29    1.91
   0   7   4  147.25    1.34
   0   7   4  146.18    1.32
   0  -7  -5    6.47    0.58
   0  -7  -5    6.85    0.70
   0  -7  -5    6.78    0.47
   0   7   5    8.08    0.72
   0   7   5    7.89    0.64
   0   7   5    8.05    0.54
   0   7   5    7.36    0.47
   0  -7  -6   42.45    1.02
   0  -7  -6   45.52    1.29
   0  -7  -6   49.94    0.95
   0   7   6   57.20    1.40
   0   7   6   51.19    1.14
   0   7   6   52.33    1.31
   0   7   6   52.85    1.07
   0   7   6   52.64    1.01
   0  -7  -7    5.82    0.56
   0  -7  -7    6.39    0.70
   0  -7  -7    7.45    0.68
   0   7   7    8.28    0.79
   0   7   7    7.76    0.82
   0   7   7    7.66    0.84
   0   7   7    8.97    0.76
   0   7   7    7.46    0.59
   0  -7  -8   52.28    1.28
   0  -7  -8   56.41    1.56
   0   7   8   74.57    1.70
   0   7   8   54.55    1.40
   0   7   8   66.26    1.63
   0   7   8   68.16    1.34
   0  -7  -9   34.03    1.21
   0  -7  -9   33.96    1.37
   0   7   9   43.69    1.47
   0   7   9   38.22    1.48
   0   7   9   40.20    1.19
   0  -7 -10    2.67    0.65
   0  -7 -10    3.54    0.75
   0   7  10    5.32    0.81
   0   7  10    3.78    0.85
   0   7  10    8.24    0.91
   0  -8   9    2.49    0.56
   0  -8   9    3.14    0.65
   0  -8   9    2.71    0.71
   0   8  -9    2.01    0.69
   0   8  -9    1.83    0.49
   0  -8   8    4.63    0.59
   0  -8   8    4.47    0.64
   0  -8   8    3.83    0.68
   0   8  -8    4.42    0.66
   0   8  -8    4.31    0.49
   0  -8   7    0.48    0.43
   0  -8   7   -0.04    0.41
   0  -8   7    0.67    0.52
   0   8  -7    0.18    0.48
   0   8  -7   -0.37    0.38
   0   8  -7   -0.38    0.27
   0  -8   6   17.56    0.86
   0  -8   6   20.40    1.00
   0  -8   6   17.75    1.03
   0  -8   6   18.45    0.71
   0   8  -6   22.28    1.06
   0   8  -6   23.65    1.03
   0   8  -6   17.74    0.76
   0   8  -6   16.39    0.65
   0  -8   5    1.09    0.39
   0  -8   5    0.48    0.40
   0  -8   5    1.05    0.47
   0  -8   5    0.49    0.40
   0  -8   5    0.71    0.26
   0   8  -5    1.30    0.51
   0   8  -5    0.93    0.41
   0   8  -5    0.38    0.51
   0   8  -5    0.65    0.25
   0   8  -5    0.69    0.31
   0   8  -5    0.49    0.24
   0  -8   4    1.95    0.42
   0  -8   4    1.73    0.44
   0  -8   4    1.09    0.48
   0   8  -4    1.88    0.47
   0   8  -4    1.47    0.38
   0   8  -4    0.97    0.44
   0   8  -4    1.72    0.32
   0   8  -4    1.17    0.33
   0   8  -4    1.42    0.46
   0   8  -4    1.52    0.27
   0   8  -4    0.96    0.22
   0  -8   3    5.73    0.63
   0  -8   3    7.32    0.68
   0   8  -3    5.10    0.58
   0   8  -3    7.40    0.64
   0   8  -3    5.23    0.53
   0   8  -3    7.13    0.55
   0   8  -3    5.68    0.57
   0   8  -3    4.80    0.56
   0   8  -3    5.77    0.37
   0   8  -3    5.24    0.32
   0  -8   2   33.21    1.01
   0  -8   2   36.65    1.08
   0   8  -2   41.07    0.96
   0   8  -2   32.25    0.93
   0   8  -2   40.08    0.91
   0   8  -2   35.07    0.90
   0   8  -2   31.82    1.07
   0   8  -2   34.22    0.51
   0   8  -2   31.44    0.47
   0  -8   1    9.66    0.70
   0  -8   1   10.39    0.71
   0   8  -1   10.11    0.63
   0   8  -1    8.80    0.65
   0   8  -1   10.98    0.67
   0   8  -1    8.71    0.68
   0   8  -1    7.86    0.71
   0  -8   0    8.10    0.70
   0  -8   0    8.87    0.67
   0  -8   0    9.36    0.65
   0   8   0   10.60    0.60
   0   8   0    7.45    0.60
   0   8   0    8.74    0.65
   0   8   0    9.93    0.71
   0   8   0    9.66    0.74
   0  -8  -1    9.82    0.75
   0  -8  -1   14.38    0.70
   0  -8  -1   12.57    0.75
   0   8   1   12.35    0.77
   0   8   1   13.95    0.63
   0   8   1   12.31    0.65
   0   8   1   11.59    0.78
   0   8   1   12.04    0.77
   0   8   1   13.89    0.32
   0  -8  -2    1.66    0.40
   0  -8  -2    1.28    0.37
   0   8   2    2.07    0.42
   0   8   2    1.41    0.41
   0   8   2    0.99    0.31
   0   8   2    1.23    0.35
   0   8   2    2.19    0.58
   0   8   2    1.11    0.41
   0   8   2    1.48    0.20
   0   8   2    1.74    0.20
   0  -8  -3   39.46    1.80
   0   8   3   50.28    1.31
   0   8   3   46.22    0.97
   0   8   3   46.27    0.96
   0   8   3   46.82    1.00
   0   8   3   46.22    1.26
   0   8   3   45.70    0.71
   0   8   3   45.98    0.69
   0  -8  -4    7.49    0.64
   0  -8  -4    7.88    0.81
   0   8   4    8.10    0.76
   0   8   4    8.22    0.60
   0   8   4    7.33    0.71
   0   8   4    7.27    0.84
   0   8   4    8.13    0.50
   0   8   4    8.03    0.44
   0  -8  -5   40.47    1.03
   0  -8  -5   40.18    1.28
   0  -8  -5   42.30    0.74
   0   8   5   50.26    1.39
   0   8   5   45.25    1.11
   0   8   5   46.57    1.34
   0   8   5   47.69    0.94
   0   8   5   47.12    0.88
   0  -8  -6   10.07    0.79
   0  -8  -6    9.19    0.93
   0  -8  -6    9.54    0.63
   0   8   6   10.06    0.88
   0   8   6   10.19    0.89
   0   8   6    9.09    0.91
   0   8   6   11.12    0.76
   0   8   6   12.17    0.61
   0  -8  -7   11.38    0.90
   0  -8  -7   11.72    1.04
   0   8   7   14.88    1.01
   0   8   7   15.98    1.12
   0   8   7   14.11    0.71
   0  -8  -8   15.25    1.03
   0  -8  -8   13.62    1.16
   0   8   8   19.37    1.15
   0   8   8   19.05    1.30
   0   8   8   17.85    0.85
   0  -8  -9    1.78    0.66
   0  -8  -9    1.77    0.68
   0   8   9    2.56    0.69
   0   8   9    2.27    0.80
   0   8   9    2.45    0.59
   0  -9   7    5.64    0.71
   0  -9   7    5.78    0.80
   0  -9   7    5.06    0.79
   0   9  -7    5.11    0.75
   0   9  -7    4.27    0.47
   0  -9   6    3.39    0.62
   0  -9   6    3.78    0.66
   0  -9   6    2.71    0.65
   0   9  -6    3.16    0.59
   0   9  -6    2.52    0.46
   0   9  -6    2.58    0.38
   0  -9   5    3.30    0.57
   0  -9   5    4.02    0.64
   0   9  -5    3.28    0.54
   0   9  -5    3.86    0.65
   0   9  -5    3.59    0.39
   0   9  -5    3.63    0.43
   0  -9   4    0.95    0.47
   0  -9   4    1.43    0.51
   0   9  -4    1.95    0.54
   0   9  -4    1.40    0.39
   0   9  -4    1.22    0.53
   0   9  -4    0.79    0.28
   0   9  -4    0.83    0.22
   0  -9   3    3.11    0.57
   0  -9   3    3.71    0.58
   0   9  -3    4.58    0.54
   0   9  -3    2.34    0.58
   0   9  -3    4.06    0.46
   0   9  -3    3.72    0.61
   0   9  -3    3.20    0.35
   0   9  -3    3.39    0.31
   0  -9   2    6.64    0.67
   0  -9   2    8.88    0.82
   0   9  -2    7.63    0.72
   0   9  -2    6.17    0.65
   0   9  -2    8.42    0.76
   0   9  -2    6.72    0.79
   0   9  -2    6.95    0.83
   0  -9   1   -0.18    0.40
   0  -9   1    0.16    0.40
   0   9  -1   -0.67    0.34
   0   9  -1    0.75    0.48
   0   9  -1   -0.17    0.38
   0   9  -1    0.29    0.47
   0   9  -1    0.09    0.40
   0  -9   0    7.00    0.79
   0  -9   0   10.45    0.76
   0   9   0   10.77    0.85
   0   9   0    9.17    0.70
   0   9   0    8.72    0.76
   0   9   0    9.30    0.79
   0   9   0    7.68    0.90
   0   9   0    8.61    0.87
   0  -9  -1    2.72    0.50
   0  -9  -1    2.65    0.52
   0   9   1    1.85    0.49
   0   9   1    2.52    0.52
   0   9   1    2.92    0.43
   0   9   1    2.16    0.47
   0   9   1    3.24    0.55
   0  -9  -2    2.74    0.55
   0   9   2    3.31    0.58
   0   9   2    2.98    0.50
   0   9   2    3.26    0.44
   0   9   2    2.49    0.49
   0   9   2    2.46    0.57
   0  -9  -3    0.30    0.45
   0   9   3    0.35    0.45
   0   9   3    0.36    0.45
   0   9   3    0.51    0.37
   0   9   3    0.42    0.53
   0   9   3    0.47    0.23
   0   9   3    0.83    0.21
   0  -9  -4    2.34    0.58
   0   9   4    3.58    0.61
   0   9   4    3.28    0.47
   0   9   4    2.45    0.63
   0   9   4    3.25    0.35
   0   9   4    3.42    0.41
   0  -9  -5    1.50    0.48
   0  -9  -5    2.10    0.62
   0   9   5    3.17    0.60
   0   9   5    1.61    0.61
   0   9   5    2.24    0.40
   0   9   5    2.77    0.33
   0  -9  -6    2.75    0.55
   0  -9  -6    0.78    0.63
   0   9   6    3.07    0.61
   0   9   6    2.70    0.69
   0   9   6    2.70    0.39
   0  -9  -7    3.12    0.70
   0   9   7    3.78    0.73
   0   9   7    3.44    0.81
   0   9   7    5.21    0.64
   0 -10   5    4.62    0.75
   0 -10   5    3.34    0.70
   0  10  -5    4.30    0.71
   0  10  -5    2.56    0.71
   0  10  -5    3.47    0.41
   0  10  -5    2.79    0.33
   0 -10   4    3.30    0.67
   0 -10   4    3.43    0.64
   0  10  -4    3.48    0.64
   0  10  -4    2.32    0.68
   0  10  -4    3.45    0.42
   0  10  -4    3.53    0.36
   0 -10   3    1.04    0.61
   0 -10   3    2.39    0.61
   0  10  -3    2.63    0.57
   0  10  -3    1.43    0.61
   0 -10   2    5.83    0.74
   0 -10   2    7.32    0.87
   0  10  -2    8.76    0.91
   0  10  -2    7.31    0.89
   0  10  -2    7.76    0.88
   0 -10   1    0.44    0.54
   0 -10   1    0.26    0.51
   0  10  -1    0.37    0.56
   0  10  -1    0.16    0.45
   0  10  -1    0.62    0.53
   0  10  -1    0.68    0.58
   0 -10   0   13.82    0.96
   0  10   0   12.48    1.08
   0  10   0   11.87    1.01
   0  10   0   13.11    0.90
   0  10   0   12.37    1.06
   0  10   0   11.86    1.10
   0  10   1   -1.44    0.51
   0  10   1    0.19    0.50
   0  10   1    0.37    0.47
   0  10   1    0.81    0.58
   0  10   1   -0.37    0.56
   0 -10  -2    6.71    0.78
   0  10   2    6.68    0.82
   0  10   2    6.31    0.70
   0  10   2    6.14    0.86
   0 -10  -3   -0.93    0.59
   0  10   3    0.85    0.56
   0  10   3    1.22    0.55
   0  10   3    0.00    0.69
   0 -10  -4    1.99    0.69
   0  10   4    1.47    0.67
   0  10   4    2.40    0.79
   0  10   4    1.29    0.31
   0  10   4    1.17    0.27
  -1  10   3   16.36    1.25
  -1  10   3   15.54    1.44
  -1  10   3   15.39    0.64
  -1  10   3   13.57    0.57
   1 -10  -3   14.06    1.21
  -1  10   2    8.79    0.94
  -1  10   2    6.81    0.77
  -1  10   2    5.32    0.82
  -1  10   2    7.58    0.51
  -1  10   2    6.29    0.44
   1 -10  -2    5.62    0.77
  -1  10   1   36.41    1.47
  -1  10   1   34.08    1.24
  -1  10   1   30.99    1.52
   1 -10  -1   33.60    1.44
   1 -10  -1   29.84    1.30
  -1  10   0    2.91    0.70
  -1  10   0    0.95    0.59
  -1  10   0    1.28    0.72
  -1  10   0    2.00    0.68
   1 -10   0   -0.43    0.61
  -1  10  -1   21.24    1.17
  -1  10  -1   22.01    1.15
  -1  10  -1   16.98    1.29
   1 -10   1   17.56    1.23
  -1  10  -2   11.69    1.02
  -1  10  -2   12.19    1.28
  -1  10  -2   12.00    0.49
  -1  10  -2   10.47    0.43
   1 -10   2   10.61    1.11
  -1  10  -3    4.30    0.71
  -1  10  -3    4.42    0.75
  -1  10  -3    4.66    0.51
  -1  10  -3    4.49    0.45
   1 -10   3    3.92    0.73
  -1  10  -4   15.13    1.19
  -1  10  -4   15.97    1.38
  -1  10  -4   16.17    0.71
  -1  10  -4   12.97    0.59
   1 -10   4   10.42    1.18
   1 -10   4   21.52    1.24
  -1   9   6    9.10    1.03
  -1   9   6    8.21    0.92
  -1   9   6    8.90    0.69
   1  -9  -6    7.72    0.88
  -1   9   5    3.49    0.64
  -1   9   5    3.55    0.77
  -1   9   5    3.30    0.40
   1  -9  -5    3.79    0.69
  -1   9   4   26.39    1.24
  -1   9   4   24.94    1.32
  -1   9   4   22.81    0.78
  -1   9   4   24.28    0.72
   1  -9  -4   20.97    1.19
  -1   9   3   -0.60    0.46
  -1   9   3    0.03    0.48
  -1   9   3    0.66    0.60
  -1   9   3    0.39    0.30
  -1   9   3    0.01    0.26
   1  -9  -3   -0.90    0.48
  -1   9   2    6.30    0.72
  -1   9   2    5.53    0.59
  -1   9   2    6.19    0.58
  -1   9   2    4.83    0.70
  -1   9   2    5.70    0.47
  -1   9   2    4.17    0.42
   1  -9  -2    5.86    0.72
   1  -9  -2    5.07    0.61
  -1   9   1    4.32    0.61
  -1   9   1    2.95    0.55
  -1   9   1    3.68    0.42
  -1   9   1    2.06    0.57
  -1   9   1    3.87    0.42
  -1   9   1    2.88    0.28
   1  -9  -1    1.73    0.53
   1  -9  -1    2.40    0.50
  -1   9   0   34.24    1.15
  -1   9   0   38.63    0.89
  -1   9   0   32.49    1.21
  -1   9   0   31.47    1.26
  -1   9   0   38.50    0.65
  -1   9   0   32.48    0.59
   1  -9   0   32.23    1.26
   1  -9   0   32.98    1.08
  -1   9  -1   23.04    1.03
  -1   9  -1   27.55    0.84
  -1   9  -1   24.89    0.96
  -1   9  -1   21.09    1.13
  -1   9  -1   23.46    0.58
  -1   9  -1   19.60    0.51
   1  -9   1   21.05    1.07
  -1   9  -2    1.59    0.53
  -1   9  -2    1.92    0.42
  -1   9  -2    2.12    0.46
  -1   9  -2    1.70    0.53
  -1   9  -2    1.92    0.28
  -1   9  -2    1.50    0.25
   1  -9   2    0.98    0.50
   1  -9   2    2.23    0.54
  -1   9  -3    5.60    0.72
  -1   9  -3    6.15    0.55
  -1   9  -3    6.81    0.64
  -1   9  -3    4.80    0.64
  -1   9  -3    6.77    0.51
  -1   9  -3    5.19    0.42
   1  -9   3    5.60    0.70
   1  -9   3    7.40    0.82
  -1   9  -4    8.06    0.95
  -1   9  -4    9.66    0.82
  -1   9  -4    8.10    0.84
  -1   9  -4    8.10    0.58
  -1   9  -4    7.58    0.50
   1  -9   4    9.23    0.94
   1  -9   4    8.51    0.89
  -1   9  -5   44.30    1.48
  -1   9  -5   35.40    1.43
  -1   9  -5   42.03    0.99
  -1   9  -5   36.11    0.86
   1  -9   5   38.88    1.34
   1  -9   5   49.98    1.51
  -1   9  -6    0.29    0.49
  -1   9  -6   -1.00    0.52
  -1   9  -6   -0.05    0.59
  -1   9  -6    0.19    0.32
   1  -9   6    0.57    0.55
   1  -9   6    0.89    0.57
  -1   9  -7   19.91    1.30
  -1   9  -7   19.11    1.39
  -1   9  -7   15.76    0.90
   1  -9   7   16.41    1.16
   1  -9   7   16.45    1.40
  -1   8   8   -0.40    0.58
  -1   8   8    1.24    0.75
  -1   8   8    0.81    0.43
   1  -8  -8    1.55    0.62
  -1   8   7   14.58    1.08
  -1   8   7   14.11    1.20
  -1   8   7   13.82    0.77
   1  -8  -7   11.91    0.85
   1  -8  -7   12.56    1.10
  -1   8   6   15.56    1.02
  -1   8   6   15.83    1.09
  -1   8   6   14.90    0.71
   1  -8  -6   13.46    0.80
   1  -8  -6   13.48    1.04
  -1   8   5   71.08    1.66
  -1   8   5   66.54    1.63
  -1   8   5   66.09    1.19
  -1   8   5   66.14    1.13
   1  -8  -5   55.97    1.06
   1  -8  -5   55.93    1.50
   1  -8  -5   64.24    1.01
  -1   8   4   -0.02    0.39
  -1   8   4    0.33    0.40
  -1   8   4   -0.14    0.30
  -1   8   4    0.48    0.38
  -1   8   4    0.27    0.49
  -1   8   4    0.29    0.30
  -1   8   4   -0.43    0.21
   1  -8  -4    0.03    0.45
   1  -8  -4   -0.19    0.27
  -1   8   3    9.57    0.78
  -1   8   3    7.87    0.71
  -1   8   3    8.50    0.54
  -1   8   3    7.08    0.59
  -1   8   3    6.98    0.70
  -1   8   3    7.28    0.51
  -1   8   3    7.16    0.46
   1  -8  -3    7.13    0.79
   1  -8  -3    7.19    0.40
  -1   8   2    6.46    0.72
  -1   8   2    5.39    0.53
  -1   8   2    5.57    0.50
  -1   8   2    5.08    0.54
  -1   8   2    5.41    0.61
  -1   8   2    4.84    0.43
  -1   8   2    4.22    0.36
   1  -8  -2    5.51    0.66
   1  -8  -2    4.69    0.55
  -1   8   1    8.86    0.68
  -1   8   1   11.01    0.55
  -1   8   1    9.28    0.57
  -1   8   1    9.63    0.82
  -1   8   1    8.68    0.79
  -1   8   1   10.06    0.44
  -1   8   1    8.37    0.40
   1  -8  -1    9.01    0.79
   1  -8  -1    8.33    0.68
  -1   8   0   27.53    0.94
  -1   8   0   33.14    0.76
  -1   8   0   26.72    0.74
  -1   8   0   31.77    0.97
  -1   8   0   27.39    1.06
  -1   8   0   31.96    0.61
  -1   8   0   26.71    0.55
   1  -8   0   28.63    1.06
   1  -8   0   27.23    0.88
  -1   8  -1    0.14    0.37
  -1   8  -1   -0.08    0.26
  -1   8  -1    0.39    0.33
  -1   8  -1   -0.33    0.31
  -1   8  -1    0.00    0.37
  -1   8  -1    0.55    0.42
  -1   8  -1    0.00    0.20
  -1   8  -1   -0.02    0.18
   1  -8   1   -0.03    0.38
   1  -8   1    0.22    0.39
   1  -8   1    0.16    0.31
  -1   8  -2   68.79    1.11
  -1   8  -2   51.80    1.04
  -1   8  -2   64.70    1.07
  -1   8  -2   61.92    1.08
  -1   8  -2   50.33    1.35
  -1   8  -2   61.56    0.86
  -1   8  -2   51.64    0.76
   1  -8   2   53.71    1.30
   1  -8   2   64.84    1.42
  -1   8  -3   80.99    1.27
  -1   8  -3   59.42    1.17
  -1   8  -3   78.02    1.03
  -1   8  -3   76.97    1.05
  -1   8  -3   59.48    1.46
  -1   8  -3   72.74    0.98
  -1   8  -3   57.99    0.87
   1  -8   3   62.64    1.44
   1  -8   3   76.31    1.56
   1  -8   3   67.27    0.66
  -1   8  -4   10.61    0.74
  -1   8  -4    6.88    0.78
  -1   8  -4    9.47    0.47
  -1   8  -4    7.10    0.72
  -1   8  -4    8.65    0.57
  -1   8  -4    7.09    0.46
   1  -8   4    7.11    0.72
   1  -8   4    9.75    0.80
   1  -8   4    7.24    0.46
  -1   8  -5    4.80    0.54
  -1   8  -5    3.48    0.57
  -1   8  -5    4.96    0.47
  -1   8  -5    4.85    0.48
   1  -8   5    4.06    0.56
   1  -8   5    3.97    0.56
   1  -8   5    7.39    0.87
   1  -8   5    3.69    0.57
   1  -8   5    5.10    0.57
  -1   8  -6   20.36    1.02
  -1   8  -6   19.87    0.85
  -1   8  -6   17.35    0.73
   1  -8   6   18.08    0.93
   1  -8   6   21.21    1.07
   1  -8   6   19.28    1.06
   1  -8   6   19.49    0.96
  -1   8  -7    9.83    0.95
  -1   8  -7    8.34    0.66
   1  -8   7    9.69    0.87
   1  -8   7   12.06    0.96
   1  -8   7    9.49    0.98
  -1   8  -8    5.64    0.71
  -1   8  -8    4.80    0.55
   1  -8   8    4.89    0.65
   1  -8   8    7.34    0.89
   1  -8   8    4.08    0.68
  -1   8  -9    6.95    0.86
  -1   8  -9    8.29    1.03
   1  -8   9    6.43    0.75
  -1   7   9    2.13    0.63
  -1   7   9    2.28    0.72
  -1   7   9    1.77    0.49
   1  -7  -9    1.06    0.97
   1  -7  -9    2.03    0.61
  -1   7   8   26.44    1.23
  -1   7   8   22.21    1.24
  -1   7   8   23.82    0.98
   1  -7  -8   17.28    0.93
   1  -7  -8   20.23    1.17
  -1   7   7   -0.42    0.42
  -1   7   7    0.38    0.51
  -1   7   7    0.26    0.48
  -1   7   7   -0.24    0.62
  -1   7   7    0.19    0.31
   1  -7  -7    0.51    0.37
   1  -7  -7    1.23    0.50
  -1   7   6   34.78    1.19
  -1   7   6   29.63    0.90
  -1   7   6   32.84    1.17
  -1   7   6   32.52    0.99
  -1   7   6   33.94    0.90
   1  -7  -6   27.67    0.84
   1  -7  -6   30.20    1.14
   1  -7  -6   34.20    0.93
  -1   7   5   38.44    1.20
  -1   7   5   34.71    0.85
  -1   7   5   37.76    1.22
  -1   7   5   35.82    0.92
  -1   7   5   35.40    0.85
   1  -7  -5   31.21    0.79
   1  -7  -5   32.00    1.10
   1  -7  -5   36.15    0.84
  -1   7   4    8.24    0.71
  -1   7   4    7.04    0.59
  -1   7   4    7.95    0.54
  -1   7   4    9.12    0.80
  -1   7   4    7.72    0.53
  -1   7   4    7.23    0.48
   1  -7  -4    6.94    0.51
   1  -7  -4    7.64    0.81
   1  -7  -4    8.00    0.47
  -1   7   3   29.37    1.01
  -1   7   3   25.81    0.77
  -1   7   3   25.38    0.64
  -1   7   3   24.45    0.95
  -1   7   3   25.67    0.99
  -1   7   3   25.65    0.67
  -1   7   3   25.14    0.63
   1  -7  -3   24.77    0.94
   1  -7  -3   22.83    0.88
   1  -7  -3   26.01    0.57
  -1   7   2    0.50    0.31
  -1   7   2   -0.03    0.20
  -1   7   2    0.29    0.23
  -1   7   2    0.29    0.34
  -1   7   2   -0.32    0.21
  -1   7   2   -0.21    0.16
   1  -7  -2   -0.40    0.38
   1  -7  -2   -0.14    0.30
  -1   7   1   19.79    0.74
  -1   7   1   22.67    0.58
  -1   7   1   20.13    0.58
  -1   7   1   19.73    0.77
  -1   7   1   17.33    0.84
  -1   7   1   18.69    1.01
  -1   7   1   21.32    0.53
  -1   7   1   17.83    0.78
   1  -7  -1   19.47    0.84
   1  -7  -1   19.62    0.75
   1  -7  -1   20.64    0.40
   1  -7  -1   18.34    0.36
  -1   7   0    0.79    0.33
  -1   7   0    0.35    0.23
  -1   7   0    0.22    0.29
  -1   7   0    0.52    0.36
  -1   7   0    0.53    0.38
  -1   7   0    0.45    0.18
  -1   7   0    0.21    0.16
   1  -7   0   -0.14    0.29
   1  -7   0    0.59    0.32
   1  -7   0    0.32    0.27
   1  -7   0    0.38    0.15
   1  -7   0    0.11    0.12
  -1   7  -1   17.34    0.82
  -1   7  -1   20.43    0.60
  -1   7  -1   15.81    0.59
  -1   7  -1   17.38    0.65
  -1   7  -1   18.91    0.51
  -1   7  -1   16.16    0.46
   1  -7   1   16.43    0.76
   1  -7   1   19.13    0.78
   1  -7   1   16.35    0.62
   1  -7   1   18.93    0.37
   1  -7   1   15.87    0.32
  -1   7  -2   17.63    0.81
  -1   7  -2   24.24    0.68
  -1   7  -2   17.06    0.63
  -1   7  -2   21.05    0.63
  -1   7  -2   20.10    0.63
  -1   7  -2   15.73    0.82
  -1   7  -2   22.69    0.57
  -1   7  -2   15.01    0.57
   1  -7   2   17.74    0.77
   1  -7   2   20.38    0.82
   1  -7   2   21.17    0.44
   1  -7   2   17.33    0.38
  -1   7  -3   44.34    1.14
  -1   7  -3   48.79    0.95
  -1   7  -3   37.29    0.88
  -1   7  -3   47.97    0.76
  -1   7  -3   45.14    0.74
  -1   7  -3   37.61    1.11
  -1   7  -3   44.37    0.78
  -1   7  -3   36.92    0.70
   1  -7   3   38.96    1.03
   1  -7   3   47.37    1.17
   1  -7   3   42.21    0.64
  -1   7  -4   19.11    0.87
  -1   7  -4   20.21    0.76
  -1   7  -4   20.41    0.47
  -1   7  -4   16.50    0.83
  -1   7  -4   20.27    0.63
  -1   7  -4   16.73    0.56
   1  -7   4   16.47    0.75
   1  -7   4   20.43    0.87
   1  -7   4   18.94    0.76
   1  -7   4   18.36    0.89
   1  -7   4   18.22    0.57
  -1   7  -5    7.17    0.75
  -1   7  -5    5.24    0.61
  -1   7  -5    5.35    0.52
  -1   7  -5    3.81    0.43
   1  -7   5    4.04    0.48
   1  -7   5    5.45    0.66
   1  -7   5    3.88    0.48
   1  -7   5    4.42    0.52
   1  -7   5    5.55    0.54
  -1   7  -6   22.06    0.97
  -1   7  -6   21.32    0.90
  -1   7  -6   20.25    0.78
  -1   7  -6   16.81    0.66
   1  -7   6   16.99    0.80
   1  -7   6   20.51    0.95
   1  -7   6   17.15    0.88
   1  -7   6   17.79    0.94
   1  -7   6   18.84    0.77
  -1   7  -7    6.35    0.62
  -1   7  -7    5.92    0.69
  -1   7  -7    5.16    0.57
   1  -7   7    6.56    0.74
   1  -7   7    6.24    0.77
   1  -7   7    5.29    0.63
   1  -7   7    6.14    0.71
  -1   7  -8   16.00    1.00
  -1   7  -8   16.14    0.81
   1  -7   8   13.79    0.87
   1  -7   8   16.56    0.96
   1  -7   8   15.42    1.04
  -1   7  -9    2.81    0.60
  -1   7  -9    1.89    0.47
   1  -7   9    2.47    0.55
   1  -7   9    3.10    0.63
   1  -7   9    1.64    0.62
  -1   7 -10    5.17    0.81
  -1   7 -10    3.52    0.59
   1  -7  10    3.68    0.65
   1  -7  10    3.93    0.67
   1  -7  10    4.60    0.73
  -1   6  10    5.31    0.74
  -1   6  10    2.63    0.68
  -1   6  10    5.75    0.71
   1  -6 -10    2.52    0.61
   1  -6 -10    4.84    0.75
  -1   6   9   13.11    0.98
  -1   6   9   13.05    1.07
  -1   6   9   10.16    1.06
  -1   6   9   11.33    0.86
   1  -6  -9   10.19    0.87
   1  -6  -9    8.79    0.97
  -1   6   8   30.36    1.17
  -1   6   8   28.21    1.05
  -1   6   8   27.29    1.19
  -1   6   8   28.37    1.67
  -1   6   8   26.94    0.98
   1  -6  -8   22.61    0.89
   1  -6  -8   22.87    1.10
   1  -6  -8   30.34    1.45
  -1   6   7   15.24    0.90
  -1   6   7   12.46    0.76
  -1   6   7   12.67    0.89
  -1   6   7   13.48    0.84
  -1   6   7   13.85    0.70
   1  -6  -7   11.29    0.67
   1  -6  -7   11.39    0.86
   1  -6  -7   14.36    0.77
  -1   6   6   11.67    0.75
  -1   6   6    9.26    0.61
  -1   6   6   11.33    0.77
  -1   6   6    9.99    0.69
  -1   6   6   11.41    0.63
   1  -6  -6    9.56    0.59
   1  -6  -6    8.49    0.73
   1  -6  -6   10.84    0.62
  -1   6   5   12.04    0.57
  -1   6   5   11.89    0.78
  -1   6   5   11.93    0.63
  -1   6   5   13.26    0.58
   1  -6  -5   10.80    0.52
   1  -6  -5   11.13    0.74
   1  -6  -5   10.24    0.74
   1  -6  -5   13.82    0.59
  -1   6   4   81.62    1.46
  -1   6   4   77.21    0.93
  -1   6   4   59.89    1.34
  -1   6   4   76.62    1.36
  -1   6   4   76.73    1.41
  -1   6   4   77.17    1.08
  -1   6   4   75.23    1.06
   1  -6  -4   65.39    0.91
   1  -6  -4   66.97    1.30
   1  -6  -4   61.50    1.24
   1  -6  -4   62.39    0.90
  -1   6   3   12.22    0.66
  -1   6   3    9.50    0.67
  -1   6   3   10.60    0.53
  -1   6   3    9.75    0.43
  -1   6   3   10.02    0.65
  -1   6   3   10.48    0.69
  -1   6   3   10.41    0.48
  -1   6   3   10.04    0.43
   1  -6  -3    8.43    0.60
   1  -6  -3    8.23    0.42
   1  -6  -3    9.16    0.61
   1  -6  -3    8.75    0.64
   1  -6  -3    8.06    0.36
  -1   6   2   10.86    0.64
  -1   6   2   12.81    0.56
  -1   6   2   13.56    0.44
  -1   6   2   13.86    0.45
  -1   6   2   13.08    0.63
  -1   6   2   13.12    0.69
  -1   6   2   13.65    0.67
  -1   6   2   12.25    0.45
  -1   6   2   12.74    0.43
   1  -6  -2   12.34    0.66
   1  -6  -2   12.93    0.63
   1  -6  -2   10.00    0.59
   1  -6  -2   14.64    0.43
   1  -6  -2   11.39    0.35
  -1   6   1    0.15    0.28
  -1   6   1    0.07    0.24
  -1   6   1    0.51    0.18
  -1   6   1   -0.17    0.16
  -1   6   1    0.49    0.27
  -1   6   1   -0.11    0.26
  -1   6   1    0.29    0.27
  -1   6   1    0.12    0.16
  -1   6   1    0.15    0.14
   1  -6  -1   -0.19    0.25
   1  -6  -1    0.11    0.23
   1  -6  -1    0.17    0.15
   1  -6  -1   -0.12    0.12
  -1   6   0   -0.02    0.27
  -1   6   0   -0.50    0.26
  -1   6   0    0.01    0.16
  -1   6   0    0.18    0.17
  -1   6   0    0.31    0.24
  -1   6   0    0.21    0.28
  -1   6   0    0.36    0.27
  -1   6   0    0.24    0.15
  -1   6   0    0.04    0.13
   1  -6   0    0.25    0.26
   1  -6   0   -0.16    0.24
   1  -6   0    0.04    0.21
   1  -6   0    0.19    0.15
   1  -6   0    0.26    0.11
  -1   6  -1  102.93    1.43
  -1   6  -1  111.79    1.09
  -1   6  -1   90.51    0.99
  -1   6  -1  101.39    1.13
  -1   6  -1   86.42    1.39
  -1   6  -1   99.93    1.48
  -1   6  -1  108.32    0.98
  -1   6  -1   87.77    0.88
   1  -6   1   90.92    1.36
   1  -6   1  108.98    1.44
   1  -6   1   93.74    1.08
   1  -6   1  103.79    0.82
   1  -6   1   94.11    0.76
  -1   6  -2    0.29    0.28
  -1   6  -2    0.16    0.20
  -1   6  -2    0.61    0.21
  -1   6  -2    0.35    0.20
  -1   6  -2    0.33    0.20
  -1   6  -2   -0.32    0.25
  -1   6  -2    0.14    0.28
  -1   6  -2    0.65    0.20
  -1   6  -2    0.12    0.15
   1  -6   2    0.49    0.24
   1  -6   2    0.61    0.29
   1  -6   2    0.58    0.20
   1  -6   2    0.13    0.16
   1  -6   2    0.47    0.14
  -1   6  -3   17.12    0.71
  -1   6  -3   16.95    0.59
  -1   6  -3   18.33    0.45
  -1   6  -3   16.74    0.44
  -1   6  -3   14.56    0.71
  -1   6  -3   15.36    0.72
  -1   6  -3   17.73    0.53
  -1   6  -3   13.82    0.46
   1  -6   3   13.49    0.63
   1  -6   3   16.43    0.73
   1  -6   3   14.23    0.56
   1  -6   3   14.65    0.72
   1  -6   3   15.10    0.48
   1  -6   3   14.85    0.41
  -1   6  -4    0.02    0.31
  -1   6  -4    0.03    0.24
  -1   6  -4    0.09    0.13
  -1   6  -4    0.13    0.14
  -1   6  -4    0.51    0.33
  -1   6  -4    0.16    0.23
  -1   6  -4   -0.04    0.17
   1  -6   4    0.12    0.26
   1  -6   4   -0.43    0.27
   1  -6   4    0.27    0.25
   1  -6   4   -0.24    0.26
   1  -6   4    0.07    0.22
   1  -6   4   -0.36    0.17
  -1   6  -5    5.37    0.60
  -1   6  -5    4.43    0.46
  -1   6  -5    4.34    0.47
  -1   6  -5    4.74    0.55
   1  -6   5    4.58    0.52
   1  -6   5    4.04    0.50
   1  -6   5    5.01    0.53
   1  -6   5    2.53    0.56
   1  -6   5    4.25    0.43
  -1   6  -6   11.13    0.70
  -1   6  -6   10.84    0.69
  -1   6  -6    9.99    0.61
  -1   6  -6    9.93    0.56
   1  -6   6    8.53    0.62
   1  -6   6    9.53    0.72
   1  -6   6    8.89    0.68
   1  -6   6    8.08    0.70
   1  -6   6    9.28    0.57
  -1   6  -7    0.91    0.41
  -1   6  -7   -0.09    0.34
  -1   6  -7    0.26    0.39
  -1   6  -7    0.16    0.27
   1  -6   7    0.43    0.36
   1  -6   7    0.51    0.35
   1  -6   7    0.18    0.38
   1  -6   7    0.08    0.32
   1  -6   7    0.21    0.31
  -1   6  -8   15.54    0.94
  -1   6  -8   16.46    0.91
  -1   6  -8   16.21    0.85
  -1   6  -8   15.32    0.77
   1  -6   8   15.32    0.81
   1  -6   8   16.91    0.90
   1  -6   8   15.98    0.93
   1  -6   8   14.52    0.82
  -1   6  -9    2.33    0.59
  -1   6  -9    1.04    0.50
  -1   6  -9    0.33    0.38
   1  -6   9    1.52    0.46
   1  -6   9    0.85    0.41
   1  -6   9    1.49    0.49
  -1   6 -10    1.93    0.61
  -1   6 -10    0.03    0.45
   1  -6  10    1.37    0.50
   1  -6  10    1.35    0.49
   1  -6  10    1.41    0.51
  -1   6 -11    0.04    0.54
  -1   6 -11    0.35    0.62
  -1   6 -11   -0.51    0.49
   1  -6  11   -0.66    0.47
   1  -6  11    0.43    0.62
  -1   5  11    2.40    0.66
  -1   5  11    2.05    0.65
  -1   5  11    4.05    0.69
   1  -5 -11    0.78    0.56
   1  -5 -11    2.87    0.74
  -1   5  10    3.91    0.64
  -1   5  10    2.29    0.62
  -1   5  10    3.24    0.59
   1  -5 -10    1.27    0.47
   1  -5 -10    2.62    0.59
  -1   5   9   77.01    1.62
  -1   5   9   66.80    1.43
  -1   5   9   61.23    1.52
  -1   5   9   71.74    1.50
   1  -5  -9   48.04    1.19
   1  -5  -9   61.59    1.55
   1  -5  -9   69.32    1.49
  -1   5   8    7.02    0.72
  -1   5   8    7.73    0.74
  -1   5   8    6.68    0.69
  -1   5   8    6.29    0.75
  -1   5   8    6.38    0.65
   1  -5  -8    4.94    0.49
   1  -5  -8    7.05    0.75
   1  -5  -8    5.81    0.71
  -1   5   7   30.51    0.88
  -1   5   7   29.49    1.46
  -1   5   7   31.60    0.96
  -1   5   7   32.85    0.94
   1  -5  -7   25.11    0.79
   1  -5  -7   27.50    1.00
   1  -5  -7   32.30    0.91
  -1   5   6    5.99    0.60
  -1   5   6    4.84    0.47
  -1   5   6    5.85    0.63
  -1   5   6    5.49    0.55
  -1   5   6    6.17    0.52
   1  -5  -6    4.14    0.47
   1  -5  -6    5.40    0.55
   1  -5  -6    3.79    0.47
   1  -5  -6    4.15    0.43
   1  -5  -6    4.64    0.50
  -1   5   5   80.74    1.40
  -1   5   5   66.48    1.27
  -1   5   5   71.73    0.98
  -1   5   5   75.44    1.32
  -1   5   5   74.47    1.31
  -1   5   5   75.73    1.14
  -1   5   5   76.85    1.13
   1  -5  -5   62.67    0.93
   1  -5  -5   65.86    1.28
   1  -5  -5   63.58    1.21
   1  -5  -5   63.42    0.98
  -1   5   4  104.55    1.50
  -1   5   4   92.12    1.41
  -1   5   4  101.36    0.89
  -1   5   4   96.51    1.03
  -1   5   4  102.50    1.44
  -1   5   4   96.06    1.43
  -1   5   4  101.14    1.18
   1  -5  -4   85.72    0.97
   1  -5  -4   87.06    1.37
   1  -5  -4   86.67    1.33
   1  -5  -4  104.18    1.15
   1  -5  -4   86.46    1.03
  -1   5   3   18.65    0.70
  -1   5   3   15.30    0.65
  -1   5   3   16.05    0.49
  -1   5   3   16.58    0.45
  -1   5   3   15.77    0.62
  -1   5   3   15.75    0.68
  -1   5   3   16.36    0.50
  -1   5   3   15.81    0.48
   1  -5  -3   16.03    0.65
   1  -5  -3   14.39    0.43
   1  -5  -3   15.09    0.64
   1  -5  -3   13.54    0.60
   1  -5  -3   17.66    0.49
   1  -5  -3   14.21    0.43
  -1   5   2  156.41    1.69
  -1   5   2  161.69    1.32
  -1   5   2  158.09    1.09
  -1   5   2  165.34    1.60
  -1   5   2  158.09    1.69
  -1   5   2  164.29    1.26
  -1   5   2  155.62    1.22
   1  -5  -2  156.32    1.71
   1  -5  -2  143.05    1.05
   1  -5  -2  151.82    1.55
   1  -5  -2  145.01    1.60
   1  -5  -2  176.71    1.21
   1  -5  -2  146.23    1.09
  -1   5   1   75.74    1.17
  -1   5   1   75.68    0.99
  -1   5   1   78.50    0.76
  -1   5   1   72.98    0.73
  -1   5   1   79.99    1.07
  -1   5   1   69.01    1.13
  -1   5   1   76.94    1.17
  -1   5   1   76.72    0.81
  -1   5   1   71.63    0.78
   1  -5  -1   71.11    1.14
   1  -5  -1   70.36    1.00
   1  -5  -1   82.88    0.77
   1  -5  -1   71.51    0.70
  -1   5   0   81.22    1.17
  -1   5   0   88.47    0.82
  -1   5   0   72.15    0.75
  -1   5   0   82.36    1.00
  -1   5   0   71.97    1.14
  -1   5   0   81.98    1.21
  -1   5   0   84.28    0.82
  -1   5   0   71.20    0.75
   1  -5   0   72.81    1.13
   1  -5   0   91.95    1.15
   1  -5   0   73.83    0.95
   1  -5   0   86.50    0.75
   1  -5   0   77.01    0.70
  -1   5  -1   33.22    0.77
  -1   5  -1   37.46    0.60
  -1   5  -1   28.14    0.53
  -1   5  -1   33.72    0.61
  -1   5  -1   28.79    0.77
  -1   5  -1   32.44    0.82
  -1   5  -1   35.07    0.56
  -1   5  -1   28.56    0.50
   1  -5   1   30.25    0.75
   1  -5   1   35.61    0.79
   1  -5   1   30.13    0.58
   1  -5   1   33.18    0.50
   1  -5   1   31.57    0.47
  -1   5  -2   66.08    1.04
  -1   5  -2   72.01    0.88
  -1   5  -2   63.10    0.71
  -1   5  -2   56.50    1.05
  -1   5  -2   64.52    1.10
  -1   5  -2   70.06    0.81
  -1   5  -2   55.59    0.73
   1  -5   2   57.55    1.00
   1  -5   2   65.65    1.09
   1  -5   2   64.77    0.83
   1  -5   2   60.50    0.70
   1  -5   2   64.25    0.72
   1  -5   2   60.12    0.68
  -1   5  -3  119.90    1.39
  -1   5  -3  121.84    1.22
  -1   5  -3  121.44    0.81
  -1   5  -3  110.09    0.77
  -1   5  -3  112.78    1.47
  -1   5  -3  120.68    1.14
  -1   5  -3   96.82    1.01
   1  -5   3  102.26    1.30
   1  -5   3  113.39    1.47
   1  -5   3  109.44    1.16
   1  -5   3  104.19    1.44
   1  -5   3  107.95    1.01
   1  -5   3  104.58    0.98
  -1   5  -4    4.44    0.45
  -1   5  -4    3.59    0.41
  -1   5  -4    4.03    0.44
  -1   5  -4    2.60    0.32
   1  -5   4    2.81    0.34
   1  -5   4    2.87    0.37
   1  -5   4    3.24    0.38
   1  -5   4    3.21    0.39
   1  -5   4    3.19    0.33
   1  -5   4    3.45    0.30
  -1   5  -5   67.05    1.10
  -1   5  -5   60.98    1.06
  -1   5  -5   60.38    1.21
  -1   5  -5   59.66    0.97
  -1   5  -5   51.94    0.91
   1  -5   5   52.89    1.01
   1  -5   5   59.59    1.20
   1  -5   5   56.40    1.02
   1  -5   5   53.81    1.14
   1  -5   5   57.72    0.92
   1  -5   5   54.63    0.88
  -1   5  -6    0.52    0.31
  -1   5  -6    0.00    0.25
  -1   5  -6    0.28    0.33
  -1   5  -6   -0.05    0.22
  -1   5  -6    0.29    0.21
   1  -5   6    0.47    0.29
   1  -5   6   -0.09    0.29
   1  -5   6    0.61    0.29
   1  -5   6    0.30    0.29
   1  -5   6    0.10    0.24
   1  -5   6    0.54    0.23
  -1   5  -7   14.07    0.71
  -1   5  -7   12.54    0.71
  -1   5  -7   12.17    0.64
   1  -5   7   10.61    0.61
   1  -5   7   12.16    0.73
   1  -5   7   10.69    0.71
   1  -5   7   10.52    0.71
   1  -5   7   11.75    0.67
  -1   5  -8   11.69    0.76
  -1   5  -8   10.81    1.10
  -1   5  -8   10.95    0.71
  -1   5  -8    9.22    0.64
   1  -5   8    9.08    0.62
   1  -5   8    9.56    0.76
   1  -5   8    9.57    0.74
   1  -5   8   10.60    0.70
  -1   5  -9    5.38    0.57
  -1   5  -9    3.91    0.52
  -1   5  -9    4.26    0.57
  -1   5  -9    3.83    0.46
   1  -5   9    4.77    0.58
   1  -5   9    4.37    0.58
   1  -5   9    5.28    0.62
   1  -5   9    5.67    0.62
  -1   5 -10    3.35    0.61
  -1   5 -10    3.35    0.59
  -1   5 -10    3.43    0.51
   1  -5  10    3.92    0.49
   1  -5  10    4.15    0.58
   1  -5  10    4.91    0.64
  -1   5 -11    1.32    0.59
  -1   5 -11    0.61    0.46
   1  -5  11    0.71    0.43
   1  -5  11    0.56    0.49
   1  -5  11    0.35    0.54
  -1   5 -12    4.47    0.75
  -1   5 -12    3.29    0.74
  -1   5 -12    3.88    0.73
   1  -5  12    4.03    0.69
   1  -5  12    4.29    0.73
  -1   4  12    4.50    0.76
  -1   4  12    4.18    0.80
  -1   4  12    4.40    0.78
   1  -4 -12    1.71    0.64
   1  -4 -12    2.15    0.72
  -1   4  11   15.33    1.07
  -1   4  11   13.17    1.06
  -1   4  11   17.40    1.14
   1  -4 -11    7.95    0.74
   1  -4 -11   13.28    1.08
  -1   4  10    4.72    0.62
  -1   4  10    2.15    0.49
  -1   4  10    5.29    0.65
   1  -4 -10    1.85    0.47
   1  -4 -10    2.78    0.56
   1  -4 -10    4.58    0.65
  -1   4   9    3.27    0.50
  -1   4   9    2.99    0.51
  -1   4   9    2.70    0.48
  -1   4   9    3.27    0.53
  -1   4   9    3.11    0.49
   1  -4  -9    2.14    0.40
   1  -4  -9    3.56    0.55
   1  -4  -9    3.39    0.52
  -1   4   8   29.59    0.98
  -1   4   8   27.54    0.89
  -1   4   8   21.14    1.55
  -1   4   8   26.30    0.96
  -1   4   8   28.24    0.96
   1  -4  -8   20.28    0.76
   1  -4  -8   25.11    0.98
   1  -4  -8   28.35    0.93
  -1   4   7   12.53    0.70
  -1   4   7    8.36    0.66
  -1   4   7   11.45    0.62
  -1   4   7   12.23    0.74
  -1   4   7   11.73    0.67
  -1   4   7   12.24    0.67
   1  -4  -7    8.50    0.54
   1  -4  -7    9.80    0.68
   1  -4  -7    7.70    0.63
   1  -4  -7   10.21    0.57
  -1   4   6   58.83    1.16
  -1   4   6   51.36    1.08
  -1   4   6   53.86    0.92
  -1   4   6   53.64    1.13
  -1   4   6   57.28    1.06
  -1   4   6   59.78    1.08
   1  -4  -6   46.59    0.87
   1  -4  -6   49.96    1.11
   1  -4  -6   47.94    1.04
   1  -4  -6   50.72    0.94
  -1   4   5   91.50    1.35
  -1   4   5   79.94    1.25
  -1   4   5   84.13    1.02
  -1   4   5   86.65    1.33
  -1   4   5   88.11    1.31
  -1   4   5   89.07    1.18
  -1   4   5   90.38    1.19
   1  -4  -5   75.99    0.97
   1  -4  -5   80.70    1.30
   1  -4  -5   77.16    1.22
   1  -4  -5   95.14    1.19
   1  -4  -5   77.86    1.06
  -1   4   4    9.32    0.50
  -1   4   4    7.24    0.47
  -1   4   4    8.72    0.37
  -1   4   4    8.87    0.54
  -1   4   4    8.69    0.43
  -1   4   4    8.69    0.41
   1  -4  -4    6.95    0.36
   1  -4  -4    7.46    0.50
   1  -4  -4    7.63    0.47
   1  -4  -4    9.78    0.44
   1  -4  -4    8.39    0.38
  -1   4   3  115.75    1.37
  -1   4   3  119.14    0.91
  -1   4   3  114.69    0.94
  -1   4   3  126.44    1.38
  -1   4   3  117.90    1.37
  -1   4   3  124.60    1.15
  -1   4   3  118.22    1.12
   1  -4  -3  113.23    1.36
   1  -4  -3  106.42    0.91
   1  -4  -3  105.92    1.28
   1  -4  -3  107.36    1.30
   1  -4  -3  129.83    1.13
   1  -4  -3  108.60    1.03
  -1   4   2   36.81    0.78
  -1   4   2   35.93    0.58
  -1   4   2   35.40    0.48
  -1   4   2   35.94    0.72
  -1   4   2   33.85    0.76
  -1   4   2   35.76    0.58
  -1   4   2   33.03    0.56
   1  -4  -2   32.91    0.75
   1  -4  -2   31.25    0.48
   1  -4  -2   33.53    0.71
   1  -4  -2   32.04    0.72
   1  -4  -2   38.73    0.58
   1  -4  -2   33.65    0.53
  -1   4   1  121.03    1.31
  -1   4   1  116.75    1.07
  -1   4   1  111.82    0.95
  -1   4   1  112.74    0.78
  -1   4   1  118.38    1.15
  -1   4   1  112.28    1.27
  -1   4   1  111.49    0.91
   1  -4  -1  111.66    1.27
   1  -4  -1  110.64    1.12
   1  -4  -1  109.72    1.24
   1  -4  -1  127.04    0.92
   1  -4  -1  112.15    0.86
  -1   4   0  128.78    1.32
  -1   4   0  113.85    0.80
  -1   4   0  128.83    1.09
  -1   4   0  109.00    1.23
  -1   4   0  126.49    1.32
  -1   4   0  119.42    1.11
  -1   4   0  113.03    0.88
   1  -4   0  116.45    1.26
   1  -4   0  141.97    1.25
   1  -4   0  114.26    1.03
   1  -4   0  129.89    0.89
   1  -4   0  118.39    0.84
  -1   4  -1   58.78    0.88
  -1   4  -1   63.10    0.66
  -1   4  -1   50.34    0.60
  -1   4  -1   55.65    0.65
  -1   4  -1   48.75    0.85
  -1   4  -1   55.34    0.91
  -1   4  -1   48.28    0.60
   1  -4   1   51.96    0.85
   1  -4   1   60.97    0.89
   1  -4   1   51.62    0.63
   1  -4   1   56.91    0.61
   1  -4   1   54.41    0.59
  -1   4  -2  240.66    1.74
  -1   4  -2  254.47    1.46
  -1   4  -2  222.32    1.08
  -1   4  -2  232.68    1.83
  -1   4  -2  232.58    1.45
  -1   4  -2  198.20    1.27
   1  -4   2  209.02    1.64
   1  -4   2  246.23    1.84
   1  -4   2  230.39    1.39
   1  -4   2  206.21    1.04
   1  -4   2  216.13    1.78
   1  -4   2  221.22    1.27
   1  -4   2  220.48    1.26
  -1   4  -3    7.69    0.41
  -1   4  -3    7.65    0.36
  -1   4  -3    7.83    0.20
  -1   4  -3    6.76    0.19
  -1   4  -3    6.22    0.43
  -1   4  -3    7.09    0.34
  -1   4  -3    5.49    0.30
   1  -4   3    6.69    0.41
   1  -4   3    8.96    0.47
   1  -4   3    7.08    0.35
   1  -4   3    5.90    0.41
   1  -4   3    6.93    0.31
   1  -4   3    6.65    0.31
  -1   4  -4   16.93    0.55
  -1   4  -4   15.88    0.53
  -1   4  -4   15.61    0.63
  -1   4  -4   16.06    0.49
  -1   4  -4   12.60    0.45
   1  -4   4   13.07    0.51
   1  -4   4   13.89    0.57
   1  -4   4   14.67    0.51
   1  -4   4   13.13    0.57
   1  -4   4   14.45    0.45
   1  -4   4   13.57    0.43
  -1   4  -5    0.45    0.24
  -1   4  -5    0.96    0.24
  -1   4  -5    1.12    0.30
  -1   4  -5    0.30    0.20
  -1   4  -5    0.41    0.18
   1  -4   5    0.72    0.23
   1  -4   5    2.20    0.35
   1  -4   5    1.21    0.24
   1  -4   5    0.62    0.24
   1  -4   5    0.44    0.20
   1  -4   5    0.63    0.18
  -1   4  -6  155.49    1.54
  -1   4  -6  132.38    1.56
  -1   4  -6  147.63    1.76
  -1   4  -6  134.79    1.50
  -1   4  -6  123.17    1.44
   1  -4   6  121.58    1.37
   1  -4   6  141.10    1.72
   1  -4   6  122.22    1.49
   1  -4   6  125.16    1.63
   1  -4   6  132.30    1.46
   1  -4   6  131.45    1.43
  -1   4  -7   60.07    1.05
  -1   4  -7   51.73    1.11
  -1   4  -7   53.26    1.20
  -1   4  -7   52.51    1.05
  -1   4  -7   45.84    0.99
   1  -4   7   47.43    0.93
   1  -4   7   54.75    1.17
   1  -4   7   47.96    1.07
   1  -4   7   48.05    1.12
   1  -4   7   50.93    1.07
   1  -4   7   49.69    0.98
  -1   4  -8    6.88    0.58
  -1   4  -8    6.58    0.62
  -1   4  -8    6.36    0.60
  -1   4  -8    6.36    0.55
   1  -4   8    5.59    0.52
   1  -4   8    6.98    0.63
   1  -4   8    5.02    0.52
   1  -4   8    6.23    0.74
   1  -4   8    6.14    0.57
  -1   4  -9   25.60    0.89
  -1   4  -9   23.72    0.99
  -1   4  -9   24.15    0.97
  -1   4  -9   20.62    0.85
   1  -4   9   18.37    0.73
   1  -4   9   24.92    0.94
   1  -4   9   22.90    0.96
   1  -4   9   23.32    0.93
  -1   4 -10    2.56    0.53
  -1   4 -10    2.43    0.51
  -1   4 -10    2.69    0.59
  -1   4 -10    2.14    0.46
   1  -4  10    1.91    0.39
   1  -4  10    2.12    0.47
   1  -4  10    1.60    0.44
   1  -4  10    2.41    0.53
  -1   4 -11   29.58    1.16
  -1   4 -11   27.24    1.18
  -1   4 -11   29.73    1.18
   1  -4  11   12.70    0.78
   1  -4  11   34.67    1.22
   1  -4  11   30.43    1.24
  -1   4 -12    0.28    0.50
  -1   4 -12    0.24    0.51
  -1   4 -12    0.72    0.54
   1  -4  12    0.94    0.48
   1  -4  12    0.48    0.50
   1  -4  12    1.12    0.54
  -1   3  13    0.65    0.71
  -1   3  13    1.40    0.79
  -1   3  12    0.26    0.53
  -1   3  12    0.79    0.59
  -1   3  12    0.30    0.62
   1  -3 -12    1.03    0.53
   1  -3 -12   -0.13    0.60
  -1   3  11   14.28    0.97
  -1   3  11   12.19    1.00
  -1   3  11   15.42    1.11
   1  -3 -11    9.54    0.89
   1  -3 -11   12.71    1.00
   1  -3 -11   14.95    1.12
  -1   3  10   12.68    0.89
  -1   3  10   14.02    1.04
  -1   3  10   14.67    0.95
   1  -3 -10    9.25    0.76
   1  -3 -10   12.83    0.91
   1  -3 -10   12.91    0.95
  -1   3   9    8.79    0.68
  -1   3   9    7.09    0.74
  -1   3   9    9.20    0.72
  -1   3   9    7.90    0.71
  -1   3   9   10.01    0.82
  -1   3   9    8.66    0.74
   1  -3  -9    6.14    0.63
   1  -3  -9    9.09    0.76
   1  -3  -9    7.17    0.71
   1  -3  -9    8.01    0.87
  -1   3   8   33.81    0.95
  -1   3   8   25.19    0.84
  -1   3   8   29.21    0.86
  -1   3   8   28.25    0.94
  -1   3   8   31.01    0.98
  -1   3   8   32.07    0.97
   1  -3  -8   22.05    0.78
   1  -3  -8   27.79    0.96
   1  -3  -8   20.10    0.84
   1  -3  -8   24.66    0.85
   1  -3  -8   31.59    0.95
  -1   3   7    0.14    0.26
  -1   3   7   -0.18    0.24
  -1   3   7    0.44    0.27
  -1   3   7    0.44    0.27
  -1   3   7    0.25    0.27
  -1   3   7    0.19    0.26
  -1   3   7    0.59    0.27
   1  -3  -7    0.13    0.24
   1  -3  -7    0.35    0.27
   1  -3  -7    0.18    0.26
   1  -3  -7    0.24    0.25
   1  -3  -7    0.45    0.26
  -1   3   6   34.39    0.85
  -1   3   6   27.63    0.75
  -1   3   6   30.93    0.72
  -1   3   6   32.54    0.88
  -1   3   6   30.75    0.84
  -1   3   6   33.30    0.81
  -1   3   6   33.10    0.82
   1  -3  -6   26.63    0.67
   1  -3  -6   28.48    0.82
   1  -3  -6   27.24    0.77
   1  -3  -6   27.76    0.71
  -1   3   5   42.79    0.87
  -1   3   5   37.81    0.80
  -1   3   5   41.63    0.89
  -1   3   5   39.11    0.86
  -1   3   5   41.12    0.81
  -1   3   5   42.02    0.82
   1  -3  -5   33.82    0.66
   1  -3  -5   38.03    0.85
   1  -3  -5   36.37    0.81
   1  -3  -5   38.05    0.74
  -1   3   4   83.58    1.11
  -1   3   4   77.79    1.06
  -1   3   4   75.52    0.83
  -1   3   4   83.47    1.13
  -1   3   4   79.41    1.09
  -1   3   4   80.24    0.99
  -1   3   4   80.22    0.99
   1  -3  -4   72.03    0.82
   1  -3  -4   74.53    1.08
   1  -3  -4   74.32    1.04
   1  -3  -4   84.14    1.00
   1  -3  -4   74.09    0.93
  -1   3   3   62.71    0.91
  -1   3   3   63.52    0.66
  -1   3   3   64.42    0.93
  -1   3   3   66.97    0.82
  -1   3   3   66.77    0.82
   1  -3  -3   60.22    0.90
   1  -3  -3   60.95    0.66
   1  -3  -3   63.46    0.93
   1  -3  -3   62.20    0.91
   1  -3  -3   71.41    0.83
   1  -3  -3   60.25    0.75
  -1   3   2   25.48    0.58
  -1   3   2   24.02    0.42
  -1   3   2   25.00    0.37
  -1   3   2   24.14    0.56
  -1   3   2   23.91    0.57
  -1   3   2   26.70    0.49
  -1   3   2   24.53    0.46
   1  -3  -2   22.98    0.56
   1  -3  -2   21.81    0.34
   1  -3  -2   22.23    0.53
   1  -3  -2   27.18    0.47
   1  -3  -2   23.07    0.43
  -1   3   1   70.38    0.72
  -1   3   1   67.80    0.50
  -1   3   1   70.73    0.80
  -1   3   1   62.85    0.84
  -1   3   1   71.91    0.69
  -1   3   1   65.10    0.66
   1  -3  -1   67.99    0.88
   1  -3  -1   61.28    0.48
   1  -3  -1   65.76    0.78
   1  -3  -1   63.34    0.84
   1  -3  -1   74.38    0.68
   1  -3  -1   64.52    0.66
  -1   3   0   54.00    0.91
  -1   3   0   55.46    0.71
  -1   3   0   63.25    0.49
  -1   3   0   51.58    0.44
  -1   3   0   58.89    0.65
  -1   3   0   58.86    0.80
  -1   3   0   59.62    0.60
  -1   3   0   50.90    0.55
   1  -3   0   52.93    0.76
   1  -3   0   68.37    0.77
   1  -3   0   52.15    0.62
   1  -3   0   59.59    0.58
   1  -3   0   54.09    0.55
  -1   3  -1  238.11    1.55
  -1   3  -1  260.66    1.15
  -1   3  -1  228.41    1.07
  -1   3  -1  185.95    1.42
  -1   3  -1  231.94    1.57
  -1   3  -1  231.78    1.19
  -1   3  -1  200.35    1.11
   1  -3   1  212.84    1.47
   1  -3   1  261.65    1.59
   1  -3   1  233.48    1.08
   1  -3   1  208.73    1.03
   1  -3   1  225.05    1.14
   1  -3   1  216.67    1.11
  -1   3  -2    2.34    0.23
  -1   3  -2    2.49    0.21
  -1   3  -2    2.30    0.13
  -1   3  -2    2.09    0.28
  -1   3  -2    2.58    0.20
  -1   3  -2    2.12    0.18
   1  -3   2    2.20    0.26
   1  -3   2    2.98    0.28
   1  -3   2    3.02    0.20
   1  -3   2    2.24    0.13
   1  -3   2    2.28    0.27
   1  -3   2    2.25    0.18
   1  -3   2    1.97    0.20
  -1   3  -3  235.83    1.47
  -1   3  -3  241.15    1.73
  -1   3  -3  237.66    1.46
  -1   3  -3  208.29    1.37
   1  -3   3  218.85    1.52
   1  -3   3  244.04    1.75
   1  -3   3  236.11    1.46
   1  -3   3  216.70    1.66
   1  -3   3  218.56    1.37
   1  -3   3  222.56    1.38
  -1   3  -4    3.62    0.30
  -1   3  -4    3.20    0.31
  -1   3  -4    3.15    0.35
  -1   3  -4    3.27    0.28
  -1   3  -4    2.44    0.25
   1  -3   4    3.08    0.30
   1  -3   4    3.36    0.34
   1  -3   4    2.93    0.34
   1  -3   4    3.41    0.34
   1  -3   4    2.79    0.26
   1  -3   4    2.84    0.25
  -1   3  -5  385.42    2.14
  -1   3  -5  321.15    2.12
  -1   3  -5  365.44    2.39
  -1   3  -5  342.79    2.13
  -1   3  -5  300.95    2.00
   1  -3   5  314.24    1.95
   1  -3   5  352.74    2.35
   1  -3   5  331.81    2.14
   1  -3   5  309.93    2.22
   1  -3   5  324.76    2.03
  -1   3  -6  185.38    1.57
  -1   3  -6  155.95    1.63
  -1   3  -6  175.98    1.78
  -1   3  -6  170.99    1.66
  -1   3  -6  152.93    1.57
   1  -3   6  152.45    1.43
   1  -3   6  150.77    1.94
   1  -3   6  154.71    1.61
   1  -3   6  157.15    1.70
   1  -3   6  164.83    1.60
   1  -3   6  162.39    1.57
  -1   3  -7    6.64    0.47
  -1   3  -7    5.82    0.51
  -1   3  -7    5.01    0.22
  -1   3  -7    6.64    0.55
  -1   3  -7    6.35    0.50
  -1   3  -7    5.20    0.46
   1  -3   7    5.35    0.42
   1  -3   7    6.13    0.54
   1  -3   7    4.22    0.50
   1  -3   7    6.08    0.25
   1  -3   7    5.87    0.50
   1  -3   7    6.58    0.53
   1  -3   7    5.98    0.46
  -1   3  -8   50.83    0.98
  -1   3  -8   43.97    1.09
  -1   3  -8   46.23    1.09
  -1   3  -8   46.51    1.08
  -1   3  -8   43.76    1.03
   1  -3   8   37.43    0.84
   1  -3   8   49.41    1.10
   1  -3   8   40.30    1.04
   1  -3   8   41.54    0.56
   1  -3   8   42.00    1.07
   1  -3   8   47.48    1.10
  -1   3  -9   43.35    1.00
  -1   3  -9   39.54    1.11
  -1   3  -9   38.34    0.62
  -1   3  -9   41.66    1.15
  -1   3  -9   37.56    1.06
   1  -3   9   28.29    0.81
   1  -3   9   44.56    1.09
   1  -3   9   28.81    0.56
   1  -3   9   38.67    1.12
   1  -3   9   38.03    1.08
   1  -3   9   44.07    1.17
  -1   3 -10   88.25    1.42
  -1   3 -10   81.74    1.61
  -1   3 -10   81.53    0.95
  -1   3 -10   90.53    1.73
  -1   3 -10   78.76    1.86
   1  -3  10   50.03    1.08
   1  -3  10   98.32    1.64
   1  -3  10   51.75    0.82
   1  -3  10   84.96    1.63
   1  -3  10   93.51    1.73
  -1   3 -11    5.62    0.68
  -1   3 -11    3.85    0.59
  -1   3 -11    2.15    0.44
  -1   3 -11    3.38    0.39
  -1   3 -11    2.88    0.57
   1  -3  11    2.33    0.45
   1  -3  11    4.89    0.61
   1  -3  11    1.99    0.52
   1  -3  11    3.29    0.56
   1  -3  11    4.15    0.71
  -1   3 -12   19.59    1.04
  -1   3 -12   20.25    1.13
  -1   3 -12   18.44    1.14
   1  -3  12   15.04    0.89
   1  -3  12   18.54    1.14
  -1   3 -13    7.03    0.77
  -1   3 -13    5.50    0.78
  -1   3 -13    6.68    0.87
   1  -3  13    5.93    0.71
   1  -3  13    4.24    0.75
  -1   2  13   12.21    1.12
  -1   2  13    8.15    0.87
  -1   2  13   12.21    1.40
   1  -2 -13    7.03    0.82
   1  -2 -13    9.43    0.96
  -1   2  12   -0.21    0.49
  -1   2  12   -0.64    0.52
  -1   2  12   -0.31    0.57
   1  -2 -12    0.94    0.50
   1  -2 -12    1.26    0.57
   1  -2 -12   -0.38    0.66
  -1   2  11   32.10    1.21
  -1   2  11   29.75    1.18
  -1   2  11   29.79    1.40
  -1   2  11   32.77    1.66
   1  -2 -11   25.21    1.08
   1  -2 -11   28.09    1.15
   1  -2 -11   30.82    1.30
  -1   2  10   10.70    0.74
  -1   2  10    6.89    0.71
  -1   2  10    9.63    0.83
  -1   2  10    7.70    0.92
  -1   2  10    8.28    0.82
   1  -2 -10    6.74    0.71
   1  -2 -10    8.71    0.77
   1  -2 -10    8.15    0.76
   1  -2 -10    9.96    0.87
  -1   2   9   27.35    0.89
  -1   2   9   22.28    0.82
  -1   2   9   25.83    0.90
  -1   2   9   21.82    1.11
  -1   2   9   25.26    1.02
  -1   2   9   29.10    1.01
   1  -2  -9   21.95    0.85
   1  -2  -9   24.51    0.94
   1  -2  -9   22.96    0.93
   1  -2  -9   27.28    1.00
  -1   2   8   38.19    0.93
  -1   2   8   32.09    0.85
  -1   2   8   37.62    0.94
  -1   2   8   36.88    0.97
  -1   2   8   30.77    0.93
  -1   2   8   35.44    1.00
  -1   2   8   37.26    1.00
   1  -2  -8   28.51    0.84
   1  -2  -8   33.28    0.95
   1  -2  -8   25.25    0.83
   1  -2  -8   30.13    0.91
   1  -2  -8   37.71    1.00
  -1   2   7   20.06    0.67
  -1   2   7   16.58    0.61
  -1   2   7   19.27    0.65
  -1   2   7   17.01    0.70
  -1   2   7   18.95    0.72
  -1   2   7   19.30    0.73
   1  -2  -7   15.34    0.62
   1  -2  -7   17.27    0.69
   1  -2  -7   13.62    0.61
   1  -2  -7   17.04    0.66
   1  -2  -7   20.15    0.72
  -1   2   6    0.33    0.21
  -1   2   6    0.23    0.18
  -1   2   6    0.49    0.20
  -1   2   6    0.28    0.20
  -1   2   6    0.03    0.21
  -1   2   6    0.29    0.23
  -1   2   6    0.13    0.22
   1  -2  -6    0.09    0.19
   1  -2  -6   -0.11    0.21
   1  -2  -6    0.19    0.19
   1  -2  -6    0.35    0.21
  -1   2   5    6.97    0.39
  -1   2   5    5.93    0.34
  -1   2   5    6.63    0.52
  -1   2   5    6.87    0.43
  -1   2   5    6.10    0.42
  -1   2   5    6.88    0.40
  -1   2   5    7.54    0.40
   1  -2  -5    5.41    0.34
   1  -2  -5    6.09    0.42
   1  -2  -5    5.96    0.39
   1  -2  -5    7.19    0.41
   1  -2  -5    6.50    0.36
  -1   2   4  126.03    1.21
  -1   2   4  107.38    1.10
  -1   2   4  112.83    0.99
  -1   2   4  125.62    1.27
  -1   2   4  110.20    1.18
  -1   2   4  123.06    1.18
  -1   2   4  119.37    1.17
   1  -2  -4   98.14    0.94
   1  -2  -4  105.11    1.18
   1  -2  -4  107.15    1.16
   1  -2  -4  123.65    1.17
   1  -2  -4   98.02    1.25
  -1   2   3    0.18    0.14
  -1   2   3    0.11    0.11
  -1   2   3    0.08    0.09
  -1   2   3    0.01    0.15
  -1   2   3    0.23    0.14
  -1   2   3    0.02    0.10
  -1   2   3    0.12    0.12
   1  -2  -3    0.13    0.12
   1  -2  -3    0.24    0.10
   1  -2  -3    0.12    0.14
   1  -2  -3    0.19    0.14
   1  -2  -3    0.08    0.09
  -1   2   2   63.73    0.52
  -1   2   2   73.59    0.82
  -1   2   2   66.55    0.80
  -1   2   2   73.41    0.74
  -1   2   2   65.42    0.69
   1  -2  -2   68.19    0.79
   1  -2  -2   62.87    0.51
   1  -2  -2   64.57    0.77
   1  -2  -2   66.89    0.79
   1  -2  -2   71.83    0.75
   1  -2  -2   64.25    0.67
  -1   2   1    4.24    0.25
  -1   2   1    3.88    0.12
  -1   2   1    4.09    0.23
  -1   2   1    3.86    0.25
  -1   2   1    4.07    0.19
  -1   2   1    3.61    0.20
   1  -2  -1    3.77    0.12
   1  -2  -1    3.65    0.23
   1  -2  -1    3.77    0.24
   1  -2  -1    4.23    0.19
   1  -2  -1    3.71    0.19
  -1   2   0  107.39    0.91
  -1   2   0   97.36    0.78
  -1   2   0  114.51    0.47
  -1   2   0   92.14    0.42
  -1   2   0  104.76    0.73
  -1   2   0  102.73    0.71
  -1   2   0   86.70    0.66
   1  -2   0   98.40    0.87
   1  -2   0   95.15    0.70
   1  -2   0   90.60    0.84
   1  -2   0  105.89    0.71
   1  -2   0   95.64    0.68
  -1   2  -1   45.71    0.60
  -1   2  -1   48.38    0.43
  -1   2  -1   47.56    0.40
  -1   2  -1   45.30    0.61
  -1   2  -1   45.22    0.50
  -1   2  -1   39.19    0.47
   1  -2   1   42.14    0.59
   1  -2   1   49.19    0.62
   1  -2   1   46.22    0.42
   1  -2   1   40.78    0.37
   1  -2   1   41.89    0.60
   1  -2   1   43.57    0.48
   1  -2   1   41.97    0.47
  -1   2  -2   57.90    0.69
  -1   2  -2   53.60    0.70
  -1   2  -2   56.90    0.62
  -1   2  -2   47.36    0.57
   1  -2   2   52.39    0.66
   1  -2   2   57.91    0.72
   1  -2   2   55.72    0.58
   1  -2   2   50.23    0.68
   1  -2   2   52.50    0.59
   1  -2   2   51.03    0.58
  -1   2  -3  144.19    1.10
  -1   2  -3  121.18    1.00
  -1   2  -3  134.07    1.16
  -1   2  -3  139.81    1.09
  -1   2  -3  115.79    0.99
   1  -2   3  127.06    1.05
   1  -2   3  140.11    1.19
   1  -2   3  131.46    1.03
   1  -2   3  121.13    1.10
   1  -2   3  126.57    1.02
  -1   2  -4  116.03    1.05
  -1   2  -4   92.23    1.00
  -1   2  -4  103.59    1.16
  -1   2  -4  105.78    1.06
  -1   2  -4   91.96    0.99
   1  -2   4   96.09    0.96
   1  -2   4  109.66    1.13
   1  -2   4   96.41    1.01
   1  -2   4   99.54    1.09
   1  -2   4   67.42    0.84
   1  -2   4  100.51    1.07
  -1   2  -5  287.07    1.82
  -1   2  -5  246.08    1.80
  -1   2  -5  240.40    0.91
  -1   2  -5  296.12    1.99
  -1   2  -5  275.22    1.87
  -1   2  -5  248.62    1.79
   1  -2   5  256.23    1.66
   1  -2   5  291.87    1.94
   1  -2   5  246.90    1.78
   1  -2   5  260.28    0.95
   1  -2   5  259.77    1.87
   1  -2   5  277.21    1.87
   1  -2   5  267.66    1.82
  -1   2  -6   31.08    0.66
  -1   2  -6   27.02    0.72
  -1   2  -6   26.24    0.40
  -1   2  -6   30.20    0.74
  -1   2  -6   30.88    0.74
  -1   2  -6   27.21    0.71
   1  -2   6   24.94    0.60
   1  -2   6   31.93    0.74
   1  -2   6   25.32    0.68
   1  -2   6   26.91    0.41
   1  -2   6   26.94    0.72
   1  -2   6   29.99    0.73
   1  -2   6   28.62    0.70
  -1   2  -7  147.23    1.44
  -1   2  -7  125.93    1.56
  -1   2  -7  129.75    0.98
  -1   2  -7  132.84    1.55
  -1   2  -7  144.81    1.63
  -1   2  -7  134.34    1.58
   1  -2   7  124.44    1.33
   1  -2   7  152.68    1.59
   1  -2   7  127.43    1.55
   1  -2   7  125.50    0.97
   1  -2   7  134.00    1.58
   1  -2   7  148.65    1.66
   1  -2   7  139.66    1.58
  -1   2  -8    5.16    0.47
  -1   2  -8    4.62    0.54
  -1   2  -8    3.92    0.33
  -1   2  -8    5.38    0.54
  -1   2  -8    4.98    0.57
  -1   2  -8    3.01    0.36
   1  -2   8    3.67    0.41
   1  -2   8    5.38    0.49
   1  -2   8    3.46    0.41
   1  -2   8    4.27    0.35
   1  -2   8    4.54    0.52
   1  -2   8    5.68    0.61
  -1   2  -9  140.02    1.60
  -1   2  -9  120.28    2.00
  -1   2  -9  124.78    1.21
  -1   2  -9  121.03    1.74
  -1   2  -9  134.64    1.85
  -1   2  -9  127.13    1.80
   1  -2   9  115.24    1.45
   1  -2   9  151.91    1.77
   1  -2   9  125.23    1.21
   1  -2   9  128.99    1.79
   1  -2   9  132.31    1.82
   1  -2   9  145.98    1.94
  -1   2 -10   64.76    1.24
  -1   2 -10   59.33    1.24
  -1   2 -10   61.41    1.39
  -1   2 -10   59.02    0.95
  -1   2 -10   64.93    2.04
  -1   2 -10   61.89    1.43
   1  -2  10   55.28    1.12
   1  -2  10   71.09    1.33
   1  -2  10   59.72    0.99
   1  -2  10   61.93    1.39
   1  -2  10   61.13    1.42
   1  -2  10   67.25    1.51
  -1   2 -11   36.76    1.15
  -1   2 -11   36.23    1.09
  -1   2 -11   33.32    1.17
  -1   2 -11   35.47    0.88
  -1   2 -11   36.96    1.31
  -1   2 -11   34.87    1.24
   1  -2  11   32.99    0.98
   1  -2  11   40.88    1.15
   1  -2  11   34.90    0.92
   1  -2  11   37.56    1.23
   1  -2  11   41.05    1.40
  -1   2 -12   12.98    0.88
  -1   2 -12   11.68    0.96
  -1   2 -12   13.68    0.80
  -1   2 -12   13.82    1.07
   1  -2  12   13.50    0.86
   1  -2  12   16.81    1.04
   1  -2  12   16.25    1.25
  -1   2 -13   13.79    1.01
  -1   2 -13   12.25    1.07
  -1   2 -13   10.14    1.18
   1  -2  13   12.67    0.95
   1  -2  13   15.23    1.21
  -1   1  13    3.14    0.63
  -1   1  13    1.85    0.69
  -1   1  13    2.96    0.81
   1  -1 -13    2.24    0.64
   1  -1 -13    4.02    0.76
  -1   1  12   18.57    0.97
  -1   1  12   20.65    1.16
  -1   1  12   18.57    1.30
   1  -1 -12   16.34    1.03
   1  -1 -12   17.93    1.07
   1  -1 -12   17.01    1.25
  -1   1  11   15.88    0.83
  -1   1  11   12.55    0.85
  -1   1  11   13.36    0.93
  -1   1  11   14.06    1.19
  -1   1  11   17.64    1.10
   1  -1 -11   14.82    0.91
   1  -1 -11   15.16    0.96
   1  -1 -11   13.87    1.12
   1  -1 -11   15.43    1.05
  -1   1  10   31.42    0.92
  -1   1  10   26.78    0.91
  -1   1  10   32.61    0.71
  -1   1  10   28.42    1.05
  -1   1  10   29.98    1.16
  -1   1  10   33.48    1.16
   1  -1 -10   26.16    0.97
   1  -1 -10   28.60    1.01
   1  -1 -10   26.86    1.06
   1  -1 -10   30.31    1.15
  -1   1   9   75.19    1.23
  -1   1   9   62.29    1.12
  -1   1   9   74.38    0.88
  -1   1   9   71.23    1.33
  -1   1   9   70.97    1.32
  -1   1   9   66.59    1.34
  -1   1   9   69.44    1.40
  -1   1   9   77.60    1.48
   1  -1  -9   59.11    1.25
   1  -1  -9   67.68    1.30
   1  -1  -9   51.54    1.18
   1  -1  -9   60.43    1.29
   1  -1  -9   75.13    1.44
  -1   1   8    7.95    0.51
  -1   1   8    6.24    0.47
  -1   1   8    7.41    0.39
  -1   1   8    7.07    0.54
  -1   1   8    8.30    0.58
  -1   1   8    5.46    0.56
  -1   1   8    7.11    0.62
   1  -1  -8    7.24    0.50
   1  -1  -8    6.56    0.56
   1  -1  -8    7.27    0.58
   1  -1  -8    5.09    0.51
   1  -1  -8    7.24    0.55
   1  -1  -8    6.85    0.59
  -1   1   7  198.44    1.67
  -1   1   7  169.51    1.53
  -1   1   7  193.89    1.18
  -1   1   7  193.19    1.79
  -1   1   7  184.18    1.78
  -1   1   7  170.88    1.78
  -1   1   7  191.67    1.89
  -1   1   7  201.05    1.94
   1  -1  -7  204.21    1.68
   1  -1  -7  165.40    1.68
   1  -1  -7  184.47    1.81
   1  -1  -7  147.44    1.64
   1  -1  -7  176.62    1.80
   1  -1  -7  204.65    1.96
  -1   1   6   19.27    0.54
  -1   1   6   17.50    0.51
  -1   1   6   19.14    0.41
  -1   1   6   18.59    0.56
  -1   1   6   21.65    0.62
  -1   1   6   16.93    0.59
  -1   1   6   30.72    1.01
  -1   1   6   20.82    0.66
   1  -1  -6   16.11    0.55
   1  -1  -6   18.98    0.60
   1  -1  -6   15.00    0.56
   1  -1  -6   18.49    0.60
  -1   1   5  378.78    1.97
  -1   1   5  305.96    1.90
  -1   1   5  376.10    2.18
  -1   1   5  328.95    2.08
  -1   1   5  606.82    3.58
  -1   1   5  368.13    2.19
   1  -1  -5  303.47    1.85
   1  -1  -5  345.64    2.11
   1  -1  -5  315.15    2.02
   1  -1  -5  379.98    2.22
   1  -1  -5  337.78    2.08
  -1   1   4    3.36    0.24
  -1   1   4    3.17    0.23
  -1   1   4    3.05    0.23
  -1   1   4    3.63    0.30
  -1   1   4    2.47    0.28
  -1   1   4    3.22    0.27
  -1   1   4    2.93    0.27
   1  -1  -4    2.51    0.23
   1  -1  -4    3.48    0.29
   1  -1  -4    2.88    0.27
   1  -1  -4    3.75    0.28
   1  -1  -4    3.05    0.25
  -1   1   3  168.10    1.11
  -1   1   3  154.65    1.06
  -1   1   3  161.56    1.02
  -1   1   3  170.55    1.23
  -1   1   3  146.25    1.15
  -1   1   3  164.66    1.18
  -1   1   3  158.45    1.16
   1  -1  -3  134.61    0.94
   1  -1  -3  159.80    1.20
   1  -1  -3  173.02    1.21
   1  -1  -3  153.73    1.13
  -1   1   2    9.12    0.26
  -1   1   2    9.75    0.22
  -1   1   2   10.47    0.32
  -1   1   2    9.70    0.30
  -1   1   2    9.64    0.28
   1  -1  -2    7.40    0.30
   1  -1  -2    8.21    0.21
   1  -1  -2    9.99    0.31
   1  -1  -2    9.16    0.30
   1  -1  -2    8.98    0.26
   1  -1  -2    8.80    0.26
  -1   1   1  291.69    1.23
  -1   1   1  331.31    1.45
  -1   1   1  322.64    1.73
  -1   1   1  284.28    1.17
   1  -1  -1  280.76    1.21
   1  -1  -1  252.66    1.06
   1  -1  -1  292.39    1.23
   1  -1  -1  285.17    1.25
   1  -1  -1  272.15    1.13
  -1   1   0  135.84    0.68
  -1   1   0  112.01    0.73
  -1   1   0  126.09    0.71
  -1   1   0  108.78    0.66
   1  -1   0  121.28    0.77
   1  -1   0  121.20    0.64
   1  -1   0  112.56    0.73
   1  -1   0  111.85    0.66
  -1   1  -1  494.09    2.88
  -1   1  -1  394.34    1.95
  -1   1  -1  557.66    2.11
  -1   1  -1  457.35    2.39
  -1   1  -1  472.38    2.66
  -1   1  -1  416.55    2.28
   1  -1   1  472.45    2.75
   1  -1   1  407.02    2.04
   1  -1   1  481.16    1.92
   1  -1   1  459.69    2.48
   1  -1   1  436.58    2.44
  -1   1  -2  213.23    1.13
  -1   1  -2  180.84    1.07
  -1   1  -2  168.36    0.94
  -1   1  -2  200.40    1.09
  -1   1  -2  204.76    1.10
   1  -1   2  181.79    1.11
   1  -1   2  215.56    1.16
   1  -1   2  165.57    0.92
   1  -1   2  184.79    1.10
   1  -1   2   49.03    0.54
   1  -1   2  185.05    1.04
  -1   1  -3  130.33    0.97
  -1   1  -3  105.25    0.90
  -1   1  -3  108.35    0.50
  -1   1  -3  127.36    0.99
  -1   1  -3  126.34    1.00
  -1   1  -3  110.25    0.94
   1  -1   3  116.87    0.92
   1  -1   3  135.50    1.02
   1  -1   3  104.03    0.89
   1  -1   3  110.82    0.51
   1  -1   3  118.69    0.96
   1  -1   3  124.00    0.99
   1  -1   3  117.23    0.96
  -1   1  -4  185.55    1.26
  -1   1  -4  157.20    1.26
  -1   1  -4  161.08    0.81
  -1   1  -4  185.01    1.32
  -1   1  -4  186.54    1.37
  -1   1  -4  167.42    1.30
   1  -1   4  170.76    1.21
   1  -1   4  201.24    1.34
   1  -1   4  163.04    1.27
   1  -1   4  165.87    0.82
   1  -1   4  165.92    1.26
   1  -1   4  185.18    1.36
   1  -1   4  181.89    1.34
  -1   1  -5    0.94    0.17
  -1   1  -5    0.97    0.20
  -1   1  -5    0.72    0.12
  -1   1  -5    0.48    0.16
  -1   1  -5    0.38    0.14
  -1   1  -5    1.00    0.27
   1  -1   5    0.97    0.18
   1  -1   5    0.90    0.18
   1  -1   5    0.99    0.19
   1  -1   5    0.97    0.14
   1  -1   5    0.59    0.17
   1  -1   5    0.72    0.20
   1  -1   5    0.95    0.17
  -1   1  -6   71.30    0.94
  -1   1  -6   62.45    1.01
  -1   1  -6   66.78    0.74
  -1   1  -6   70.41    1.01
  -1   1  -6   70.39    1.04
  -1   1  -6   68.90    1.04
   1  -1   6   65.04    0.90
   1  -1   6   77.76    0.98
   1  -1   6   65.61    1.01
   1  -1   6   69.98    0.75
   1  -1   6   67.89    1.01
   1  -1   6   75.14    1.15
  -1   1  -7   64.07    0.97
  -1   1  -7   55.93    1.05
  -1   1  -7   58.10    0.79
  -1   1  -7   62.51    1.09
  -1   1  -7   61.63    1.09
   1  -1   7   57.16    0.93
   1  -1   7   68.15    0.99
   1  -1   7   59.51    1.07
   1  -1   7   62.53    0.81
   1  -1   7   61.06    1.05
   1  -1   7   65.34    1.13
   1  -1   7   62.65    1.08
  -1   1  -8   53.39    0.98
  -1   1  -8   49.48    1.08
  -1   1  -8   47.83    0.80
  -1   1  -8   47.39    1.03
  -1   1  -8   54.78    1.12
  -1   1  -8   50.39    1.09
   1  -1   8   50.72    0.95
   1  -1   8   60.21    1.01
   1  -1   8   50.55    1.08
   1  -1   8   52.83    0.84
   1  -1   8   50.91    1.07
   1  -1   8   55.80    1.15
  -1   1  -9    4.31    0.46
  -1   1  -9    3.55    0.44
  -1   1  -9    2.64    0.40
  -1   1  -9    3.08    0.35
  -1   1  -9    2.62    0.40
  -1   1  -9    3.19    0.46
  -1   1  -9    2.37    0.35
   1  -1   9    3.72    0.42
   1  -1   9    4.17    0.50
   1  -1   9    3.08    0.41
   1  -1   9    3.52    0.36
   1  -1   9    3.18    0.44
   1  -1   9    4.22    0.55
   1  -1   9    4.52    0.54
  -1   1 -10    3.87    0.48
  -1   1 -10    2.34    0.42
  -1   1 -10    1.90    0.39
  -1   1 -10    2.38    0.37
  -1   1 -10    3.60    0.76
  -1   1 -10    2.12    0.44
   1  -1  10    2.80    0.42
   1  -1  10    2.20    0.39
   1  -1  10    2.63    0.52
   1  -1  10    2.32    0.46
  -1   1 -11   14.98    0.87
  -1   1 -11   17.48    0.83
  -1   1 -11   15.13    0.88
  -1   1 -11   16.26    0.75
  -1   1 -11   17.25    1.05
  -1   1 -11   17.54    0.97
   1  -1  11   16.49    0.80
   1  -1  11   16.38    0.82
   1  -1  11   16.22    0.95
   1  -1  11   20.10    1.12
  -1   1 -12    3.86    0.55
  -1   1 -12    6.67    0.79
  -1   1 -12    4.26    0.54
  -1   1 -12    4.31    0.70
   1  -1  12    3.40    0.54
   1  -1  12    4.24    0.62
   1  -1  12    4.25    0.61
   1  -1  12    5.62    0.77
  -1   1 -13   10.18    0.92
  -1   1 -13    8.31    0.91
  -1   1 -13    7.45    0.73
  -1   1 -13    6.44    0.72
   1  -1  13   11.28    0.97
   1  -1  13    8.53    0.86
   1  -1  13    8.79    1.00
  -1   0  13   17.90    1.24
  -1   0  13   16.63    1.18
  -1   0  13   19.60    1.49
   1   0 -13   17.05    1.20
   1   0 -13   16.37    1.22
   1   0 -13   16.48    1.45
  -1   0  12   12.34    0.84
  -1   0  12   10.45    0.97
  -1   0  12   14.39    0.78
  -1   0  12   12.87    0.99
  -1   0  12   10.96    1.36
  -1   0  12   16.52    1.23
   1   0 -12   10.57    0.96
   1   0 -12   11.32    0.95
   1   0 -12   11.72    1.21
   1   0 -12   12.05    1.12
  -1   0  11   29.51    0.93
  -1   0  11   24.76    0.93
  -1   0  11   30.18    0.85
  -1   0  11   26.79    1.09
  -1   0  11   29.88    1.30
  -1   0  11   30.77    1.28
   1   0 -11   27.01    0.96
   1   0 -11   25.02    1.08
   1   0 -11   26.92    1.24
   1   0 -11   28.95    1.19
  -1   0  10   45.58    0.99
  -1   0  10   48.23    0.91
  -1   0  10   42.57    1.12
  -1   0  10   43.07    1.18
  -1   0  10   43.23    1.29
  -1   0  10   49.46    1.34
   1   0 -10   44.52    0.99
   1   0 -10   40.59    1.17
   1   0 -10   43.08    1.11
   1   0 -10   41.13    1.21
   1   0 -10   46.19    1.31
  -1   0   9    5.54    0.51
  -1   0   9    5.14    0.45
  -1   0   9    4.57    0.49
  -1   0   9    4.56    0.56
  -1   0   9    4.08    0.50
  -1   0   9    5.05    0.56
  -1   0   9    5.62    0.58
   1   0  -9    5.36    0.50
   1   0  -9    3.29    0.41
   1   0  -9    4.91    0.58
   1   0  -9    3.75    0.48
   1   0  -9    4.21    0.51
   1   0  -9    5.17    0.56
  -1   0   8  138.66    1.40
  -1   0   8  140.76    1.28
  -1   0   8  133.59    1.65
  -1   0   8  137.58    1.57
  -1   0   8  127.05    1.65
  -1   0   8  137.77    1.75
  -1   0   8  144.87    1.78
   1   0  -8  135.14    1.37
   1   0  -8  118.67    1.58
   1   0  -8  132.29    1.56
   1   0  -8  110.90    1.53
   1   0  -8  129.17    1.68
   1   0  -8  143.67    1.77
  -1   0   7    2.85    0.34
  -1   0   7    2.90    0.29
  -1   0   7    1.93    0.28
  -1   0   7    2.08    0.29
  -1   0   7    1.46    0.28
  -1   0   7    2.49    0.37
  -1   0   7    1.85    0.32
   1   0  -7    2.76    0.29
   1   0  -7    2.39    0.33
   1   0  -7    1.85    0.27
   1   0  -7    4.15    0.43
   1   0  -7    2.59    0.36
   1   0  -7    2.13    0.34
  -1   0   6  162.43    1.27
  -1   0   6  159.95    1.17
  -1   0   6  162.35    1.53
  -1   0   6  156.67    1.44
  -1   0   6  143.63    1.49
  -1   0   6  161.26    1.58
  -1   0   6  165.14    1.61
   1   0  -6  156.20    1.23
   1   0  -6  145.45    1.46
   1   0  -6  159.07    1.47
   1   0  -6  133.57    1.43
   1   0  -6  149.26    1.51
   1   0  -6  164.70    1.60
  -1   0   5   97.54    0.89
  -1   0   5   95.00    0.84
  -1   0   5   95.81    1.07
  -1   0   5   96.92    1.05
  -1   0   5   82.60    1.05
  -1   0   5   98.26    1.14
  -1   0   5   99.65    1.15
   1   0  -5   97.36    0.89
   1   0  -5   88.35    1.04
   1   0  -5   95.38    1.05
   1   0  -5   80.55    1.03
   1   0  -5   96.06    1.12
   1   0  -5   90.07    1.08
  -1   0   4  349.81    1.43
  -1   0   4  369.65    1.85
  -1   0   4  366.66    1.83
  -1   0   4  367.60    1.93
  -1   0   4  341.34    2.32
   1   0  -4  353.35    1.48
   1   0  -4  331.43    1.76
   1   0  -4  358.49    1.82
   1   0  -4  285.59    1.70
   1   0  -4  346.26    2.33
   1   0  -4  337.76    1.85
  -1   0   3  663.78    3.13
  -1   0   3  608.60    2.85
  -1   0   3  706.62    3.52
  -1   0   3  705.64    4.15
  -1   0   3  587.51    3.03
  -1   0   3  702.91    4.13
  -1   0   3  668.50    3.99
   1   0  -3  692.14    4.04
   1   0  -3  681.32    3.19
   1   0  -3  555.87    3.22
   1   0  -3  706.87    3.83
   1   0  -3  645.80    3.72
  -1   0   2  256.85    1.10
  -1   0   2  216.27    0.85
  -1   0   2  248.60    1.09
  -1   0   2  250.80    1.19
  -1   0   2  235.00    1.17
  -1   0   2  229.92    1.16
   1   0  -2  223.30    0.86
   1   0  -2  255.32    1.11
   1   0  -2  255.29    1.20
   1   0  -2  206.21    1.09
   1   0  -2  245.77    1.20
   1   0  -2  215.56    1.12
  -1   0   1  885.41    3.53
  -1   0   1  982.22    4.00
  -1   0   1  862.49    4.38
  -1   0   1  946.65    4.41
  -1   0   1 1337.52    6.65
   1   0  -1  904.50    3.52
   1   0  -1  995.77    4.04
   1   0  -1 1051.41    5.05
   1   0  -1  845.18    4.22
   1   0  -1  911.79    4.40
   1   0  -1 1259.73    5.86
  -1   0   0    1.44    0.07
  -1   0   0    0.27    0.03
  -1   0   0    1.48    0.08
  -1   0   0    1.05    0.06
  -1   0   0    1.12    0.08
   1   0   0    0.01    0.02
   1   0   0    1.05    0.06
   1   0   0    1.21    0.07
   1   0   0    1.13    0.06
   1   0   0    1.31    0.08
   1   0   0    1.05    0.07
  -1   0  -1 1062.61    4.91
  -1   0  -1  892.99    4.02
  -1   0  -1 1098.02    3.94
  -1   0  -1  993.61    3.64
  -1   0  -1 1081.97    5.08
  -1   0  -1  882.01    4.29
   1   0   1 1036.21    4.92
   1   0   1  911.82    3.97
   1   0   1 1082.66    3.98
   1   0   1  976.38    3.57
   1   0   1 1029.07    4.93
   1   0   1  930.50    4.35
  -1   0  -2  226.41    1.08
  -1   0  -2  194.71    1.01
  -1   0  -2  207.25    0.81
  -1   0  -2  233.90    0.94
  -1   0  -2  232.92    1.12
  -1   0  -2  206.00    1.05
   1   0   2  223.55    1.08
   1   0   2  196.99    1.00
   1   0   2  214.08    0.82
   1   0   2  229.09    0.93
   1   0   2  223.35    1.10
   1   0   2  210.75    1.06
  -1   0  -3  179.07    1.11
  -1   0  -3  151.17    1.07
  -1   0  -3  169.37    0.88
  -1   0  -3  168.66    0.99
  -1   0  -3  191.23    1.19
  -1   0  -3  172.45    1.14
   1   0   3  168.51    1.09
   1   0   3  174.75    0.90
   1   0   3  182.13    1.33
   1   0   3  186.72    1.18
   1   0   3  176.40    1.15
  -1   0  -4  142.73    1.11
  -1   0  -4  130.97    0.93
  -1   0  -4  121.98    1.11
  -1   0  -4  130.61    1.03
  -1   0  -4  151.26    1.21
   1   0   4  136.72    1.09
   1   0   4  130.96    1.13
   1   0   4  135.14    0.92
   1   0   4  140.12    1.07
   1   0   4  145.06    1.19
  -1   0  -5  187.88    1.67
  -1   0  -5  187.74    1.22
  -1   0  -5  172.62    1.46
  -1   0  -5  179.73    1.21
  -1   0  -5  178.90    1.36
  -1   0  -5  210.04    1.59
  -1   0  -5  285.23    2.27
   1   0   5  192.11    1.42
   1   0   5  227.56    1.34
   1   0   5  180.37    1.48
   1   0   5  196.34    1.26
   1   0   5  194.33    1.43
   1   0   5  207.14    1.59
   1   0   5  204.67    1.57
  -1   0  -6   79.08    1.00
  -1   0  -6   74.48    0.86
  -1   0  -6   68.29    1.04
  -1   0  -6   73.08    0.88
  -1   0  -6   68.82    0.95
  -1   0  -6   79.94    1.10
  -1   0  -6   79.46    1.11
   1   0   6   74.36    0.98
   1   0   6   88.94    0.93
   1   0   6   70.62    1.05
   1   0   6   79.75    0.91
   1   0   6   75.61    1.01
   1   0   6   83.28    1.14
   1   0   6   79.33    1.10
  -1   0  -7   25.13    0.67
  -1   0  -7   22.97    0.57
  -1   0  -7   19.95    0.68
  -1   0  -7   21.46    0.58
  -1   0  -7   21.24    0.64
  -1   0  -7   24.04    0.72
  -1   0  -7   23.50    0.72
   1   0   7   24.49    0.66
   1   0   7   22.82    0.72
   1   0   7   25.12    0.62
   1   0   7   23.67    0.69
   1   0   7   25.85    0.76
  -1   0  -8   15.21    0.61
  -1   0  -8   14.21    0.54
  -1   0  -8   11.61    0.62
  -1   0  -8   12.31    0.54
  -1   0  -8   11.09    0.59
  -1   0  -8   13.80    0.69
  -1   0  -8   14.75    0.69
   1   0   8   15.89    0.63
   1   0   8   13.60    0.64
   1   0   8   14.76    0.58
   1   0   8   13.34    0.63
   1   0   8   16.03    0.72
  -1   0  -9   10.09    0.59
  -1   0  -9    9.88    0.56
  -1   0  -9    8.08    0.62
  -1   0  -9    9.32    0.57
  -1   0  -9    9.71    0.66
  -1   0  -9   11.17    0.76
  -1   0  -9   10.39    0.69
   1   0   9    9.71    0.60
   1   0   9    8.01    0.63
   1   0   9   10.77    0.61
   1   0   9    8.48    0.63
   1   0   9   17.33    1.15
   1   0   9   15.36    1.03
  -1   0 -10   16.65    0.80
  -1   0 -10   15.70    0.67
  -1   0 -10   13.46    0.77
  -1   0 -10   14.69    0.71
  -1   0 -10   13.68    0.85
  -1   0 -10   16.37    0.89
  -1   0 -10   17.63    0.89
   1   0  10   17.27    0.78
   1   0  10   17.04    0.77
   1   0  10   18.05    0.83
   1   0  10   17.35    0.91
   1   0  10   17.96    0.97
  -1   0 -11    0.20    0.53
  -1   0 -11   -0.12    0.34
  -1   0 -11    0.50    0.37
  -1   0 -11   -0.27    0.35
  -1   0 -11    0.93    0.55
  -1   0 -11    0.49    0.48
   1   0  11    0.13    0.37
   1   0  11    0.20    0.41
   1   0  11    0.49    0.41
   1   0  11   -0.04    0.49
   1   0  11   -0.20    0.48
  -1   0 -12    3.96    0.50
  -1   0 -12    2.79    0.53
  -1   0 -12    3.63    0.54
  -1   0 -12    3.15    0.60
  -1   0 -12    3.88    0.66
   1   0  12    3.37    0.56
   1   0  12    3.84    0.62
   1   0  12    2.72    0.76
   1   0  12    3.62    0.72
  -1   0 -13    0.09    0.50
  -1   0 -13    1.51    0.53
  -1   0 -13    0.92    0.55
  -1   0 -13    0.01    0.63
   1   0  13    0.06    0.51
   1   0  13    0.12    0.56
   1   0  13    1.17    0.71
  -1  -1  13   11.64    0.91
  -1  -1  13   13.92    0.99
  -1  -1  13   15.07    1.15
   1   1 -13   12.31    1.08
   1   1 -13   12.47    1.09
   1   1 -13   14.75    1.31
  -1  -1  12   15.80    0.82
  -1  -1  12   18.41    0.89
  -1  -1  12   14.59    1.01
  -1  -1  12   18.30    1.49
   1   1 -12   13.91    1.01
   1   1 -12   14.19    0.97
   1   1 -12   15.98    1.16
  -1  -1  11   32.12    0.90
  -1  -1  11   33.55    0.94
  -1  -1  11   30.38    1.14
  -1  -1  11   29.99    1.15
  -1  -1  11   31.87    1.33
  -1  -1  11   35.51    1.30
   1   1 -11   32.13    0.97
   1   1 -11   29.20    1.12
   1   1 -11   32.67    1.05
   1   1 -11   28.19    1.26
   1   1 -11   30.77    1.20
  -1  -1  10   64.44    1.09
  -1  -1  10   61.66    1.26
  -1  -1  10   61.24    1.38
  -1  -1  10   61.14    1.49
  -1  -1  10   66.94    1.51
   1   1 -10   62.31    1.09
   1   1 -10   59.87    1.36
   1   1 -10   62.56    1.24
   1   1 -10   57.77    1.41
   1   1 -10   66.07    1.46
  -1  -1   9  136.28    1.40
  -1  -1   9  148.91    1.55
  -1  -1   9  131.32    1.79
  -1  -1   9  131.75    1.59
  -1  -1   9  133.76    1.83
  -1  -1   9  140.03    1.90
  -1  -1   9  149.90    1.95
   1   1  -9  138.65    1.40
   1   1  -9  130.09    1.80
   1   1  -9  139.29    1.64
   1   1  -9  106.69    1.63
   1   1  -9  128.52    1.80
   1   1  -9  143.76    1.92
  -1  -1   8    4.57    0.38
  -1  -1   8    4.13    0.43
  -1  -1   8    3.51    0.38
  -1  -1   8    3.73    0.38
  -1  -1   8    4.24    0.53
  -1  -1   8    4.81    0.50
  -1  -1   8    5.06    0.57
   1   1  -8    4.06    0.39
   1   1  -8    4.37    0.49
   1   1  -8    4.85    0.47
   1   1  -8    3.90    0.45
   1   1  -8    4.32    0.47
   1   1  -8    4.70    0.54
  -1  -1   7  229.26    1.51
  -1  -1   7  246.19    1.75
  -1  -1   7  240.65    2.07
  -1  -1   7  234.38    1.79
  -1  -1   7  223.11    2.02
  -1  -1   7  243.11    2.09
  -1  -1   7  249.09    2.12
   1   1  -7  235.27    1.51
   1   1  -7  230.10    2.04
   1   1  -7  250.43    1.87
   1   1  -7  190.38    1.86
   1   1  -7  229.70    2.03
   1   1  -7  244.29    2.10
  -1  -1   6   60.50    0.72
  -1  -1   6   62.67    0.85
  -1  -1   6   65.60    1.02
  -1  -1   6   61.55    0.87
  -1  -1   6   57.68    0.97
  -1  -1   6   58.20    1.18
  -1  -1   6   62.81    1.06
   1   1  -6   61.81    0.72
   1   1  -6   63.36    1.01
   1   1  -6   66.26    0.91
   1   1  -6   52.30    0.93
   1   1  -6   60.00    0.98
   1   1  -6   66.50    1.04
  -1  -1   5  336.11    1.77
  -1  -1   5  348.74    2.09
  -1  -1   5  338.43    1.81
  -1  -1   5  293.19    1.95
  -1  -1   5  340.80    2.05
  -1  -1   5  345.14    2.07
   1   1  -5  324.32    1.40
   1   1  -5  340.61    2.08
   1   1  -5  361.66    1.89
   1   1  -5  288.17    1.91
   1   1  -5  313.00    1.97
  -1  -1   4  245.87    1.05
  -1  -1   4  273.72    1.48
  -1  -1   4  278.39    1.68
  -1  -1   4  283.01    1.50
  -1  -1   4  270.69    1.63
  -1  -1   4  272.48    1.64
   1   1  -4  263.55    1.07
   1   1  -4  293.40    1.74
   1   1  -4  297.47    1.55
   1   1  -4  271.98    1.65
   1   1  -4  260.01    1.61
  -1  -1   3   59.74    0.41
  -1  -1   3   64.24    0.67
  -1  -1   3   70.25    0.76
  -1  -1   3   72.75    0.69
  -1  -1   3   57.63    0.70
  -1  -1   3   66.04    0.72
  -1  -1   3   68.03    0.73
   1   1  -3   65.32    0.42
   1   1  -3   72.10    0.78
   1   1  -3   69.43    0.74
  -1  -1   2  127.39    1.03
  -1  -1   2  131.23    0.81
  -1  -1   2  104.18    0.97
  -1  -1   2  123.19    0.81
   1   1  -2  135.87    0.92
   1   1  -2  142.29    0.85
   1   1  -2  107.63    0.80
   1   1  -2  112.74    0.78
  -1  -1   1    5.52    0.17
  -1  -1   1    5.70    0.16
  -1  -1   1    4.95    0.15
  -1  -1   1    5.57    0.15
   1   1  -1    6.11    0.17
   1   1  -1    5.00    0.15
   1   1  -1    5.51    0.15
   1   1  -1    5.01    0.14
  -1  -1   0  246.98    1.00
  -1  -1   0  293.81    1.71
  -1  -1   0  269.77    1.26
  -1  -1   0  269.15    1.42
  -1  -1   0  237.24    1.23
   1   1   0  261.35    1.62
   1   1   0  221.90    0.90
   1   1   0  280.35    1.39
   1   1   0  272.35    1.29
   1   1   0  262.07    1.37
   1   1   0  234.81    1.21
  -1  -1  -1  259.45    1.46
  -1  -1  -1  239.08    1.01
  -1  -1  -1  241.14    1.00
  -1  -1  -1  253.21    0.93
  -1  -1  -1  295.91    1.77
   1   1   1  249.12    1.23
   1   1   1  246.73    1.02
   1   1   1  270.95    1.06
   1   1   1  265.58    1.28
   1   1   1  261.15    1.07
   1   1   1  270.02    1.07
   1   1   1  262.85    1.50
  -1  -1  -2   65.25    0.62
  -1  -1  -2   61.16    0.58
  -1  -1  -2   57.13    0.43
  -1  -1  -2   69.37    0.59
   1   1   2   64.45    0.63
   1   1   2   62.75    0.58
   1   1   2   57.99    0.43
   1   1   2   57.74    0.67
   1   1   2   65.54    0.58
  -1  -1  -3  122.32    0.97
  -1  -1  -3  116.33    0.96
  -1  -1  -3  120.78    0.92
  -1  -1  -3  104.67    0.75
  -1  -1  -3  123.28    0.94
   1   1   3  127.74    1.00
   1   1   3  125.47    0.99
   1   1   3  127.06    0.94
   1   1   3   95.86    0.87
   1   1   3  133.23    0.99
   1   1   3  130.38    0.97
  -1  -1  -4   56.11    0.74
  -1  -1  -4   51.06    0.74
  -1  -1  -4   53.19    0.69
  -1  -1  -4   45.56    0.60
  -1  -1  -4   60.16    0.76
  -1  -1  -4   80.71    1.07
   1   1   4   56.89    0.76
   1   1   4   52.50    0.74
   1   1   4   57.55    0.71
   1   1   4   52.45    0.65
   1   1   4   58.62    0.77
   1   1   4   57.21    0.75
  -1  -1  -5  109.83    1.12
  -1  -1  -5   94.22    1.10
  -1  -1  -5   99.65    1.03
  -1  -1  -5   87.55    0.94
  -1  -1  -5  109.02    1.14
  -1  -1  -5  106.16    1.14
   1   1   5  106.71    1.12
   1   1   5   99.53    1.11
   1   1   5  103.92    1.24
   1   1   5  100.51    1.01
   1   1   5  112.83    1.18
   1   1   5  111.63    1.17
  -1  -1  -6  111.94    1.22
  -1  -1  -6  103.00    0.85
  -1  -1  -6   99.05    1.24
  -1  -1  -6  101.56    1.13
  -1  -1  -6   89.64    1.06
   1   1   6  115.67    1.26
   1   1   6  103.80    1.25
   1   1   6  118.19    1.21
   1   1   6  108.26    1.18
   1   1   6  120.23    1.34
   1   1   6  113.15    1.30
  -1  -1  -7   93.34    1.21
  -1  -1  -7   86.36    0.86
  -1  -1  -7   78.92    1.21
  -1  -1  -7   86.79    1.14
  -1  -1  -7   78.43    1.11
  -1  -1  -7   96.34    1.32
  -1  -1  -7   94.96    1.32
   1   1   7   99.02    1.27
   1   1   7   98.09    1.21
   1   1   7   91.87    1.20
   1   1   7   99.05    1.34
   1   1   7  104.48    1.38
  -1  -1  -8    2.55    0.35
  -1  -1  -8    2.34    0.27
  -1  -1  -8    1.97    0.36
  -1  -1  -8    2.08    0.33
  -1  -1  -8    1.66    0.31
  -1  -1  -8    2.95    0.41
  -1  -1  -8    2.12    0.38
   1   1   8    2.85    0.37
   1   1   8    2.38    0.34
   1   1   8    2.32    0.36
   1   1   8    2.62    0.36
   1   1   8    2.76    0.40
   1   1   8    2.15    0.37
  -1  -1  -9   17.34    0.73
  -1  -1  -9   16.80    0.56
  -1  -1  -9   16.71    0.76
  -1  -1  -9   15.68    0.70
  -1  -1  -9   14.19    0.72
  -1  -1  -9   19.26    0.82
  -1  -1  -9   17.99    0.81
   1   1   9   19.05    0.78
   1   1   9   16.28    0.77
   1   1   9   20.34    0.77
   1   1   9   19.25    0.77
   1   1   9   20.06    0.85
  -1  -1 -10    6.20    0.66
  -1  -1 -10    4.58    0.50
  -1  -1 -10    5.43    0.64
  -1  -1 -10    5.49    0.62
  -1  -1 -10    4.36    0.53
  -1  -1 -10    6.56    0.81
  -1  -1 -10    6.88    0.73
   1   1  10    4.80    0.60
   1   1  10    7.56    0.72
   1   1  10    5.97    0.65
   1   1  10    3.61    0.48
   1   1  10    5.80    0.61
  -1  -1 -11    4.75    0.59
  -1  -1 -11    6.38    0.73
  -1  -1 -11    6.37    0.71
  -1  -1 -11    7.20    0.77
  -1  -1 -11    7.18    0.83
   1   1  11    7.63    0.74
   1   1  11    6.29    0.75
   1   1  11    5.44    0.71
   1   1  11    5.73    0.68
  -1  -1 -12    5.59    0.66
  -1  -1 -12    7.82    0.85
  -1  -1 -12    6.88    0.80
   1   1  12    6.51    0.69
   1   1  12    5.31    0.63
   1   1  12    6.14    0.75
  -1  -1 -13    0.24    0.53
  -1  -1 -13    0.33    0.56
  -1  -1 -13    0.26    0.69
   1   1  13   -0.12    0.54
   1   1  13    0.20    0.55
   1   1  13   -0.77    0.70
  -1  -2  13    1.23    0.59
  -1  -2  13    1.70    0.60
  -1  -2  13    2.34    0.67
   1   2 -13    1.22    0.56
   1   2 -13    1.86    0.63
   1   2 -13    0.73    0.67
  -1  -2  12    5.33    0.54
  -1  -2  12    4.44    0.58
  -1  -2  12    4.24    0.63
  -1  -2  12    6.31    0.83
   1   2 -12    3.27    0.55
   1   2 -12    5.44    0.64
   1   2 -12    5.92    0.76
  -1  -2  11    2.75    0.40
  -1  -2  11    2.33    0.43
  -1  -2  11    2.27    0.49
  -1  -2  11    1.46    0.48
  -1  -2  11    2.58    0.64
   1   2 -11    2.76    0.47
   1   2 -11    2.01    0.46
   1   2 -11    2.74    0.48
   1   2 -11    1.29    0.52
   1   2 -11    1.61    0.44
  -1  -2  10   73.56    1.07
  -1  -2  10   86.30    1.39
  -1  -2  10   73.36    1.28
  -1  -2  10   81.59    1.59
  -1  -2  10   85.25    1.69
  -1  -2  10   90.33    1.68
   1   2 -10   80.21    1.13
   1   2 -10   80.88    1.58
   1   2 -10   83.76    1.33
   1   2 -10   64.61    1.82
   1   2 -10   83.98    1.61
  -1  -2   9   39.59    0.76
  -1  -2   9   50.20    1.04
  -1  -2   9   44.78    0.96
  -1  -2   9   50.80    1.74
  -1  -2   9   50.02    1.23
  -1  -2   9   52.73    1.25
   1   2  -9   46.77    0.82
   1   2  -9   49.83    0.99
   1   2  -9   46.33    1.18
   1   2  -9   49.10    1.19
  -1  -2   8   17.45    0.51
  -1  -2   8   22.68    0.71
  -1  -2   8   20.84    0.79
  -1  -2   8   21.24    0.65
  -1  -2   8   20.50    0.80
  -1  -2   8   21.24    0.81
  -1  -2   8   23.35    0.83
   1   2  -8   21.17    0.79
   1   2  -8   23.49    0.69
   1   2  -8   21.18    0.79
   1   2  -8   22.13    0.81
  -1  -2   7    1.36    0.19
  -1  -2   7    1.46    0.28
  -1  -2   7    1.29    0.27
  -1  -2   7    1.27    0.25
  -1  -2   7    1.51    0.30
  -1  -2   7    1.26    0.26
  -1  -2   7    1.36    0.29
   1   2  -7    1.53    0.21
   1   2  -7    1.39    0.31
   1   2  -7    2.11    0.27
   1   2  -7    1.33    0.33
   1   2  -7    1.61    0.32
   1   2  -7    1.33    0.27
  -1  -2   6   93.25    0.82
  -1  -2   6  106.84    1.22
  -1  -2   6  105.47    1.33
  -1  -2   6  101.50    1.31
  -1  -2   6  109.44    1.29
  -1  -2   6  111.67    1.30
   1   2  -6  109.40    0.88
   1   2  -6  119.15    1.41
   1   2  -6  118.80    1.14
   1   2  -6   99.71    1.30
   1   2  -6  102.14    1.26
   1   2  -6  107.42    1.30
  -1  -2   5  244.75    1.15
  -1  -2   5  272.92    1.80
  -1  -2   5  284.26    1.97
  -1  -2   5  277.91    1.56
  -1  -2   5  258.47    1.89
  -1  -2   5  278.39    1.83
  -1  -2   5  274.88    1.83
   1   2  -5  269.40    1.20
   1   2  -5  295.72    2.03
   1   2  -5  304.47    1.65
   1   2  -5  258.50    1.88
   1   2  -5  250.52    1.76
   1   2  -5  272.00    1.84
  -1  -2   4    5.41    0.18
  -1  -2   4    5.38    0.30
  -1  -2   4    6.18    0.37
  -1  -2   4    6.11    0.26
  -1  -2   4    5.58    0.34
  -1  -2   4    5.26    0.29
   1   2  -4    5.40    0.19
   1   2  -4    6.21    0.35
   1   2  -4    7.12    0.28
   1   2  -4    5.08    0.28
  -1  -2   3  339.02    1.21
  -1  -2   3  368.37    1.85
  -1  -2   3  379.91    1.52
  -1  -2   3  318.66    1.72
  -1  -2   3  357.46    1.60
  -1  -2   3  313.84    2.19
   1   2  -3  382.85    1.24
   1   2  -3  369.27    1.87
   1   2  -3  341.41    1.77
   1   2  -3  342.79    1.60
   1   2  -3  327.15    1.55
  -1  -2   2    1.13    0.09
  -1  -2   2    1.71    0.19
  -1  -2   2    1.14    0.14
  -1  -2   2    1.21    0.15
  -1  -2   2    1.06    0.15
  -1  -2   2    1.09    0.14
  -1  -2   2    1.46    0.14
   1   2  -2    1.18    0.10
   1   2  -2    1.23    0.15
   1   2  -2    1.30    0.15
   1   2  -2    1.42    0.16
   1   2  -2    1.32    0.15
   1   2  -2    1.17    0.13
  -1  -2   1  361.51    1.42
  -1  -2   1  356.66    1.49
  -1  -2   1  359.13    1.49
  -1  -2   1  406.68    2.19
  -1  -2   1  402.59    1.81
  -1  -2   1  390.68    1.68
   1   2  -1  371.94    1.84
   1   2  -1  391.83    1.57
   1   2  -1  434.99    2.36
   1   2  -1  417.02    2.25
   1   2  -1  407.67    1.82
   1   2  -1  371.28    1.59
  -1  -2   0   84.09    0.61
  -1  -2   0   81.76    0.67
  -1  -2   0   73.89    0.55
  -1  -2   0   79.86    0.30
  -1  -2   0   71.14    0.29
   1   2   0   77.49    0.58
   1   2   0   73.50    0.57
   1   2   0   70.79    0.64
   1   2   0   83.57    0.68
   1   2   0   74.04    0.63
   1   2   0   76.46    0.56
   1   2   0   68.08    0.32
  -1  -2  -1  108.49    0.80
  -1  -2  -1   90.95    0.90
  -1  -2  -1   95.09    0.60
  -1  -2  -1  107.51    0.51
  -1  -2  -1  100.87    0.50
   1   2   1  107.85    0.81
   1   2   1  102.78    0.78
   1   2   1  102.44    0.80
   1   2   1   96.96    0.60
   1   2   1  112.66    0.55
   1   2   1  106.01    0.53
  -1  -2  -2  107.45    0.90
  -1  -2  -2  103.56    0.86
  -1  -2  -2  107.21    0.91
  -1  -2  -2  104.82    0.70
  -1  -2  -2  113.41    0.72
  -1  -2  -2  107.72    0.71
   1   2   2  109.16    0.91
   1   2   2  110.05    0.88
   1   2   2  111.02    0.72
   1   2   2  115.14    0.75
   1   2   2  111.63    0.73
  -1  -2  -3   14.77    0.41
  -1  -2  -3   14.32    0.39
  -1  -2  -3   13.86    0.40
  -1  -2  -3   14.30    0.33
  -1  -2  -3   16.04    0.36
  -1  -2  -3   14.90    0.35
   1   2   3   17.11    0.44
   1   2   3   15.99    0.42
   1   2   3   15.82    0.35
   1   2   3   16.67    0.37
   1   2   3   15.79    0.36
  -1  -2  -4  187.83    1.43
  -1  -2  -4  164.70    1.33
  -1  -2  -4  173.80    1.37
  -1  -2  -4  164.83    1.15
  -1  -2  -4  189.14    1.32
   1   2   4  190.52    1.45
   1   2   4  180.30    1.38
   1   2   4  178.36    1.46
   1   2   4  178.17    1.21
   1   2   4  188.16    1.34
   1   2   4  190.36    1.35
  -1  -2  -5    9.93    0.41
  -1  -2  -5    9.19    0.41
  -1  -2  -5    9.72    0.42
  -1  -2  -5    9.33    0.37
  -1  -2  -5   11.29    0.42
  -1  -2  -5   10.96    0.42
   1   2   5   10.38    0.44
   1   2   5   10.78    0.43
   1   2   5   10.19    0.41
   1   2   5   10.41    0.40
   1   2   5   10.46    0.41
  -1  -2  -6   31.36    0.71
  -1  -2  -6   26.69    0.69
  -1  -2  -6   28.82    0.71
  -1  -2  -6   26.45    0.63
  -1  -2  -6   32.96    0.73
  -1  -2  -6   32.90    0.73
   1   2   6   33.14    0.75
   1   2   6   31.46    0.72
   1   2   6   30.66    0.67
   1   2   6   31.92    0.73
   1   2   6   34.67    0.76
  -1  -2  -7   28.44    0.74
  -1  -2  -7   23.47    0.73
  -1  -2  -7   26.51    0.75
  -1  -2  -7   20.97    0.65
  -1  -2  -7   27.52    0.75
  -1  -2  -7   28.35    0.77
   1   2   7   29.25    0.79
   1   2   7   25.43    0.71
   1   2   7   30.36    0.78
   1   2   7   27.50    0.73
   1   2   7   28.26    0.77
   1   2   7   30.58    0.80
  -1  -2  -8   21.26    0.73
  -1  -2  -8   20.43    0.71
  -1  -2  -8   17.30    0.73
  -1  -2  -8   20.38    0.74
  -1  -2  -8   16.10    0.66
  -1  -2  -8   21.61    0.78
   1   2   8   22.84    0.77
   1   2   8   21.87    0.75
   1   2   8   21.69    0.75
   1   2   8   21.15    0.73
   1   2   8   23.07    0.80
   1   2   8   24.55    0.82
  -1  -2  -9   60.26    1.23
  -1  -2  -9   44.50    0.62
  -1  -2  -9   52.90    1.21
  -1  -2  -9   57.70    1.18
  -1  -2  -9   46.16    1.07
  -1  -2  -9   59.50    1.25
  -1  -2  -9   60.75    1.29
   1   2   9   65.43    1.26
   1   2   9   55.92    1.21
   1   2   9   63.77    1.26
   1   2   9   61.17    1.22
   1   2   9   59.71    1.28
   1   2   9   67.62    1.35
  -1  -2 -10    5.04    0.57
  -1  -2 -10    5.84    0.66
  -1  -2 -10    3.79    0.54
  -1  -2 -10    5.83    0.60
  -1  -2 -10    6.27    0.74
   1   2  10    6.04    0.64
   1   2  10    6.68    0.68
   1   2  10    4.84    0.59
   1   2  10    7.00    0.65
  -1  -2 -11   40.32    1.27
  -1  -2 -11   44.22    1.23
  -1  -2 -11   50.59    1.41
   1   2  11   50.26    1.30
   1   2  11   48.43    1.27
   1   2  11   48.87    1.52
   1   2  11   52.71    1.44
  -1  -2 -12    9.17    0.91
  -1  -2 -12   10.72    0.96
  -1  -2 -12    9.88    1.05
   1   2  12   11.48    0.93
   1   2  12   11.24    0.95
   1   2  12    9.76    1.06
  -1  -2 -13    1.75    0.61
   1   2  13    2.03    0.65
   1   2  13    1.09    0.58
   1   2  13    1.21    0.73
  -1  -3  13    2.35    0.62
  -1  -3  13    2.34    0.64
   1   3 -13    0.38    0.53
   1   3 -13    2.40    0.74
  -1  -3  12   -0.04    0.35
  -1  -3  12    0.13    0.45
  -1  -3  12    0.04    0.48
   1   3 -12   -0.10    0.43
   1   3 -12    0.17    0.47
   1   3 -12   -1.58    0.54
  -1  -3  11    1.22    0.33
  -1  -3  11    3.85    0.52
  -1  -3  11    2.20    0.48
  -1  -3  11    2.65    0.54
  -1  -3  11    3.19    0.65
   1   3 -11    4.15    0.74
   1   3 -11    3.77    0.56
   1   3 -11    3.72    0.50
   1   3 -11    4.06    0.62
  -1  -3  10    0.08    0.26
  -1  -3  10    2.69    0.46
  -1  -3  10    0.80    0.35
  -1  -3  10    2.52    0.48
  -1  -3  10    1.94    0.53
   1   3 -10    2.11    0.36
   1   3 -10    2.43    0.48
   1   3 -10    1.89    0.39
   1   3 -10    2.38    0.56
   1   3 -10    1.71    0.44
  -1  -3   9    2.52    0.29
  -1  -3   9    3.16    0.43
  -1  -3   9    2.02    0.33
  -1  -3   9    2.90    0.44
  -1  -3   9    2.41    0.45
  -1  -3   9    3.39    0.48
   1   3  -9    3.46    0.35
   1   3  -9    3.39    0.47
   1   3  -9    3.00    0.37
   1   3  -9    2.12    0.40
   1   3  -9    2.88    0.44
  -1  -3   8    1.31    0.22
  -1  -3   8    1.32    0.33
  -1  -3   8    0.59    0.34
  -1  -3   8    1.03    0.27
  -1  -3   8    0.68    0.32
  -1  -3   8    1.23    0.35
  -1  -3   8    1.27    0.33
   1   3  -8    1.54    0.26
   1   3  -8    0.75    0.29
   1   3  -8    1.24    0.27
   1   3  -8    0.92    0.39
   1   3  -8    0.88    0.26
   1   3  -8    1.02    0.28
  -1  -3   7    9.60    0.36
  -1  -3   7   10.13    0.59
  -1  -3   7    9.39    0.61
  -1  -3   7   10.27    0.46
  -1  -3   7    9.88    0.58
  -1  -3   7    9.24    0.53
  -1  -3   7   10.42    0.57
   1   3  -7   11.14    0.39
   1   3  -7   12.06    0.63
   1   3  -7   11.54    0.48
   1   3  -7    9.89    0.61
   1   3  -7    9.25    0.54
   1   3  -7    9.99    0.54
  -1  -3   6   76.92    0.75
  -1  -3   6   79.24    1.16
  -1  -3   6   82.62    1.22
  -1  -3   6   85.06    0.93
  -1  -3   6   78.07    1.22
  -1  -3   6   79.65    1.09
   1   3  -6   84.54    0.79
   1   3  -6   92.48    1.31
   1   3  -6   94.69    0.98
   1   3  -6   76.90    1.10
   1   3  -6   80.73    1.14
  -1  -3   5   33.57    0.49
  -1  -3   5   37.12    0.78
  -1  -3   5   39.38    0.81
  -1  -3   5   40.62    0.61
  -1  -3   5   36.11    0.79
  -1  -3   5   38.82    0.71
  -1  -3   5   38.22    0.71
   1   3  -5   40.46    0.51
   1   3  -5   42.96    0.85
   1   3  -5   45.88    0.65
   1   3  -5   37.04    0.80
   1   3  -5   36.40    0.71
   1   3  -5   36.76    0.71
  -1  -3   4   39.07    0.47
  -1  -3   4   40.90    0.76
  -1  -3   4   42.72    0.77
  -1  -3   4   44.71    0.59
  -1  -3   4   40.38    0.77
  -1  -3   4   40.70    0.64
  -1  -3   4   42.15    0.65
   1   3  -4   46.79    0.50
   1   3  -4   45.09    0.79
   1   3  -4   51.54    0.64
   1   3  -4   44.99    0.80
   1   3  -4   40.47    0.66
   1   3  -4   40.34    0.66
  -1  -3   3    7.82    0.23
  -1  -3   3    8.49    0.38
  -1  -3   3    7.76    0.39
  -1  -3   3    8.94    0.29
  -1  -3   3    7.79    0.35
  -1  -3   3    8.46    0.29
  -1  -3   3    8.86    0.28
   1   3  -3    9.59    0.25
   1   3  -3    9.10    0.37
   1   3  -3    9.74    0.40
   1   3  -3    8.75    0.43
   1   3  -3    8.31    0.29
   1   3  -3    8.76    0.30
  -1  -3   2   63.34    0.57
  -1  -3   2   67.83    0.84
  -1  -3   2   71.01    0.82
  -1  -3   2   74.12    0.69
  -1  -3   2   68.61    0.82
  -1  -3   2   72.77    0.57
  -1  -3   2   71.10    0.57
   1   3  -2   72.53    0.61
   1   3  -2   74.51    0.85
   1   3  -2   77.22    0.86
   1   3  -2   68.08    0.58
   1   3  -2   70.21    0.59
  -1  -3   1   25.40    0.40
  -1  -3   1   25.60    0.49
  -1  -3   1   27.87    0.50
  -1  -3   1   29.13    0.46
  -1  -3   1   27.46    0.49
  -1  -3   1   28.16    0.23
  -1  -3   1   29.12    0.24
   1   3  -1   26.80    0.41
   1   3  -1   28.75    0.51
   1   3  -1   22.82    0.46
   1   3  -1   28.52    0.57
   1   3  -1   24.57    0.42
   1   3  -1   27.18    0.49
  -1  -3   0   55.49    0.65
  -1  -3   0   51.32    0.64
  -1  -3   0   55.85    0.64
   1   3   0   59.79    0.66
   1   3   0   55.10    0.62
   1   3   0   59.04    0.69
   1   3   0   51.79    0.64
   1   3   0   62.01    0.70
   1   3   0   55.24    0.65
   1   3   0   57.47    0.64
  -1  -3  -1   54.14    0.58
  -1  -3  -1   49.64    0.64
  -1  -3  -1   52.96    0.69
  -1  -3  -1   56.14    0.29
  -1  -3  -1   55.43    0.29
   1   3   1   61.65    0.73
   1   3   1   56.05    0.69
   1   3   1   52.60    0.65
   1   3   1   57.16    0.71
   1   3   1   52.80    0.60
   1   3   1   58.16    0.63
   1   3   1   60.94    0.38
   1   3   1   56.78    0.46
  -1  -3  -2   -0.04    0.12
  -1  -3  -2    0.14    0.11
  -1  -3  -2    0.18    0.13
  -1  -3  -2    0.19    0.09
  -1  -3  -2    0.17    0.07
  -1  -3  -2    0.29    0.07
   1   3   2    0.17    0.13
   1   3   2    0.21    0.12
   1   3   2    0.07    0.11
   1   3   2    0.24    0.12
   1   3   2    0.14    0.11
   1   3   2    0.33    0.08
   1   3   2    0.15    0.08
  -1  -3  -3   96.51    1.06
  -1  -3  -3   83.22    0.92
  -1  -3  -3   85.17    0.84
  -1  -3  -3   80.58    0.88
  -1  -3  -3   88.12    0.78
   1   3   3   96.62    1.06
   1   3   3   90.20    0.94
   1   3   3   89.18    1.01
   1   3   3   90.51    0.87
   1   3   3   90.32    0.81
  -1  -3  -4   31.25    0.68
  -1  -3  -4   26.60    0.59
  -1  -3  -4   28.22    0.65
  -1  -3  -4   27.85    0.55
  -1  -3  -4   29.92    0.55
  -1  -3  -4   31.14    0.57
   1   3   4   30.84    0.67
   1   3   4   29.47    0.64
   1   3   4   29.82    0.66
   1   3   4   30.30    0.58
   1   3   4   30.41    0.57
   1   3   4   29.93    0.56
  -1  -3  -5  124.18    1.37
  -1  -3  -5  111.61    1.25
  -1  -3  -5  111.16    1.31
  -1  -3  -5  103.01    1.23
  -1  -3  -5  124.06    1.21
  -1  -3  -5  124.13    1.22
   1   3   5  134.46    1.44
   1   3   5  122.25    1.29
   1   3   5  131.12    1.41
   1   3   5  125.18    1.22
   1   3   5  126.81    1.25
   1   3   5  129.75    1.27
  -1  -3  -6  180.42    1.74
  -1  -3  -6  157.61    1.60
  -1  -3  -6  157.42    1.65
  -1  -3  -6  153.04    1.45
  -1  -3  -6  174.85    1.58
   1   3   6  190.72    1.81
   1   3   6  175.95    1.67
   1   3   6  181.71    1.75
   1   3   6  172.17    1.55
   1   3   6  179.99    1.64
   1   3   6  190.94    1.69
  -1  -3  -7    4.61    0.46
  -1  -3  -7    5.11    0.49
  -1  -3  -7    4.61    0.49
  -1  -3  -7    3.31    0.35
  -1  -3  -7    3.42    0.39
  -1  -3  -7    4.73    0.46
   1   3   7    5.23    0.49
   1   3   7    4.48    0.45
   1   3   7    5.21    0.49
   1   3   7    3.85    0.45
   1   3   7    4.41    0.45
   1   3   7    4.98    0.46
  -1  -3  -8   55.43    1.15
  -1  -3  -8   46.65    1.07
  -1  -3  -8   54.14    1.14
  -1  -3  -8   41.48    0.96
  -1  -3  -8   53.79    1.09
  -1  -3  -8   59.02    1.16
   1   3   8   64.39    1.24
   1   3   8   55.24    1.13
   1   3   8   56.23    1.17
   1   3   8   57.11    1.11
   1   3   8   55.31    1.15
   1   3   8   62.04    1.19
  -1  -3  -9    0.35    0.31
  -1  -3  -9    1.63    0.38
  -1  -3  -9    0.77    0.36
  -1  -3  -9    0.95    0.32
  -1  -3  -9    1.52    0.36
   1   3   9    2.15    0.44
   1   3   9    1.18    0.40
   1   3   9    1.76    0.39
   1   3   9    1.38    0.40
   1   3   9    1.00    0.34
  -1  -3 -10   16.30    0.86
  -1  -3 -10   21.60    0.95
  -1  -3 -10   15.84    0.91
  -1  -3 -10   18.40    1.15
   1   3  10   24.11    0.98
   1   3  10   21.38    0.93
   1   3  10   21.90    1.08
   1   3  10   22.59    1.01
  -1  -3 -11   42.44    1.31
  -1  -3 -11   52.24    1.40
  -1  -3 -11   57.95    1.50
   1   3  11   60.89    1.46
   1   3  11   54.37    1.37
   1   3  11   60.12    1.53
  -1  -3 -12    3.32    0.61
  -1  -3 -12    4.89    0.68
   1   3  12    6.15    0.72
   1   3  12    5.37    0.71
   1   3  12    5.80    0.77
  -1  -3 -13    7.03    0.87
  -1  -3 -13    8.59    0.89
   1   3  13    9.04    0.91
   1   3  13    9.86    1.15
   1   3  13    9.10    1.04
  -1  -4  12    4.43    0.64
  -1  -4  12    4.21    0.69
   1   4 -12    4.80    0.72
   1   4 -12    3.64    0.68
  -1  -4  11    1.08    0.35
  -1  -4  11    1.78    0.49
  -1  -4  11    2.09    0.50
   1   4 -11    0.60    0.45
   1   4 -11    1.65    0.42
   1   4 -11    0.79    0.52
  -1  -4  10    8.76    0.51
  -1  -4  10   11.81    0.77
  -1  -4  10    7.19    0.67
  -1  -4  10   11.40    0.86
  -1  -4  10   12.91    0.95
   1   4 -10   10.57    0.62
   1   4 -10    8.86    0.79
   1   4 -10   11.17    0.65
   1   4 -10   10.08    0.91
   1   4 -10   10.80    0.82
  -1  -4   9    1.84    0.29
  -1  -4   9    1.84    0.41
  -1  -4   9    0.92    0.32
  -1  -4   9    1.63    0.38
  -1  -4   9    0.94    0.42
   1   4  -9    1.55    0.33
   1   4  -9    1.39    0.39
   1   4  -9    1.47    0.32
   1   4  -9    1.84    0.45
   1   4  -9    1.46    0.39
  -1  -4   8   10.31    0.44
  -1  -4   8   10.33    0.64
  -1  -4   8    9.28    0.52
  -1  -4   8    9.37    0.62
   1   4  -8   11.34    0.48
   1   4  -8    9.79    0.80
   1   4  -8   12.31    0.53
   1   4  -8    9.10    0.63
   1   4  -8    9.72    0.62
  -1  -4   7    3.94    0.33
  -1  -4   7    3.44    0.42
  -1  -4   7    4.84    0.54
  -1  -4   7    3.27    0.42
  -1  -4   7    3.88    0.43
  -1  -4   7    5.21    0.51
   1   4  -7    4.98    0.35
   1   4  -7    5.21    0.56
   1   4  -7    4.48    0.38
   1   4  -7    4.77    0.51
   1   4  -7    4.88    0.48
   1   4  -7    5.01    0.46
  -1  -4   6   28.06    0.53
  -1  -4   6   31.00    0.85
  -1  -4   6   31.02    0.83
  -1  -4   6   31.74    0.60
  -1  -4   6   27.84    0.82
  -1  -4   6   29.46    0.71
  -1  -4   6   31.61    0.74
   1   4  -6   32.86    0.57
   1   4  -6   34.96    0.89
   1   4  -6   36.93    0.64
   1   4  -6   30.55    0.86
   1   4  -6   28.41    0.73
   1   4  -6   28.13    0.71
  -1  -4   5    3.65    0.28
  -1  -4   5    2.75    0.35
  -1  -4   5    4.17    0.40
  -1  -4   5    4.32    0.31
  -1  -4   5    4.03    0.40
  -1  -4   5    4.04    0.33
  -1  -4   5    4.27    0.35
   1   4  -5    4.90    0.29
   1   4  -5    4.33    0.45
   1   4  -5    4.99    0.33
   1   4  -5    4.37    0.46
   1   4  -5    4.35    0.34
   1   4  -5    3.85    0.31
  -1  -4   4    2.80    0.25
  -1  -4   4    3.42    0.37
  -1  -4   4    3.02    0.33
  -1  -4   4    3.04    0.26
  -1  -4   4    3.05    0.36
  -1  -4   4    3.15    0.26
  -1  -4   4    3.35    0.27
   1   4  -4    3.68    0.26
   1   4  -4    3.51    0.35
   1   4  -4    4.49    0.29
   1   4  -4    3.96    0.37
   1   4  -4    2.70    0.26
   1   4  -4    3.05    0.26
  -1  -4   3    5.63    0.26
  -1  -4   3    5.64    0.39
  -1  -4   3    5.54    0.34
  -1  -4   3    6.06    0.29
  -1  -4   3    5.59    0.38
  -1  -4   3    6.34    0.25
  -1  -4   3    6.23    0.26
   1   4  -3    6.56    0.28
   1   4  -3    6.40    0.37
   1   4  -3    6.94    0.30
   1   4  -3    6.37    0.38
   1   4  -3    5.44    0.24
  -1  -4   2   58.06    0.69
  -1  -4   2   57.19    0.87
  -1  -4   2   59.69    0.87
  -1  -4   2   65.86    0.50
  -1  -4   2   66.64    0.51
   1   4  -2   64.64    0.73
   1   4  -2   66.16    0.89
   1   4  -2   71.66    0.77
   1   4  -2   58.95    0.70
   1   4  -2   66.99    0.91
   1   4  -2   61.47    0.56
   1   4  -2   57.95    0.53
  -1  -4   1   15.21    0.40
  -1  -4   1   15.60    0.47
  -1  -4   1   15.48    0.46
   1   4  -1   16.14    0.41
   1   4  -1   16.80    0.46
   1   4  -1   13.56    0.41
   1   4  -1   18.85    0.45
   1   4  -1   15.21    0.40
   1   4  -1   16.64    0.46
   1   4  -1   15.73    0.21
   1   4  -1   15.30    0.20
  -1  -4   0   10.24    0.36
  -1  -4   0   11.01    0.39
  -1  -4   0   11.31    0.38
   1   4   0   12.96    0.40
   1   4   0   11.13    0.36
   1   4   0   11.61    0.38
   1   4   0   10.46    0.35
   1   4   0   13.18    0.41
   1   4   0   11.03    0.36
   1   4   0   10.18    0.37
   1   4   0   15.35    0.42
  -1  -4  -1  384.87    1.77
  -1  -4  -1  337.08    1.80
  -1  -4  -1  354.18    1.96
   1   4   1  406.88    2.11
   1   4   1  377.80    2.01
   1   4   1  365.02    1.85
   1   4   1  364.39    2.07
   1   4   1  344.70    1.81
   1   4   1  392.37    1.92
   1   4   1  404.13    0.93
   1   4   1  401.44    1.13
  -1  -4  -2   94.03    0.81
  -1  -4  -2   85.86    0.95
  -1  -4  -2   88.81    1.07
  -1  -4  -2   86.69    0.93
  -1  -4  -2   92.74    0.57
  -1  -4  -2   98.58    0.60
   1   4   2   99.66    1.12
   1   4   2   91.62    1.07
   1   4   2   96.51    0.99
   1   4   2   98.95    1.10
   1   4   2   94.87    0.98
   1   4   2  103.96    0.70
   1   4   2   98.99    0.68
  -1  -4  -3   33.55    0.65
  -1  -4  -3   34.81    0.74
  -1  -4  -3   33.61    0.63
  -1  -4  -3   36.99    0.50
  -1  -4  -3   36.65    0.50
   1   4   3   40.28    0.78
   1   4   3   35.32    0.73
   1   4   3   37.93    0.76
   1   4   3   36.77    0.66
   1   4   3   38.20    0.54
  -1  -4  -4   33.00    0.77
  -1  -4  -4   26.65    0.64
  -1  -4  -4   26.47    0.69
  -1  -4  -4   27.27    0.61
  -1  -4  -4   28.16    0.53
  -1  -4  -4   29.81    0.55
   1   4   4   32.69    0.76
   1   4   4   27.11    0.69
   1   4   4   30.35    0.66
   1   4   4   30.35    0.75
   1   4   4   31.17    0.65
   1   4   4   29.94    0.57
   1   4   4   31.41    0.58
  -1  -4  -5  102.37    1.35
  -1  -4  -5   85.75    1.15
  -1  -4  -5   88.56    1.28
  -1  -4  -5   91.62    1.13
  -1  -4  -5   94.01    1.05
  -1  -4  -5   99.64    1.09
   1   4   5  103.14    1.37
   1   4   5   85.90    1.24
   1   4   5  101.50    1.24
   1   4   5  100.80    1.35
   1   4   5   98.90    1.18
   1   4   5  101.55    1.14
   1   4   5  105.29    1.15
  -1  -4  -6   12.65    0.61
  -1  -4  -6   10.55    0.55
  -1  -4  -6   11.75    0.61
  -1  -4  -6   10.66    0.53
  -1  -4  -6   11.21    0.47
  -1  -4  -6   12.63    0.54
   1   4   6   13.22    0.63
   1   4   6   11.10    0.57
   1   4   6   13.00    0.60
   1   4   6   12.53    0.63
   1   4   6   13.32    0.59
   1   4   6   12.02    0.54
   1   4   6   11.85    0.53
  -1  -4  -7   18.19    0.72
  -1  -4  -7   14.88    0.67
  -1  -4  -7   16.47    0.74
  -1  -4  -7   14.94    0.65
  -1  -4  -7   16.78    0.60
  -1  -4  -7   17.57    0.66
   1   4   7   19.41    0.76
   1   4   7   16.29    0.70
   1   4   7   17.35    0.69
   1   4   7   18.35    0.77
   1   4   7   17.31    0.70
   1   4   7   17.63    0.69
   1   4   7   20.55    0.71
  -1  -4  -8   31.81    0.94
  -1  -4  -8   35.27    1.04
  -1  -4  -8   31.18    0.92
  -1  -4  -8   33.06    0.88
   1   4   8   41.67    1.09
   1   4   8   36.71    1.00
   1   4   8   37.05    0.98
   1   4   8   39.38    1.03
   1   4   8   41.12    1.01
  -1  -4  -9   81.50    1.56
  -1  -4  -9   62.73    1.30
  -1  -4  -9   87.17    1.50
   1   4   9   92.16    1.69
   1   4   9   87.33    1.48
   1   4   9   90.84    1.60
   1   4   9   94.41    1.68
  -1  -4 -10    5.85    0.72
  -1  -4 -10    7.19    0.83
  -1  -4 -10    5.71    0.60
   1   4  10    8.36    0.78
   1   4  10    7.00    0.79
   1   4  10    5.37    0.63
   1   4  10    7.37    0.77
  -1  -4 -11    0.18    0.43
  -1  -4 -11    0.98    0.51
   1   4  11    0.57    0.46
   1   4  11    0.15    0.47
   1   4  11   -0.10    0.47
  -1  -4 -12    8.24    1.00
  -1  -4 -12   11.74    1.11
   1   4  12   12.03    1.05
   1   4  12   11.57    1.11
   1   4  12   12.85    1.10
   1   4  13    0.25    0.65
  -1  -5  12    2.53    0.63
  -1  -5  12    2.61    0.69
   1   5 -12    0.92    0.59
   1   5 -12    2.38    0.59
  -1  -5  11   11.70    0.78
  -1  -5  11   15.46    0.97
  -1  -5  11   13.65    1.05
   1   5 -11   15.00    1.06
   1   5 -11   15.33    0.99
  -1  -5  10    0.38    0.32
  -1  -5  10   -0.25    0.37
  -1  -5  10    1.43    0.48
   1   5 -10   -0.54    0.41
   1   5 -10    0.47    0.33
   1   5 -10    1.04    0.41
  -1  -5   9   46.67    0.83
  -1  -5   9   56.24    1.35
  -1  -5   9   51.79    0.90
  -1  -5   9   52.28    1.36
  -1  -5   9   57.74    1.32
   1   5  -9   58.97    0.94
   1   5  -9   57.69    1.43
   1   5  -9   59.14    0.92
   1   5  -9   51.13    1.26
   1   5  -9   54.69    1.26
  -1  -5   8    0.07    0.24
  -1  -5   8    0.23    0.31
  -1  -5   8    0.11    0.26
  -1  -5   8    0.27    0.32
  -1  -5   8   -0.14    0.33
   1   5  -8   -0.12    0.25
   1   5  -8   -0.07    0.34
   1   5  -8   -0.19    0.23
   1   5  -8    0.13    0.31
   1   5  -8   -0.22    0.25
  -1  -5   7   24.52    0.59
  -1  -5   7   26.05    0.88
  -1  -5   7   22.64    0.85
  -1  -5   7   26.94    0.62
  -1  -5   7   26.33    0.99
  -1  -5   7   25.23    0.83
  -1  -5   7   27.86    0.81
   1   5  -7   30.47    0.98
   1   5  -7   31.90    0.64
   1   5  -7   26.14    0.80
   1   5  -7   25.00    0.78
  -1  -5   6    9.82    0.42
  -1  -5   6    9.30    0.61
  -1  -5   6   11.22    0.62
  -1  -5   6   10.85    0.43
  -1  -5   6   10.01    0.64
  -1  -5   6   10.25    0.51
  -1  -5   6   10.38    0.55
   1   5  -6   12.81    0.47
   1   5  -6   11.98    0.65
   1   5  -6   13.67    0.46
   1   5  -6   11.46    0.69
   1   5  -6   10.08    0.54
   1   5  -6    9.21    0.50
  -1  -5   5   53.25    0.76
  -1  -5   5   56.49    1.13
  -1  -5   5   59.05    1.08
  -1  -5   5   61.61    0.78
  -1  -5   5   55.71    1.11
  -1  -5   5   59.16    0.85
  -1  -5   5   60.10    0.87
   1   5  -5   68.55    0.85
   1   5  -5   70.41    1.20
   1   5  -5   73.66    0.84
   1   5  -5   61.77    1.17
   1   5  -5   55.87    0.88
  -1  -5   4  152.07    1.24
  -1  -5   4  161.19    1.75
  -1  -5   4  170.64    1.68
  -1  -5   4  159.97    1.71
  -1  -5   4  167.09    1.20
  -1  -5   4  173.83    1.23
   1   5  -4  188.40    1.37
   1   5  -4  190.43    1.79
   1   5  -4  203.70    1.35
   1   5  -4  154.38    1.17
   1   5  -4  178.66    1.79
   1   5  -4  160.52    1.27
   1   5  -4  157.74    1.26
  -1  -5   3   14.28    0.45
  -1  -5   3   14.51    0.59
  -1  -5   3   17.09    0.57
  -1  -5   3   15.02    0.58
  -1  -5   3   16.21    0.34
  -1  -5   3   15.97    0.34
   1   5  -3   14.97    0.54
   1   5  -3   17.21    0.59
   1   5  -3   18.56    0.48
   1   5  -3   14.15    0.42
   1   5  -3   16.15    0.59
   1   5  -3   14.84    0.38
   1   5  -3   14.70    0.37
  -1  -5   2  170.56    1.37
  -1  -5   2  185.57    1.69
  -1  -5   2  183.60    1.66
   1   5  -2  191.27    1.50
   1   5  -2  202.28    1.65
   1   5  -2  171.23    1.51
   1   5  -2  211.53    1.45
   1   5  -2  178.02    1.32
   1   5  -2  201.54    1.71
   1   5  -2  180.85    0.93
   1   5  -2  174.28    0.90
  -1  -5   1   59.43    0.86
  -1  -5   1   63.86    0.97
  -1  -5   1   63.53    0.96
   1   5  -1   65.71    0.90
   1   5  -1   68.74    0.95
   1   5  -1   59.14    0.88
   1   5  -1   72.67    0.92
   1   5  -1   54.07    0.98
   1   5  -1   66.32    0.97
  -1  -5   0   47.13    0.80
  -1  -5   0   47.92    0.80
  -1  -5   0   46.18    0.78
   1   5   0   53.91    0.86
   1   5   0   48.12    0.80
   1   5   0   49.90    0.80
   1   5   0   45.21    0.76
   1   5   0   53.33    0.84
   1   5   0   46.50    0.77
   1   5   0   45.44    0.80
   1   5   0   48.97    0.82
  -1  -5  -1  184.71    1.41
  -1  -5  -1  164.12    1.39
  -1  -5  -1  174.73    1.53
   1   5   1  193.83    1.65
   1   5   1  175.29    1.55
   1   5   1  169.64    1.48
   1   5   1  183.48    1.56
   1   5   1  165.02    1.45
   1   5   1  185.22    1.53
  -1  -5  -2   73.59    0.84
  -1  -5  -2   65.18    0.92
  -1  -5  -2   69.40    1.05
   1   5   2   78.22    1.12
   1   5   2   70.15    1.05
   1   5   2   72.16    0.95
   1   5   2   72.97    1.06
   1   5   2   71.54    0.99
   1   5   2   74.20    0.99
   1   5   2   78.52    0.62
   1   5   2   75.77    0.60
  -1  -5  -3   44.45    0.63
  -1  -5  -3   36.89    0.74
  -1  -5  -3   38.98    0.85
  -1  -5  -3   38.21    0.77
  -1  -5  -3   40.60    0.49
  -1  -5  -3   42.56    0.51
   1   5   3   45.48    0.92
   1   5   3   40.07    0.85
   1   5   3   41.03    0.77
   1   5   3   41.49    0.86
   1   5   3   42.67    0.81
   1   5   3   45.32    0.60
   1   5   3   44.08    0.59
  -1  -5  -4  142.73    1.24
  -1  -5  -4  105.58    1.26
  -1  -5  -4  112.72    1.47
  -1  -5  -4  107.56    1.26
  -1  -5  -4  113.82    0.98
  -1  -5  -4  120.68    1.03
   1   5   4  127.67    1.56
   1   5   4  110.57    1.44
   1   5   4  122.08    1.33
   1   5   4  121.51    1.50
   1   5   4  121.41    1.35
   1   5   4  125.70    1.13
   1   5   4  126.19    1.12
  -1  -5  -5  131.88    1.48
  -1  -5  -5  139.34    1.71
  -1  -5  -5  136.66    1.49
  -1  -5  -5  141.40    1.27
  -1  -5  -5  149.06    1.31
   1   5   5  160.71    1.83
   1   5   5  137.32    1.68
   1   5   5  156.48    1.59
   1   5   5  143.74    1.72
   1   5   5  152.79    1.58
   1   5   5  138.37    1.67
   1   5   5  155.12    1.41
  -1  -5  -6   15.14    0.65
  -1  -5  -6   14.40    0.71
  -1  -5  -6   15.12    0.66
  -1  -5  -6   14.56    0.55
  -1  -5  -6   17.06    0.60
   1   5   6   18.80    0.76
   1   5   6   17.13    0.69
   1   5   6   16.70    0.78
   1   5   6   17.57    0.71
   1   5   6   16.81    0.63
   1   5   6   18.47    0.61
  -1  -5  -7   45.03    1.06
  -1  -5  -7   48.09    1.19
  -1  -5  -7   44.60    1.03
  -1  -5  -7   44.83    1.13
  -1  -5  -7   50.49    1.00
   1   5   7   57.10    1.26
   1   5   7   52.40    1.11
   1   5   7   54.36    1.13
   1   5   7   53.40    1.07
   1   5   7   57.52    1.08
  -1  -5  -8    2.73    0.43
  -1  -5  -8    1.60    0.39
  -1  -5  -8    1.72    0.40
  -1  -5  -8    2.41    0.39
   1   5   8    3.00    0.47
   1   5   8    1.52    0.40
   1   5   8    1.86    0.41
   1   5   8    2.55    0.43
   1   5   8    2.71    0.41
  -1  -5  -9   26.57    1.02
  -1  -5  -9   30.46    1.13
  -1  -5  -9   25.41    1.21
  -1  -5  -9   33.47    1.06
   1   5   9   36.06    1.18
   1   5   9   32.49    1.24
   1   5   9   33.32    1.11
   1   5   9   36.45    1.07
  -1  -5 -10    0.12    0.44
  -1  -5 -10    0.27    0.49
   1   5  10    0.07    0.40
   1   5  10   -0.17    0.43
   1   5  10   -0.57    0.37
  -1  -5 -11   10.11    1.01
  -1  -5 -11   12.01    1.11
   1   5  11   13.60    1.05
   1   5  11   12.32    1.05
   1   5  11   13.94    1.03
  -1  -5 -12    1.02    0.67
  -1  -5 -12    0.66    0.67
   1   5  12    2.22    0.64
   1   5  12    0.97    0.66
   1   5  12    0.83    0.58
  -1  -6  11    2.47    0.60
  -1  -6  11    2.44    0.66
   1   6 -11    1.30    0.59
   1   6 -11    3.67    0.59
  -1  -6  10   27.34    0.79
  -1  -6  10   33.47    1.23
  -1  -6  10   29.67    1.26
   1   6 -10   32.56    1.30
   1   6 -10   32.17    1.15
  -1  -6   9    9.79    0.58
  -1  -6   9   12.22    0.87
  -1  -6   9   10.27    0.87
   1   6  -9   10.86    0.87
   1   6  -9   13.20    0.57
   1   6  -9   10.13    0.75
  -1  -6   8   82.08    1.07
  -1  -6   8   95.67    1.76
  -1  -6   8   91.95    1.03
  -1  -6   8   85.33    1.70
  -1  -6   8   96.26    1.48
   1   6  -8  105.41    1.24
   1   6  -8  108.21    1.83
   1   6  -8  108.55    1.07
   1   6  -8   84.55    1.45
   1   6  -8   89.18    1.43
  -1  -6   7   37.25    0.76
  -1  -6   7   41.39    1.16
  -1  -6   7   44.60    0.74
  -1  -6   7   40.21    1.15
  -1  -6   7   44.31    0.97
   1   6  -7   50.26    0.90
   1   6  -7   50.03    1.23
   1   6  -7   52.24    0.77
   1   6  -7   36.74    0.68
   1   6  -7   40.77    0.98
   1   6  -7   39.05    0.92
  -1  -6   6   76.97    1.02
  -1  -6   6   85.41    1.52
  -1  -6   6   80.21    1.42
  -1  -6   6   90.17    1.15
   1   6  -6  104.33    1.19
   1   6  -6  101.97    1.60
   1   6  -6  110.66    1.06
   1   6  -6   79.91    0.91
   1   6  -6   84.10    1.19
   1   6  -6   80.35    1.16
  -1  -6   5   84.27    1.06
  -1  -6   5   91.23    1.52
  -1  -6   5   93.92    1.43
  -1  -6   5   87.99    1.48
  -1  -6   5   89.76    1.00
  -1  -6   5   89.84    1.18
   1   6  -5  108.98    1.20
   1   6  -5  110.47    1.56
   1   6  -5  119.03    1.11
   1   6  -5   85.34    0.94
   1   6  -5  100.68    1.55
   1   6  -5   89.23    1.10
   1   6  -5   86.23    1.07
  -1  -6   4   27.18    0.67
  -1  -6   4   28.31    0.89
  -1  -6   4   29.59    0.84
  -1  -6   4   27.95    0.88
  -1  -6   4   30.10    0.51
  -1  -6   4   30.86    0.53
   1   6  -4   33.52    0.73
   1   6  -4   34.41    0.89
   1   6  -4   35.46    0.68
   1   6  -4   25.18    0.68
   1   6  -4   32.27    0.90
   1   6  -4   27.86    0.59
   1   6  -4   26.80    0.55
  -1  -6   3  188.03    1.60
  -1  -6   3  205.87    2.04
  -1  -6   3  205.66    1.87
  -1  -6   3  201.12    1.99
  -1  -6   3  209.88    0.93
  -1  -6   3  211.64    0.94
   1   6  -3  217.25    1.70
   1   6  -3  231.14    1.99
   1   6  -3  183.69    1.77
   1   6  -3  237.33    1.63
   1   6  -3  191.72    1.46
   1   6  -3  226.16    2.09
   1   6  -3  195.49    1.19
   1   6  -3  186.58    1.16
  -1  -6   2    4.79    0.42
  -1  -6   2    5.52    0.47
  -1  -6   2    5.41    0.50
   1   6  -2    5.89    0.44
   1   6  -2    6.00    0.46
   1   6  -2    5.14    0.46
   1   6  -2    6.25    0.42
   1   6  -2    5.38    0.38
   1   6  -2    6.28    0.49
   1   6  -2    5.40    0.22
   1   6  -2    5.27    0.21
  -1  -6   1  197.20    1.73
  -1  -6   1  205.45    1.86
   1   6  -1  212.67    1.78
   1   6  -1  221.78    1.80
   1   6  -1  187.83    1.66
   1   6  -1  228.39    1.75
   1   6  -1  195.53    1.59
   1   6  -1  177.36    1.75
   1   6  -1  222.49    1.94
  -1  -6   0   65.53    1.06
  -1  -6   0   70.63    1.07
   1   6   0   74.19    1.12
   1   6   0   69.65    1.09
   1   6   0   71.67    1.04
   1   6   0   63.91    0.98
   1   6   0   75.80    1.09
   1   6   0   67.52    1.02
   1   6   0   64.40    1.07
   1   6   0   73.01    1.12
  -1  -6  -1  106.26    1.22
  -1  -6  -1   92.29    1.25
   1   6   1  105.01    1.37
   1   6   1   95.80    1.29
   1   6   1  101.06    1.21
   1   6   1   95.25    1.17
   1   6   1   97.96    1.27
   1   6   1   94.82    1.27
   1   6   1  102.41    1.30
  -1  -6  -2   71.89    0.96
  -1  -6  -2   57.71    0.95
  -1  -6  -2   63.03    1.10
   1   6   2   68.10    1.17
   1   6   2   63.25    1.10
   1   6   2   66.99    1.01
   1   6   2   64.57    1.10
   1   6   2   62.74    1.06
   1   6   2   69.71    1.10
   1   6   2   68.66    0.57
   1   6   2   69.30    0.57
  -1  -6  -3   60.70    0.83
  -1  -6  -3   48.35    0.91
  -1  -6  -3   51.36    1.07
  -1  -6  -3   49.52    0.96
  -1  -6  -3   51.00    0.47
  -1  -6  -3   56.61    0.50
   1   6   3   58.33    1.13
   1   6   3   53.49    1.07
   1   6   3   54.89    0.95
   1   6   3   55.56    1.08
   1   6   3   55.77    1.02
   1   6   3   54.30    1.00
   1   6   3   57.62    0.68
   1   6   3   57.55    0.66
  -1  -6  -4  128.28    1.03
  -1  -6  -4   98.63    1.30
  -1  -6  -4  103.88    1.53
  -1  -6  -4  104.02    1.38
  -1  -6  -4  106.08    0.90
  -1  -6  -4  114.62    0.95
   1   6   4  125.41    1.69
   1   6   4  103.33    1.52
   1   6   4  115.24    1.38
   1   6   4  114.35    1.57
   1   6   4  118.93    1.49
   1   6   4  121.27    1.12
   1   6   4  117.96    1.09
  -1  -6  -5    5.52    0.53
  -1  -6  -5    6.31    0.60
  -1  -6  -5    6.38    0.56
  -1  -6  -5    6.02    0.35
  -1  -6  -5    5.45    0.49
   1   6   5    8.16    0.61
   1   6   5    5.29    0.59
   1   6   5    7.12    0.57
   1   6   5    6.01    0.59
   1   6   5    7.31    0.59
   1   6   5    7.20    0.45
   1   6   5    6.76    0.40
  -1  -6  -6    6.07    0.58
  -1  -6  -6    5.46    0.63
  -1  -6  -6    6.10    0.61
  -1  -6  -6    7.05    0.48
   1   6   6    6.76    0.71
   1   6   6    6.80    0.61
   1   6   6    7.34    0.63
   1   6   6    6.79    0.52
   1   6   6    7.14    0.47
  -1  -6  -7   32.64    0.97
  -1  -6  -7   35.25    1.10
  -1  -6  -7   34.87    1.05
  -1  -6  -7   39.08    0.92
   1   6   7   44.23    1.21
   1   6   7   38.78    1.06
   1   6   7   40.18    1.08
   1   6   7   40.85    0.99
   1   6   7   43.26    0.96
  -1  -6  -8   52.28    1.27
  -1  -6  -8   53.89    1.41
  -1  -6  -8   55.75    1.54
  -1  -6  -8   60.20    1.21
   1   6   8   67.21    1.52
   1   6   8   63.61    1.64
   1   6   8   61.78    1.41
   1   6   8   61.00    1.29
   1   6   8   65.90    1.25
  -1  -6  -9    1.61    0.48
  -1  -6  -9    1.61    0.54
   1   6   9    1.54    0.48
   1   6   9    0.71    0.49
   1   6   9    1.79    0.43
  -1  -6 -10   15.55    1.05
  -1  -6 -10   18.54    1.14
   1   6  10   20.29    1.13
   1   6  10   18.61    1.12
   1   6  10   20.03    0.99
  -1  -6 -11    3.17    0.69
  -1  -6 -11    2.27    0.67
   1   6  11    4.62    0.76
   1   6  11    3.85    0.72
   1   6  11    3.22    0.61
  -1  -7  10    4.44    0.64
  -1  -7  10    3.38    0.63
   1   7 -10    4.18    0.75
   1   7 -10    3.40    0.52
  -1  -7   9   24.76    0.81
  -1  -7   9   28.77    1.19
  -1  -7   9   27.00    1.20
   1   7  -9   29.36    1.28
   1   7  -9   23.03    0.92
  -1  -7   8   16.20    0.70
  -1  -7   8   18.32    0.97
  -1  -7   8   19.22    1.01
   1   7  -8   22.67    1.09
   1   7  -8   20.37    0.58
   1   7  -8   16.05    0.87
   1   7  -8   15.48    0.72
  -1  -7   7   25.80    0.75
  -1  -7   7   30.03    1.10
  -1  -7   7   28.02    1.11
  -1  -7   7   29.28    0.84
   1   7  -7   35.35    0.93
   1   7  -7   34.57    1.15
   1   7  -7   36.48    0.69
   1   7  -7   25.65    0.63
   1   7  -7   28.40    0.89
   1   7  -7   27.68    0.79
  -1  -7   6   53.47    0.98
  -1  -7   6   60.98    1.40
  -1  -7   6   54.55    1.36
  -1  -7   6   58.58    0.94
   1   7  -6   70.25    1.13
   1   7  -6   69.32    1.43
   1   7  -6   75.83    0.94
   1   7  -6   51.39    0.91
   1   7  -6   55.38    1.01
   1   7  -6   51.78    0.93
  -1  -7   5   17.37    0.65
  -1  -7   5   19.34    0.87
  -1  -7   5   16.70    0.83
  -1  -7   5   18.15    0.88
  -1  -7   5   20.30    0.53
   1   7  -5   22.93    0.74
   1   7  -5   23.24    0.88
   1   7  -5   25.09    0.66
   1   7  -5   18.25    0.58
   1   7  -5   18.92    0.60
   1   7  -5   18.36    0.55
  -1  -7   4   78.49    1.17
  -1  -7   4   83.53    1.51
  -1  -7   4   83.41    1.38
  -1  -7   4   81.64    1.50
  -1  -7   4   80.59    0.69
  -1  -7   4   86.98    0.72
   1   7  -4   96.80    1.30
   1   7  -4  100.36    1.50
   1   7  -4   75.03    1.33
   1   7  -4  105.77    1.17
   1   7  -4   79.59    1.02
   1   7  -4   84.86    1.57
   1   7  -4   83.05    0.93
  -1  -7   3  133.77    1.52
  -1  -7   3  142.59    1.86
  -1  -7   3  142.18    1.85
   1   7  -3  155.77    1.63
   1   7  -3  165.18    1.81
   1   7  -3  125.01    1.59
   1   7  -3  169.08    1.51
   1   7  -3  135.95    1.35
   1   7  -3  148.56    1.89
   1   7  -3  138.63    0.99
   1   7  -3  128.56    0.94
  -1  -7   2  247.44    2.09
  -1  -7   2  264.81    2.39
  -1  -7   2  262.22    2.39
   1   7  -2  274.70    2.18
   1   7  -2  295.37    2.31
   1   7  -2  237.57    2.07
   1   7  -2  294.92    2.06
   1   7  -2  252.28    1.89
   1   7  -2  236.19    2.27
   1   7  -2  271.38    2.41
   1   7  -2  255.40    0.96
   1   7  -2  228.54    0.90
  -1  -7   1    5.82    0.50
  -1  -7   1    5.88    0.53
   1   7  -1    5.42    0.54
   1   7  -1    5.17    0.51
   1   7  -1    5.17    0.52
   1   7  -1    6.12    0.52
   1   7  -1    6.32    0.50
   1   7  -1    4.60    0.54
   1   7  -1    6.50    0.59
  -1  -7   0  104.74    1.47
   1   7   0  114.50    1.53
   1   7   0   99.61    1.42
   1   7   0  110.60    1.38
   1   7   0   96.25    1.30
   1   7   0  114.05    1.44
   1   7   0   98.60    1.33
   1   7   0   92.09    1.40
   1   7   0  100.54    1.45
  -1  -7  -1   63.93    1.08
  -1  -7  -1   56.25    1.10
   1   7   1   62.29    1.20
   1   7   1   57.74    1.16
   1   7   1   62.80    1.06
   1   7   1   55.93    1.00
   1   7   1   58.27    1.12
   1   7   1   57.67    1.13
   1   7   1   59.58    1.15
  -1  -7  -2   11.41    0.57
  -1  -7  -2    8.98    0.56
  -1  -7  -2   10.37    0.63
   1   7   2   11.73    0.67
   1   7   2    9.11    0.65
   1   7   2   10.53    0.57
   1   7   2    9.81    0.56
   1   7   2   10.75    0.66
   1   7   2   10.83    0.65
   1   7   2   11.68    0.67
   1   7   2   10.49    0.26
   1   7   2   11.65    0.25
  -1  -7  -3   81.87    1.06
  -1  -7  -3   65.97    1.11
  -1  -7  -3   67.73    1.29
   1   7   3   77.51    1.40
   1   7   3   70.31    1.57
   1   7   3   73.14    1.17
   1   7   3   71.15    1.34
   1   7   3   70.85    1.27
   1   7   3   69.31    1.24
   1   7   3   75.53    0.75
   1   7   3   75.86    0.74
  -1  -7  -4    8.23    0.49
  -1  -7  -4    6.66    0.58
  -1  -7  -4    6.25    0.66
  -1  -7  -4    5.63    0.61
  -1  -7  -4    6.17    0.28
  -1  -7  -4    7.27    0.30
   1   7   4    7.10    0.62
   1   7   4    7.36    0.60
   1   7   4    6.79    0.65
   1   7   4    7.18    0.42
   1   7   4    6.46    0.48
  -1  -7  -5  215.71    2.06
  -1  -7  -5  220.63    2.53
  -1  -7  -5  212.44    2.18
  -1  -7  -5  245.77    1.53
   1   7   5  278.79    2.76
   1   7   5  251.84    2.22
   1   7   5  260.69    2.41
   1   7   5  256.15    1.82
   1   7   5  261.51    1.82
  -1  -7  -6   21.69    0.84
  -1  -7  -6   22.39    1.01
  -1  -7  -6   20.67    0.93
  -1  -7  -6   24.98    0.69
   1   7   6   27.88    1.03
   1   7   6   25.22    0.92
   1   7   6   26.66    0.99
   1   7   6   25.37    0.77
   1   7   6   26.08    0.70
  -1  -7  -7   27.13    0.98
  -1  -7  -7   29.10    1.15
  -1  -7  -7   30.88    0.86
   1   7   7   34.63    1.18
   1   7   7   32.00    1.12
   1   7   7   32.28    1.15
   1   7   7   34.74    0.97
   1   7   7   33.52    0.87
  -1  -7  -8   13.03    0.89
  -1  -7  -8   13.78    0.99
   1   7   8   14.78    0.98
   1   7   8   15.53    1.02
   1   7   8   14.58    0.87
   1   7   8   14.85    0.72
  -1  -7  -9    4.50    0.65
  -1  -7  -9    4.37    0.63
   1   7   9    5.12    0.72
   1   7   9    5.52    0.75
   1   7   9    5.76    0.69
  -1  -7 -10   10.11    1.07
  -1  -7 -10   14.64    1.18
   1   7  10   14.36    1.10
   1   7  10    9.86    1.16
   1   7  10   14.30    0.92
  -1  -8   9    1.04    0.56
  -1  -8   9    0.47    0.58
   1   8  -9    0.16    0.64
   1   8  -9    0.92    0.37
  -1  -8   8    6.24    0.71
  -1  -8   8    6.34    0.79
  -1  -8   8    3.62    0.63
   1   8  -8    9.37    1.03
   1   8  -8    4.45    0.46
  -1  -8   7   23.10    0.84
  -1  -8   7   25.84    1.11
  -1  -8   7   21.32    1.15
  -1  -8   7   22.68    0.89
   1   8  -7   29.04    1.19
   1   8  -7   21.73    0.87
   1   8  -7   22.11    0.77
  -1  -8   6    1.39    0.38
  -1  -8   6    1.01    0.43
  -1  -8   6    1.12    0.49
  -1  -8   6    0.98    0.31
   1   8  -6    1.39    0.48
   1   8  -6    1.59    0.47
   1   8  -6    1.51    0.32
   1   8  -6    1.16    0.34
   1   8  -6    0.69    0.24
  -1  -8   5   74.92    1.27
  -1  -8   5   83.82    1.69
  -1  -8   5   79.34    1.64
  -1  -8   5   79.66    0.74
   1   8  -5   94.66    1.45
   1   8  -5   99.55    1.67
   1   8  -5  106.37    1.21
   1   8  -5   79.90    1.09
   1   8  -5   80.31    1.05
   1   8  -5   74.85    0.99
  -1  -8   4   24.38    0.84
  -1  -8   4   26.77    1.00
  -1  -8   4   24.77    1.03
   1   8  -4   26.47    0.91
   1   8  -4   27.79    0.98
   1   8  -4   21.43    1.00
   1   8  -4   30.38    0.79
   1   8  -4   24.37    0.74
   1   8  -4   24.41    0.55
   1   8  -4   22.66    0.52
  -1  -8   3    0.20    0.31
  -1  -8   3    0.52    0.38
  -1  -8   3    0.20    0.38
   1   8  -3   -0.48    0.33
   1   8  -3    0.37    0.33
   1   8  -3   -0.28    0.38
   1   8  -3    0.64    0.30
   1   8  -3   -0.15    0.32
   1   8  -3    0.73    0.35
   1   8  -3    0.09    0.15
   1   8  -3    0.50    0.13
  -1  -8   2    0.74    0.35
  -1  -8   2    1.32    0.40
   1   8  -2    1.80    0.42
   1   8  -2    0.71    0.33
   1   8  -2    0.45    0.38
   1   8  -2    0.68    0.34
   1   8  -2    1.18    0.35
   1   8  -2    0.57    0.33
  -1  -8   1   52.60    1.16
  -1  -8   1   56.66    1.23
   1   8  -1   58.82    1.23
   1   8  -1   51.33    1.18
   1   8  -1   57.86    1.15
   1   8  -1   48.38    1.11
   1   8  -1   59.50    1.14
   1   8  -1   50.88    1.07
   1   8  -1   44.88    1.24
   1   8  -1   52.17    1.47
  -1  -8   0   95.10    1.48
   1   8   0   94.87    1.53
   1   8   0   85.50    1.49
   1   8   0   97.32    1.40
   1   8   0   85.64    1.36
   1   8   0   98.87    1.47
   1   8   0   85.53    1.38
   1   8   0   82.99    1.47
   1   8   0   85.08    1.50
  -1  -8  -1    8.15    0.59
  -1  -8  -1    6.87    0.64
   1   8   1    9.69    0.68
   1   8   1    7.89    0.58
   1   8   1    7.97    0.64
   1   8   1    9.10    0.67
   1   8   1    6.86    0.70
   1   8   1    7.23    0.67
   1   8   1    7.70    0.74
  -1  -8  -2   26.08    0.95
   1   8   2   27.42    0.84
   1   8   2   26.44    0.86
   1   8   2   28.63    1.65
   1   8   2   27.01    0.95
   1   8   2   25.57    0.98
  -1  -8  -3    1.02    0.35
  -1  -8  -3    0.56    0.32
  -1  -8  -3    1.03    0.48
   1   8   3    1.53    0.41
   1   8   3    0.40    0.37
   1   8   3    0.90    0.39
   1   8   3    0.53    0.45
   1   8   3    1.17    0.18
   1   8   3    1.10    0.17
  -1  -8  -4   64.60    1.02
  -1  -8  -4   45.12    1.08
  -1  -8  -4   46.45    1.26
   1   8   4   56.64    1.38
   1   8   4   53.64    1.16
   1   8   4   50.89    2.10
   1   8   4   51.75    0.75
   1   8   4   52.42    0.73
  -1  -8  -5   18.40    0.87
  -1  -8  -5   18.94    0.99
  -1  -8  -5   19.85    0.48
   1   8   5   21.67    0.99
   1   8   5   19.32    0.93
   1   8   5   21.24    0.99
   1   8   5   20.82    0.65
   1   8   5   21.04    0.60
  -1  -8  -6   14.46    0.85
  -1  -8  -6   15.77    0.99
  -1  -8  -6   17.38    0.63
   1   8   6   21.44    1.02
   1   8   6   16.62    0.98
   1   8   6   19.06    0.99
   1   8   6   18.59    0.75
   1   8   6   18.14    0.63
  -1  -8  -7   14.69    0.96
  -1  -8  -7   13.54    1.06
   1   8   7   19.63    1.04
   1   8   7   20.35    1.10
   1   8   7   19.18    0.88
   1   8   7   19.89    0.74
  -1  -8  -8    1.26    0.53
  -1  -8  -8    1.10    0.57
   1   8   8    4.05    0.63
   1   8   8    2.08    0.68
   1   8   8    3.01    0.44
  -1  -8  -9   11.15    1.13
  -1  -8  -9   14.88    1.23
   1   8   9   17.62    1.18
   1   8   9   13.91    1.33
   1   8   9   15.34    0.86
  -1  -9   8    1.09    0.67
   1   9  -8    1.72    0.70
   1   9  -8    0.72    0.46
  -1  -9   7   -0.04    0.48
  -1  -9   7   -0.58    0.45
  -1  -9   7   -0.58    0.53
   1   9  -7   -0.78    0.53
   1   9  -7   -0.08    0.34
  -1  -9   6    6.18    0.62
  -1  -9   6    6.29    0.78
  -1  -9   6    3.70    0.67
   1   9  -6    5.46    0.71
   1   9  -6    5.85    0.59
   1   9  -6    5.45    0.50
  -1  -9   5    0.32    0.42
  -1  -9   5   -0.34    0.41
  -1  -9   5    0.31    0.46
   1   9  -5   -0.12    0.42
   1   9  -5    0.33    0.36
   1   9  -5   -0.30    0.26
   1   9  -5    0.58    0.24
  -1  -9   4   11.19    0.80
  -1  -9   4   10.37    0.86
  -1  -9   4   12.00    0.97
   1   9  -4   13.80    0.91
   1   9  -4   13.89    0.74
   1   9  -4   12.33    0.94
   1   9  -4   11.12    0.44
   1   9  -4   10.80    0.38
  -1  -9   3    2.83    0.50
  -1  -9   3    3.14    0.52
   1   9  -3    4.86    0.52
   1   9  -3    3.56    0.52
   1   9  -3    3.18    0.57
  -1  -9   2   13.92    0.83
  -1  -9   2   16.10    0.87
   1   9  -2   18.05    0.94
   1   9  -2   18.61    0.90
   1   9  -2   13.97    0.99
   1   9  -2   17.05    0.83
   1   9  -2   14.05    0.87
   1   9  -2   12.83    0.89
  -1  -9   1   21.26    0.91
   1   9  -1   19.26    0.97
   1   9  -1   23.32    0.92
   1   9  -1   19.52    1.01
   1   9  -1   21.39    0.92
   1   9  -1   17.28    0.93
   1   9  -1   17.70    0.95
  -1  -9   0    0.25    0.35
   1   9   0    0.12    0.41
   1   9   0    0.32    0.35
   1   9   0   -0.67    0.41
   1   9   0   -0.64    0.36
   1   9   0    0.30    0.49
   1   9   0   -0.02    0.41
  -1  -9  -1   22.62    0.90
   1   9   1   20.37    0.97
   1   9   1   20.97    0.87
   1   9   1   16.53    0.90
   1   9   1   21.11    0.98
   1   9   1   19.98    0.98
  -1  -9  -2   21.78    0.87
  -1  -9  -2   18.50    0.95
   1   9   2   19.20    0.98
   1   9   2   19.50    0.87
   1   9   2   18.21    0.93
   1   9   2   18.65    0.97
   1   9   2   19.40    1.01
  -1  -9  -3   10.10    0.72
  -1  -9  -3    8.72    0.89
   1   9   3    9.00    0.85
   1   9   3    9.82    0.76
   1   9   3    8.68    0.87
   1   9   3    8.41    0.90
  -1  -9  -4   15.38    0.87
  -1  -9  -4   14.51    1.01
   1   9   4   16.36    0.98
   1   9   4   16.56    1.23
   1   9   4   15.54    0.87
   1   9   4   13.35    0.96
   1   9   4   14.94    1.05
   1   9   4   16.23    0.49
   1   9   4   16.39    0.45
  -1  -9  -5    2.74    0.53
  -1  -9  -5    4.07    0.64
   1   9   5    4.01    0.61
   1   9   5    3.88    0.70
   1   9   5    3.70    0.64
   1   9   5    4.83    0.50
   1   9   5    3.45    0.42
  -1  -9  -6   17.45    1.03
  -1  -9  -6   17.24    1.16
   1   9   6   19.93    1.15
   1   9   6   19.62    1.17
   1   9   6   18.70    0.76
   1   9   6   17.96    0.66
  -1  -9  -7    2.11    0.61
  -1  -9  -7    1.89    0.65
   1   9   7    2.60    0.61
   1   9   7    2.28    0.70
   1   9   7    2.26    0.39
  -1 -10   6    3.87    0.81
   1  10  -6    5.32    0.53
  -1 -10   5    0.24    0.56
  -1 -10   5    0.46    0.51
   1  10  -5    0.94    0.59
   1  10  -5    0.79    0.61
   1  10  -5    0.17    0.63
   1  10  -5    0.23    0.27
   1  10  -5   -0.43    0.22
  -1 -10   4   -0.39    0.53
  -1 -10   4    0.91    0.50
   1  10  -4    1.33    0.55
   1  10  -4    0.04    0.52
   1  10  -4    0.61    0.61
  -1 -10   3   -0.42    0.43
   1  10  -3    0.41    0.55
   1  10  -3   -0.60    0.50
   1  10  -3    0.04    0.50
   1  10  -3   -0.56    0.50
  -1 -10   2   -0.79    0.44
   1  10  -2   -0.10    0.53
   1  10  -2   -0.67    0.44
   1  10  -2    0.47    0.49
   1  10  -2    0.38    0.52
  -1 -10   1    2.52    0.51
   1  10  -1    2.19    0.56
   1  10  -1    1.96    0.64
   1  10  -1    2.59    0.61
   1  10  -1    2.01    0.58
  -1 -10   0    0.30    0.45
   1  10   0    0.15    0.49
   1  10   0   -0.18    0.46
   1  10   0   -0.31    0.46
   1  10   0   -0.11    0.50
  -1 -10  -1   10.69    0.90
   1  10   1   10.42    0.98
   1  10   1   10.64    0.91
   1  10   1    9.01    0.99
   1  10   1    9.56    1.00
  -1 -10  -2    1.91    0.51
   1  10   2    1.86    0.58
   1  10   2    1.53    0.50
   1  10   2    2.05    0.61
   1  10   2    1.99    0.63
  -1 -10  -3    7.29    0.87
  -1 -10  -3    5.55    0.76
   1  10   3    6.24    0.74
   1  10   3    7.22    0.71
   1  10   3    6.56    0.66
   1  10   3    5.04    0.73
   1  10   3    6.02    0.84
  -1 -10  -4    0.63    0.64
   1  10   4    0.62    0.55
   1  10   4    0.88    0.62
   1  10   4    0.03    0.66
  -1 -10  -5   -0.45    0.63
   1  10   5    0.14    0.67
   1  10   5   -0.88    0.57
   1  10   5    0.05    0.67
   1  10   5    0.30    0.29
   1  10   5    0.66    0.25
   1  11   0    2.68    0.76
   1  11   0    3.77    0.79
   1  11   0    4.31    0.78
  -2  10   0   15.91    1.61
  -2  10   0   12.14    0.62
   2 -10   0   13.62    1.31
   2 -10   0   14.06    1.21
  -2  10  -1    4.42    1.10
  -2  10  -1    4.46    0.54
  -2   9   5   23.61    1.30
  -2   9   5   20.42    1.46
  -2   9   5   21.48    0.88
   2  -9  -5   16.72    1.34
  -2   9   4    3.90    0.73
  -2   9   4    4.78    0.76
  -2   9   4    3.95    0.47
   2  -9  -4    2.36    0.69
  -2   9   3   35.56    1.40
  -2   9   3   31.78    1.16
  -2   9   3   27.15    1.41
  -2   9   3   34.14    1.55
  -2   9   3   31.46    0.85
   2  -9  -3   30.73    1.38
   2  -9  -3   29.63    1.31
  -2   9   2    3.32    0.62
  -2   9   2    1.48    0.56
  -2   9   2    1.79    0.66
  -2   9   2    1.52    0.38
  -2   9   2    1.36    0.31
   2  -9  -2    1.68    0.57
   2  -9  -2    1.60    0.56
  -2   9   1   14.66    0.99
  -2   9   1   15.33    1.18
  -2   9   1   15.54    0.70
  -2   9   1   13.50    0.59
   2  -9  -1   15.29    1.11
  -2   9   0   11.83    0.91
  -2   9   0   12.30    1.07
  -2   9   0   12.88    0.66
  -2   9   0   11.11    0.56
   2  -9   0   11.63    1.05
   2  -9   0   12.63    0.89
  -2   9  -1   11.40    0.93
  -2   9  -1    8.54    1.05
  -2   9  -1   12.42    0.65
  -2   9  -1   10.41    0.55
   2  -9   1    8.59    0.98
   2  -9   1   11.14    0.83
  -2   9  -2   30.88    1.24
  -2   9  -2   30.14    1.38
  -2   9  -2   37.41    0.91
  -2   9  -2   28.49    0.75
   2  -9   2   30.03    1.28
  -2   9  -3    0.92    0.52
  -2   9  -3    1.77    0.59
  -2   9  -3    0.82    0.37
  -2   9  -3    1.21    0.31
   2  -9   3    1.17    0.59
  -2   9  -4    3.44    0.66
  -2   9  -4    2.52    0.70
  -2   9  -4    2.43    0.38
   2  -9   4    2.10    0.60
  -2   9  -5    4.03    0.69
  -2   9  -5    2.85    0.66
  -2   9  -5    3.55    0.42
   2  -9   5    4.72    0.73
  -2   9  -6   16.40    1.27
  -2   9  -6   14.66    1.80
  -2   9  -6   15.17    0.92
   2  -9   6   17.39    1.22
  -2   8   7    3.33    0.72
  -2   8   7    3.82    0.76
  -2   8   7    3.27    0.52
   2  -8  -7    4.17    0.75
  -2   8   6   17.98    1.17
  -2   8   6   16.86    1.20
  -2   8   6   16.79    0.82
   2  -8  -6   16.35    1.17
  -2   8   5    3.56    0.61
  -2   8   5    3.20    0.71
  -2   8   5    3.36    0.42
   2  -8  -5    3.74    0.64
  -2   8   4   72.73    1.68
  -2   8   4   65.60    1.25
  -2   8   4   64.22    1.67
  -2   8   4   63.16    1.23
  -2   8   4   64.64    1.16
   2  -8  -4   56.27    1.51
  -2   8   3    1.50    0.46
  -2   8   3    1.65    0.49
  -2   8   3    0.82    0.53
  -2   8   3    1.82    0.39
  -2   8   3    1.31    0.29
   2  -8  -3    0.94    0.42
   2  -8  -3    1.85    0.51
   2  -8  -3    1.70    0.37
  -2   8   2   35.04    1.06
  -2   8   2   38.40    0.80
  -2   8   2   34.00    1.28
  -2   8   2   35.28    0.86
  -2   8   2   33.10    0.78
   2  -8  -2   33.72    1.23
   2  -8  -2   31.56    1.09
   2  -8  -2   36.11    0.76
  -2   8   1   13.93    0.86
  -2   8   1   18.16    0.46
  -2   8   1   16.35    1.04
  -2   8   1   13.10    0.95
  -2   8   1   16.45    0.66
  -2   8   1   13.99    0.56
   2  -8  -1   13.52    0.95
   2  -8  -1   14.61    0.85
   2  -8  -1   15.44    0.58
  -2   8   0   33.46    1.07
  -2   8   0   39.25    0.65
  -2   8   0   33.39    0.67
  -2   8   0   40.40    1.15
  -2   8   0   33.89    1.20
  -2   8   0   38.74    0.85
  -2   8   0   32.42    0.74
   2  -8   0   34.09    1.19
   2  -8   0   31.97    0.96
   2  -8   0   35.93    0.67
  -2   8  -1   28.81    1.06
  -2   8  -1   34.15    0.70
  -2   8  -1   28.36    0.68
  -2   8  -1   35.79    1.02
  -2   8  -1   28.48    1.16
  -2   8  -1   33.07    0.81
  -2   8  -1   26.06    0.68
   2  -8   1   28.33    1.11
   2  -8   1   28.25    0.85
   2  -8   1   30.89    0.66
  -2   8  -2    2.14    0.49
  -2   8  -2    2.86    0.36
  -2   8  -2    2.58    0.38
  -2   8  -2    3.61    0.42
  -2   8  -2    4.83    0.50
  -2   8  -2    2.39    0.56
  -2   8  -2    3.63    0.40
  -2   8  -2    2.94    0.32
   2  -8   2    2.88    0.50
   2  -8   2    2.78    0.33
  -2   8  -3   73.16    1.62
  -2   8  -3   79.78    1.17
  -2   8  -3   65.99    1.17
  -2   8  -3   86.66    1.04
  -2   8  -3   68.42    1.63
  -2   8  -3   85.89    1.24
  -2   8  -3   68.22    1.07
   2  -8   3   69.20    1.54
   2  -8   3   77.68    1.01
  -2   8  -4   17.84    0.96
  -2   8  -4   18.80    0.80
  -2   8  -4   15.82    1.00
  -2   8  -4   20.18    0.79
  -2   8  -4   15.80    0.63
   2  -8   4   16.76    0.98
   2  -8   4   16.86    0.71
  -2   8  -5   19.98    1.06
  -2   8  -5   20.91    0.89
  -2   8  -5   16.97    1.08
  -2   8  -5   22.23    0.87
  -2   8  -5   16.96    0.71
   2  -8   5   17.00    0.99
   2  -8   5   20.48    1.01
  -2   8  -6   12.92    1.00
  -2   8  -6   14.99    0.96
  -2   8  -6   11.45    1.07
  -2   8  -6   12.00    0.70
   2  -8   6   11.20    0.94
  -2   8  -7   15.68    1.09
  -2   8  -7   18.72    1.12
  -2   8  -7   12.88    1.07
  -2   8  -7   11.87    0.78
   2  -8   7   11.36    1.02
   2  -8   7   14.62    1.20
  -2   8  -8   11.90    1.25
  -2   8  -8   10.22    0.91
  -2   8  -8   10.24    0.86
   2  -8   8    9.28    0.88
   2  -8   8   10.71    1.12
  -2   7   9    8.83    0.97
  -2   7   9    7.92    0.96
  -2   7   9    5.94    0.68
   2  -7  -9    7.46    0.92
  -2   7   8   -0.40    0.59
  -2   7   8   -0.62    0.62
  -2   7   8    0.29    0.42
   2  -7  -8   -1.17    0.58
  -2   7   7    0.89    0.52
  -2   7   7    0.71    0.52
  -2   7   7    0.29    0.37
   2  -7  -7    0.85    0.38
   2  -7  -7   -0.14    0.53
  -2   7   6   14.75    0.97
  -2   7   6   17.15    1.04
  -2   7   6   17.96    1.25
  -2   7   6   16.66    0.76
   2  -7  -6   14.91    0.65
   2  -7  -6   12.84    0.98
  -2   7   5    1.03    0.42
  -2   7   5    1.22    0.35
  -2   7   5    0.64    0.50
  -2   7   5    1.32    0.40
  -2   7   5    1.79    0.35
   2  -7  -5    1.31    0.29
   2  -7  -5    0.85    0.46
  -2   7   4    2.56    0.48
  -2   7   4    2.51    0.44
  -2   7   4    2.41    0.27
  -2   7   4    2.40    0.29
  -2   7   4    3.17    0.57
  -2   7   4    1.98    0.39
  -2   7   4    2.08    0.32
   2  -7  -4    1.77    0.43
   2  -7  -4    2.10    0.49
   2  -7  -4    2.61    0.46
  -2   7   3   29.52    0.87
  -2   7   3   29.74    0.52
  -2   7   3   26.33    0.53
  -2   7   3   30.40    1.14
  -2   7   3   28.51    0.81
  -2   7   3   28.17    0.76
   2  -7  -3   27.97    1.04
   2  -7  -3   25.71    0.97
   2  -7  -3   30.70    0.78
  -2   7   2    9.12    0.65
  -2   7   2    9.19    0.37
  -2   7   2    8.00    0.80
  -2   7   2    8.65    0.78
  -2   7   2    9.46    0.55
  -2   7   2    8.43    0.48
   2  -7  -2    8.78    0.72
   2  -7  -2    8.13    0.67
   2  -7  -2    9.68    0.55
  -2   7   1   20.04    0.82
  -2   7   1   20.95    0.55
  -2   7   1   18.37    0.43
  -2   7   1   19.86    0.85
  -2   7   1   18.75    0.91
  -2   7   1   20.85    0.64
  -2   7   1   16.80    0.56
   2  -7  -1   18.00    0.87
   2  -7  -1   17.54    0.76
   2  -7  -1   21.14    0.60
  -2   7   0    9.70    0.67
  -2   7   0   11.50    0.40
  -2   7   0    9.31    0.40
  -2   7   0   11.70    0.74
  -2   7   0    7.95    0.74
  -2   7   0   10.14    0.51
  -2   7   0    8.87    0.46
   2  -7   0    9.21    0.69
   2  -7   0    8.73    0.61
   2  -7   0   10.62    0.49
  -2   7  -1    1.06    0.39
  -2   7  -1    0.95    0.23
  -2   7  -1    1.32    0.27
  -2   7  -1    2.05    0.37
  -2   7  -1    0.47    0.34
  -2   7  -1    1.30    0.29
  -2   7  -1    0.70    0.22
   2  -7   1    0.66    0.28
   2  -7   1    0.99    0.26
  -2   7  -2   46.16    1.19
  -2   7  -2   53.73    0.84
  -2   7  -2   58.81    0.93
  -2   7  -2   42.64    1.21
  -2   7  -2   55.35    0.95
  -2   7  -2   43.80    0.82
   2  -7   2   40.95    1.76
   2  -7   2   46.43    0.82
   2  -7   2   49.84    0.82
  -2   7  -3   11.27    0.76
  -2   7  -3   12.27    0.58
  -2   7  -3   11.17    0.61
  -2   7  -3   12.39    0.49
  -2   7  -3   14.02    0.52
  -2   7  -3    8.92    0.75
  -2   7  -3   13.27    0.63
  -2   7  -3    9.50    0.48
   2  -7   3    9.94    1.20
   2  -7   3   11.04    0.55
  -2   7  -4   42.41    1.20
  -2   7  -4   47.59    0.98
  -2   7  -4   40.51    1.24
  -2   7  -4   50.36    1.02
  -2   7  -4   41.34    0.89
   2  -7   4   48.40    0.99
   2  -7   4   46.72    0.92
  -2   7  -5   10.16    0.79
  -2   7  -5    8.98    0.67
  -2   7  -5    9.51    0.83
  -2   7  -5   10.95    0.70
  -2   7  -5    9.28    0.56
   2  -7   5    9.80    0.84
   2  -7   5   11.96    0.82
   2  -7   5    9.12    0.72
   2  -7   5   10.58    0.67
  -2   7  -6   13.30    0.89
  -2   7  -6   16.80    0.86
  -2   7  -6   17.94    0.84
  -2   7  -6   13.36    0.69
   2  -7   6   15.22    0.91
   2  -7   6   18.32    0.97
   2  -7   6   13.41    0.86
   2  -7   6   15.08    0.94
   2  -7   6   15.60    0.84
  -2   7  -7    9.42    0.84
  -2   7  -7    7.73    0.66
   2  -7   7   10.01    0.86
   2  -7   7   10.90    0.88
   2  -7   7    8.38    0.92
  -2   7  -8    0.00    0.44
  -2   7  -8   -0.37    0.51
  -2   7  -8    0.40    0.39
   2  -7   8   -0.38    0.46
   2  -7   8    0.36    0.48
  -2   7  -9   27.81    1.26
  -2   7  -9   28.42    1.34
  -2   7  -9   29.13    1.13
   2  -7   9   22.43    1.23
   2  -7   9   29.00    1.39
  -2   6  10    0.63    0.63
  -2   6  10    0.52    0.68
  -2   6  10    1.29    0.58
   2  -6 -10   -0.24    0.55
   2  -6 -10    0.77    0.61
  -2   6   9    4.83    0.69
  -2   6   9    6.19    0.82
  -2   6   9    5.85    0.66
   2  -6  -9    5.32    0.58
   2  -6  -9    6.07    0.76
  -2   6   8    2.30    0.57
  -2   6   8    1.55    0.60
  -2   6   8    1.50    0.43
   2  -6  -8    1.14    0.42
   2  -6  -8    1.74    0.54
  -2   6   7    2.89    0.53
  -2   6   7    1.95    0.42
  -2   6   7    1.71    0.53
  -2   6   7    2.65    0.53
  -2   6   7    2.07    0.42
   2  -6  -7    2.92    0.38
   2  -6  -7    2.69    0.59
   2  -6  -7    2.32    0.49
  -2   6   6   29.67    1.10
  -2   6   6   27.56    0.75
  -2   6   6   27.78    1.08
  -2   6   6   26.38    0.96
  -2   6   6   25.35    0.86
   2  -6  -6   21.90    0.67
   2  -6  -6   23.24    1.03
   2  -6  -6   27.70    0.94
  -2   6   5    7.97    0.67
  -2   6   5    6.58    0.53
  -2   6   5    7.14    0.48
  -2   6   5    5.15    0.56
  -2   6   5    6.27    0.74
  -2   6   5    6.71    0.54
   2  -6  -5    5.23    0.45
   2  -6  -5    5.62    0.69
   2  -6  -5    7.40    0.63
  -2   6   4    1.52    0.40
  -2   6   4    1.29    0.34
  -2   6   4    1.02    0.22
  -2   6   4    1.25    0.38
  -2   6   4    1.13    0.33
  -2   6   4    1.24    0.28
   2  -6  -4    0.90    0.39
   2  -6  -4    0.79    0.21
   2  -6  -4    0.70    0.36
   2  -6  -4    1.13    0.33
  -2   6   3    0.27    0.29
  -2   6   3    0.35    0.15
  -2   6   3    0.02    0.17
  -2   6   3   -0.12    0.34
  -2   6   3   -0.11    0.44
  -2   6   3    0.31    0.25
  -2   6   3    0.32    0.36
   2  -6  -3   -0.22    0.27
   2  -6  -3    0.19    0.31
   2  -6  -3    0.33    0.26
  -2   6   2    0.28    0.28
  -2   6   2    0.35    0.14
  -2   6   2    0.46    0.15
  -2   6   2    0.46    0.33
  -2   6   2    0.31    0.30
  -2   6   2    0.25    0.23
  -2   6   2    0.51    0.21
   2  -6  -2    0.34    0.28
   2  -6  -2    0.57    0.32
   2  -6  -2    0.68    0.31
   2  -6  -2    0.51    0.22
   2  -6  -2    0.33    0.19
  -2   6   1   20.11    0.83
  -2   6   1   21.54    0.75
  -2   6   1   23.21    0.39
  -2   6   1   19.84    0.38
  -2   6   1   23.25    0.77
  -2   6   1   21.27    0.83
  -2   6   1   17.76    0.79
  -2   6   1   20.91    0.61
  -2   6   1   19.42    0.57
   2  -6  -1   19.92    0.79
   2  -6  -1   18.71    0.70
   2  -6  -1   22.31    0.60
   2  -6  -1   18.51    0.50
  -2   6   0   28.52    0.89
  -2   6   0   29.28    0.83
  -2   6   0   27.59    0.46
  -2   6   0   34.01    0.82
  -2   6   0   27.23    0.89
  -2   6   0   29.24    0.95
  -2   6   0   31.04    0.69
  -2   6   0   26.44    0.62
   2  -6   0   28.36    0.90
   2  -6   0   28.64    0.74
   2  -6   0   27.65    0.96
   2  -6   0   26.60    0.58
  -2   6  -1    2.27    0.41
  -2   6  -1    1.83    0.35
  -2   6  -1    2.47    0.30
  -2   6  -1    2.23    0.24
  -2   6  -1    3.32    0.35
  -2   6  -1    2.20    0.39
  -2   6  -1    2.28    0.43
  -2   6  -1    2.23    0.29
  -2   6  -1    2.09    0.26
   2  -6   1    2.32    0.40
   2  -6   1    2.14    0.29
   2  -6   1    2.83    0.36
   2  -6   1    2.49    0.29
  -2   6  -2   14.48    0.75
  -2   6  -2   13.13    0.69
  -2   6  -2   14.37    0.48
  -2   6  -2   12.33    0.47
  -2   6  -2   16.99    0.53
  -2   6  -2   13.30    0.71
  -2   6  -2   11.44    0.71
  -2   6  -2   14.90    0.57
  -2   6  -2   11.95    0.47
   2  -6   2   12.08    0.67
   2  -6   2   13.92    0.47
   2  -6   2   13.33    0.50
   2  -6   2   11.49    0.43
  -2   6  -3    1.35    0.40
  -2   6  -3    0.59    0.32
  -2   6  -3    1.09    0.25
  -2   6  -3    1.47    0.22
  -2   6  -3    1.60    0.22
  -2   6  -3    1.25    0.37
  -2   6  -3    0.79    0.39
  -2   6  -3    1.85    0.31
  -2   6  -3    1.14    0.23
   2  -6   3    1.52    0.35
   2  -6   3    1.03    0.25
   2  -6   3    1.62    0.28
   2  -6   3    0.77    0.22
  -2   6  -4    0.30    0.36
  -2   6  -4    0.25    0.35
  -2   6  -4    0.41    0.26
  -2   6  -4    0.85    0.34
  -2   6  -4    0.42    0.26
  -2   6  -4   -0.03    0.21
   2  -6   4    0.54    0.33
   2  -6   4    0.39    0.33
   2  -6   4    0.62    0.25
   2  -6   4    0.22    0.24
  -2   6  -5    2.17    0.46
  -2   6  -5    2.13    0.47
  -2   6  -5    2.14    0.35
  -2   6  -5    2.04    0.34
  -2   6  -5    1.51    0.29
   2  -6   5    1.52    0.38
   2  -6   5    2.56    0.50
   2  -6   5    2.30    0.37
   2  -6   5    1.92    0.42
   2  -6   5    2.08    0.37
  -2   6  -6   17.82    1.04
  -2   6  -6   10.89    0.79
  -2   6  -6   12.54    0.72
  -2   6  -6   12.57    0.64
   2  -6   6   11.13    0.75
   2  -6   6   13.97    0.82
   2  -6   6   12.49    0.70
   2  -6   6   12.33    0.81
   2  -6   6   13.72    0.71
  -2   6  -7   -0.04    0.41
  -2   6  -7    0.63    0.40
  -2   6  -7    0.12    0.35
  -2   6  -7    0.72    0.31
   2  -6   7    0.39    0.36
   2  -6   7    0.45    0.42
   2  -6   7   -0.46    0.41
   2  -6   7    0.75    0.42
   2  -6   7    0.58    0.38
  -2   6  -8   -0.45    0.42
  -2   6  -8   -0.14    0.43
  -2   6  -8   -0.21    0.38
   2  -6   8    0.49    0.50
   2  -6   8    0.43    0.43
   2  -6   8   -0.10    0.44
  -2   6  -9    4.27    0.64
  -2   6  -9    4.30    0.64
  -2   6  -9    3.99    0.57
   2  -6   9    4.03    0.59
   2  -6   9    4.33    0.65
  -2   6 -10    3.27    0.63
  -2   6 -10    3.69    0.71
  -2   6 -10    3.82    0.63
   2  -6  10    2.68    0.64
   2  -6  10    3.36    0.63
  -2   6 -11    0.70    0.59
  -2   6 -11    0.24    0.70
  -2   6 -11    1.50    0.61
   2  -6  11    1.23    0.63
   2  -6  11    1.96    0.74
  -2   5  11    1.04    0.69
  -2   5  11    0.91    0.68
  -2   5  11   -0.46    0.58
   2  -5 -11    0.59    0.58
   2  -5 -11    0.71    0.71
  -2   5  10    2.16    0.58
  -2   5  10    0.11    0.51
  -2   5  10    2.10    0.54
   2  -5 -10    1.12    0.50
   2  -5 -10    2.26    0.69
  -2   5   9    4.91    0.64
  -2   5   9    4.83    0.62
  -2   5   9    3.71    0.62
  -2   5   9    4.90    0.62
   2  -5  -9    2.79    0.46
   2  -5  -9    4.06    0.65
  -2   5   8   23.98    1.03
  -2   5   8   24.52    0.93
  -2   5   8   24.26    1.12
  -2   5   8   20.77    1.03
  -2   5   8   23.24    0.99
   2  -5  -8   16.89    0.77
   2  -5  -8   21.52    1.02
   2  -5  -8   21.82    0.98
  -2   5   7    5.86    0.67
  -2   5   7    6.26    0.59
  -2   5   7    4.77    0.59
  -2   5   7    6.03    0.72
  -2   5   7    5.21    0.60
   2  -5  -7    5.26    0.52
   2  -5  -7    6.18    0.74
  -2   5   6    9.55    0.74
  -2   5   6    9.56    0.54
  -2   5   6    9.67    0.72
  -2   5   6    8.01    0.64
  -2   5   6    9.26    0.61
   2  -5  -6    7.11    0.48
   2  -5  -6    7.11    0.99
   2  -5  -6    9.23    0.67
  -2   5   5   59.04    1.25
  -2   5   5   54.94    0.75
  -2   5   5   56.16    0.81
  -2   5   5   54.22    1.22
  -2   5   5   52.91    1.08
  -2   5   5   55.94    1.07
   2  -5  -5   46.77    0.75
   2  -5  -5   49.27    1.18
   2  -5  -5   43.76    1.12
   2  -5  -5   59.56    1.09
   2  -5  -5   42.97    0.92
  -2   5   4   -0.05    0.28
  -2   5   4    0.34    0.27
  -2   5   4    0.62    0.19
  -2   5   4    0.65    0.31
  -2   5   4    0.54    0.31
  -2   5   4    0.27    0.23
  -2   5   4    0.19    0.21
   2  -5  -4    0.18    0.26
   2  -5  -4    0.23    0.17
   2  -5  -4    0.03    0.28
   2  -5  -4    0.53    0.30
   2  -5  -4    0.24    0.25
   2  -5  -4   -0.16    0.20
  -2   5   3   24.46    0.83
  -2   5   3   25.82    0.65
  -2   5   3   23.58    0.43
  -2   5   3   27.11    0.84
  -2   5   3   24.65    0.85
  -2   5   3   24.84    0.67
  -2   5   3   25.12    0.66
   2  -5  -3   24.17    0.81
   2  -5  -3   22.73    0.78
   2  -5  -3   20.76    0.77
   2  -5  -3   27.84    0.69
   2  -5  -3   21.44    0.59
  -2   5   2    1.72    0.35
  -2   5   2    1.45    0.29
  -2   5   2    1.15    0.13
  -2   5   2    1.09    0.14
  -2   5   2    1.83    0.31
  -2   5   2    1.03    0.28
  -2   5   2    1.10    0.22
   2  -5  -2    1.55    0.33
   2  -5  -2    0.96    0.26
   2  -5  -2    1.44    0.35
   2  -5  -2    1.40    0.24
   2  -5  -2    1.22    0.21
  -2   5   1  103.12    1.46
  -2   5   1  102.47    1.25
  -2   5   1  114.27    0.64
  -2   5   1   98.39    0.60
  -2   5   1  112.95    1.31
  -2   5   1   97.61    1.42
  -2   5   1   97.56    1.42
  -2   5   1  101.65    1.12
  -2   5   1   95.44    1.08
   2  -5  -1   96.29    1.41
   2  -5  -1   94.32    1.21
   2  -5  -1   84.65    1.31
   2  -5  -1  106.85    1.08
   2  -5  -1   93.41    1.00
  -2   5   0    2.14    0.34
  -2   5   0    3.05    0.35
  -2   5   0    2.42    0.20
  -2   5   0    2.02    0.20
  -2   5   0    2.96    0.31
  -2   5   0    1.99    0.31
  -2   5   0    2.77    0.40
  -2   5   0    2.71    0.27
  -2   5   0    2.34    0.25
   2  -5   0    2.43    0.36
   2  -5   0    2.32    0.28
   2  -5   0    2.35    0.25
   2  -5   0    2.11    0.23
  -2   5  -1   18.59    0.67
  -2   5  -1   16.39    0.64
  -2   5  -1   20.53    0.40
  -2   5  -1   15.93    0.38
  -2   5  -1   22.29    0.57
  -2   5  -1   15.24    0.64
  -2   5  -1   17.64    0.72
  -2   5  -1   19.55    0.54
  -2   5  -1   15.12    0.46
   2  -5   1   16.22    0.64
   2  -5   1   17.77    0.50
   2  -5   1   17.21    0.49
   2  -5   1   17.97    0.48
  -2   5  -2   69.98    1.17
  -2   5  -2   61.12    1.11
  -2   5  -2   69.25    0.79
  -2   5  -2   75.44    0.79
  -2   5  -2   56.42    1.12
  -2   5  -2   62.55    1.16
  -2   5  -2   65.18    1.12
  -2   5  -2   58.51    0.86
   2  -5   2   60.25    1.12
   2  -5   2   64.60    0.76
   2  -5   2   61.41    0.73
   2  -5   2   64.64    0.87
   2  -5   2   63.69    0.85
  -2   5  -3    1.26    0.32
  -2   5  -3    1.01    0.29
  -2   5  -3    0.93    0.21
  -2   5  -3    1.18    0.16
  -2   5  -3    0.67    0.25
  -2   5  -3    0.96    0.30
  -2   5  -3    1.21    0.29
  -2   5  -3    0.80    0.21
   2  -5   3    0.78    0.29
   2  -5   3    0.95    0.21
   2  -5   3    0.95    0.15
   2  -5   3    1.02    0.23
   2  -5   3    1.42    0.22
  -2   5  -4   24.71    0.81
  -2   5  -4   19.76    0.78
  -2   5  -4   20.72    0.62
  -2   5  -4   20.59    0.80
  -2   5  -4   22.54    0.66
  -2   5  -4   18.53    0.60
   2  -5   4   19.32    0.74
   2  -5   4   24.73    0.84
   2  -5   4   20.95    0.61
   2  -5   4   18.84    0.75
   2  -5   4   20.88    0.63
   2  -5   4   21.12    0.60
  -2   5  -5    0.96    0.35
  -2   5  -5   -0.08    0.33
  -2   5  -5    0.74    0.26
  -2   5  -5    1.13    0.37
  -2   5  -5    0.26    0.23
  -2   5  -5    0.40    0.22
   2  -5   5    0.27    0.30
   2  -5   5    0.50    0.34
   2  -5   5    0.98    0.25
   2  -5   5    0.57    0.30
   2  -5   5    0.56    0.26
   2  -5   5    0.58    0.21
  -2   5  -6   27.67    0.91
  -2   5  -6   21.73    0.91
  -2   5  -6   22.74    0.78
  -2   5  -6   24.89    0.80
  -2   5  -6   19.68    0.76
   2  -5   6   20.80    0.80
   2  -5   6   24.67    0.92
   2  -5   6   23.10    0.80
   2  -5   6   19.14    1.34
   2  -5   6   22.85    0.75
  -2   5  -7    7.82    0.73
  -2   5  -7    5.83    0.67
  -2   5  -7    6.58    0.66
  -2   5  -7    6.64    0.64
  -2   5  -7    5.96    0.59
   2  -5   7    4.88    0.58
   2  -5   7    5.34    0.63
   2  -5   7    5.43    0.66
   2  -5   7    5.10    0.63
   2  -5   7    5.99    0.59
  -2   5  -8    0.47    0.44
  -2   5  -8    0.53    0.40
  -2   5  -8    0.47    0.37
  -2   5  -8    0.10    0.34
   2  -5   8    0.63    0.34
   2  -5   8    0.54    0.39
   2  -5   8    0.82    0.41
   2  -5   8    0.13    0.35
  -2   5  -9    0.19    0.39
  -2   5  -9    0.00    0.43
  -2   5  -9    0.21    0.34
   2  -5   9    0.41    0.35
   2  -5   9    0.40    0.45
   2  -5   9    0.19    0.43
  -2   5 -10    1.26    0.50
  -2   5 -10    1.91    0.56
  -2   5 -10    2.10    0.52
   2  -5  10    2.09    0.60
   2  -5  10    3.15    0.62
  -2   5 -11    1.27    0.55
  -2   5 -11   -0.19    0.54
  -2   5 -11    1.62    0.61
   2  -5  11    1.76    0.55
   2  -5  11    2.86    0.67
  -2   4  12    1.43    0.75
  -2   4  12   -0.12    0.75
  -2   4  11   11.60    1.07
  -2   4  11    8.46    1.05
  -2   4  11    9.93    1.13
   2  -4 -11    4.82    0.67
   2  -4 -11    7.32    0.82
  -2   4  10    0.81    0.48
  -2   4  10    0.58    0.48
  -2   4  10   -0.76    0.42
   2  -4 -10   -0.14    0.43
   2  -4 -10    1.22    0.56
  -2   4   9   43.87    1.25
  -2   4   9   41.31    1.14
  -2   4   9   37.32    1.26
  -2   4   9   37.81    1.33
  -2   4   9   43.74    1.26
   2  -4  -9   23.62    0.91
   2  -4  -9   37.55    1.28
   2  -4  -9   41.09    1.24
  -2   4   8   52.36    1.51
  -2   4   8   52.89    1.10
  -2   4   8   46.12    1.25
  -2   4   8   47.68    1.26
  -2   4   8   54.17    1.28
   2  -4  -8   33.75    0.92
   2  -4  -8   43.95    1.26
  -2   4   7   18.88    0.81
  -2   4   7   15.56    1.17
  -2   4   7   19.32    0.71
  -2   4   7   15.44    0.88
  -2   4   7   17.07    0.83
  -2   4   7   17.48    0.76
   2  -4  -7   13.10    0.60
   2  -4  -7   13.45    0.74
  -2   4   6   96.33    1.50
  -2   4   6   80.19    1.39
  -2   4   6   96.10    1.15
  -2   4   6   88.80    1.57
  -2   4   6   86.17    1.47
  -2   4   6   88.12    1.37
  -2   4   6   91.76    1.39
   2  -4  -6   72.72    1.01
   2  -4  -6   83.84    1.46
   2  -4  -6   72.52    1.35
   2  -4  -6   90.77    2.06
   2  -4  -6   75.36    1.21
  -2   4   5    1.40    0.32
  -2   4   5    1.40    0.32
  -2   4   5    1.27    0.23
  -2   4   5    1.81    0.24
  -2   4   5    2.23    0.36
  -2   4   5    1.64    0.37
  -2   4   5    1.31    0.29
  -2   4   5    2.00    0.31
   2  -4  -5    1.29    0.22
   2  -4  -5    1.48    0.34
   2  -4  -5    1.12    0.34
   2  -4  -5    2.13    0.33
   2  -4  -5    1.42    0.25
  -2   4   4  229.65    2.08
  -2   4   4  240.98    1.40
  -2   4   4  236.65    1.35
  -2   4   4  254.25    2.17
  -2   4   4  236.62    2.17
  -2   4   4  243.77    1.92
  -2   4   4  236.72    1.90
   2  -4  -4  232.48    2.11
   2  -4  -4  207.74    1.28
   2  -4  -4  216.44    2.03
   2  -4  -4  213.56    2.03
   2  -4  -4  260.61    1.94
   2  -4  -4  212.06    1.73
  -2   4   3   42.72    0.91
  -2   4   3   44.60    0.70
  -2   4   3   43.72    0.51
  -2   4   3   47.86    0.93
  -2   4   3   43.23    0.95
  -2   4   3   45.87    0.82
  -2   4   3   41.91    0.79
   2  -4  -3   41.70    0.92
   2  -4  -3   39.15    0.87
   2  -4  -3   37.30    0.87
   2  -4  -3   49.00    0.82
   2  -4  -3   40.04    0.73
  -2   4   2  141.93    1.56
  -2   4   2  144.42    1.25
  -2   4   2  134.80    0.66
  -2   4   2  157.67    1.52
  -2   4   2  141.68    1.58
  -2   4   2  142.97    1.31
  -2   4   2  131.40    1.25
   2  -4  -2  129.86    1.50
   2  -4  -2  124.62    0.64
   2  -4  -2  127.63    1.38
   2  -4  -2  125.24    1.47
   2  -4  -2  152.87    1.31
   2  -4  -2  130.52    1.20
  -2   4   1  187.80    1.75
  -2   4   1  187.54    1.49
  -2   4   1  206.01    1.60
  -2   4   1  175.34    1.70
  -2   4   1  187.54    1.43
  -2   4   1  168.36    1.35
   2  -4  -1  162.76    1.64
   2  -4  -1  165.81    1.44
   2  -4  -1  163.75    1.64
   2  -4  -1  197.17    1.41
   2  -4  -1  166.37    1.29
  -2   4   0    9.87    0.47
  -2   4   0   12.49    0.22
  -2   4   0   10.62    0.20
  -2   4   0   13.60    0.53
  -2   4   0   10.10    0.49
  -2   4   0   10.49    0.51
  -2   4   0   11.81    0.42
  -2   4   0   10.10    0.38
   2  -4   0   10.31    0.41
   2  -4   0   12.17    0.41
   2  -4   0    9.88    0.36
  -2   4  -1  250.17    1.96
  -2   4  -1  230.24    1.82
  -2   4  -1  236.09    1.07
  -2   4  -1  210.04    1.01
  -2   4  -1  273.25    1.49
  -2   4  -1  208.47    1.83
  -2   4  -1  243.07    1.96
  -2   4  -1  247.19    1.60
  -2   4  -1  204.59    1.46
   2  -4   1  220.94    1.87
   2  -4   1  214.81    1.33
   2  -4   1  232.34    1.50
   2  -4   1  225.27    1.47
  -2   4  -2    0.25    0.20
  -2   4  -2    0.34    0.23
  -2   4  -2    0.27    0.12
  -2   4  -2    0.26    0.12
  -2   4  -2    0.01    0.18
  -2   4  -2    0.47    0.21
  -2   4  -2    0.05    0.15
  -2   4  -2    0.00    0.14
   2  -4   2   -0.01    0.20
   2  -4   2    0.17    0.11
   2  -4   2    0.13    0.11
   2  -4   2    0.10    0.16
   2  -4   2    0.33    0.14
  -2   4  -3  237.61    1.93
  -2   4  -3  198.89    1.86
  -2   4  -3  203.95    1.40
  -2   4  -3  255.55    0.87
  -2   4  -3  224.19    1.95
  -2   4  -3  232.82    1.69
  -2   4  -3  185.20    1.51
   2  -4   3  201.51    1.81
   2  -4   3  220.64    1.45
   2  -4   3  196.87    0.77
   2  -4   3  202.43    1.88
   2  -4   3  210.04    1.57
   2  -4   3  207.01    1.54
  -2   4  -4    6.38    0.48
  -2   4  -4    5.50    0.49
  -2   4  -4    5.48    0.39
  -2   4  -4    5.40    0.48
  -2   4  -4    5.17    0.41
  -2   4  -4    4.72    0.36
   2  -4   4    4.95    0.44
   2  -4   4    4.98    0.47
   2  -4   4    5.01    0.38
   2  -4   4    4.40    0.46
   2  -4   4    5.32    0.39
   2  -4   4    4.49    0.35
  -2   4  -5   14.60    0.64
  -2   4  -5   11.83    0.64
  -2   4  -5   12.46    0.54
  -2   4  -5   13.42    0.66
  -2   4  -5   13.44    0.58
  -2   4  -5   11.91    0.54
   2  -4   5   12.48    0.59
   2  -4   5   15.07    0.67
   2  -4   5   14.20    0.56
   2  -4   5   12.47    0.63
   2  -4   5   13.03    0.54
   2  -4   5   12.46    0.52
  -2   4  -6   45.81    1.00
  -2   4  -6   38.27    1.02
  -2   4  -6   37.64    0.91
  -2   4  -6   43.31    1.04
  -2   4  -6   43.45    0.97
  -2   4  -6   36.00    0.89
   2  -4   6   37.79    0.92
   2  -4   6   45.42    1.08
   2  -4   6   38.97    0.91
   2  -4   6   38.16    0.99
   2  -4   6   39.37    0.89
   2  -4   6   39.74    0.86
  -2   4  -7   26.32    0.86
  -2   4  -7   22.47    0.89
  -2   4  -7   23.67    0.84
  -2   4  -7   25.95    0.90
  -2   4  -7   26.22    0.87
  -2   4  -7   21.33    0.78
   2  -4   7   22.95    0.80
   2  -4   7   28.28    0.93
   2  -4   7   21.67    0.80
   2  -4   7   22.55    0.86
   2  -4   7   23.72    0.78
  -2   4  -8   42.38    1.08
  -2   4  -8   36.63    1.09
  -2   4  -8   36.30    1.04
  -2   4  -8   40.54    1.12
  -2   4  -8   36.61    1.14
   2  -4   8   33.64    0.94
   2  -4   8   43.81    1.17
   2  -4   8   30.71    0.99
   2  -4   8   34.20    1.06
   2  -4   8   38.45    1.09
  -2   4  -9    6.08    0.62
  -2   4  -9    5.74    0.62
  -2   4  -9    6.26    0.71
  -2   4  -9    6.56    0.67
  -2   4  -9    4.17    0.49
   2  -4   9    4.86    0.50
   2  -4   9    5.23    0.62
   2  -4   9    4.74    0.59
  -2   4 -10   24.89    1.07
  -2   4 -10   24.96    1.08
  -2   4 -10   24.15    1.05
   2  -4  10   21.97    0.91
   2  -4  10   26.61    1.12
   2  -4  10   28.91    1.16
  -2   4 -11    2.69    0.60
  -2   4 -11    1.93    0.53
  -2   4 -11    1.72    0.49
   2  -4  11    2.01    0.49
   2  -4  11    2.61    0.60
  -2   4 -12    1.88    0.59
  -2   4 -12    1.92    0.67
  -2   4 -12    1.59    0.59
   2  -4  12    1.42    0.58
   2  -4  12    2.39    0.70
  -2   3  12   17.68    1.22
  -2   3  12   13.87    1.23
  -2   3  12   15.95    1.41
   2  -3 -12   13.19    1.19
   2  -3 -12   13.90    1.25
  -2   3  11    4.75    0.65
  -2   3  11    3.82    0.64
  -2   3  11    4.58    0.67
   2  -3 -11    3.30    0.59
   2  -3 -11    4.19    0.70
  -2   3  10   44.35    1.24
  -2   3  10   39.75    1.30
  -2   3  10   44.50    1.37
   2  -3 -10   32.07    1.09
   2  -3 -10   40.48    1.33
   2  -3 -10   42.86    1.38
  -2   3   9   98.26    1.60
  -2   3   9   89.13    1.51
  -2   3   9   82.71    1.63
  -2   3   9   85.56    1.69
  -2   3   9   94.80    1.77
   2  -3  -9   64.96    1.28
   2  -3  -9   87.21    1.68
   2  -3  -9  100.06    1.76
  -2   3   8   20.72    0.83
  -2   3   8   14.89    0.77
  -2   3   8   18.15    0.74
  -2   3   8   15.78    0.82
  -2   3   8   17.88    0.91
  -2   3   8   20.24    0.89
   2  -3  -8   13.21    0.67
   2  -3  -8   15.90    0.98
   2  -3  -8   14.37    0.80
  -2   3   7  194.48    2.00
  -2   3   7  161.03    1.82
  -2   3   7  190.00    1.74
  -2   3   7  181.92    2.49
  -2   3   7  176.47    2.06
  -2   3   7  172.48    1.96
  -2   3   7  187.10    2.03
   2  -3  -7  131.69    1.47
   2  -3  -7  165.15    2.00
   2  -3  -7  139.27    1.82
   2  -3  -7  187.54    2.02
   2  -3  -7  156.62    1.82
  -2   3   6    3.10    0.39
  -2   3   6    2.61    0.35
  -2   3   6    2.78    0.30
  -2   3   6    3.24    0.44
  -2   3   6    2.34    0.33
  -2   3   6    2.64    0.32
   2  -3  -6    2.49    0.29
   2  -3  -6    2.68    0.37
   2  -3  -6    2.77    0.41
   2  -3  -6    2.87    0.35
   2  -3  -6    2.95    0.36
  -2   3   5   85.44    1.24
  -2   3   5   75.75    1.17
  -2   3   5   77.56    0.72
  -2   3   5   85.93    0.97
  -2   3   5   76.30    1.25
  -2   3   5   80.71    1.19
  -2   3   5   81.89    1.19
   2  -3  -5   64.14    0.85
   2  -3  -5   72.84    1.22
   2  -3  -5   67.02    1.16
   2  -3  -5   85.88    1.21
   2  -3  -5   70.82    1.07
  -2   3   4  181.75    1.69
  -2   3   4  190.51    1.15
  -2   3   4  197.56    1.24
  -2   3   4  202.50    1.82
  -2   3   4  180.66    1.76
  -2   3   4  191.93    1.66
  -2   3   4  185.62    1.64
   2  -3  -4  179.27    1.69
   2  -3  -4  163.62    1.14
   2  -3  -4  174.04    1.72
   2  -3  -4  176.47    1.73
   2  -3  -4  172.26    1.53
  -2   3   3  244.37    1.88
  -2   3   3  256.13    1.41
  -2   3   3  255.71    1.16
  -2   3   3  264.68    1.94
  -2   3   3  243.73    1.94
  -2   3   3  253.59    1.77
  -2   3   3  233.60    1.70
   2  -3  -3  234.76    1.86
   2  -3  -3  196.26    1.27
   2  -3  -3  229.26    1.83
   2  -3  -3  227.14    1.85
   2  -3  -3  259.60    1.76
   2  -3  -3  223.39    1.62
  -2   3   2  253.71    1.86
  -2   3   2  260.85    1.49
  -2   3   2  263.14    0.85
  -2   3   2  271.07    1.82
  -2   3   2  242.29    1.85
  -2   3   2  248.79    1.63
  -2   3   2  235.28    1.59
   2  -3  -2  238.05    1.81
   2  -3  -2  212.52    0.77
   2  -3  -2  225.65    1.68
   2  -3  -2  223.77    1.76
   2  -3  -2  260.32    1.64
   2  -3  -2  231.41    1.54
  -2   3   1  242.68    1.78
  -2   3   1  240.10    1.51
  -2   3   1  228.59    1.74
  -2   3   1  240.02    1.53
  -2   3   1  220.70    1.47
   2  -3  -1  227.04    1.73
   2  -3  -1  221.47    1.53
   2  -3  -1  214.00    1.67
   2  -3  -1  245.94    1.52
   2  -3  -1  218.70    1.42
  -2   3   0  428.13    2.32
  -2   3   0  405.44    2.07
  -2   3   0  467.55    1.97
  -2   3   0  355.21    2.12
  -2   3   0  425.44    1.97
  -2   3   0  359.07    1.81
   2  -3   0  391.23    2.24
   2  -3   0  370.35    1.77
   2  -3   0  369.24    2.15
   2  -3   0  422.16    1.92
   2  -3   0  383.07    1.82
  -2   3  -1   61.86    0.91
  -2   3  -1   53.37    0.82
  -2   3  -1   50.87    0.45
  -2   3  -1   67.39    0.67
  -2   3  -1   48.17    0.81
  -2   3  -1   56.01    0.87
  -2   3  -1   58.52    0.76
  -2   3  -1   47.89    0.69
   2  -3   1   53.16    0.86
   2  -3   1   58.32    0.48
   2  -3   1   56.08    0.73
   2  -3   1   53.15    0.71
  -2   3  -2  294.47    1.94
  -2   3  -2  254.54    1.82
  -2   3  -2  243.20    1.23
  -2   3  -2  323.98    1.18
  -2   3  -2  229.31    1.74
  -2   3  -2  269.66    1.87
  -2   3  -2  283.29    1.69
  -2   3  -2  234.63    1.54
   2  -3   2  265.93    1.86
   2  -3   2  280.28    1.32
   2  -3   2  239.92    1.02
   2  -3   2  263.77    1.60
   2  -3   2  255.87    1.57
  -2   3  -3  177.93    1.54
  -2   3  -3  152.55    1.49
  -2   3  -3  145.16    1.13
  -2   3  -3  157.27    1.48
  -2   3  -3  172.14    1.41
  -2   3  -3  137.04    1.26
   2  -3   3  149.92    1.43
   2  -3   3  163.50    1.19
   2  -3   3  151.50    1.47
   2  -3   3  153.46    1.31
   2  -3   3  154.60    1.30
  -2   3  -4  668.68    3.04
  -2   3  -4  551.28    2.94
  -2   3  -4  535.36    2.44
  -2   3  -4  631.32    3.06
  -2   3  -4  631.40    2.86
  -2   3  -4  525.59    2.62
   2  -3   4  563.32    2.83
   2  -3   4  547.46    2.87
   2  -3   4  587.89    2.70
  -2   3  -5   43.33    0.86
  -2   3  -5   28.56    0.91
  -2   3  -5   34.94    0.77
  -2   3  -5   39.65    0.87
  -2   3  -5   41.06    0.84
  -2   3  -5   34.16    0.78
   2  -3   5   35.79    0.79
   2  -3   5   35.34    0.74
   2  -3   5   35.55    0.84
   2  -3   5   19.84    0.73
   2  -3   5   36.36    0.75
  -2   3  -6  169.17    1.68
  -2   3  -6  139.11    1.65
  -2   3  -6  134.83    1.53
  -2   3  -6  163.53    1.75
  -2   3  -6  159.78    1.68
  -2   3  -6  136.76    1.57
   2  -3   6  136.43    1.52
   2  -3   6  168.75    1.82
   2  -3   6  137.07    1.51
   2  -3   6  140.20    1.64
   2  -3   6  151.23    1.62
   2  -3   6  148.43    1.58
  -2   3  -7  165.53    1.73
  -2   3  -7  141.70    1.75
  -2   3  -7  136.95    1.66
  -2   3  -7  163.94    1.87
  -2   3  -7  163.59    1.83
  -2   3  -7  139.06    1.69
   2  -3   7  135.58    1.58
   2  -3   7  166.83    1.90
   2  -3   7  133.78    1.62
   2  -3   7  140.88    1.73
   2  -3   7  146.69    1.71
   2  -3   7  149.66    1.71
  -2   3  -8   28.81    0.87
  -2   3  -8   23.29    0.86
  -2   3  -8   22.37    0.85
  -2   3  -8   27.09    0.96
  -2   3  -8   27.90    0.94
  -2   3  -8   24.60    0.87
   2  -3   8   22.74    0.77
   2  -3   8   20.01    0.81
   2  -3   8   24.31    0.90
   2  -3   8   26.10    0.89
   2  -3   8   25.73    0.88
  -2   3  -9   75.49    1.36
  -2   3  -9   68.02    1.37
  -2   3  -9   64.03    1.36
  -2   3  -9   74.15    1.48
  -2   3  -9   67.23    1.40
   2  -3   9   55.59    1.15
   2  -3   9   68.82    1.41
   2  -3   9   66.80    1.39
  -2   3 -10   10.71    0.86
  -2   3 -10    8.97    0.78
  -2   3 -10    9.82    0.80
  -2   3 -10   10.00    0.90
  -2   3 -10    8.81    0.86
   2  -3  10    6.78    0.64
   2  -3  10    8.52    0.38
   2  -3  10    9.74    0.81
   2  -3  10    8.78    0.85
  -2   3 -11   44.27    1.28
  -2   3 -11   43.65    1.36
  -2   3 -11   44.45    1.39
   2  -3  11   33.22    1.31
   2  -3  11   47.72    0.73
   2  -3  11   46.14    1.38
   2  -3  11   47.00    1.45
  -2   3 -12    5.03    0.67
  -2   3 -12    5.99    0.68
  -2   3 -12    4.53    0.66
   2  -3  12    4.89    0.66
   2  -3  12    4.92    0.66
  -2   3 -13    8.40    0.84
  -2   3 -13    6.39    0.79
  -2   3 -13    7.59    0.91
   2  -3  13    6.51    0.75
   2  -3  13    9.96    1.22
  -2   2  12    7.60    0.75
  -2   2  12    6.32    0.77
  -2   2  12    6.33    0.88
   2  -2 -12    5.84    0.70
   2  -2 -12    6.06    0.80
  -2   2  11   27.45    1.24
  -2   2  11   22.95    1.17
  -2   2  11   27.25    1.27
   2  -2 -11   22.08    1.08
   2  -2 -11   23.37    1.18
   2  -2 -11   29.10    1.33
  -2   2  10   30.14    0.99
  -2   2  10   21.97    0.97
  -2   2  10   26.81    1.11
  -2   2  10   28.59    1.24
  -2   2  10   30.75    1.18
   2  -2 -10   23.45    0.97
   2  -2 -10   30.69    1.15
   2  -2 -10   20.97    1.22
   2  -2 -10   30.20    1.18
  -2   2   9    5.07    0.60
  -2   2   9    3.73    0.49
  -2   2   9    5.63    0.65
  -2   2   9    3.78    0.47
  -2   2   9    5.68    0.66
  -2   2   9    4.48    0.51
   2  -2  -9    5.09    0.61
   2  -2  -9    3.86    0.49
   2  -2  -9    5.67    0.59
   2  -2  -9    4.45    0.50
  -2   2   8   95.99    1.39
  -2   2   8   76.62    1.26
  -2   2   8   85.24    0.81
  -2   2   8   91.13    1.37
  -2   2   8   83.45    1.48
  -2   2   8   88.05    1.53
  -2   2   8   94.40    1.57
   2  -2  -8   73.80    1.26
   2  -2  -8   85.64    1.50
   2  -2  -8   65.73    1.32
   2  -2  -8   71.54    1.34
  -2   2   7   11.29    0.59
  -2   2   7    8.39    0.54
  -2   2   7    9.52    0.39
  -2   2   7    9.21    0.55
  -2   2   7    9.15    0.57
  -2   2   7    8.04    0.61
  -2   2   7    9.98    0.66
  -2   2   7   10.08    0.63
   2  -2  -7    7.60    0.52
   2  -2  -7    9.11    0.62
   2  -2  -7    7.33    0.58
   2  -2  -7   10.83    0.69
   2  -2  -7    8.47    0.58
  -2   2   6  270.67    2.04
  -2   2   6  238.25    1.90
  -2   2   6  248.83    1.25
  -2   2   6  264.76    1.87
  -2   2   6  267.18    2.24
  -2   2   6  235.22    2.13
  -2   2   6  251.99    2.14
  -2   2   6  259.99    2.17
   2  -2  -6  201.56    1.66
   2  -2  -6  251.55    2.20
   2  -2  -6  213.03    2.00
   2  -2  -6  277.94    2.23
   2  -2  -6  242.07    2.06
  -2   2   5   32.92    0.73
  -2   2   5   29.68    0.69
  -2   2   5   30.46    0.49
  -2   2   5   33.22    0.63
  -2   2   5   32.78    0.80
  -2   2   5   29.54    0.78
  -2   2   5   32.46    0.78
  -2   2   5   30.64    0.75
   2  -2  -5   24.24    0.57
   2  -2  -5   29.83    0.77
   2  -2  -5   26.99    0.74
   2  -2  -5   33.24    0.78
   2  -2  -5   28.16    0.70
  -2   2   4  353.43    2.09
  -2   2   4  377.21    1.54
  -2   2   4  391.55    1.77
  -2   2   4  393.75    2.38
  -2   2   4  363.41    2.31
  -2   2   4  378.30    2.24
  -2   2   4  362.34    2.20
   2  -2  -4  352.89    2.10
   2  -2  -4  289.72    1.54
   2  -2  -4  353.80    2.28
   2  -2  -4  337.68    2.21
   2  -2  -4  393.13    2.27
   2  -2  -4  341.22    2.10
  -2   2   3  280.27    1.79
  -2   2   3  294.35    1.39
  -2   2   3  309.92    1.32
  -2   2   3  307.26    1.95
  -2   2   3  269.34    1.87
  -2   2   3  293.16    1.83
  -2   2   3  274.01    1.77
   2  -2  -3  268.95    1.76
   2  -2  -3  274.98    1.87
   2  -2  -3  263.33    1.83
   2  -2  -3  299.05    1.83
   2  -2  -3  251.55    1.70
  -2   2   2   93.23    1.25
  -2   2   2  103.46    0.87
  -2   2   2  114.86    0.60
  -2   2   2   97.46    1.07
  -2   2   2  106.05    1.03
  -2   2   2   98.05    0.99
   2  -2  -2   93.27    1.01
   2  -2  -2   87.17    0.53
   2  -2  -2   99.76    1.04
   2  -2  -2   83.44    1.19
   2  -2  -2   94.16    0.95
  -2   2   1  207.54    1.52
  -2   2   1  211.60    1.28
  -2   2   1  237.33    1.43
  -2   2   1  197.24    1.44
  -2   2   1  211.32    1.36
  -2   2   1  189.64    1.29
   2  -2  -1  197.97    1.43
   2  -2  -1  199.32    1.33
   2  -2  -1  186.16    1.38
   2  -2  -1  190.87    1.27
  -2   2   0  209.02    1.44
  -2   2   0  208.43    1.34
  -2   2   0  238.89    1.28
  -2   2   0  186.92    1.35
  -2   2   0  211.64    1.32
  -2   2   0  180.21    1.22
   2  -2   0  200.54    1.43
   2  -2   0  191.38    1.16
   2  -2   0  188.64    1.35
   2  -2   0  192.05    1.24
  -2   2  -1  331.16    1.85
  -2   2  -1  297.10    1.68
  -2   2  -1  277.14    0.94
  -2   2  -1  367.21    1.36
  -2   2  -1  268.19    1.61
  -2   2  -1  311.64    1.72
  -2   2  -1  311.30    1.61
  -2   2  -1  267.37    1.50
   2  -2   1  300.47    1.75
   2  -2   1  323.31    1.02
   2  -2   1  286.80    1.21
   2  -2   1  294.53    1.55
  -2   2  -2   55.97    0.79
  -2   2  -2   70.92    0.49
  -2   2  -2   57.74    0.78
  -2   2  -2   62.59    0.77
  -2   2  -2   52.35    0.71
   2  -2   2   57.79    0.81
   2  -2   2   56.38    0.58
   2  -2   2   55.47    0.44
   2  -2   2   56.73    0.78
   2  -2   2   58.44    0.74
  -2   2  -3  645.76    2.69
  -2   2  -3  534.90    2.51
  -2   2  -3  509.01    2.03
  -2   2  -3  581.94    2.60
  -2   2  -3  603.54    2.51
  -2   2  -3  499.31    2.29
   2  -2   3  569.27    2.54
   2  -2   3  524.13    2.05
   2  -2   3  536.31    2.42
   2  -2   3  462.50    2.18
   2  -2   3  566.71    2.57
  -2   2  -4  172.35    1.46
  -2   2  -4  147.70    1.41
  -2   2  -4  137.07    1.22
  -2   2  -4  167.40    1.44
  -2   2  -4  175.10    1.47
  -2   2  -4  145.24    1.35
   2  -2   4  149.51    1.37
   2  -2   4  140.34    1.22
   2  -2   4  149.66    1.37
   2  -2   4  155.77    1.37
  -2   2  -5  369.75    2.22
  -2   2  -5  318.93    2.16
  -2   2  -5  295.40    1.98
  -2   2  -5  361.19    2.23
  -2   2  -5  356.84    2.26
  -2   2  -5  298.85    2.07
   2  -2   5  306.56    2.04
   2  -2   5  290.69    1.94
   2  -2   5  317.17    2.11
   2  -2   5  330.18    2.16
   2  -2   5  333.18    2.15
  -2   2  -6  191.39    1.70
  -2   2  -6  162.32    1.64
  -2   2  -6  155.16    1.59
  -2   2  -6  189.03    1.74
  -2   2  -6  187.57    1.78
  -2   2  -6  161.56    1.66
   2  -2   6  160.43    1.57
   2  -2   6  156.77    1.58
   2  -2   6  174.34    0.78
   2  -2   6  155.12    0.74
   2  -2   6  166.70    1.65
   2  -2   6  175.17    1.71
   2  -2   6  178.51    1.71
  -2   2  -7   28.47    0.77
  -2   2  -7   23.38    0.92
  -2   2  -7   22.75    0.76
  -2   2  -7   27.34    0.81
  -2   2  -7   27.84    0.83
  -2   2  -7   24.25    0.77
   2  -2   7   23.92    0.71
   2  -2   7   23.71    0.73
   2  -2   7   23.89    0.40
   2  -2   7   25.11    0.77
   2  -2   7   26.10    0.77
  -2   2  -8  117.90    1.51
  -2   2  -8  109.16    1.51
  -2   2  -8  103.22    1.55
  -2   2  -8  102.34    0.87
  -2   2  -8  113.93    1.58
  -2   2  -8  118.39    1.65
  -2   2  -8  107.77    1.58
   2  -2   8  101.57    1.40
   2  -2   8  102.53    1.51
   2  -2   8  103.58    0.88
   2  -2   8  107.61    1.53
   2  -2   8  116.40    1.64
   2  -2   8  112.87    1.59
  -2   2  -9   66.94    1.25
  -2   2  -9   60.93    1.22
  -2   2  -9   57.83    0.77
  -2   2  -9   59.64    1.30
  -2   2  -9   66.31    1.39
  -2   2  -9   62.21    1.32
   2  -2   9   56.32    1.15
   2  -2   9   60.90    0.79
   2  -2   9   61.60    1.28
   2  -2   9   68.21    1.40
   2  -2   9   63.35    1.33
  -2   2 -10  255.88    2.42
  -2   2 -10  248.37    2.44
  -2   2 -10  236.29    2.60
  -2   2 -10  238.67    1.60
  -2   2 -10  281.34    2.87
  -2   2 -10  249.23    2.67
   2  -2  10  234.45    2.31
   2  -2  10  246.33    1.87
   2  -2  10  249.13    2.57
   2  -2  10  283.42    2.85
  -2   2 -11    4.90    0.58
  -2   2 -11    5.04    0.62
  -2   2 -11    4.95    0.53
  -2   2 -11    6.00    0.78
  -2   2 -11    3.29    0.49
   2  -2  11    4.54    0.54
   2  -2  11    4.81    0.59
   2  -2  11    4.27    0.56
   2  -2  11    4.80    0.70
  -2   2 -12   12.26    0.89
  -2   2 -12   12.07    0.97
  -2   2 -12   13.74    0.81
  -2   2 -12   13.58    1.06
   2  -2  12   13.43    0.92
   2  -2  12   12.11    1.03
   2  -2  12   13.85    1.23
  -2   2 -13    6.51    0.73
  -2   2 -13    5.53    0.74
  -2   2 -13    6.46    0.89
   2  -2  13    6.67    0.75
   2  -2  13    4.81    0.80
  -2   1  13    4.40    0.70
  -2   1  13    4.42    0.78
  -2   1  13    4.84    0.90
   2  -1 -13    3.10    0.69
   2  -1 -13    3.62    0.82
  -2   1  12    3.47    0.57
  -2   1  12    3.22    0.68
   2  -1 -12    3.03    0.61
   2  -1 -12    3.62    0.71
   2  -1 -12    2.25    0.72
  -2   1  11   31.73    1.01
  -2   1  11   23.78    0.98
  -2   1  11   28.67    1.21
  -2   1  11   43.78    2.14
  -2   1  11   34.23    1.37
   2  -1 -11   24.47    1.07
   2  -1 -11   30.93    1.20
   2  -1 -11   23.17    1.29
   2  -1 -11   33.23    1.35
  -2   1  10    1.69    0.41
  -2   1  10    1.29    0.41
  -2   1  10    1.64    0.34
  -2   1  10    2.07    0.46
  -2   1  10    0.95    0.52
  -2   1  10    1.21    0.43
   2  -1 -10    1.08    0.42
   2  -1 -10    1.32    0.42
   2  -1 -10    0.83    0.46
   2  -1 -10    0.95    0.50
  -2   1   9   13.07    0.66
  -2   1   9    9.63    0.62
  -2   1   9   12.63    0.55
  -2   1   9   12.35    0.77
  -2   1   9   10.80    0.74
  -2   1   9   11.62    0.89
  -2   1   9   13.06    0.84
   2  -1  -9   10.26    0.70
   2  -1  -9   11.42    0.78
   2  -1  -9   10.33    0.76
   2  -1  -9   12.46    0.82
  -2   1   8   29.53    0.78
  -2   1   8   23.49    0.70
  -2   1   8   26.68    0.62
  -2   1   8   26.15    0.82
  -2   1   8   24.99    0.83
  -2   1   8   23.42    0.85
  -2   1   8   27.71    0.94
   2  -1  -8   24.23    0.82
   2  -1  -8   26.84    0.89
   2  -1  -8   20.73    0.81
   2  -1  -8   23.64    0.87
  -2   1   7  151.17    1.47
  -2   1   7  128.53    1.35
  -2   1   7  140.13    1.12
  -2   1   7  148.43    1.58
  -2   1   7  145.97    1.68
  -2   1   7  129.91    1.65
  -2   1   7  144.93    1.74
  -2   1   7  150.37    1.78
   2  -1  -7  125.24    1.48
   2  -1  -7  141.25    1.70
   2  -1  -7  115.66    1.55
   2  -1  -7  152.04    1.78
   2  -1  -7  130.18    1.63
  -2   1   6    0.77    0.22
  -2   1   6    0.58    0.20
  -2   1   6    0.69    0.20
  -2   1   6    1.28    0.23
  -2   1   6    0.61    0.21
  -2   1   6    0.37    0.24
  -2   1   6    0.51    0.25
  -2   1   6    0.52    0.26
   2  -1  -6    0.47    0.20
   2  -1  -6    0.63    0.25
   2  -1  -6    0.54    0.26
   2  -1  -6    0.52    0.24
   2  -1  -6    0.45    0.20
  -2   1   5  287.77    1.77
  -2   1   5  254.16    1.66
  -2   1   5  281.56    1.42
  -2   1   5  287.30    2.06
  -2   1   5  259.27    1.99
  -2   1   5  282.03    2.05
  -2   1   5  280.82    2.05
   2  -1  -5  246.14    1.67
   2  -1  -5  279.96    2.06
   2  -1  -5  245.80    1.93
   2  -1  -5  287.99    2.52
  -2   1   4  202.55    1.40
  -2   1   4  175.06    1.29
  -2   1   4  184.76    1.11
  -2   1   4  208.49    1.35
  -2   1   4  204.96    1.62
  -2   1   4  171.55    1.50
  -2   1   4  191.31    1.56
  -2   1   4  183.69    1.53
   2  -1  -4  181.65    1.33
   2  -1  -4  168.59    1.23
   2  -1  -4  189.34    1.58
   2  -1  -4  174.31    1.51
   2  -1  -4  201.36    1.60
   2  -1  -4  172.92    1.47
  -2   1   3    1.65    0.19
  -2   1   3    1.41    0.18
  -2   1   3    1.80    0.17
  -2   1   3    1.16    0.17
  -2   1   3    0.84    0.16
  -2   1   3    1.57    0.19
  -2   1   3    0.59    0.13
   2  -1  -3    1.37    0.18
   2  -1  -3    1.50    0.18
   2  -1  -3    1.34    0.19
   2  -1  -3    1.43    0.19
   2  -1  -3    0.88    0.15
   2  -1  -3    1.35    0.19
  -2   1   2   15.45    0.38
  -2   1   2   15.43    0.36
  -2   1   2   17.49    0.29
  -2   1   2   17.80    0.44
  -2   1   2   14.66    0.41
  -2   1   2   16.53    0.42
  -2   1   2   14.54    0.40
   2  -1  -2   15.27    0.38
   2  -1  -2   16.95    0.29
   2  -1  -2   16.81    0.44
   2  -1  -2   15.04    0.42
   2  -1  -2   16.45    0.42
   2  -1  -2   14.42    0.39
  -2   1   1   72.11    0.75
  -2   1   1   68.19    0.69
  -2   1   1   84.19    0.81
  -2   1   1   67.82    0.75
  -2   1   1   71.89    0.76
  -2   1   1   66.95    0.74
   2  -1  -1   69.32    0.74
   2  -1  -1   78.12    0.43
   2  -1  -1   75.40    0.77
   2  -1  -1   63.17    0.72
   2  -1  -1   71.93    0.76
   2  -1  -1   66.78    0.73
  -2   1   0 5523.53   16.48
  -2   1   0 4994.82   14.69
  -2   1   0 6048.49   15.83
  -2   1   0 4680.49   14.91
  -2   1   0 5285.05   16.18
  -2   1   0 4798.20   15.75
   2  -1   0 5218.13   16.31
   2  -1   0 5242.67   15.80
   2  -1   0 4824.52   15.22
   2  -1   0 5185.10   16.36
   2  -1   0 4634.63   14.89
  -2   1  -1  330.92    1.62
  -2   1  -1  308.44    1.54
  -2   1  -1  294.96    1.02
  -2   1  -1  374.92    1.30
  -2   1  -1  273.30    1.35
  -2   1  -1  310.76    1.43
  -2   1  -1  329.86    1.57
  -2   1  -1  273.21    1.43
   2  -1   1  311.32    1.58
   2  -1   1  275.77    0.99
   2  -1   1  360.21    1.92
   2  -1   1  296.24    1.48
   2  -1   1  298.15    1.48
  -2   1  -2   49.35    0.68
  -2   1  -2   42.41    0.63
  -2   1  -2   50.63    0.43
  -2   1  -2   43.52    0.57
  -2   1  -2   45.79    0.63
  -2   1  -2   61.41    0.95
   2  -1   2   36.88    0.47
   2  -1   2   50.50    0.44
   2  -1   2   41.81    0.57
   2  -1   2   44.76    0.63
   2  -1   2   42.48    0.61
  -2   1  -3   43.05    0.67
  -2   1  -3   35.75    0.62
  -2   1  -3   35.28    0.56
  -2   1  -3   41.40    0.60
  -2   1  -3   45.32    0.68
  -2   1  -3   36.38    0.62
   2  -1   3   37.92    0.64
   2  -1   3   33.23    0.53
   2  -1   3   43.99    0.39
   2  -1   3   37.65    0.37
   2  -1   3   38.68    0.59
   2  -1   3   39.95    0.64
   2  -1   3   39.64    0.63
  -2   1  -4  153.41    1.31
  -2   1  -4  131.26    1.21
  -2   1  -4  124.26    1.15
  -2   1  -4  154.80    1.23
  -2   1  -4  245.06    2.14
  -2   1  -4  135.38    1.27
   2  -1   4  141.31    1.27
   2  -1   4  125.13    1.14
   2  -1   4  144.31    0.77
   2  -1   4  133.75    0.74
   2  -1   4  137.61    1.17
   2  -1   4  146.24    1.30
  -2   1  -5  307.54    1.96
  -2   1  -5  276.41    1.84
  -2   1  -5  254.63    1.82
  -2   1  -5  305.90    1.89
  -2   1  -5  526.31    3.48
  -2   1  -5  265.29    1.91
   2  -1   5  274.27    1.87
   2  -1   5  261.36    1.82
   2  -1   5  294.92    1.25
   2  -1   5  274.36    1.20
   2  -1   5  277.00    1.80
   2  -1   5  288.31    1.97
  -2   1  -6   34.12    0.73
  -2   1  -6   28.28    0.69
  -2   1  -6   25.01    0.69
  -2   1  -6   27.97    0.48
  -2   1  -6   29.63    0.69
  -2   1  -6   31.38    0.77
  -2   1  -6   28.58    0.73
   2  -1   6   27.60    0.68
   2  -1   6   27.65    0.71
   2  -1   6   29.90    0.49
   2  -1   6   27.96    0.68
   2  -1   6   30.09    0.75
   2  -1   6   30.71    0.75
  -2   1  -7  327.22    2.29
  -2   1  -7  291.98    2.11
  -2   1  -7  272.04    2.24
  -2   1  -7  280.80    1.55
  -2   1  -7  303.51    2.20
  -2   1  -7  339.72    2.51
  -2   1  -7  287.59    2.32
   2  -1   7  286.95    2.16
   2  -1   7  287.92    2.28
   2  -1   7  309.57    1.62
   2  -1   7  300.57    2.21
   2  -1   7  323.39    2.46
   2  -1   7  319.89    2.42
  -2   1  -8   47.68    0.99
  -2   1  -8   44.50    0.95
  -2   1  -8   40.85    1.01
  -2   1  -8   43.60    0.73
  -2   1  -8   44.86    1.00
  -2   1  -8   48.47    1.10
  -2   1  -8   44.95    1.06
   2  -1   8   45.22    0.96
   2  -1   8   44.91    1.03
   2  -1   8   45.37    1.00
   2  -1   8   51.79    1.14
   2  -1   8   48.31    1.09
  -2   1  -9    0.37    0.33
  -2   1  -9    0.23    0.30
  -2   1  -9    0.27    0.29
  -2   1  -9    0.15    0.25
  -2   1  -9    0.35    0.37
  -2   1  -9    0.39    0.29
  -2   1  -9    0.11    0.27
   2  -1   9    0.73    0.30
   2  -1   9    0.17    0.30
   2  -1   9    0.45    0.26
   2  -1   9    0.13    0.29
   2  -1   9    0.78    0.40
   2  -1   9    0.48    0.36
  -2   1 -10   15.89    0.85
  -2   1 -10   13.45    0.72
  -2   1 -10   12.39    0.78
  -2   1 -10   13.43    0.62
  -2   1 -10   15.31    1.01
  -2   1 -10   15.53    0.94
  -2   1 -10   13.77    0.82
   2  -1  10   15.21    0.74
   2  -1  10   15.82    0.67
   2  -1  10   14.96    0.83
   2  -1  10   15.97    0.94
  -2   1 -11   35.22    1.03
  -2   1 -11   35.80    1.19
  -2   1 -11   35.84    0.91
  -2   1 -11   41.60    1.44
  -2   1 -11   37.92    1.27
   2  -1  11   40.64    1.15
   2  -1  11   42.21    1.01
   2  -1  11   39.98    1.22
   2  -1  11   38.75    1.39
   2  -1  11   45.03    1.40
  -2   1 -12   11.34    0.88
  -2   1 -12   12.65    0.96
  -2   1 -12   10.98    0.81
  -2   1 -12   15.15    1.09
   2  -1  12   15.37    0.98
   2  -1  12   16.05    1.02
   2  -1  12   17.22    1.28
  -2   1 -13    3.54    0.64
  -2   1 -13    3.43    0.60
  -2   1 -13    3.22    0.69
  -2   1 -13    4.12    0.78
   2  -1  13    3.64    0.69
   2  -1  13    3.84    0.70
  -2   0  13    0.17    0.55
  -2   0  13    1.22    0.62
  -2   0  13   -0.49    0.77
   2   0 -13    0.23    0.64
   2   0 -13   -0.44    0.66
   2   0 -13    0.35    0.66
  -2   0  12    6.06    0.75
  -2   0  12    6.63    0.77
  -2   0  12    8.22    0.90
   2   0 -12    5.96    0.71
   2   0 -12    8.23    0.99
   2   0 -12    5.25    0.80
  -2   0  11    5.46    0.53
  -2   0  11    3.69    0.51
  -2   0  11    5.02    0.49
  -2   0  11    4.82    0.60
  -2   0  11    5.97    0.85
  -2   0  11    4.72    0.71
   2   0 -11    3.40    0.50
   2   0 -11    4.07    0.60
   2   0 -11    4.90    0.77
   2   0 -11    4.38    0.68
  -2   0  10   60.20    1.09
  -2   0  10   50.78    1.03
  -2   0  10   62.57    1.05
  -2   0  10   54.07    1.35
  -2   0  10   57.93    1.50
  -2   0  10   66.15    1.53
   2   0 -10   55.83    1.33
   2   0 -10   57.34    1.37
   2   0 -10   50.17    1.40
   2   0 -10   62.76    1.48
  -2   0   9   68.11    1.07
  -2   0   9   59.18    1.00
  -2   0   9   65.47    1.02
  -2   0   9   63.99    1.32
  -2   0   9   64.09    1.29
  -2   0   9   62.14    1.38
  -2   0   9   66.38    1.43
  -2   0   9   71.49    1.46
   2   0  -9   58.60    1.26
   2   0  -9   64.19    1.29
   2   0  -9   56.42    1.31
   2   0  -9   70.03    1.44
  -2   0   8    7.41    0.47
  -2   0   8    7.38    0.45
  -2   0   8    7.50    0.48
  -2   0   8    7.40    0.59
  -2   0   8    7.99    0.60
  -2   0   8    8.28    0.61
  -2   0   8    7.82    0.67
  -2   0   8    8.30    0.67
   2   0  -8    7.10    0.57
   2   0  -8    7.41    0.62
   2   0  -8    5.04    0.59
   2   0  -8    6.36    0.61
  -2   0   7   45.75    0.76
  -2   0   7   39.50    0.71
  -2   0   7   44.16    0.75
  -2   0   7   44.18    0.93
  -2   0   7   43.31    0.93
  -2   0   7   38.37    0.95
  -2   0   7   44.29    1.01
  -2   0   7   45.95    1.04
   2   0  -7   40.33    0.91
   2   0  -7   42.76    0.95
   2   0  -7   34.55    0.92
   2   0  -7   45.92    1.03
   2   0  -7   38.67    0.94
  -2   0   6    8.93    0.38
  -2   0   6    7.24    0.34
  -2   0   6    8.24    0.40
  -2   0   6    8.28    0.44
  -2   0   6    7.46    0.44
  -2   0   6    6.81    0.47
  -2   0   6    8.58    0.52
  -2   0   6    6.96    0.48
   2   0  -6    6.97    0.45
   2   0  -6    7.75    0.48
   2   0  -6    5.25    0.44
   2   0  -6    7.72    0.50
   2   0  -6    7.42    0.48
  -2   0   5  131.93    1.04
  -2   0   5  116.64    0.98
  -2   0   5  125.75    1.06
  -2   0   5  132.07    1.27
  -2   0   5  134.53    1.35
  -2   0   5  113.42    1.29
  -2   0   5  129.01    1.37
  -2   0   5  126.29    1.36
   2   0  -5  126.38    1.25
   2   0  -5  135.64    1.37
   2   0  -5  105.92    1.25
   2   0  -5  133.90    1.40
   2   0  -5  116.76    1.30
  -2   0   4   18.83    0.41
  -2   0   4   16.95    0.36
  -2   0   4   18.85    0.43
  -2   0   4   19.63    0.47
  -2   0   4   19.20    0.51
  -2   0   4   16.79    0.50
  -2   0   4   18.52    0.52
  -2   0   4   25.71    0.75
   2   0  -4   21.11    0.50
   2   0  -4   19.25    0.52
   2   0  -4   15.01    0.48
  -2   0   3   75.52    0.66
  -2   0   3   75.67    0.74
  -2   0   3   84.15    0.80
  -2   0   3   82.64    0.92
  -2   0   3   68.21    0.84
  -2   0   3  117.27    1.34
   2   0  -3   77.38    0.67
   2   0  -3   90.11    0.84
   2   0  -3   88.19    0.95
   2   0  -3   67.17    0.82
   2   0  -3   70.30    0.84
  -2   0   2  334.06    1.30
  -2   0   2  339.20    1.47
  -2   0   2  353.13    1.41
  -2   0   2  375.23    1.75
  -2   0   2  313.73    1.55
  -2   0   2  349.89    1.69
  -2   0   2  323.25    1.63
   2   0  -2  317.13    1.26
   2   0  -2  310.47    1.54
   2   0  -2  353.69    1.71
   2   0  -2  313.21    1.60
  -2   0   1   93.56    0.69
  -2   0   1   90.54    0.75
  -2   0   1   88.16    0.61
  -2   0   1   89.72    0.79
  -2   0   1   86.97    0.79
   2   0  -1   90.48    0.68
   2   0  -1   92.30    0.63
   2   0  -1  106.84    0.87
   2   0  -1   89.93    0.73
   2   0  -1   92.79    0.81
   2   0  -1   84.76    0.77
  -2   0   0 1540.61    7.09
  -2   0   0 1289.34    5.28
  -2   0   0 1689.98    7.38
  -2   0   0 1357.16    5.94
  -2   0   0 1339.29    6.88
   2   0   0 1514.50    6.48
   2   0   0 1294.34    5.08
   2   0   0 1678.61    7.49
   2   0   0 1334.07    5.88
   2   0   0 1347.27    6.95
  -2   0  -1   48.23    0.57
  -2   0  -1   45.46    0.56
  -2   0  -1   43.71    0.46
  -2   0  -1   53.28    0.52
  -2   0  -1   42.51    0.41
  -2   0  -1   47.20    0.43
  -2   0  -1   49.49    0.58
  -2   0  -1   42.49    0.54
   2   0   1   45.27    0.47
   2   0   1   53.06    0.52
   2   0   1   47.32    0.57
   2   0   1   43.25    0.54
  -2   0  -2   53.29    0.66
  -2   0  -2   47.26    0.60
  -2   0  -2   45.40    0.55
  -2   0  -2   53.83    0.52
  -2   0  -2   50.63    0.48
  -2   0  -2   52.24    0.64
  -2   0  -2   42.89    0.58
   2   0   2   50.37    0.64
   2   0   2   45.47    0.55
   2   0   2   51.85    0.51
   2   0   2   48.42    0.47
   2   0   2   49.54    0.63
   2   0   2   47.67    0.62
  -2   0  -3  279.08    1.59
  -2   0  -3  251.45    1.41
  -2   0  -3  234.26    1.40
  -2   0  -3  276.84    1.27
  -2   0  -3  301.34    1.65
  -2   0  -3  246.53    1.52
   2   0   3  262.06    1.55
   2   0   3  250.26    1.44
   2   0   3  276.22    1.22
   2   0   3  256.01    1.17
   2   0   3  255.01    1.47
   2   0   3  266.85    1.56
  -2   0  -4  111.02    1.34
  -2   0  -4  109.95    1.00
  -2   0  -4  102.23    1.05
  -2   0  -4  120.26    0.97
  -2   0  -4  128.25    1.19
  -2   0  -4  105.63    1.09
   2   0   4  115.81    1.12
   2   0   4   98.33    1.02
   2   0   4  113.48    0.85
   2   0   4  117.83    0.96
   2   0   4  121.73    1.17
   2   0   4  117.55    1.14
  -2   0  -5    0.76    0.18
  -2   0  -5    0.77    0.19
  -2   0  -5    0.58    0.17
  -2   0  -5    0.56    0.14
  -2   0  -5    0.75    0.16
  -2   0  -5    0.99    0.29
  -2   0  -5    0.59    0.17
   2   0   5    0.88    0.21
   2   0   5    0.83    0.19
   2   0   5    0.52    0.14
   2   0   5    0.59    0.17
   2   0   5    0.69    0.20
   2   0   5    0.51    0.16
  -2   0  -6   56.04    0.83
  -2   0  -6   51.47    0.94
  -2   0  -6   54.43    0.75
  -2   0  -6   54.09    0.85
  -2   0  -6   63.87    1.03
  -2   0  -6   56.25    0.97
   2   0   6   59.66    0.95
   2   0   6   55.00    0.96
   2   0   6   60.43    0.78
   2   0   6   60.30    0.89
   2   0   6   63.16    1.03
   2   0   6   60.73    1.00
  -2   0  -7    0.72    0.24
  -2   0  -7    0.32    0.22
  -2   0  -7    0.28    0.22
  -2   0  -7    0.38    0.19
  -2   0  -7    0.45    0.22
  -2   0  -7    0.73    0.30
  -2   0  -7    0.51    0.37
   2   0   7    0.58    0.24
   2   0   7    0.45    0.24
   2   0   7    0.94    0.22
   2   0   7    0.79    0.24
   2   0   7    0.47    0.24
   2   0   7    0.42    0.22
  -2   0  -8   22.58    0.75
  -2   0  -8   21.26    0.65
  -2   0  -8   19.13    0.75
  -2   0  -8   21.21    0.62
  -2   0  -8   18.61    0.69
  -2   0  -8   24.18    0.82
  -2   0  -8   20.98    0.77
   2   0   8   22.76    0.74
   2   0   8   22.30    0.80
   2   0   8   22.45    0.63
   2   0   8   23.18    0.74
   2   0   8   22.83    0.82
   2   0   8   23.40    0.81
  -2   0  -9    0.47    0.31
  -2   0  -9    0.39    0.30
  -2   0  -9    0.10    0.29
  -2   0  -9    0.32    0.28
  -2   0  -9    0.39    0.32
  -2   0  -9    0.41    0.35
  -2   0  -9    0.26    0.26
   2   0   9    0.91    0.33
   2   0   9    0.26    0.32
   2   0   9   -0.06    0.28
   2   0   9    0.70    0.32
   2   0   9    0.67    0.36
   2   0   9    0.15    0.33
  -2   0 -10   18.74    0.89
  -2   0 -10   17.23    0.72
  -2   0 -10   16.96    0.84
  -2   0 -10   16.05    0.71
  -2   0 -10   16.49    0.86
  -2   0 -10   19.16    0.97
  -2   0 -10   17.35    0.90
   2   0  10   19.07    0.81
   2   0  10   20.93    0.79
   2   0  10   19.19    0.86
   2   0  10   19.51    0.97
  -2   0 -11   27.61    0.88
  -2   0 -11   27.89    1.08
  -2   0 -11   27.67    0.93
  -2   0 -11   27.82    1.28
  -2   0 -11   27.76    1.14
   2   0  11   32.53    1.03
   2   0  11   29.86    1.08
   2   0  11   27.91    1.26
   2   0  11   32.02    1.24
  -2   0 -12    0.99    0.46
  -2   0 -12    0.92    0.41
  -2   0 -12    0.88    0.45
  -2   0 -12    0.84    0.65
  -2   0 -12    0.91    0.52
   2   0  12    0.80    0.49
   2   0  12    1.00    0.53
   2   0  12    0.42    0.47
   2   0  12    1.71    0.70
   2   0  12    1.77    0.65
  -2   0 -13    3.78    0.60
  -2   0 -13    3.17    0.65
  -2   0 -13    1.74    0.61
  -2   0 -13    3.00    0.76
   2   0  13    2.62    0.62
   2   0  13    3.53    0.72
   2   0  13    3.62    0.84
  -2  -1  13    0.40    0.54
  -2  -1  13   -0.18    0.57
   2   1 -13   -0.72    0.60
   2   1 -13    0.64    0.67
   2   1 -13    0.43    0.69
  -2  -1  12    1.26    0.43
  -2  -1  12    1.07    0.42
  -2  -1  12    2.25    0.55
  -2  -1  12    0.81    0.68
   2   1 -12    1.39    0.54
   2   1 -12    1.85    0.56
   2   1 -12    1.72    0.71
  -2  -1  11   -0.11    0.32
  -2  -1  11    0.41    0.39
  -2  -1  11    0.04    0.37
  -2  -1  11   -0.34    0.34
  -2  -1  11   -0.08    0.62
  -2  -1  11    0.11    0.45
   2   1 -11    0.30    0.41
   2   1 -11    0.14    0.48
   2   1 -11   -0.96    0.53
   2   1 -11   -0.21    0.51
  -2  -1  10   91.94    1.20
  -2  -1  10   77.72    1.12
  -2  -1  10   89.39    1.37
  -2  -1  10   94.38    1.95
  -2  -1  10   88.04    1.67
  -2  -1  10   87.63    1.72
  -2  -1  10  148.19    2.76
   2   1 -10   85.01    1.62
   2   1 -10   92.22    1.55
   2   1 -10   78.92    1.66
   2   1 -10   94.47    1.76
  -2  -1   9    9.09    0.50
  -2  -1   9    7.79    0.48
  -2  -1   9    9.21    0.59
  -2  -1   9    7.43    0.69
  -2  -1   9    9.04    0.69
  -2  -1   9    8.48    0.70
  -2  -1   9    8.32    0.76
  -2  -1   9    9.27    0.78
   2   1  -9    7.12    0.64
   2   1  -9    8.05    0.66
   2   1  -9    7.10    0.74
   2   1  -9    7.04    0.72
  -2  -1   8   41.43    0.72
  -2  -1   8   40.73    0.85
  -2  -1   8   40.97    1.01
  -2  -1   8   39.68    0.95
  -2  -1   8   38.05    1.01
  -2  -1   8   40.61    1.05
  -2  -1   8   43.51    1.09
   2   1  -8   40.17    1.01
   2   1  -8   43.25    0.99
   2   1  -8   32.21    0.95
   2   1  -8   36.77    1.00
   2   1  -8   65.85    1.56
  -2  -1   7    8.05    0.37
  -2  -1   7    7.13    0.34
  -2  -1   7    7.72    0.47
  -2  -1   7    8.40    0.50
  -2  -1   7    8.69    0.52
  -2  -1   7    7.12    0.54
  -2  -1   7    8.16    0.57
  -2  -1   7    8.83    0.58
   2   1  -7    8.23    0.54
   2   1  -7    8.46    0.54
   2   1  -7    6.48    0.55
   2   1  -7    8.67    0.57
   2   1  -7    7.39    0.55
  -2  -1   6    3.39    0.26
  -2  -1   6    2.94    0.24
  -2  -1   6    2.57    0.28
  -2  -1   6    2.22    0.27
  -2  -1   6    3.80    0.38
  -2  -1   6    3.11    0.36
  -2  -1   6    3.11    0.38
  -2  -1   6    3.63    0.41
   2   1  -6    3.39    0.40
   2   1  -6    3.58    0.39
   2   1  -6    2.15    0.31
   2   1  -6    3.30    0.41
   2   1  -6    3.20    0.40
  -2  -1   5   45.55    0.52
  -2  -1   5   42.03    0.49
  -2  -1   5   45.79    0.73
  -2  -1   5   50.12    0.84
  -2  -1   5   50.01    0.81
  -2  -1   5   40.07    0.80
  -2  -1   5   46.50    0.83
  -2  -1   5   42.29    0.96
   2   1  -5   50.19    0.86
   2   1  -5   51.45    0.84
   2   1  -5   38.06    0.77
   2   1  -5   50.68    0.88
   2   1  -5   40.46    0.78
  -2  -1   4   19.23    0.30
  -2  -1   4   16.91    0.28
  -2  -1   4   18.19    0.46
  -2  -1   4   17.87    0.57
  -2  -1   4   19.01    0.50
  -2  -1   4   15.69    0.48
  -2  -1   4   28.16    0.74
  -2  -1   4   18.48    0.50
   2   1  -4   21.23    0.53
   2   1  -4   20.46    0.52
   2   1  -4   30.35    0.81
   2   1  -4   17.00    0.48
  -2  -1   3    5.48    0.15
  -2  -1   3    4.76    0.15
  -2  -1   3    4.99    0.28
  -2  -1   3    5.52    0.27
  -2  -1   3    5.83    0.29
  -2  -1   3    3.97    0.28
  -2  -1   3    5.03    0.27
  -2  -1   3    5.08    0.28
   2   1  -3    5.80    0.31
   2   1  -3    5.33    0.30
  -2  -1   2  276.99    1.10
  -2  -1   2  248.82    1.35
  -2  -1   2  272.87    1.40
  -2  -1   2  304.31    1.54
  -2  -1   2  214.67    1.23
  -2  -1   2  273.28    1.43
  -2  -1   2  255.31    1.38
   2   1  -2  256.26    0.77
   2   1  -2  282.40    1.44
   2   1  -2  316.96    1.58
   2   1  -2  227.44    1.26
   2   1  -2  269.22    1.43
   2   1  -2  238.74    1.34
  -2  -1   1    8.15    0.18
  -2  -1   1    7.85    0.25
  -2  -1   1    9.12    0.29
  -2  -1   1    5.85    0.21
  -2  -1   1    8.18    0.25
  -2  -1   1    2.46    0.15
   2   1  -1    8.35    0.18
   2   1  -1    8.13    0.26
   2   1  -1    9.39    0.29
   2   1  -1    7.12    0.22
   2   1  -1    8.07    0.27
   2   1  -1    7.41    0.24
  -2  -1   0    0.36    0.08
  -2  -1   0    0.10    0.11
  -2  -1   0    0.11    0.09
  -2  -1   0    0.10    0.05
  -2  -1   0    0.00    0.07
  -2  -1   0    0.02    0.03
   2   1   0    0.07    0.07
   2   1   0    0.06    0.08
   2   1   0    0.19    0.05
   2   1   0    0.17    0.07
  -2  -1  -1   22.22    0.38
  -2  -1  -1   20.33    0.38
  -2  -1  -1   23.42    0.40
  -2  -1  -1   22.56    0.37
  -2  -1  -1    0.12    0.05
   2   1   1   22.66    0.39
   2   1   1   19.22    0.36
   2   1   1   22.38    0.37
  -2  -1  -2    3.60    0.24
  -2  -1  -2    3.07    0.21
  -2  -1  -2    3.40    0.23
  -2  -1  -2    3.15    0.11
  -2  -1  -2    4.05    0.21
  -2  -1  -2    3.11    0.19
   2   1   2    3.59    0.23
   2   1   2    3.35    0.21
   2   1   2    3.78    0.11
   2   1   2    3.47    0.20
   2   1   2    3.48    0.21
  -2  -1  -3   14.17    0.35
  -2  -1  -3   14.53    0.41
  -2  -1  -3   14.48    0.37
  -2  -1  -3   12.97    0.26
  -2  -1  -3   15.83    0.40
  -2  -1  -3   14.57    0.39
   2   1   3   15.86    0.43
   2   1   3   16.69    0.39
   2   1   3   15.05    0.37
   2   1   3   15.86    0.28
   2   1   3   16.18    0.41
   2   1   3   15.54    0.39
  -2  -1  -4    1.78    0.22
  -2  -1  -4    2.89    0.25
  -2  -1  -4    0.90    0.15
  -2  -1  -4    1.08    0.16
  -2  -1  -4    1.42    0.18
  -2  -1  -4    1.54    0.19
  -2  -1  -4    1.25    0.18
   2   1   4    1.42    0.20
   2   1   4    1.44    0.24
   2   1   4    1.49    0.17
   2   1   4    1.54    0.16
   2   1   4    1.17    0.16
   2   1   4    1.56    0.19
  -2  -1  -5  304.87    1.96
  -2  -1  -5  291.45    1.52
  -2  -1  -5  276.31    1.92
  -2  -1  -5  281.84    1.70
  -2  -1  -5  253.21    1.48
  -2  -1  -5  333.96    2.05
  -2  -1  -5  295.64    1.95
   2   1   5  310.45    2.00
   2   1   5  296.91    1.98
   2   1   5  309.64    1.83
   2   1   5  307.40    1.64
   2   1   5  320.65    2.04
   2   1   5  320.04    2.03
  -2  -1  -6   57.14    0.94
  -2  -1  -6   50.44    0.71
  -2  -1  -6   46.54    0.90
  -2  -1  -6   51.26    0.82
  -2  -1  -6   60.49    0.99
  -2  -1  -6   54.42    1.00
   2   1   6   57.91    0.96
   2   1   6   53.03    0.94
   2   1   6   57.21    0.85
   2   1   6   56.17    0.83
   2   1   6   60.31    1.00
   2   1   6   55.88    0.95
  -2  -1  -7    0.89    0.25
  -2  -1  -7    1.92    0.27
  -2  -1  -7    1.27    0.30
  -2  -1  -7    1.41    0.27
  -2  -1  -7    1.18    0.25
  -2  -1  -7    1.06    0.24
  -2  -1  -7    1.48    0.30
   2   1   7    1.95    0.33
   2   1   7    1.30    0.31
   2   1   7    1.33    0.25
   2   1   7    1.36    0.25
   2   1   7    1.38    0.28
   2   1   7    2.11    0.34
  -2  -1  -8    2.51    0.36
  -2  -1  -8    2.34    0.31
  -2  -1  -8    2.05    0.37
  -2  -1  -8    2.14    0.32
  -2  -1  -8    1.49    0.31
  -2  -1  -8    2.19    0.32
  -2  -1  -8    2.25    0.36
   2   1   8    1.75    0.32
   2   1   8    2.21    0.38
   2   1   8    1.84    0.31
   2   1   8    1.79    0.32
   2   1   8    2.78    0.40
   2   1   8    1.72    0.31
  -2  -1  -9    1.31    0.39
  -2  -1  -9    1.34    0.32
  -2  -1  -9    1.22    0.37
  -2  -1  -9    0.63    0.31
  -2  -1  -9    0.89    0.35
  -2  -1  -9    1.13    0.32
  -2  -1  -9    0.79    0.29
   2   1   9    2.09    0.40
   2   1   9    0.78    0.33
   2   1   9    1.23    0.34
   2   1   9    0.62    0.33
   2   1   9    1.63    0.40
  -2  -1 -10    0.48    0.32
  -2  -1 -10    0.47    0.34
  -2  -1 -10   -0.01    0.32
  -2  -1 -10    0.21    0.36
  -2  -1 -10    0.18    0.44
  -2  -1 -10    0.04    0.31
   2   1  10    0.00    0.33
   2   1  10    0.00    0.36
   2   1  10    0.99    0.36
   2   1  10    0.28    0.33
   2   1  10    0.05    0.39
  -2  -1 -11    5.43    0.61
  -2  -1 -11    5.62    0.60
  -2  -1 -11    6.06    0.71
  -2  -1 -11    7.84    0.82
  -2  -1 -11    4.03    0.51
   2   1  11    8.17    0.77
   2   1  11    7.29    0.86
   2   1  11    7.32    0.76
   2   1  11    7.00    0.76
   2   1  11    7.36    0.92
  -2  -1 -12   -0.14    0.40
  -2  -1 -12    0.15    0.45
  -2  -1 -12   -0.07    0.59
  -2  -1 -12    0.08    0.52
   2   1  12   -0.29    0.47
   2   1  12   -0.11    0.47
   2   1  12    0.07    0.58
  -2  -1 -13    4.07    0.61
  -2  -1 -13    2.74    0.66
  -2  -1 -13    2.68    0.86
   2   1  13    3.25    0.65
   2   1  13    2.76    0.67
   2   1  13    2.94    0.69
  -2  -2  13    4.58    0.64
  -2  -2  13    1.93    0.61
   2   2 -13    1.98    0.65
   2   2 -13    4.95    0.75
   2   2 -13    3.99    0.87
  -2  -2  12    6.03    0.65
  -2  -2  12    6.48    0.78
  -2  -2  12    6.41    0.77
  -2  -2  12    6.96    0.96
   2   2 -12    5.41    0.65
   2   2 -12    6.26    0.71
   2   2 -12    3.99    0.60
  -2  -2  11   27.93    0.74
  -2  -2  11   27.68    0.80
  -2  -2  11   31.19    1.00
  -2  -2  11   29.81    1.13
  -2  -2  11   32.37    1.35
   2   2 -11   30.52    1.19
   2   2 -11   30.20    1.07
   2   2 -11   26.69    1.34
   2   2 -11   28.38    1.44
  -2  -2  10    8.98    0.49
  -2  -2  10   10.65    0.55
  -2  -2  10    9.83    0.70
  -2  -2  10   10.68    0.80
  -2  -2  10   10.62    0.80
  -2  -2  10   10.92    0.96
  -2  -2  10   12.09    0.90
   2   2 -10   10.97    0.81
   2   2 -10   11.10    0.76
   2   2 -10   10.01    0.91
   2   2 -10   10.68    0.85
  -2  -2   9    3.55    0.39
  -2  -2   9    4.80    0.40
  -2  -2   9    5.53    0.57
  -2  -2   9    4.36    0.48
  -2  -2   9    3.83    0.46
  -2  -2   9    4.98    0.58
  -2  -2   9    5.43    0.57
   2   2  -9    4.79    0.59
   2   2  -9    5.99    0.60
   2   2  -9    5.52    0.63
   2   2  -9    4.77    0.56
  -2  -2   8   56.20    0.72
  -2  -2   8   56.20    1.66
  -2  -2   8   66.94    1.28
  -2  -2   8   63.76    1.11
  -2  -2   8   66.05    1.30
  -2  -2   8   66.84    1.27
  -2  -2   8   74.71    1.34
   2   2  -8   71.15    0.79
   2   2  -8   71.73    1.33
   2   2  -8   76.86    1.21
   2   2  -8   58.60    1.23
   2   2  -8   63.96    1.25
   2   2  -8   73.83    1.34
  -2  -2   7    2.51    0.34
  -2  -2   7    2.91    0.38
  -2  -2   7    2.65    0.33
  -2  -2   7    2.07    0.36
  -2  -2   7    2.09    0.30
  -2  -2   7    2.27    0.30
   2   2  -7    2.41    0.25
   2   2  -7    2.87    0.39
   2   2  -7    2.72    0.33
   2   2  -7    1.60    0.30
   2   2  -7    2.85    0.39
  -2  -2   6   87.58    0.66
  -2  -2   6  114.09    1.29
  -2  -2   6  116.64    1.42
  -2  -2   6  120.96    1.29
  -2  -2   6  105.07    1.37
  -2  -2   6  117.18    1.38
  -2  -2   6  121.30    1.41
   2   2  -6  129.19    1.51
   2   2  -6  134.34    1.37
   2   2  -6   95.12    1.29
   2   2  -6  121.84    1.43
   2   2  -6  105.67    1.33
  -2  -2   5   77.84    0.49
  -2  -2   5   82.54    0.50
  -2  -2   5   88.93    1.09
  -2  -2   5   97.02    1.20
  -2  -2   5  100.79    1.10
  -2  -2   5   83.60    1.13
  -2  -2   5   95.66    1.14
  -2  -2   5   95.07    1.15
   2   2  -5  104.18    1.26
   2   2  -5  107.82    1.15
   2   2  -5   77.95    1.08
   2   2  -5   97.70    1.17
   2   2  -5   86.44    1.10
  -2  -2   4  646.80    2.69
  -2  -2   4  678.90    2.89
  -2  -2   4  627.96    3.02
  -2  -2   4  579.25    2.64
  -2  -2   4  648.22    2.91
  -2  -2   4  641.29    2.64
   2   2  -4  750.87    3.06
   2   2  -4  817.75    3.90
   2   2  -4  563.10    2.59
   2   2  -4  667.74    2.73
   2   2  -4  600.69    2.57
  -2  -2   3   26.60    0.55
  -2  -2   3   28.09    0.57
  -2  -2   3   30.78    0.55
  -2  -2   3   24.78    0.53
  -2  -2   3   27.91    0.52
   2   2  -3   29.15    0.58
   2   2  -3   33.98    0.59
   2   2  -3   23.35    0.51
   2   2  -3   28.65    0.53
   2   2  -3   24.57    0.49
  -2  -2   2    1.18    0.17
  -2  -2   2    1.27    0.18
  -2  -2   2    1.02    0.15
  -2  -2   2    1.05    0.15
  -2  -2   2    1.35    0.16
  -2  -2   2    1.46    0.16
   2   2  -2    0.83    0.15
   2   2  -2    1.09    0.16
   2   2  -2    1.43    0.17
   2   2  -2    1.01    0.13
   2   2  -2    0.75    0.11
  -2  -2   1  268.96    1.16
  -2  -2   1  256.85    1.42
  -2  -2   1  274.85    1.44
  -2  -2   1  217.62    1.33
  -2  -2   1  259.06    1.17
  -2  -2   1  243.91    1.13
   2   2  -1  263.80    1.03
   2   2  -1  266.28    1.46
   2   2  -1  226.65    1.34
   2   2  -1  294.08    1.49
   2   2  -1  243.53    1.13
   2   2  -1  275.95    1.23
   2   2  -1  238.17    1.14
  -2  -2   0   42.26    0.46
  -2  -2   0   41.96    0.56
  -2  -2   0   36.60    0.55
  -2  -2   0   48.32    0.62
  -2  -2   0   44.11    0.39
  -2  -2   0   43.24    0.45
  -2  -2   0   38.89    0.43
   2   2   0   43.08    0.47
   2   2   0   37.87    0.55
   2   2   0   47.76    0.62
   2   2   0   43.41    0.39
   2   2   0   42.72    0.46
   2   2   0   39.16    0.44
  -2  -2  -1  682.83    4.02
  -2  -2  -1  652.41    2.02
  -2  -2  -1  611.04    3.57
  -2  -2  -1  742.12    3.79
  -2  -2  -1  761.84    3.73
  -2  -2  -1  640.27    2.64
   2   2   1  641.53    3.63
   2   2   1  737.32    4.06
   2   2   1  645.13    2.13
   2   2   1  719.51    2.30
   2   2   1  696.78    3.78
   2   2   1  647.05    3.34
  -2  -2  -2  153.20    1.13
  -2  -2  -2  150.87    0.95
  -2  -2  -2  141.36    1.12
  -2  -2  -2  141.27    0.56
  -2  -2  -2  175.02    1.04
  -2  -2  -2  142.10    0.94
   2   2   2  156.34    1.15
   2   2   2  166.24    1.20
   2   2   2  153.70    1.15
   2   2   2  148.04    0.58
   2   2   2  157.86    1.01
   2   2   2  151.91    0.99
  -2  -2  -3   82.20    0.93
  -2  -2  -3   78.11    0.69
  -2  -2  -3   76.87    0.90
  -2  -2  -3   81.47    0.90
  -2  -2  -3   80.49    0.58
  -2  -2  -3   95.60    0.88
   2   2   3   90.64    0.97
   2   2   3   86.51    0.95
   2   2   3   86.03    0.92
   2   2   3   80.67    0.58
   2   2   3   92.48    0.88
   2   2   3   88.03    0.86
  -2  -2  -4    1.18    0.20
  -2  -2  -4    0.72    0.15
  -2  -2  -4    0.55    0.17
  -2  -2  -4    0.60    0.16
  -2  -2  -4    0.81    0.13
  -2  -2  -4    1.04    0.20
  -2  -2  -4    0.03    0.09
   2   2   4    0.91    0.19
   2   2   4    0.60    0.16
   2   2   4    0.84    0.16
   2   2   4    1.07    0.15
   2   2   4    0.74    0.15
   2   2   4    0.87    0.16
  -2  -2  -5   15.43    0.53
  -2  -2  -5   13.29    0.36
  -2  -2  -5   14.85    0.51
  -2  -2  -5   13.17    0.39
  -2  -2  -5   17.42    0.49
  -2  -2  -5   15.88    0.50
   2   2   5   15.76    0.54
   2   2   5   14.97    0.53
   2   2   5   15.93    0.50
   2   2   5   14.71    0.41
   2   2   5   17.90    0.53
   2   2   5   16.12    0.50
  -2  -2  -6  152.16    1.56
  -2  -2  -6  128.53    0.96
  -2  -2  -6  135.31    1.51
  -2  -2  -6  143.60    1.46
  -2  -2  -6  114.18    1.18
  -2  -2  -6  165.24    1.57
  -2  -2  -6  150.64    1.51
   2   2   6  163.36    1.64
   2   2   6  152.68    1.58
   2   2   6  160.69    1.51
   2   2   6  150.27    1.29
   2   2   6  168.65    1.62
   2   2   6  156.27    1.55
  -2  -2  -7    7.40    0.47
  -2  -2  -7    7.01    0.37
  -2  -2  -7    7.12    0.51
  -2  -2  -7    8.00    0.51
  -2  -2  -7    5.55    0.42
  -2  -2  -7    9.95    0.53
  -2  -2  -7    7.86    0.49
   2   2   7    8.48    0.53
   2   2   7    7.83    0.50
   2   2   7    8.21    0.51
   2   2   7    7.89    0.46
   2   2   7    9.65    0.56
   2   2   7    9.08    0.54
  -2  -2  -8   65.85    1.20
  -2  -2  -8   50.87    0.73
  -2  -2  -8   56.80    1.17
  -2  -2  -8   59.34    1.11
  -2  -2  -8   50.19    0.97
  -2  -2  -8   69.61    1.24
  -2  -2  -8   63.43    1.26
   2   2   8   72.28    1.28
   2   2   8   68.54    1.17
   2   2   8   68.25    1.10
   2   2   8   72.40    1.30
   2   2   8   68.03    1.25
  -2  -2  -9    1.55    0.41
  -2  -2  -9    1.51    0.31
  -2  -2  -9    1.20    0.38
  -2  -2  -9    0.85    0.35
  -2  -2  -9    1.01    0.35
  -2  -2  -9    1.35    0.42
  -2  -2  -9    1.74    0.38
   2   2   9    1.09    0.33
   2   2   9    1.16    0.52
   2   2   9    1.38    0.38
   2   2   9    1.52    0.37
   2   2   9    1.13    0.40
   2   2   9    2.37    0.44
  -2  -2 -10   41.89    0.79
  -2  -2 -10   48.71    1.25
  -2  -2 -10   51.80    1.20
  -2  -2 -10   41.14    1.11
  -2  -2 -10   55.63    1.34
  -2  -2 -10   53.89    1.31
   2   2  10   58.90    1.37
   2   2  10   51.70    1.23
   2   2  10   54.97    1.20
   2   2  10   57.74    1.40
   2   2  10   62.11    1.43
  -2  -2 -11   12.06    0.87
  -2  -2 -11   13.87    1.48
  -2  -2 -11   13.48    0.91
   2   2  11   15.87    0.92
   2   2  11   14.28    0.89
   2   2  11   16.50    1.10
   2   2  11   17.66    1.04
  -2  -2 -12    8.38    0.91
  -2  -2 -12    9.90    0.96
  -2  -2 -12    9.54    1.04
   2   2  12   11.41    0.97
   2   2  12    7.65    0.73
   2   2  12   11.23    1.09
  -2  -2 -13    7.42    0.78
  -2  -2 -13    9.53    1.13
   2   2  13    9.73    1.05
   2   2  13   12.04    1.15
   2   2  13   12.83    1.37
  -2  -3  13   -0.39    0.48
  -2  -3  13    0.12    0.65
   2   3 -13   -0.58    0.64
   2   3 -13   -0.27    0.65
   2   3 -13    0.01    0.76
  -2  -3  12    0.13    0.42
  -2  -3  12    1.26    0.57
   2   3 -12    0.95    0.54
   2   3 -12   -0.28    0.58
  -2  -3  11   11.30    0.53
  -2  -3  11   16.40    0.89
  -2  -3  11    9.93    0.90
  -2  -3  11   15.93    0.97
  -2  -3  11   17.99    1.18
   2   3 -11   14.87    0.98
   2   3 -11   14.87    0.90
   2   3 -11   15.88    1.02
  -2  -3  10    5.98    0.39
  -2  -3  10    8.50    0.72
  -2  -3  10    6.61    0.72
  -2  -3  10    8.37    0.77
  -2  -3  10    8.80    0.90
   2   3 -10    7.32    0.46
   2   3 -10    7.99    0.77
   2   3 -10    8.42    0.73
   2   3 -10    9.06    0.89
   2   3 -10    7.13    1.08
  -2  -3   9   71.01    0.78
  -2  -3   9   91.79    1.49
  -2  -3   9   73.03    1.24
  -2  -3   9   83.74    1.57
  -2  -3   9   82.62    1.52
  -2  -3   9   98.41    1.63
   2   3  -9   90.06    0.88
   2   3  -9   94.03    1.64
   2   3  -9  102.61    1.43
   2   3  -9   84.97    1.53
   2   3  -9   93.17    1.68
  -2  -3   8    0.83    0.32
  -2  -3   8    0.83    0.34
  -2  -3   8    0.88    0.32
  -2  -3   8    0.59    0.32
  -2  -3   8    1.05    0.33
  -2  -3   8    0.75    0.29
   2   3  -8    1.36    0.20
   2   3  -8    1.21    0.34
   2   3  -8    1.45    0.33
   2   3  -8    0.86    0.31
   2   3  -8    0.60    0.33
   2   3  -8    1.08    0.34
  -2  -3   7   52.36    0.53
  -2  -3   7   56.84    1.09
  -2  -3   7   55.56    1.14
  -2  -3   7   57.30    0.97
  -2  -3   7   52.49    1.12
  -2  -3   7   55.87    1.06
  -2  -3   7   60.00    1.10
   2   3  -7   56.83    0.55
   2   3  -7   65.04    1.24
   2   3  -7   65.48    1.04
   2   3  -7   49.14    1.08
   2   3  -7   51.08    1.03
   2   3  -7   61.05    1.14
  -2  -3   6    3.52    0.37
  -2  -3   6    3.77    0.47
  -2  -3   6    3.43    0.39
  -2  -3   6    2.95    0.36
  -2  -3   6    3.84    0.38
  -2  -3   6    3.79    0.39
   2   3  -6    3.75    0.17
   2   3  -6    4.27    0.46
   2   3  -6    4.61    0.43
   2   3  -6    3.66    0.44
   2   3  -6    3.50    0.41
  -2  -3   5   58.01    0.97
  -2  -3   5   67.60    1.07
  -2  -3   5   69.02    0.92
  -2  -3   5   58.16    0.99
  -2  -3   5   65.01    0.93
   2   3  -5   75.00    1.13
   2   3  -5   77.60    0.98
   2   3  -5   56.47    0.96
   2   3  -5   65.54    0.97
   2   3  -5   59.02    0.91
  -2  -3   4  329.39    2.11
  -2  -3   4  334.30    2.16
  -2  -3   4  329.65    2.18
  -2  -3   4  314.48    2.05
  -2  -3   4  343.10    1.88
  -2  -3   4  332.01    1.86
   2   3  -4  356.69    2.25
   2   3  -4  400.41    2.04
   2   3  -4  313.05    2.02
   2   3  -4  334.41    1.91
   2   3  -4  306.45    1.82
  -2  -3   3   12.32    0.44
  -2  -3   3   13.05    0.45
  -2  -3   3   13.10    0.40
  -2  -3   3   12.50    0.44
  -2  -3   3   12.84    0.36
  -2  -3   3   13.65    0.37
   2   3  -3   14.11    0.47
   2   3  -3   15.94    0.44
   2   3  -3   12.13    0.48
   2   3  -3   13.93    0.38
   2   3  -3   11.60    0.36
  -2  -3   2  359.33    1.97
  -2  -3   2  345.97    2.02
  -2  -3   2  405.08    1.89
  -2  -3   2  370.86    1.82
  -2  -3   2  367.09    1.56
  -2  -3   2  364.62    1.48
   2   3  -2  372.19    1.09
   2   3  -2  371.53    1.22
   2   3  -2  395.16    2.08
   2   3  -2  429.53    1.96
   2   3  -2  388.52    1.85
   2   3  -2  380.88    1.57
   2   3  -2  339.00    1.48
  -2  -3   1   15.19    0.43
  -2  -3   1   17.57    0.43
  -2  -3   1   16.27    0.37
  -2  -3   1   16.94    0.29
  -2  -3   1   16.35    0.29
   2   3  -1   16.52    0.30
   2   3  -1   15.68    0.29
   2   3  -1   17.06    0.45
   2   3  -1   15.21    0.43
   2   3  -1   17.99    0.44
   2   3  -1   17.68    0.38
   2   3  -1   16.95    0.30
   2   3  -1   14.89    0.29
  -2  -3   0  376.93    1.55
  -2  -3   0  365.28    1.76
  -2  -3   0  312.78    1.73
  -2  -3   0  387.95    1.87
  -2  -3   0  380.40    1.26
  -2  -3   0  347.83    1.38
   2   3   0  325.30    1.75
   2   3   0  371.83    1.84
   2   3   0  376.14    1.43
   2   3   0  365.26    1.53
   2   3   0  330.59    1.13
  -2  -3  -1    0.86    0.14
  -2  -3  -1    1.02    0.16
  -2  -3  -1    0.76    0.14
  -2  -3  -1    1.12    0.12
  -2  -3  -1    0.91    0.11
   2   3   1    1.20    0.17
   2   3   1    0.96    0.18
   2   3   1    1.12    0.19
   2   3   1    0.76    0.14
   2   3   1    0.88    0.11
   2   3   1    1.00    0.11
   2   3   1    0.99    0.10
   2   3   1    0.94    0.10
  -2  -3  -2  559.32    2.33
  -2  -3  -2  538.66    1.89
  -2  -3  -2  491.79    2.25
  -2  -3  -2  497.49    2.30
  -2  -3  -2  510.17    1.95
  -2  -3  -2  609.96    2.25
  -2  -3  -2  544.89    2.61
   2   3   2  563.37    2.36
   2   3   2  548.28    2.36
   2   3   2  562.40    2.45
   2   3   2  465.02    2.77
   2   3   2  574.34    2.60
   2   3   2  603.17    3.35
   2   3   2  569.29    2.33
  -2  -3  -3  185.13    1.05
  -2  -3  -3  179.92    1.45
  -2  -3  -3  182.54    1.02
  -2  -3  -3  209.83    1.24
  -2  -3  -3  194.61    1.21
   2   3   3  211.60    1.58
   2   3   3  196.51    1.60
   2   3   3  196.32    1.52
   2   3   3  209.05    1.28
   2   3   3  198.06    1.25
  -2  -3  -4  227.98    1.75
  -2  -3  -4  204.03    1.64
  -2  -3  -4  214.14    1.70
  -2  -3  -4  216.73    1.26
  -2  -3  -4  234.80    1.50
  -2  -3  -4  224.38    1.48
   2   3   4  235.57    1.80
   2   3   4  236.01    1.75
   2   3   4  234.51    1.76
   2   3   4  228.21    1.30
   2   3   4  236.50    1.55
   2   3   4  235.43    1.54
  -2  -3  -5  342.28    2.29
  -2  -3  -5  314.71    2.18
  -2  -3  -5  330.68    2.23
  -2  -3  -5  324.80    1.73
  -2  -3  -5  362.32    2.07
  -2  -3  -5  344.21    2.03
   2   3   5  369.85    2.40
   2   3   5  372.90    2.35
   2   3   5  368.29    2.33
   2   3   5  337.79    1.77
   2   3   5  375.31    2.17
   2   3   5  369.27    2.14
  -2  -3  -6    6.08    0.45
  -2  -3  -6    6.50    0.47
  -2  -3  -6    6.10    0.48
  -2  -3  -6    5.55    0.38
  -2  -3  -6    6.54    0.38
   2   3   6    7.01    0.50
   2   3   6    5.90    0.43
   2   3   6    6.54    0.45
   2   3   6    5.77    0.38
   2   3   6    6.40    0.44
   2   3   6    7.03    0.45
  -2  -3  -7  216.73    2.06
  -2  -3  -7  191.32    1.96
  -2  -3  -7  205.10    1.98
  -2  -3  -7  176.16    1.57
  -2  -3  -7  227.05    1.98
  -2  -3  -7  214.21    1.94
   2   3   7  237.42    2.19
   2   3   7  223.11    2.08
   2   3   7  224.28    2.05
   2   3   7  213.12    1.74
   2   3   7  237.61    2.07
   2   3   7  228.38    2.02
  -2  -3  -8    4.72    0.50
  -2  -3  -8    4.15    0.47
  -2  -3  -8    4.68    0.48
  -2  -3  -8    2.84    0.35
  -2  -3  -8    5.14    0.59
  -2  -3  -8    4.14    0.51
   2   3   8    4.65    0.54
   2   3   8    4.54    0.46
   2   3   8    4.99    0.58
   2   3   8    4.37    0.49
   2   3   8    5.09    0.56
   2   3   8    5.19    0.55
  -2  -3  -9   93.94    1.98
  -2  -3  -9  116.47    1.71
  -2  -3  -9   76.62    1.29
  -2  -3  -9  120.08    1.72
  -2  -3  -9  119.68    1.72
   2   3   9  139.69    1.91
   2   3   9  128.99    1.85
   2   3   9  127.09    1.61
   2   3   9  132.28    1.84
   2   3   9  142.58    1.90
  -2  -3 -10   48.53    1.30
  -2  -3 -10   34.03    1.05
  -2  -3 -10   54.32    1.72
   2   3  10   65.49    1.43
   2   3  10   58.19    1.24
   2   3  10   60.37    1.44
   2   3  10   62.18    1.51
  -2  -3 -11   17.91    1.00
  -2  -3 -11   20.72    1.05
   2   3  11   23.93    1.07
   2   3  11   23.15    0.98
   2   3  11   24.51    1.17
  -2  -3 -12   15.55    1.10
  -2  -3 -12   17.34    1.14
   2   3  12   19.03    1.06
   2   3  12   19.78    1.07
   2   3  12   22.54    1.24
  -2  -3 -13    2.45    0.67
  -2  -3 -13    4.10    0.79
   2   3  13    5.77    0.77
   2   3  13    4.34    0.74
   2   3  13    5.66    0.87
  -2  -4  12   10.67    0.93
  -2  -4  12   10.40    1.06
   2   4 -12   10.17    1.01
   2   4 -12   11.78    1.02
   2   4 -12   11.71    1.21
  -2  -4  11    1.42    0.47
  -2  -4  11    1.10    0.60
  -2  -4  11    1.35    0.51
   2   4 -11   -0.04    0.44
   2   4 -11    0.95    0.47
   2   4 -11    1.65    0.55
  -2  -4  10   27.51    0.55
  -2  -4  10   32.11    1.10
  -2  -4  10   23.13    0.98
  -2  -4  10   27.94    1.14
  -2  -4  10   33.73    1.20
   2   4 -10   31.09    0.77
   2   4 -10   31.60    1.15
   2   4 -10   35.60    1.00
   2   4 -10   28.97    1.21
   2   4 -10   31.23    1.10
  -2  -4   9    5.14    0.58
  -2  -4   9    3.94    0.47
  -2  -4   9    5.05    0.58
  -2  -4   9    5.55    0.59
   2   4  -9    5.41    0.36
   2   4  -9    5.84    0.62
   2   4  -9    4.91    0.47
   2   4  -9    4.35    0.56
   2   4  -9    5.53    0.64
  -2  -4   8   13.32    0.35
  -2  -4   8   16.27    0.78
  -2  -4   8   13.65    0.65
  -2  -4   8   13.32    0.78
  -2  -4   8   14.03    0.69
   2   4  -8   15.08    0.37
   2   4  -8   17.14    0.84
   2   4  -8   16.18    0.66
   2   4  -8   14.07    0.73
   2   4  -8   16.44    0.75
  -2  -4   7    8.00    0.26
  -2  -4   7    8.13    0.61
  -2  -4   7    6.68    0.60
  -2  -4   7    8.77    0.52
  -2  -4   7    7.95    0.61
  -2  -4   7    8.16    0.50
  -2  -4   7    9.05    0.56
   2   4  -7    8.93    0.28
   2   4  -7    8.49    0.62
   2   4  -7    9.74    0.55
   2   4  -7    7.81    0.54
   2   4  -7    9.14    0.56
  -2  -4   6  104.65    0.65
  -2  -4   6  113.62    1.52
  -2  -4   6  120.62    1.58
  -2  -4   6  123.24    1.28
  -2  -4   6  110.22    1.52
  -2  -4   6  116.34    1.34
  -2  -4   6  123.83    1.39
   2   4  -6  121.95    0.69
   2   4  -6  140.12    1.72
   2   4  -6  147.22    1.39
   2   4  -6  115.70    1.53
   2   4  -6  107.44    1.34
   2   4  -6  121.43    1.41
  -2  -4   5  135.63    0.71
  -2  -4   5  152.17    1.66
  -2  -4   5  159.94    1.38
  -2  -4   5  146.78    1.62
  -2  -4   5  158.90    1.41
  -2  -4   5  157.35    1.41
   2   4  -5  162.85    0.76
   2   4  -5  176.78    1.80
   2   4  -5  188.36    1.50
   2   4  -5  146.92    1.59
   2   4  -5  143.24    1.39
   2   4  -5  158.16    1.46
  -2  -4   4   33.38    0.39
  -2  -4   4   34.60    0.80
  -2  -4   4   38.04    0.82
  -2  -4   4   40.17    0.71
  -2  -4   4   35.76    0.78
  -2  -4   4   39.40    0.66
  -2  -4   4   38.78    0.65
   2   4  -4   43.46    0.43
   2   4  -4   41.01    0.85
   2   4  -4   46.02    0.75
   2   4  -4   37.83    0.79
   2   4  -4   33.47    0.64
  -2  -4   3  197.31    1.70
  -2  -4   3  206.57    1.72
  -2  -4   3  192.30    1.59
  -2  -4   3  207.85    1.24
  -2  -4   3  201.44    1.22
   2   4  -3  203.42    0.99
   2   4  -3  210.20    1.00
   2   4  -3  217.30    1.77
   2   4  -3  236.58    1.58
   2   4  -3  213.35    1.66
   2   4  -3  199.52    1.28
   2   4  -3  182.36    1.30
  -2  -4   2   46.83    0.82
  -2  -4   2   49.36    0.82
  -2  -4   2   50.89    0.83
  -2  -4   2   47.95    0.76
  -2  -4   2   48.77    0.51
  -2  -4   2   48.56    0.51
   2   4  -2   44.02    0.65
   2   4  -2   47.09    0.55
   2   4  -2   48.39    0.83
   2   4  -2   42.41    0.77
   2   4  -2   53.81    0.78
   2   4  -2   47.86    0.88
   2   4  -2   49.76    0.56
   2   4  -2   45.10    0.53
  -2  -4   1  425.22    2.23
  -2  -4   1  432.74    2.02
  -2  -4   1  453.25    1.21
  -2  -4   1  456.99    1.39
   2   4  -1  450.27    1.82
   2   4  -1  432.09    1.77
   2   4  -1  449.31    2.32
   2   4  -1  400.99    2.18
   2   4  -1  496.52    2.28
   2   4  -1  472.76    2.10
   2   4  -1  468.84    1.53
   2   4  -1  417.27    1.29
  -2  -4   0  150.26    1.26
  -2  -4   0  137.70    1.28
  -2  -4   0  154.92    1.14
   2   4   0  159.80    1.19
   2   4   0  154.62    1.17
   2   4   0  154.59    1.35
   2   4   0  142.08    1.36
   2   4   0  174.65    1.40
   2   4   0  150.81    1.29
   2   4   0  169.25    1.18
   2   4   0  157.33    0.68
   2   4   0  145.53    0.66
  -2  -4  -1 1096.23    4.29
  -2  -4  -1  915.21    3.82
  -2  -4  -1 1052.41    2.95
   2   4   1 1123.84    3.41
   2   4   1 1024.76    4.88
   2   4   1 1183.92    6.26
   2   4   1 1048.97    3.49
   2   4   1 1021.50    4.10
   2   4   1 1126.17    5.66
   2   4   1 1112.67    3.94
   2   4   1 1109.81    4.01
  -2  -4  -2  286.02    1.85
  -2  -4  -2  257.93    1.45
  -2  -4  -2  233.36    1.69
  -2  -4  -2  250.71    1.81
  -2  -4  -2  266.25    1.07
  -2  -4  -2  249.28    1.05
   2   4   2  269.69    1.81
   2   4   2  261.63    1.77
   2   4   2  282.54    1.92
   2   4   2  265.00    1.84
   2   4   2  253.76    1.38
   2   4   2  269.88    1.42
   2   4   2  272.60    1.21
   2   4   2  266.45    1.20
  -2  -4  -3   45.28    0.82
  -2  -4  -3   40.86    0.57
  -2  -4  -3   37.65    0.74
  -2  -4  -3   39.05    0.79
  -2  -4  -3   39.66    0.59
  -2  -4  -3   44.74    0.56
  -2  -4  -3   41.14    0.55
   2   4   3   44.76    0.82
   2   4   3   42.49    0.76
   2   4   3   40.32    0.79
   2   4   3   44.81    0.63
   2   4   3   44.91    0.60
  -2  -4  -4  260.91    2.02
  -2  -4  -4  231.85    1.18
  -2  -4  -4  230.24    1.84
  -2  -4  -4  237.64    1.95
  -2  -4  -4  241.78    1.49
  -2  -4  -4  261.43    1.54
  -2  -4  -4  246.65    1.50
   2   4   4  268.92    2.06
   2   4   4  257.96    1.92
   2   4   4  254.31    2.00
   2   4   4  263.42    1.57
   2   4   4  269.48    1.64
   2   4   4  263.20    1.62
  -2  -4  -5   64.23    1.11
  -2  -4  -5   56.28    1.01
  -2  -4  -5   57.79    1.06
  -2  -4  -5   60.12    0.88
  -2  -4  -5   64.81    0.89
  -2  -4  -5   62.94    0.89
   2   4   5   67.27    1.13
   2   4   5   65.85    1.06
   2   4   5   62.68    1.08
   2   4   5   65.55    0.89
   2   4   5   68.91    0.95
   2   4   5   66.68    0.94
  -2  -4  -6  489.51    3.08
  -2  -4  -6  429.10    2.80
  -2  -4  -6  444.83    2.94
  -2  -4  -6  424.12    2.31
  -2  -4  -6  465.60    2.55
  -2  -4  -6  471.15    2.59
   2   4   6  501.23    3.15
   2   4   6  489.85    2.96
   2   4   6  505.89    3.10
   2   4   6  465.12    2.44
   2   4   6  499.85    2.74
  -2  -4  -7   14.81    0.71
  -2  -4  -7   13.30    0.68
  -2  -4  -7   14.48    0.72
  -2  -4  -7   12.68    0.58
  -2  -4  -7   14.75    0.57
  -2  -4  -7   15.39    0.61
   2   4   7   15.88    0.73
   2   4   7   15.49    0.70
   2   4   7   16.18    0.72
   2   4   7   14.95    0.61
   2   4   7   15.33    0.64
   2   4   7   16.32    0.66
  -2  -4  -8  157.38    1.95
  -2  -4  -8  173.48    2.07
  -2  -4  -8  153.01    1.66
  -2  -4  -8  177.90    1.89
   2   4   8  208.09    2.28
   2   4   8  174.18    2.02
   2   4   8  185.86    1.82
   2   4   8  191.09    2.02
   2   4   8  204.90    2.09
  -2  -4  -9    8.90    0.71
  -2  -4  -9    9.57    0.78
  -2  -4  -9    7.66    0.68
  -2  -4  -9   10.21    0.70
   2   4   9   11.97    0.77
   2   4   9   11.28    0.69
   2   4   9   10.43    0.79
   2   4   9   11.42    0.78
  -2  -4 -10   24.21    1.04
  -2  -4 -10   27.44    1.12
  -2  -4 -10   15.31    0.94
  -2  -4 -10   28.47    1.03
   2   4  10   33.69    1.15
   2   4  10   30.10    1.02
   2   4  10   29.91    1.16
   2   4  10   30.16    1.10
  -2  -4 -11   38.46    1.31
  -2  -4 -11   44.58    1.42
   2   4  11   52.02    1.45
   2   4  11   44.68    1.28
   2   4  11   51.29    1.47
  -2  -4 -12    8.89    1.02
  -2  -4 -12    6.98    0.81
   2   4  12   10.24    1.03
   2   4  12    9.35    1.01
   2   4  12    8.64    1.06
  -2  -4 -13   27.64    1.41
  -2  -4 -13   29.90    1.54
   2   4  13   36.59    1.53
   2   4  13   36.19    1.50
   2   4  13   38.58    1.69
  -2  -5  12    0.31    0.50
  -2  -5  12   -0.61    0.58
   2   5 -12   -1.10    0.54
   2   5 -12   -0.55    0.53
  -2  -5  11    8.19    0.87
  -2  -5  11    6.21    0.77
   2   5 -11    7.03    0.75
   2   5 -11    7.90    0.82
   2   5 -11    8.52    0.92
  -2  -5  10   12.31    0.84
  -2  -5  10    9.68    0.85
  -2  -5  10   11.86    0.97
   2   5 -10   14.64    0.98
   2   5 -10   15.18    0.79
   2   5 -10   11.19    0.87
  -2  -5   9   44.56    1.24
  -2  -5   9   38.26    1.00
  -2  -5   9   42.01    1.27
  -2  -5   9   48.05    1.26
   2   5  -9   44.46    0.59
   2   5  -9   51.54    1.37
   2   5  -9   51.09    1.02
   2   5  -9   38.46    1.16
   2   5  -9   43.59    1.16
  -2  -5   8    4.54    0.52
  -2  -5   8    3.72    0.41
  -2  -5   8    3.20    0.47
  -2  -5   8    4.05    0.47
   2   5  -8    4.30    0.32
   2   5  -8    4.17    0.49
   2   5  -8    4.21    0.42
   2   5  -8    3.70    0.43
   2   5  -8    4.35    0.46
  -2  -5   7   12.00    0.36
  -2  -5   7   14.56    0.77
  -2  -5   7   14.37    0.62
  -2  -5   7   11.16    0.82
  -2  -5   7   14.24    0.66
   2   5  -7   15.28    0.38
   2   5  -7   15.00    1.29
   2   5  -7   17.93    0.65
   2   5  -7   16.79    1.09
   2   5  -7   13.25    0.65
   2   5  -7   14.19    0.66
  -2  -5   6   65.36    0.85
  -2  -5   6   77.70    1.38
  -2  -5   6   79.92    1.37
  -2  -5   6   82.13    1.08
  -2  -5   6   79.35    1.38
  -2  -5   6   79.08    1.11
  -2  -5   6   82.42    1.14
   2   5  -6   88.99    0.74
   2   5  -6   95.37    1.51
   2   5  -6  103.58    1.20
   2   5  -6   80.05    1.35
   2   5  -6   75.49    1.13
   2   5  -6   80.86    1.16
  -2  -5   5    8.10    0.56
  -2  -5   5    9.00    0.56
  -2  -5   5    9.70    0.49
  -2  -5   5    8.74    0.57
  -2  -5   5    9.31    0.45
  -2  -5   5   10.06    0.46
   2   5  -5    9.91    0.34
   2   5  -5   10.56    0.60
   2   5  -5   11.17    0.49
   2   5  -5    9.18    0.57
   2   5  -5    9.39    0.43
  -2  -5   4  110.12    0.89
  -2  -5   4  111.32    1.48
  -2  -5   4  119.47    1.48
  -2  -5   4  122.52    1.22
  -2  -5   4  115.42    1.44
  -2  -5   4  118.90    1.05
  -2  -5   4  122.28    1.07
   2   5  -4  133.47    0.97
   2   5  -4  132.37    1.57
   2   5  -4  145.70    1.33
   2   5  -4  127.22    1.50
   2   5  -4  112.10    1.10
   2   5  -4  114.30    1.10
  -2  -5   3    2.21    0.24
  -2  -5   3    2.71    0.33
  -2  -5   3    3.00    0.36
  -2  -5   3    3.16    0.30
  -2  -5   3    2.73    0.33
  -2  -5   3    2.72    0.21
  -2  -5   3    2.87    0.23
   2   5  -3    2.72    0.25
   2   5  -3    2.85    0.25
   2   5  -3    3.28    0.36
   2   5  -3    3.74    0.35
   2   5  -3    3.21    0.39
   2   5  -3    2.38    0.25
   2   5  -3    2.54    0.24
  -2  -5   2  245.89    1.97
  -2  -5   2  280.44    1.82
  -2  -5   2  259.15    1.89
  -2  -5   2  259.67    0.91
   2   5  -2  269.85    1.55
   2   5  -2  266.91    1.54
   2   5  -2  280.28    2.07
   2   5  -2  233.13    1.87
   2   5  -2  293.45    1.88
   2   5  -2  243.76    1.70
   2   5  -2  279.26    1.95
   2   5  -2  239.49    1.14
   2   5  -2  255.51    1.17
  -2  -5   1    0.85    0.21
  -2  -5   1    1.08    0.22
   2   5  -1    1.10    0.20
   2   5  -1    1.02    0.19
   2   5  -1    0.88    0.22
   2   5  -1    0.91    0.22
   2   5  -1    1.04    0.23
   2   5  -1    0.66    0.20
   2   5  -1    1.32    0.23
   2   5  -1    1.04    0.12
  -2  -5   0   23.81    0.60
   2   5   0   25.46    0.59
   2   5   0   23.43    0.56
   2   5   0   25.24    0.64
   2   5   0   21.50    0.60
   2   5   0   27.12    0.67
   2   5   0   24.17    0.61
   2   5   0   22.77    0.55
  -2  -5  -1  214.44    1.57
  -2  -5  -1  196.40    1.65
   2   5   1  228.19    1.73
   2   5   1  213.55    1.66
   2   5   1  207.56    1.68
   2   5   1  235.81    1.85
   2   5   1  219.83    1.76
   2   5   1  204.77    1.48
   2   5   1  222.85    1.53
   2   5   1  217.74    0.74
  -2  -5  -2   40.71    0.69
  -2  -5  -2   35.35    0.77
  -2  -5  -2   39.20    0.83
   2   5   2   45.65    0.86
   2   5   2   41.14    0.79
   2   5   2   43.97    0.88
   2   5   2   40.83    0.82
   2   5   2   39.82    0.68
   2   5   2   41.78    0.70
   2   5   2   44.77    0.48
   2   5   2   44.14    0.48
  -2  -5  -3  143.88    1.14
  -2  -5  -3  131.48    1.43
  -2  -5  -3  138.19    1.55
  -2  -5  -3  133.82    1.27
  -2  -5  -3  144.27    0.90
  -2  -5  -3  145.61    0.91
   2   5   3  161.13    1.64
   2   5   3  143.35    1.53
   2   5   3  152.81    1.51
   2   5   3  140.63    1.54
   2   5   3  152.21    1.31
   2   5   3  156.26    1.07
  -2  -5  -4   64.34    1.11
  -2  -5  -4   56.32    0.68
  -2  -5  -4   50.66    0.96
  -2  -5  -4   52.06    1.04
  -2  -5  -4   53.03    0.83
  -2  -5  -4   56.72    0.70
  -2  -5  -4   58.51    0.73
   2   5   4   61.39    1.11
   2   5   4   51.14    0.99
   2   5   4   58.93    1.02
   2   5   4   57.30    1.08
   2   5   4   59.26    0.88
   2   5   4   58.13    0.78
   2   5   4   62.77    0.80
  -2  -5  -5  249.19    2.23
  -2  -5  -5  256.70    1.58
  -2  -5  -5  209.09    1.95
  -2  -5  -5  213.88    2.10
  -2  -5  -5  217.30    1.69
  -2  -5  -5  228.81    1.59
  -2  -5  -5  230.63    1.61
   2   5   5  258.92    2.30
   2   5   5  216.74    2.09
   2   5   5  244.66    2.08
   2   5   5  245.23    2.23
   2   5   5  249.75    1.82
   2   5   5  238.69    1.83
   2   5   5  250.03    1.76
  -2  -5  -6   74.18    1.33
  -2  -5  -6   63.94    1.19
  -2  -5  -6   66.07    1.29
  -2  -5  -6   68.99    1.06
  -2  -5  -6   69.02    1.01
  -2  -5  -6   74.11    1.06
   2   5   6   82.08    1.40
   2   5   6   74.39    1.27
   2   5   6   71.22    1.31
   2   5   6   77.20    1.13
   2   5   6   74.33    1.10
   2   5   6   80.97    1.14
  -2  -5  -7   11.39    0.68
  -2  -5  -7   12.55    0.73
  -2  -5  -7   12.48    0.63
  -2  -5  -7   12.36    0.58
  -2  -5  -7   12.38    0.60
   2   5   7   14.40    0.73
   2   5   7   12.56    0.71
   2   5   7   13.00    0.67
   2   5   7   13.10    0.64
   2   5   7   13.90    0.63
  -2  -5  -8   13.02    0.81
  -2  -5  -8   13.79    0.83
  -2  -5  -8   12.95    0.71
  -2  -5  -8   15.37    0.73
   2   5   8   15.79    0.81
   2   5   8   15.78    0.74
   2   5   8   15.65    0.77
   2   5   8   17.16    0.75
  -2  -5  -9   61.68    1.40
  -2  -5  -9   69.08    1.53
  -2  -5  -9   55.76    1.25
  -2  -5  -9   72.86    1.40
   2   5   9   81.22    1.63
   2   5   9   74.69    1.36
   2   5   9   77.19    1.49
   2   5   9   79.27    1.46
  -2  -5 -10   48.32    1.38
  -2  -5 -10   53.00    1.46
   2   5  10   63.83    1.54
   2   5  10   63.41    1.45
  -2  -5 -11    4.06    0.66
  -2  -5 -11    3.96    0.69
   2   5  11    5.36    0.71
   2   5  11    4.44    0.65
   2   5  11    3.58    0.60
  -2  -5 -12   20.02    1.34
  -2  -5 -12   25.05    1.42
   2   5  12   28.86    1.38
   2   5  12   25.84    1.32
   2   5  12   29.36    1.37
  -2  -6  11    8.78    0.96
  -2  -6  11    6.14    0.72
   2   6 -11    6.67    0.84
   2   6 -11    8.52    1.00
  -2  -6  10   -0.73    0.41
  -2  -6  10    0.60    0.50
   2   6 -10   -0.17    0.46
   2   6 -10    0.48    0.41
   2   6 -10   -0.55    0.39
  -2  -6   9   35.55    0.70
  -2  -6   9   39.72    1.27
  -2  -6   9   37.08    0.99
  -2  -6   9   37.93    1.27
   2   6  -9   48.44    1.42
   2   6  -9   47.18    0.99
   2   6  -9   38.25    1.14
  -2  -6   8    1.14    0.23
  -2  -6   8    0.36    0.40
  -2  -6   8    0.53    0.38
  -2  -6   8    0.68    0.42
  -2  -6   8    0.75    0.42
   2   6  -8    0.72    0.25
   2   6  -8    1.06    0.45
   2   6  -8    1.06    0.34
   2   6  -8    0.11    0.38
   2   6  -8    0.98    0.31
  -2  -6   7   21.78    0.50
  -2  -6   7   24.09    0.94
  -2  -6   7   23.39    0.73
  -2  -6   7   24.19    0.97
  -2  -6   7   24.36    0.82
   2   6  -7   28.18    0.57
   2   6  -7   28.64    1.03
   2   6  -7   32.22    0.79
   2   6  -7   22.62    0.81
   2   6  -7   24.42    0.78
  -2  -6   6   -0.22    0.18
  -2  -6   6    0.07    0.31
  -2  -6   6    0.35    0.39
  -2  -6   6    0.47    0.28
  -2  -6   6    0.28    0.33
  -2  -6   6   -0.05    0.26
   2   6  -6    0.43    0.23
   2   6  -6   -0.08    0.31
   2   6  -6    0.25    0.26
   2   6  -6   -0.23    0.25
   2   6  -6   -0.10    0.21
  -2  -6   5   34.73    0.62
  -2  -6   5   35.76    1.02
  -2  -6   5   37.09    1.01
  -2  -6   5   39.12    0.81
  -2  -6   5   35.38    0.99
  -2  -6   5   35.38    0.67
  -2  -6   5   38.95    0.84
   2   6  -5   45.72    0.70
   2   6  -5   41.39    1.05
   2   6  -5   48.27    0.88
   2   6  -5   40.18    1.06
   2   6  -5   35.63    0.77
   2   6  -5   35.29    0.72
  -2  -6   4   57.85    0.80
  -2  -6   4   60.50    1.22
  -2  -6   4   62.14    1.18
  -2  -6   4   66.65    0.99
  -2  -6   4   61.37    1.18
  -2  -6   4   61.76    0.71
  -2  -6   4   65.78    0.74
   2   6  -4   71.22    0.88
   2   6  -4   69.23    1.25
   2   6  -4   75.27    1.05
   2   6  -4   56.42    0.91
   2   6  -4   66.68    1.22
   2   6  -4   58.99    0.82
   2   6  -4   58.59    0.80
  -2  -6   3   63.12    0.86
  -2  -6   3   65.28    1.20
  -2  -6   3   63.26    1.13
  -2  -6   3   66.08    0.54
  -2  -6   3   71.94    0.57
   2   6  -3   72.20    0.92
   2   6  -3   71.61    0.92
   2   6  -3   76.40    1.25
   2   6  -3   59.47    1.11
   2   6  -3   80.73    1.09
   2   6  -3   61.57    0.95
   2   6  -3   72.37    1.20
   2   6  -3   63.80    0.72
   2   6  -3   63.40    0.70
  -2  -6   2   27.52    0.80
  -2  -6   2   28.99    0.79
   2   6  -2   30.00    0.65
   2   6  -2   29.32    0.65
   2   6  -2   31.42    0.82
   2   6  -2   25.98    0.75
   2   6  -2   33.61    0.76
   2   6  -2   27.19    0.69
   2   6  -2   32.14    0.81
   2   6  -2   27.39    0.38
   2   6  -2   27.44    0.38
  -2  -6   1   29.31    0.77
  -2  -6   1   29.99    0.75
   2   6  -1   30.92    0.70
   2   6  -1   29.99    0.69
   2   6  -1   30.81    0.79
   2   6  -1   26.52    0.76
   2   6  -1   32.93    0.77
   2   6  -1   27.64    0.70
   2   6  -1   31.07    0.77
  -2  -6   0   80.65    1.15
   2   6   0   92.76    1.19
   2   6   0   84.88    1.13
   2   6   0   88.89    1.23
   2   6   0   81.21    1.18
   2   6   0   96.49    1.27
   2   6   0   85.93    1.18
   2   6   0   77.51    1.09
   2   6   0   91.77    1.18
  -2  -6  -1   21.33    0.62
  -2  -6  -1   20.15    0.66
   2   6   1   24.03    0.70
   2   6   1   21.40    0.66
   2   6   1   20.49    0.65
   2   6   1   24.35    0.74
   2   6   1   21.14    0.67
   2   6   1   20.08    0.60
   2   6   1   23.73    0.64
  -2  -6  -2   27.44    0.65
  -2  -6  -2   24.44    0.71
  -2  -6  -2   27.23    0.79
   2   6   2   29.61    0.80
   2   6   2   24.75    0.71
   2   6   2   26.82    0.73
   2   6   2   30.81    0.82
   2   6   2   27.50    0.77
   2   6   2   27.55    0.69
   2   6   2   29.19    0.70
   2   6   2   29.28    0.37
   2   6   2   30.00    0.36
  -2  -6  -3    3.82    0.37
  -2  -6  -3    4.13    0.46
  -2  -6  -3    2.83    0.35
  -2  -6  -3    3.81    0.16
  -2  -6  -3    4.02    0.18
   2   6   3    4.70    0.48
   2   6   3    4.50    0.44
   2   6   3    4.82    0.46
   2   6   3    4.13    0.46
   2   6   3    3.95    0.43
   2   6   3    4.54    0.42
   2   6   3    4.45    0.27
   2   6   3    4.99    0.25
  -2  -6  -4   51.61    0.75
  -2  -6  -4   45.44    0.98
  -2  -6  -4   47.20    1.08
  -2  -6  -4   48.06    0.90
  -2  -6  -4   48.66    0.60
  -2  -6  -4   50.81    0.64
   2   6   4   55.89    1.14
   2   6   4   46.97    1.04
   2   6   4   49.83    1.00
   2   6   4   52.22    1.10
   2   6   4   54.68    0.97
   2   6   4   53.94    0.76
   2   6   4   54.71    0.75
  -2  -6  -5    2.98    0.28
  -2  -6  -5    2.08    0.37
  -2  -6  -5    2.08    0.39
  -2  -6  -5    2.37    0.34
  -2  -6  -5    1.70    0.23
   2   6   5    3.29    0.45
   2   6   5    1.50    0.34
   2   6   5    1.93    0.34
   2   6   5    1.56    0.41
   2   6   5    2.23    0.33
   2   6   5    2.40    0.29
   2   6   5    2.19    0.27
  -2  -6  -6    6.18    0.61
  -2  -6  -6    6.26    0.66
  -2  -6  -6    5.98    0.56
  -2  -6  -6    7.01    0.47
   2   6   6    8.37    0.66
   2   6   6    6.35    0.64
   2   6   6    6.89    0.59
   2   6   6    7.34    0.52
   2   6   6    5.80    0.46
  -2  -6  -7    0.80    0.32
  -2  -6  -7   -0.53    0.36
  -2  -6  -7    0.28    0.36
  -2  -6  -7    0.04    0.28
   2   6   7    0.60    0.37
   2   6   7    0.44    0.36
   2   6   7    0.69    0.34
   2   6   7    0.59    0.32
   2   6   7    0.29    0.26
  -2  -6  -8   52.95    1.31
  -2  -6  -8   60.36    1.48
  -2  -6  -8   56.97    1.25
  -2  -6  -8   63.64    1.22
   2   6   8   70.40    1.52
   2   6   8   67.20    1.32
   2   6   8   68.44    1.51
   2   6   8   68.63    1.27
  -2  -6  -9   20.04    1.01
  -2  -6  -9   19.90    1.08
  -2  -6  -9   16.91    1.00
  -2  -6  -9   21.84    1.27
   2   6   9   23.73    1.05
   2   6   9   21.68    0.98
   2   6   9   24.04    1.34
   2   6   9   25.14    0.95
  -2  -6 -10    0.86    0.51
  -2  -6 -10    0.14    0.56
   2   6  10   -0.31    0.46
   2   6  10    0.10    0.49
   2   6  10    0.85    0.43
  -2  -6 -11    0.92    0.58
  -2  -6 -11   -0.33    0.61
   2   6  11    2.09    0.64
   2   6  11    1.78    0.65
   2   6  11    2.21    0.57
  -2  -7  10   14.59    1.04
  -2  -7  10   14.63    1.16
   2   7 -10   12.46    1.17
   2   7 -10   11.90    0.89
  -2  -7   9    1.43    0.46
  -2  -7   9    1.29    0.53
   2   7  -9    0.79    0.52
   2   7  -9    0.56    0.38
  -2  -7   8    4.25    0.43
  -2  -7   8    5.41    0.64
  -2  -7   8    4.30    0.59
   2   7  -8    5.96    0.67
   2   7  -8    6.22    0.63
   2   7  -8    4.19    0.57
   2   7  -8    5.70    0.60
  -2  -7   7   12.33    0.51
  -2  -7   7   13.34    0.83
  -2  -7   7   11.50    0.85
  -2  -7   7   13.07    0.69
   2   7  -7   16.18    0.93
   2   7  -7   18.11    0.70
   2   7  -7   11.38    0.64
   2   7  -7   11.22    0.75
   2   7  -7   14.29    0.64
  -2  -7   6    7.74    0.47
  -2  -7   6    8.95    0.74
  -2  -7   6    9.02    0.76
  -2  -7   6    9.15    0.54
   2   7  -6   10.69    0.56
   2   7  -6   10.10    0.78
   2   7  -6   11.21    0.62
   2   7  -6    8.31    0.58
   2   7  -6    8.11    0.59
   2   7  -6    9.02    0.50
  -2  -7   5   14.29    0.54
  -2  -7   5   16.32    0.80
  -2  -7   5   15.51    0.84
  -2  -7   5   15.95    0.49
   2   7  -5   18.61    0.61
   2   7  -5   20.10    0.69
   2   7  -5   13.91    0.61
   2   7  -5   15.21    0.58
   2   7  -5   15.55    0.53
  -2  -7   4   34.76    0.75
  -2  -7   4   37.53    1.07
  -2  -7   4   36.31    1.04
  -2  -7   4   33.94    0.46
  -2  -7   4   38.09    0.49
   2   7  -4   40.74    0.81
   2   7  -4   42.50    0.83
   2   7  -4   41.89    1.07
   2   7  -4   32.37    1.01
   2   7  -4   45.68    0.92
   2   7  -4   34.36    0.82
   2   7  -4   40.09    1.10
   2   7  -4   35.24    0.65
  -2  -7   3   37.83    1.04
  -2  -7   3   38.82    1.02
   2   7  -3   41.14    0.83
   2   7  -3   40.43    0.83
   2   7  -3   41.62    1.04
   2   7  -3   34.30    0.97
   2   7  -3   46.14    0.94
   2   7  -3   36.41    0.84
   2   7  -3   42.34    1.07
   2   7  -3   35.88    0.53
   2   7  -3   35.79    0.51
  -2  -7   2    0.07    0.30
  -2  -7   2    0.20    0.28
   2   7  -2    0.17    0.23
   2   7  -2    0.03    0.26
   2   7  -2   -0.06    0.25
   2   7  -2   -0.07    0.30
   2   7  -2    0.11    0.27
   2   7  -2   -0.11    0.25
   2   7  -2   -0.12    0.30
  -2  -7   1    4.30    0.47
   2   7  -1    4.16    0.46
   2   7  -1    4.01    0.41
   2   7  -1    4.43    0.51
   2   7  -1    3.85    0.42
   2   7  -1    4.62    0.45
   2   7  -1    3.47    0.39
   2   7  -1    2.65    0.36
   2   7  -1    3.84    0.42
  -2  -7   0   17.98    0.69
   2   7   0   19.48    0.70
   2   7   0   18.37    0.69
   2   7   0   19.25    0.71
   2   7   0   16.50    0.71
   2   7   0   21.52    0.76
   2   7   0   16.84    0.68
   2   7   0   16.78    0.67
   2   7   0   19.86    0.72
  -2  -7  -1    0.44    0.27
   2   7   1    0.36    0.28
   2   7   1    0.80    0.31
   2   7   1    0.84    0.28
   2   7   1   -0.18    0.26
   2   7   1    0.47    0.31
   2   7   1    0.48    0.28
   2   7   1    0.60    0.27
   2   7   1    0.13    0.26
  -2  -7  -2   15.33    0.60
  -2  -7  -2   12.96    0.65
  -2  -7  -2   15.50    0.72
   2   7   2   16.72    0.72
   2   7   2   14.37    0.71
   2   7   2   13.80    0.65
   2   7   2   17.23    0.75
   2   7   2   15.45    0.71
   2   7   2   15.84    0.66
   2   7   2   16.07    0.66
  -2  -7  -3    5.40    0.45
  -2  -7  -3    4.67    0.46
  -2  -7  -3    4.75    0.50
   2   7   3    5.51    0.57
   2   7   3    3.51    0.42
   2   7   3    5.99    0.55
   2   7   3    5.61    0.58
   2   7   3    5.93    0.55
   2   7   3    5.42    0.49
   2   7   3    4.86    0.27
   2   7   3    4.64    0.25
  -2  -7  -4   23.71    0.65
  -2  -7  -4   20.43    0.79
  -2  -7  -4   22.11    0.88
  -2  -7  -4   20.98    0.35
   2   7   4   23.97    0.90
   2   7   4   22.08    0.81
   2   7   4   23.52    0.80
   2   7   4   23.30    0.77
   2   7   4   24.09    0.54
   2   7   4   23.33    0.60
  -2  -7  -5   11.29    0.51
  -2  -7  -5    9.72    0.69
  -2  -7  -5    9.32    0.72
  -2  -7  -5    9.80    0.67
  -2  -7  -5   10.01    0.42
   2   7   5   12.09    0.74
   2   7   5    8.96    0.68
   2   7   5   11.45    0.69
   2   7   5   11.09    0.50
   2   7   5   11.69    0.46
  -2  -7  -6    4.71    0.51
  -2  -7  -6    5.93    0.69
  -2  -7  -6    5.56    0.68
  -2  -7  -6    5.87    0.48
   2   7   6    5.78    0.71
   2   7   6    5.16    0.54
   2   7   6    6.91    0.66
   2   7   6    5.62    0.52
   2   7   6    7.08    0.46
  -2  -7  -7    0.01    0.36
  -2  -7  -7    0.39    0.39
  -2  -7  -7    0.20    0.43
  -2  -7  -7    0.71    0.34
   2   7   7    0.55    0.42
   2   7   7    0.59    0.40
   2   7   7    0.12    0.34
   2   7   7    0.41    0.25
  -2  -7  -8    4.85    0.59
  -2  -7  -8    5.48    0.71
  -2  -7  -8    5.29    0.66
  -2  -7  -8    6.27    0.64
   2   7   8    6.08    0.75
   2   7   8    6.63    0.83
   2   7   8    6.45    0.73
   2   7   8    7.39    0.62
  -2  -7  -9    2.28    0.52
  -2  -7  -9    2.04    0.62
   2   7   9    0.94    0.55
   2   7   9    1.09    0.54
   2   7   9    1.90    0.41
  -2  -7 -10    2.26    0.64
  -2  -7 -10    3.27    0.77
   2   7  10    6.08    0.76
   2   7  10    2.39    0.63
   2   7  10    4.32    0.59
  -2  -8   9    1.83    0.55
  -2  -8   9    3.32    0.69
   2   8  -9    4.22    0.77
   2   8  -9    1.53    0.41
  -2  -8   8   13.83    0.95
  -2  -8   8   13.45    1.14
   2   8  -8   16.65    1.10
   2   8  -8   12.17    0.70
  -2  -8   7    2.03    0.38
  -2  -8   7    1.80    0.48
  -2  -8   7    2.16    0.54
  -2  -8   7    1.97    0.40
   2   8  -7    2.51    0.58
   2   8  -7    2.86    0.45
   2   8  -7    2.54    0.48
   2   8  -7    1.97    0.34
  -2  -8   6   13.46    0.64
  -2  -8   6   15.30    0.92
  -2  -8   6   14.70    0.97
  -2  -8   6   15.08    0.58
   2   8  -6   18.52    0.69
   2   8  -6   19.51    1.00
   2   8  -6   20.16    1.00
   2   8  -6   20.64    0.77
   2   8  -6   14.11    0.76
   2   8  -6   15.54    0.70
   2   8  -6   14.09    0.56
  -2  -8   5   -0.21    0.28
  -2  -8   5    0.14    0.33
  -2  -8   5    0.75    0.44
   2   8  -5    0.42    0.31
   2   8  -5    0.14    0.36
   2   8  -5   -0.53    0.36
   2   8  -5    0.03    0.32
   2   8  -5    0.41    0.35
   2   8  -5   -0.16    0.26
   2   8  -5   -0.30    0.19
  -2  -8   4    1.86    0.39
  -2  -8   4    2.00    0.44
   2   8  -4    2.56    0.38
   2   8  -4    2.82    0.45
   2   8  -4    2.34    0.44
   2   8  -4    2.90    0.41
   2   8  -4    2.16    0.43
   2   8  -4    2.00    0.25
   2   8  -4    1.76    0.21
  -2  -8   3    6.15    0.65
  -2  -8   3    4.56    0.64
   2   8  -3    7.12    0.56
   2   8  -3    6.31    0.61
   2   8  -3    6.77    0.65
   2   8  -3    4.85    0.58
   2   8  -3    7.72    0.64
   2   8  -3    5.63    0.61
   2   8  -3    5.99    0.24
  -2  -8   2    7.94    0.64
   2   8  -2    9.59    0.61
   2   8  -2    7.85    0.64
   2   8  -2    8.36    0.67
   2   8  -2    7.20    0.76
   2   8  -2    8.69    0.64
   2   8  -2    6.61    0.60
   2   8  -2    7.92    0.66
   2   8  -2    7.19    0.79
  -2  -8   1   33.46    1.00
   2   8  -1   34.98    0.94
   2   8  -1   34.68    0.96
   2   8  -1   36.64    1.01
   2   8  -1   30.07    1.00
   2   8  -1   37.18    0.99
   2   8  -1   30.85    0.91
   2   8  -1   30.98    0.96
   2   8  -1   35.13    1.05
  -2  -8   0    1.73    0.37
   2   8   0    2.20    0.39
   2   8   0    1.65    0.42
   2   8   0    2.30    0.40
   2   8   0    1.31    0.40
   2   8   0    2.44    0.42
   2   8   0    2.03    0.42
   2   8   0    1.81    0.38
   2   8   0    1.86    0.43
  -2  -8  -1   10.70    0.65
   2   8   1   10.77    0.69
   2   8   1   10.68    0.74
   2   8   1   10.90    0.67
   2   8   1    9.49    0.70
   2   8   1   11.61    0.74
   2   8   1   10.06    0.75
   2   8   1    9.97    0.67
   2   8   1   10.03    0.70
  -2  -8  -2    8.84    0.72
   2   8   2   10.47    0.70
   2   8   2    8.67    0.65
   2   8   2    9.48    0.71
   2   8   2    9.04    0.72
   2   8   2   10.59    0.69
   2   8   2    8.71    0.69
  -2  -8  -3   10.47    0.61
  -2  -8  -3    7.79    0.67
   2   8   3   10.95    0.76
   2   8   3    9.65    0.73
   2   8   3    9.81    0.71
   2   8   3    8.94    0.71
  -2  -8  -4   27.31    0.78
  -2  -8  -4   22.48    0.89
  -2  -8  -4   23.31    1.00
   2   8   4   26.81    1.01
   2   8   4   24.21    0.97
   2   8   4   24.43    0.93
   2   8   4   24.59    0.96
   2   8   4   25.84    0.54
   2   8   4   25.04    0.50
  -2  -8  -5    2.19    0.57
  -2  -8  -5    2.01    0.45
  -2  -8  -5    1.96    0.50
   2   8   5    1.99    0.45
   2   8   5    1.47    0.47
   2   8   5    2.75    0.48
   2   8   5    1.83    0.48
   2   8   5    3.03    0.34
   2   8   5    3.15    0.34
  -2  -8  -6   13.10    0.86
  -2  -8  -6   15.62    0.97
  -2  -8  -6   12.44    0.92
  -2  -8  -6   16.90    0.55
   2   8   6   19.77    1.01
   2   8   6   18.47    0.93
   2   8   6   17.53    0.69
   2   8   6   18.11    0.61
  -2  -8  -7    0.63    0.47
  -2  -8  -7    0.60    0.47
  -2  -8  -7    0.25    0.35
   2   8   7   -0.13    0.46
   2   8   7    0.15    0.49
   2   8   7    0.02    0.38
   2   8   7    0.02    0.25
  -2  -8  -8    9.12    0.95
  -2  -8  -8    9.78    1.02
   2   8   8   13.37    1.02
   2   8   8   10.98    1.06
   2   8   8   11.86    0.69
  -2  -8  -9    1.09    0.64
  -2  -8  -9    1.78    0.62
   2   8   9    0.64    0.51
   2   8   9    1.98    0.71
   2   8   9    1.48    0.42
  -2  -9   8    1.42    0.68
   2   9  -8    1.94    0.72
   2   9  -8    1.38    0.40
  -2  -9   7   10.84    0.99
  -2  -9   7   12.79    1.18
   2   9  -7   13.91    1.18
   2   9  -7    9.53    0.62
  -2  -9   6    3.00    0.59
  -2  -9   6    4.46    0.68
   2   9  -6    4.25    0.52
   2   9  -6    4.76    0.68
   2   9  -6    4.03    0.83
   2   9  -6    3.61    0.43
   2   9  -6    3.23    0.35
  -2  -9   5    8.56    0.82
  -2  -9   5    9.18    1.00
   2   9  -5    8.74    0.71
   2   9  -5   10.16    0.93
   2   9  -5   10.68    0.76
   2   9  -5    7.90    0.50
   2   9  -5    7.49    0.43
  -2  -9   4   22.37    1.02
  -2  -9   4   22.56    1.08
   2   9  -4   24.75    0.90
   2   9  -4   25.42    1.01
   2   9  -4   27.12    1.10
   2   9  -4   29.74    0.96
   2   9  -4   20.62    0.93
   2   9  -4   20.21    0.41
  -2  -9   3    3.51    0.52
   2   9  -3    4.17    0.52
   2   9  -3    4.13    0.57
   2   9  -3    4.86    0.60
   2   9  -3    4.17    0.53
   2   9  -3    3.99    0.53
   2   9  -3    3.13    0.52
  -2  -9   2   33.33    1.10
   2   9  -2   34.24    1.03
   2   9  -2   34.01    1.11
   2   9  -2   39.03    1.17
   2   9  -2   37.69    1.07
   2   9  -2   29.20    1.05
   2   9  -2   29.13    1.09
  -2  -9   1    0.17    0.37
   2   9  -1    0.17    0.37
   2   9  -1    0.41    0.40
   2   9  -1    1.30    0.49
   2   9  -1    0.70    0.39
  -2  -9   0   49.31    1.20
   2   9   0   49.89    1.45
   2   9   0   53.95    1.26
   2   9   0   40.99    1.21
   2   9   0   54.30    1.30
   2   9   0   45.06    1.23
  -2  -9  -1    7.25    0.68
   2   9   1    8.57    0.76
   2   9   1    7.50    0.72
   2   9   1    7.08    0.81
   2   9   1    6.65    0.64
  -2  -9  -2   23.35    0.88
   2   9   2   23.12    1.01
   2   9   2   21.75    0.93
   2   9   2   17.20    0.95
   2   9   2   23.01    1.03
   2   9   2   20.37    1.00
  -2  -9  -3   21.99    0.82
  -2  -9  -3   21.00    1.03
   2   9   3   24.63    1.06
   2   9   3   19.10    1.10
   2   9   3   22.59    1.20
   2   9   3   23.17    1.07
   2   9   3   21.97    1.02
  -2  -9  -4    5.41    0.52
  -2  -9  -4    4.01    0.58
  -2  -9  -4    4.61    0.66
   2   9   4    6.25    0.70
   2   9   4    4.76    0.64
   2   9   4    5.37    0.68
   2   9   4    5.16    0.29
  -2  -9  -5   44.55    1.28
  -2  -9  -5   43.82    1.43
   2   9   5   56.98    1.52
   2   9   5   52.62    1.39
   2   9   5   49.31    0.79
   2   9   5   51.02    0.76
  -2  -9  -6    0.61    0.55
  -2  -9  -6    0.42    0.59
   2   9   6    1.12    0.51
   2   9   6    0.19    0.52
   2   9   6    0.54    0.35
   2   9   6    0.65    0.27
  -2  -9  -7   25.65    1.25
  -2  -9  -7   26.06    1.39
   2   9   7   33.28    1.40
   2   9   7   34.06    1.35
   2   9   7   30.56    0.83
  -2  -9  -8    8.34    0.89
  -2  -9  -8    9.69    1.19
   2   9   8   12.32    1.18
   2   9   8   10.49    0.98
   2   9   8   10.91    0.73
  -2 -10   6    1.16    0.76
  -2 -10   6    1.86    0.72
   2  10  -6    3.04    0.75
   2  10  -6    1.34    0.36
   2  10  -6    1.58    0.32
  -2 -10   5   11.79    1.00
  -2 -10   5   10.13    1.22
   2  10  -5   10.92    0.95
   2  10  -5   13.57    1.22
  -2 -10   4    0.51    0.50
   2  10  -4    0.16    0.51
   2  10  -4   -0.61    0.51
   2  10  -4    0.30    0.51
   2  10  -4    0.09    0.57
  -2 -10   3   13.73    0.94
   2  10  -3    9.38    1.09
   2  10  -3   14.35    1.05
   2  10  -3   16.35    1.02
   2  10  -3   12.47    1.08
  -2 -10   2    1.09    0.51
   2  10  -2    1.25    0.52
   2  10  -2    1.35    0.54
   2  10  -2    1.29    0.55
   2  10  -2    1.44    0.55
  -2 -10   1   24.86    1.09
   2  10  -1   25.66    1.10
   2  10  -1   26.06    1.13
   2  10  -1   24.83    1.14
   2  10  -1   22.51    1.13
  -2 -10   0   19.60    0.98
   2  10   0   19.54    1.04
   2  10   0   20.93    1.07
   2  10   0   21.35    1.12
   2  10   0   16.14    1.09
  -2 -10  -1    5.56    0.63
   2  10   1    7.51    0.89
   2  10   1    5.56    0.64
   2  10   1    6.64    0.73
   2  10   1    5.37    0.68
  -2 -10  -2   39.82    1.17
   2  10   2   40.54    1.35
   2  10   2   37.56    1.24
   2  10   2   40.99    1.43
   2  10   2   38.25    1.37
  -2 -10  -3    2.94    0.55
   2  10   3    2.24    0.61
   2  10   3    2.11    0.55
   2  10   3    2.17    0.62
   2  10   3    2.09    0.65
  -2 -10  -4   30.16    1.39
   2  10   4   34.54    1.40
   2  10   4   27.70    1.20
   2  10   4   32.70    1.39
   2  10   4   30.64    1.36
  -2 -10  -5    2.08    0.64
  -2 -10  -5    2.86    0.71
   2  10   5    3.76    0.71
   2  10   5    2.17    0.67
   2  10   5    3.58    0.72
  -2 -10  -6    7.23    0.83
  -2 -10  -6    8.13    1.00
   2  10   6   11.05    1.22
   2  10   6   10.13    1.22
   2  10   6    9.38    0.61
   2  10   6    8.89    0.53
  -2 -11   2    1.64    0.53
   2  11  -2    1.90    0.66
   2  11  -2    1.69    0.67
   2  11  -2    1.96    0.68
   2  11  -2    0.89    0.72
  -2 -11   1   15.71    1.09
   2  11  -1   16.26    1.19
   2  11  -1   15.02    1.27
   2  11  -1   16.61    1.28
   2  11  -1   12.11    1.29
  -2 -11   0    1.73    0.57
   2  11   0    1.97    0.68
   2  11   0    0.71    0.66
   2  11   0    2.65    0.75
   2  11   0    0.69    0.69
  -2 -11  -1    8.52    0.97
   2  11   1    8.39    0.90
   2  11   1    7.59    0.79
   2  11   1    8.37    0.89
   2  11   1    8.31    0.89
  -2 -11  -2    0.24    0.56
   2  11   2    0.67    0.67
   2  11   2    0.57    0.64
   2  11   2    0.97    0.71
   2  11   2    0.89    0.73
  -3   9   3    1.35    0.63
  -3   9   3    0.57    0.58
  -3   9   3   -0.98    0.71
  -3   9   3    0.95    0.39
   3  -9  -3   -0.73    0.55
   3  -9  -3    0.93    0.67
  -3   9   2    3.87    0.66
  -3   9   2    3.54    0.79
  -3   9   2    2.55    0.42
   3  -9  -2    3.01    0.77
   3  -9  -2    2.72    0.66
  -3   9   1    1.19    0.58
  -3   9   1    1.35    0.67
  -3   9   1    1.48    0.38
   3  -9  -1    0.21    0.55
   3  -9  -1    0.00    0.55
  -3   9   0    6.24    0.77
  -3   9   0    4.78    0.75
  -3   9   0    5.11    0.49
   3  -9   0    5.22    0.72
   3  -9   0    5.04    0.63
  -3   9  -1    6.44    0.77
  -3   9  -1    5.66    0.77
  -3   9  -1    6.49    0.62
   3  -9   1    8.03    0.89
   3  -9   1    6.66    0.99
  -3   9  -2    2.25    0.62
  -3   9  -2    1.41    0.59
  -3   9  -2    1.82    0.39
   3  -9   2    2.75    0.65
  -3   9  -3    5.57    0.76
  -3   9  -3    5.21    0.82
  -3   9  -3    5.24    0.61
   3  -9   3    5.39    0.76
  -3   9  -4    3.22    0.66
  -3   9  -4    4.02    0.83
  -3   9  -4    3.13    0.44
   3  -9   4    2.73    0.72
  -3   8   6   20.42    1.29
  -3   8   6   16.20    1.34
  -3   8   6   16.92    0.98
   3  -8  -6   16.87    1.30
  -3   8   5   38.17    1.42
  -3   8   5   33.00    1.49
  -3   8   5   32.42    1.06
   3  -8  -5   29.10    1.40
  -3   8   4    1.20    0.54
  -3   8   4    0.07    0.70
  -3   8   4    1.34    0.63
  -3   8   4    0.29    0.32
   3  -8  -4   -0.46    0.49
   3  -8  -4    0.68    0.57
  -3   8   3   14.33    0.93
  -3   8   3   10.00    1.07
  -3   8   3   11.12    0.70
   3  -8  -3   12.21    1.02
   3  -8  -3   12.02    0.99
  -3   8   2    8.99    0.84
  -3   8   2    9.69    1.01
  -3   8   2   10.43    0.74
  -3   8   2    8.46    0.59
   3  -8  -2    8.69    0.98
   3  -8  -2    9.68    0.89
  -3   8   1    5.47    0.66
  -3   8   1    5.59    0.66
  -3   8   1    5.64    0.68
  -3   8   1    4.43    0.55
   3  -8  -1    3.83    0.61
   3  -8  -1    5.06    0.58
   3  -8  -1    6.08    0.60
  -3   8   0   10.90    0.86
  -3   8   0   14.35    1.07
  -3   8   0   11.87    1.01
  -3   8   0   11.88    0.76
  -3   8   0   11.27    0.63
   3  -8   0   10.50    0.91
   3  -8   0   10.42    0.80
   3  -8   0   13.54    0.74
  -3   8  -1   -0.21    0.42
  -3   8  -1    0.52    0.50
  -3   8  -1    0.37    0.38
  -3   8  -1    0.10    0.28
   3  -8   1    0.21    0.44
   3  -8   1   -0.12    0.37
   3  -8   1    0.31    0.39
  -3   8  -2   28.56    1.18
  -3   8  -2   24.64    1.20
  -3   8  -2   30.64    0.99
  -3   8  -2   24.69    0.79
   3  -8   2   26.60    1.16
   3  -8   2   26.20    0.81
   3  -8   2   30.29    1.02
  -3   8  -3    2.86    0.59
  -3   8  -3    2.42    0.58
  -3   8  -3    4.56    0.53
  -3   8  -3    3.03    0.37
   3  -8   3    2.60    0.59
  -3   8  -4   12.34    0.94
  -3   8  -4   12.77    1.06
  -3   8  -4   12.79    0.70
   3  -8   4   13.75    1.01
  -3   8  -5    3.23    0.68
  -3   8  -5    0.98    0.58
  -3   8  -5    2.38    0.42
   3  -8   5    2.80    0.63
  -3   8  -6    4.01    0.73
  -3   8  -6    4.01    0.75
  -3   8  -6    3.86    0.50
   3  -8   6    3.59    0.67
  -3   8  -7    1.87    0.70
  -3   8  -7    2.19    0.74
  -3   8  -7    2.46    0.49
   3  -8   7    2.65    0.74
  -3   7   8   14.02    1.21
  -3   7   8   12.20    1.38
  -3   7   8   11.48    1.04
   3  -7  -8   12.28    1.28
  -3   7   7    1.96    0.65
  -3   7   7    1.45    0.62
  -3   7   7    2.24    0.49
   3  -7  -7    2.18    0.66
  -3   7   6    0.22    0.52
  -3   7   6   -0.51    0.49
  -3   7   6    0.40    0.39
   3  -7  -6    0.59    0.56
  -3   7   5    0.72    0.48
  -3   7   5    0.08    0.47
  -3   7   5    0.22    0.33
   3  -7  -5    0.00    0.47
  -3   7   4   24.21    1.06
  -3   7   4   23.49    1.15
  -3   7   4   22.15    0.94
  -3   7   4   23.14    0.85
   3  -7  -4   21.34    1.04
   3  -7  -4   20.96    1.05
   3  -7  -4   26.39    1.11
  -3   7   3   14.00    0.80
  -3   7   3   10.88    0.93
  -3   7   3   12.04    0.77
  -3   7   3   13.62    0.68
   3  -7  -3   12.09    0.89
   3  -7  -3   11.58    0.88
   3  -7  -3   14.31    0.80
  -3   7   2    2.59    0.46
  -3   7   2    2.06    0.49
  -3   7   2    1.91    0.40
  -3   7   2    2.06    0.34
   3  -7  -2    2.03    0.47
   3  -7  -2    2.34    0.44
   3  -7  -2    2.96    0.42
  -3   7   1   11.62    0.78
  -3   7   1   13.98    0.88
  -3   7   1   13.70    0.91
  -3   7   1   15.23    0.72
  -3   7   1   11.60    0.59
   3  -7  -1   12.33    0.84
   3  -7  -1   11.44    0.76
   3  -7  -1   14.86    0.77
  -3   7   0    2.38    0.48
  -3   7   0    2.90    0.48
  -3   7   0    1.93    0.47
  -3   7   0    1.92    0.38
  -3   7   0    1.87    0.32
   3  -7   0    1.66    0.48
   3  -7   0    1.90    0.38
   3  -7   0    1.82    0.37
  -3   7  -1   50.79    1.28
  -3   7  -1   64.32    1.14
  -3   7  -1   50.04    1.35
  -3   7  -1   59.07    1.11
  -3   7  -1   48.88    0.98
   3  -7   1   51.46    1.34
   3  -7   1   50.17    1.00
   3  -7   1   56.15    1.01
  -3   7  -2    7.29    0.73
  -3   7  -2    5.95    0.38
  -3   7  -2    5.38    0.41
  -3   7  -2    8.35    0.60
  -3   7  -2    5.26    0.59
  -3   7  -2    7.65    0.66
  -3   7  -2    6.75    0.52
   3  -7   2    7.01    0.73
   3  -7   2    5.29    0.49
   3  -7   2    7.20    0.69
  -3   7  -3   16.10    0.90
  -3   7  -3   17.35    0.59
  -3   7  -3   15.32    0.63
  -3   7  -3   22.82    0.61
  -3   7  -3   17.02    0.95
  -3   7  -3   20.06    0.82
  -3   7  -3   15.85    0.67
   3  -7   3   16.62    0.89
   3  -7   3   18.26    0.54
   3  -7   3   17.41    0.75
  -3   7  -4   19.14    0.96
  -3   7  -4   17.90    0.69
  -3   7  -4   16.30    0.96
  -3   7  -4   24.01    0.92
  -3   7  -4   16.19    0.71
   3  -7   4   17.79    0.95
   3  -7   4   21.17    0.75
   3  -7   4   18.70    0.82
  -3   7  -5    0.61    0.49
  -3   7  -5    0.58    0.36
  -3   7  -5   -0.30    0.43
  -3   7  -5   -0.20    0.40
  -3   7  -5    0.43    0.31
   3  -7   5    0.40    0.46
   3  -7   5   -0.27    0.38
   3  -7   5    0.21    0.55
  -3   7  -6   26.11    1.15
  -3   7  -6   26.72    0.95
  -3   7  -6   22.49    1.21
  -3   7  -6   25.45    0.92
   3  -7   6   26.54    1.14
   3  -7   6   24.65    0.98
  -3   7  -7    0.46    0.47
  -3   7  -7    0.03    0.46
  -3   7  -7    1.18    0.53
  -3   7  -7   -0.01    0.38
   3  -7   7   -0.05    0.51
   3  -7   7    1.08    0.59
  -3   7  -8   26.69    1.26
  -3   7  -8   26.84    1.22
  -3   7  -8   26.85    1.11
   3  -7   8   21.92    1.25
   3  -7   8   28.98    1.39
  -3   7  -9    0.53    0.66
  -3   7  -9    1.50    0.58
   3  -7   9    0.73    0.73
   3  -7   9    1.79    0.73
  -3   6   9   14.75    1.18
  -3   6   9    9.86    1.04
  -3   6   9   11.38    1.05
   3  -6  -9   12.97    1.22
  -3   6   8   -0.42    0.49
  -3   6   8   -0.09    0.58
  -3   6   8   -0.35    0.42
   3  -6  -8   -0.03    0.56
  -3   6   7    4.44    0.64
  -3   6   7    4.33    0.63
  -3   6   7    3.77    0.53
   3  -6  -7    3.82    0.40
   3  -6  -7    3.64    0.68
  -3   6   6    3.34    0.58
  -3   6   6    2.08    0.50
  -3   6   6    2.74    0.66
  -3   6   6    3.32    0.46
   3  -6  -6    2.82    0.31
   3  -6  -6    2.99    0.57
   3  -6  -6    4.78    0.87
  -3   6   5   19.89    0.97
  -3   6   5   16.96    0.73
  -3   6   5   19.28    0.45
  -3   6   5   16.46    0.94
  -3   6   5   15.75    0.83
  -3   6   5   16.68    0.75
   3  -6  -5   15.27    0.90
   3  -6  -5   14.25    0.57
   3  -6  -5   15.72    0.91
   3  -6  -5   18.32    0.89
  -3   6   4   38.65    0.92
  -3   6   4   38.93    1.22
  -3   6   4   35.08    1.30
  -3   6   4   36.73    0.96
   3  -6  -4   36.23    1.15
   3  -6  -4   42.73    1.06
  -3   6   3    0.46    0.34
  -3   6   3    0.74    0.49
  -3   6   3    0.04    0.38
  -3   6   3    0.27    0.34
  -3   6   3    0.70    0.27
   3  -6  -3    0.25    0.34
   3  -6  -3    0.94    0.37
   3  -6  -3    0.54    0.32
  -3   6   2   48.71    1.04
  -3   6   2   52.42    1.16
  -3   6   2   46.80    1.24
  -3   6   2   48.11    1.01
  -3   6   2   44.57    0.95
   3  -6  -2   45.09    1.19
   3  -6  -2   41.97    1.06
   3  -6  -2   51.11    0.99
  -3   6   1   11.96    0.69
  -3   6   1   12.36    0.72
  -3   6   1   11.87    0.76
  -3   6   1   11.26    0.62
  -3   6   1   10.69    0.55
   3  -6  -1    9.69    0.87
   3  -6  -1   10.40    0.65
   3  -6  -1   12.15    0.60
  -3   6   0   19.95    0.80
  -3   6   0   24.72    0.79
  -3   6   0   19.94    0.88
  -3   6   0   21.93    0.74
  -3   6   0   20.13    0.66
   3  -6   0   16.25    1.01
   3  -6   0   19.30    0.71
   3  -6   0   22.11    0.69
  -3   6  -1   16.77    0.79
  -3   6  -1   20.60    0.68
  -3   6  -1   15.73    0.83
  -3   6  -1   18.48    0.70
  -3   6  -1   15.84    0.61
   3  -6   1   16.11    0.79
   3  -6   1   15.74    0.60
   3  -6   1   17.73    0.65
  -3   6  -2   19.03    0.82
  -3   6  -2   18.56    0.45
  -3   6  -2   17.55    0.45
  -3   6  -2   23.54    0.66
  -3   6  -2   18.84    0.86
  -3   6  -2   22.35    0.76
  -3   6  -2   16.87    0.61
   3  -6   2   18.31    0.84
   3  -6   2   19.20    0.57
   3  -6   2   19.96    0.69
  -3   6  -3   55.59    1.27
  -3   6  -3   55.94    0.81
  -3   6  -3   74.44    0.80
  -3   6  -3   52.37    1.27
  -3   6  -3   66.81    1.17
  -3   6  -3   50.66    0.99
   3  -6   3   54.04    1.38
   3  -6   3   59.05    0.83
   3  -6   3   56.40    0.69
   3  -6   3   57.87    1.04
  -3   6  -4    1.40    0.40
  -3   6  -4    1.63    0.31
  -3   6  -4    1.68    0.45
  -3   6  -4    1.18    0.48
  -3   6  -4    1.39    0.31
   3  -6   4    1.50    0.29
   3  -6   4    1.97    0.39
  -3   6  -5   39.70    1.20
  -3   6  -5   39.80    0.91
  -3   6  -5   36.33    1.20
  -3   6  -5   47.61    1.16
  -3   6  -5   37.51    0.97
   3  -6   5   38.53    1.14
   3  -6   5   41.76    0.93
   3  -6   5   41.46    1.04
  -3   6  -6    0.24    0.40
  -3   6  -6    0.71    0.35
  -3   6  -6    0.98    0.38
  -3   6  -6    0.67    0.37
   3  -6   6    0.52    0.42
   3  -6   6    0.12    0.37
   3  -6   6    0.51    0.41
   3  -6   6    0.63    0.43
  -3   6  -7   14.50    0.95
  -3   6  -7   14.53    0.86
  -3   6  -7   13.48    0.82
   3  -6   7   14.25    0.93
   3  -6   7   14.30    0.90
   3  -6   7   13.50    0.95
  -3   6  -8   15.42    1.03
  -3   6  -8   13.60    0.94
  -3   6  -8   14.75    0.91
   3  -6   8   14.50    0.99
   3  -6   8   14.68    1.06
  -3   6  -9    3.71    0.69
  -3   6  -9    4.29    0.64
  -3   6  -9    3.36    0.60
   3  -6   9    4.00    0.66
   3  -6   9    3.44    0.66
  -3   6 -10    7.61    0.85
  -3   6 -10    8.61    0.87
  -3   6 -10   10.77    1.07
   3  -6  10    7.42    0.84
   3  -6  10    8.60    0.90
  -3   5  10    0.45    0.62
  -3   5  10    0.59    0.69
  -3   5  10    1.87    0.61
   3  -5 -10    0.38    0.58
   3  -5 -10    2.05    0.71
  -3   5   9   13.48    1.03
  -3   5   9   10.80    1.02
  -3   5   9   11.24    1.02
   3  -5  -9    8.59    0.79
   3  -5  -9   10.26    1.06
  -3   5   8   -0.53    0.43
  -3   5   8    0.03    0.48
  -3   5   8   -0.35    0.39
   3  -5  -8   -0.10    0.35
   3  -5  -8    0.03    0.47
  -3   5   7    8.78    0.79
  -3   5   7    9.07    0.62
  -3   5   7    9.85    0.88
  -3   5   7    8.29    0.87
  -3   5   7    8.30    0.74
   3  -5  -7    7.36    0.56
   3  -5  -7    8.10    0.83
   3  -5  -7    9.27    0.87
  -3   5   6    0.38    0.36
  -3   5   6    0.12    0.25
  -3   5   6    0.26    0.37
  -3   5   6    0.21    0.38
  -3   5   6   -0.38    0.32
   3  -5  -6    0.17    0.23
   3  -5  -6    0.17    0.41
   3  -5  -6   -0.15    0.36
  -3   5   5   16.43    1.12
  -3   5   5   16.97    0.61
  -3   5   5   19.25    0.48
  -3   5   5   16.17    0.82
  -3   5   5   16.16    0.76
  -3   5   5   17.15    0.73
   3  -5  -5   13.55    0.97
   3  -5  -5   14.17    0.44
   3  -5  -5   19.46    0.83
  -3   5   4    4.13    0.41
  -3   5   4    4.11    0.24
  -3   5   4    3.50    0.50
  -3   5   4    4.01    0.51
  -3   5   4    3.31    0.40
  -3   5   4    3.13    0.59
   3  -5  -4    3.56    0.48
   3  -5  -4    3.10    0.44
   3  -5  -4    4.29    0.46
  -3   5   3   10.70    0.58
  -3   5   3   11.67    0.69
  -3   5   3    9.31    0.67
  -3   5   3   10.33    0.58
  -3   5   3   10.38    0.55
   3  -5  -3    9.13    0.64
   3  -5  -3    9.43    0.63
   3  -5  -3    7.74    0.66
   3  -5  -3   10.13    0.58
   3  -5  -3    7.93    0.47
  -3   5   2   35.49    1.00
  -3   5   2   35.94    0.86
  -3   5   2   39.45    0.94
  -3   5   2   35.07    1.01
  -3   5   2   34.12    0.83
  -3   5   2   32.54    0.80
   3  -5  -2   32.06    0.94
   3  -5  -2   32.62    0.88
   3  -5  -2   30.82    0.98
   3  -5  -2   38.22    0.84
   3  -5  -2   30.91    0.73
  -3   5   1   12.13    0.69
  -3   5   1   13.30    0.64
  -3   5   1   15.12    0.63
  -3   5   1   12.07    0.69
  -3   5   1   10.65    0.68
  -3   5   1   13.67    0.59
  -3   5   1   10.93    0.51
   3  -5  -1   11.15    0.63
   3  -5  -1   10.89    0.58
   3  -5  -1   11.22    0.66
   3  -5  -1   12.37    0.56
   3  -5  -1   10.36    0.48
  -3   5   0   58.44    1.19
  -3   5   0   56.64    1.09
  -3   5   0   72.20    1.05
  -3   5   0   56.57    1.18
  -3   5   0   54.61    1.16
  -3   5   0   59.18    1.00
  -3   5   0   51.33    0.92
   3  -5   0   53.39    1.13
   3  -5   0   53.42    0.93
   3  -5   0   58.27    0.96
   3  -5   0   53.83    0.90
  -3   5  -1    4.01    0.48
  -3   5  -1    3.35    0.41
  -3   5  -1    4.23    0.40
  -3   5  -1    2.42    0.35
  -3   5  -1    2.77    0.39
  -3   5  -1    3.37    0.42
  -3   5  -1    2.55    0.29
   3  -5   1    3.43    0.44
   3  -5   1    3.00    0.37
   3  -5   1    2.66    0.32
   3  -5   1    2.72    0.32
  -3   5  -2   74.72    1.32
  -3   5  -2   66.39    1.24
  -3   5  -2   65.60    0.68
  -3   5  -2   86.70    0.92
  -3   5  -2   60.25    1.22
  -3   5  -2   71.05    1.31
  -3   5  -2   76.15    1.14
  -3   5  -2   61.16    1.01
   3  -5   2   64.70    1.25
   3  -5   2   70.78    0.71
   3  -5   2   64.53    0.81
   3  -5   2   71.84    1.07
   3  -5   2   66.52    1.00
  -3   5  -3    8.70    0.63
  -3   5  -3    7.79    0.60
  -3   5  -3    6.53    0.40
  -3   5  -3    9.31    0.35
  -3   5  -3    6.71    0.60
  -3   5  -3    7.43    0.59
  -3   5  -3    8.23    0.55
  -3   5  -3    6.53    0.48
   3  -5   3    6.58    0.59
   3  -5   3    8.10    0.39
   3  -5   3    7.45    0.52
   3  -5   3    6.96    0.43
  -3   5  -4    3.50    0.43
  -3   5  -4    4.48    0.54
  -3   5  -4    3.49    0.34
  -3   5  -4    3.84    0.51
  -3   5  -4    3.74    0.43
  -3   5  -4    4.54    0.53
  -3   5  -4    4.14    0.46
   3  -5   4    4.21    0.50
   3  -5   4    4.24    0.42
   3  -5   4    4.09    0.42
   3  -5   4    2.78    0.32
  -3   5  -5    2.56    0.48
  -3   5  -5    1.99    0.45
  -3   5  -5    1.49    0.30
  -3   5  -5    1.91    0.35
   3  -5   5    1.83    0.40
   3  -5   5    2.13    0.33
   3  -5   5    1.73    0.35
  -3   5  -6   30.91    1.05
  -3   5  -6   32.39    0.88
  -3   5  -6   37.16    1.03
  -3   5  -6   30.66    0.92
   3  -5   6   31.10    0.98
   3  -5   6   33.03    0.90
   3  -5   6   31.06    1.06
   3  -5   6   31.95    0.96
  -3   5  -7   20.37    0.98
  -3   5  -7   22.68    0.86
  -3   5  -7   26.07    0.99
  -3   5  -7   21.75    0.86
   3  -5   7   18.59    0.94
   3  -5   7   20.43    0.91
   3  -5   7   23.05    0.99
   3  -5   7   24.23    0.96
  -3   5  -8    3.57    0.57
  -3   5  -8    3.41    0.81
  -3   5  -8    2.66    0.49
  -3   5  -8    3.93    0.53
   3  -5   8    3.99    0.53
   3  -5   8    2.97    0.52
   3  -5   8    3.53    0.55
  -3   5  -9   14.50    0.96
  -3   5  -9   15.76    0.98
  -3   5  -9   13.24    0.93
   3  -5   9   12.66    0.88
   3  -5   9   14.29    1.03
  -3   5 -10    0.76    0.51
  -3   5 -10    1.71    0.59
  -3   5 -10    1.74    0.61
   3  -5  10    1.47    0.50
   3  -5  10    2.14    0.66
  -3   5 -11   14.26    1.10
  -3   5 -11   15.88    1.28
  -3   5 -11   12.54    1.24
   3  -5  11    9.79    1.04
   3  -5  11   13.04    1.24
  -3   4  11   -1.75    0.61
  -3   4  11    0.46    0.59
  -3   4  11    1.28    0.64
   3  -4 -11   -0.31    0.57
   3  -4 -11    0.84    0.69
  -3   4  10   21.16    1.13
  -3   4  10   15.29    1.09
  -3   4  10   18.82    1.17
   3  -4 -10   16.52    1.13
  -3   4   9    2.04    0.55
  -3   4   9    2.25    0.53
  -3   4   9    0.99    0.49
  -3   4   9    1.47    0.57
   3  -4  -9    0.45    0.38
   3  -4  -9    2.50    0.58
  -3   4   8   26.74    1.02
  -3   4   8   26.93    0.90
  -3   4   8   21.73    1.07
  -3   4   8   22.73    1.12
  -3   4   8   26.08    1.02
   3  -4  -8   15.40    0.72
   3  -4  -8   24.46    1.08
   3  -4  -8   24.90    1.10
  -3   4   7   26.62    0.99
  -3   4   7   27.45    0.77
  -3   4   7   24.13    1.02
  -3   4   7   25.76    1.02
  -3   4   7   27.05    0.96
   3  -4  -7   18.72    0.66
   3  -4  -7   23.21    0.97
   3  -4  -7   28.48    1.03
  -3   4   6    7.38    0.63
  -3   4   6    5.84    0.46
  -3   4   6    6.45    0.47
  -3   4   6    6.05    0.66
  -3   4   6    6.82    0.67
  -3   4   6    6.59    0.60
   3  -4  -6    5.25    0.42
   3  -4  -6    5.91    1.01
   3  -4  -6    6.57    0.67
   3  -4  -6    4.92    0.65
  -3   4   5   72.71    1.35
  -3   4   5   82.30    0.98
  -3   4   5   87.92    0.90
  -3   4   5   81.02    1.41
  -3   4   5   78.87    1.45
  -3   4   5   81.00    1.34
  -3   4   5   80.26    1.34
   3  -4  -5   78.70    1.37
   3  -4  -5   67.67    0.81
   3  -4  -5   71.82    1.37
   3  -4  -5   63.89    1.32
   3  -4  -5   66.98    1.18
  -3   4   4    2.01    0.36
  -3   4   4    2.21    0.30
  -3   4   4    2.41    0.24
  -3   4   4    2.29    0.37
  -3   4   4    1.16    0.32
  -3   4   4    2.53    0.37
  -3   4   4    2.17    0.34
   3  -4  -4    2.38    0.42
   3  -4  -4    2.20    0.37
   3  -4  -4    1.28    0.33
   3  -4  -4    2.01    0.34
   3  -4  -4    1.33    0.25
  -3   4   3   96.61    1.42
  -3   4   3   97.00    1.15
  -3   4   3  106.35    1.43
  -3   4   3   95.42    1.47
  -3   4   3   93.90    1.28
  -3   4   3   90.59    1.25
   3  -4  -3   90.81    1.39
   3  -4  -3   83.65    1.30
   3  -4  -3   84.41    1.36
   3  -4  -3  104.72    1.32
   3  -4  -3   84.42    1.16
  -3   4   2   12.78    0.61
  -3   4   2   12.54    0.54
  -3   4   2   14.74    0.60
  -3   4   2   12.45    0.63
  -3   4   2   12.81    0.55
  -3   4   2   11.71    0.52
   3  -4  -2   11.75    0.59
   3  -4  -2   11.35    0.57
   3  -4  -2   11.06    0.60
   3  -4  -2   13.17    0.54
   3  -4  -2   11.47    0.47
  -3   4   1   32.66    0.77
  -3   4   1   38.99    0.80
  -3   4   1   31.32    0.85
  -3   4   1   32.25    0.74
  -3   4   1   30.17    0.71
   3  -4  -1   28.73    0.80
   3  -4  -1   28.93    0.73
   3  -4  -1   28.93    0.82
   3  -4  -1   33.48    0.74
   3  -4  -1   27.59    0.64
  -3   4   0    6.38    0.48
  -3   4   0    6.10    0.46
  -3   4   0    6.88    0.41
  -3   4   0    5.81    0.47
  -3   4   0    5.85    0.49
  -3   4   0    6.53    0.44
  -3   4   0    5.24    0.38
   3  -4   0    6.11    0.49
   3  -4   0    5.49    0.39
   3  -4   0    7.02    0.42
   3  -4   0    6.07    0.38
  -3   4  -1   28.67    0.81
  -3   4  -1   25.98    0.74
  -3   4  -1   32.89    0.63
  -3   4  -1   23.13    0.74
  -3   4  -1   27.05    0.79
  -3   4  -1   27.99    0.69
  -3   4  -1   23.46    0.61
   3  -4   1   26.49    0.78
   3  -4   1   23.66    0.55
   3  -4   1   26.61    0.65
   3  -4   1   24.19    0.61
  -3   4  -2   42.60    0.95
  -3   4  -2   35.71    0.88
  -3   4  -2   36.66    0.64
  -3   4  -2   49.71    0.66
  -3   4  -2   34.77    0.87
  -3   4  -2   37.28    0.90
  -3   4  -2   42.22    0.84
  -3   4  -2   34.89    0.75
   3  -4   2   38.04    0.92
   3  -4   2   41.24    0.53
   3  -4   2   37.20    0.58
   3  -4   2   39.59    0.79
   3  -4   2   37.69    0.75
  -3   4  -3   19.29    0.69
  -3   4  -3   15.20    0.66
  -3   4  -3   14.91    0.45
  -3   4  -3   20.45    0.37
  -3   4  -3   14.51    0.63
  -3   4  -3   17.70    0.67
  -3   4  -3   17.54    0.62
  -3   4  -3   14.52    0.56
   3  -4   3   15.30    0.66
   3  -4   3   17.93    0.47
   3  -4   3   15.04    0.32
   3  -4   3   16.10    0.58
   3  -4   3   16.54    0.55
  -3   4  -4    3.28    0.39
  -3   4  -4    1.59    0.34
  -3   4  -4    1.41    0.26
  -3   4  -4    1.52    0.29
  -3   4  -4    2.35    0.34
  -3   4  -4    1.96    0.30
  -3   4  -4    1.51    0.27
   3  -4   4    1.27    0.33
   3  -4   4    1.98    0.27
   3  -4   4    1.78    0.34
   3  -4   4    1.94    0.33
   3  -4   4    2.10    0.29
  -3   4  -5   69.98    1.27
  -3   4  -5   54.69    1.18
  -3   4  -5   55.95    0.96
  -3   4  -5   64.98    1.24
  -3   4  -5   66.62    1.17
  -3   4  -5   53.08    1.04
   3  -4   5   55.05    1.13
   3  -4   5   57.42    0.95
   3  -4   5   57.08    1.18
   3  -4   5   58.46    1.07
   3  -4   5   58.33    1.04
  -3   4  -6   63.16    1.27
  -3   4  -6   52.32    1.21
  -3   4  -6   49.94    1.02
  -3   4  -6   59.88    1.27
  -3   4  -6   63.63    1.23
  -3   4  -6   49.93    1.08
   3  -4   6   52.52    1.14
   3  -4   6   51.51    1.03
   3  -4   6   50.99    1.17
   3  -4   6   52.12    1.06
  -3   4  -7    0.45    0.39
  -3   4  -7    0.50    0.34
  -3   4  -7    0.57    0.31
  -3   4  -7    0.48    0.38
  -3   4  -7    0.68    0.33
   3  -4   7    1.00    0.36
   3  -4   7    0.75    0.36
   3  -4   7    1.06    0.64
   3  -4   7    0.50    0.34
  -3   4  -8    9.22    0.75
  -3   4  -8    8.32    0.71
  -3   4  -8    9.09    0.81
  -3   4  -8    8.33    0.77
   3  -4   8    9.08    0.73
   3  -4   8    6.28    0.77
   3  -4   8    9.75    0.78
   3  -4   8    9.78    0.74
  -3   4  -9    4.60    0.62
  -3   4  -9    3.28    0.51
  -3   4  -9    4.01    0.57
  -3   4  -9    5.34    0.62
   3  -4   9    4.35    0.55
   3  -4   9    4.29    0.55
   3  -4   9    3.42    0.51
  -3   4 -10   17.11    1.00
  -3   4 -10   16.53    1.02
  -3   4 -10   17.23    1.12
   3  -4  10   12.06    0.89
   3  -4  10   16.50    1.06
  -3   4 -11    2.79    0.59
  -3   4 -11    3.57    0.65
  -3   4 -11    2.47    0.69
   3  -4  11    1.82    0.55
   3  -4  11    2.76    0.67
  -3   4 -12    6.47    0.81
  -3   4 -12    5.75    0.76
  -3   4 -12    5.65    0.92
   3  -4  12    5.45    0.78
   3  -4  12    6.37    0.78
  -3   3  11   38.34    1.33
  -3   3  11   31.69    1.33
  -3   3  11   35.70    1.52
   3  -3 -11   27.43    1.22
   3  -3 -11   30.75    1.42
  -3   3  10   21.73    1.04
  -3   3  10   18.58    1.04
  -3   3  10   23.43    1.21
   3  -3 -10   14.25    0.95
   3  -3 -10   21.44    1.12
   3  -3 -10   24.27    1.38
  -3   3   9   27.43    1.06
  -3   3   9   25.36    0.98
  -3   3   9   23.26    1.04
  -3   3   9   24.56    1.24
  -3   3   9   26.07    1.16
   3  -3  -9   16.26    0.82
   3  -3  -9   23.54    1.08
   3  -3  -9   26.35    1.20
  -3   3   8   85.05    1.48
  -3   3   8   67.13    1.42
  -3   3   8   81.28    1.30
  -3   3   8   71.72    1.52
  -3   3   8   75.05    1.58
  -3   3   8   83.17    1.57
   3  -3  -8   51.27    1.07
   3  -3  -8   74.66    1.55
   3  -3  -8   74.71    1.87
  -3   3   7    4.31    0.49
  -3   3   7    2.99    0.47
  -3   3   7    4.00    0.35
  -3   3   7    4.56    0.50
  -3   3   7    2.99    0.44
  -3   3   7    4.38    0.57
  -3   3   7    3.83    0.49
   3  -3  -7    2.29    0.33
   3  -3  -7    3.14    0.49
   3  -3  -7    2.27    0.43
  -3   3   6   63.96    1.20
  -3   3   6   53.86    1.12
  -3   3   6   56.23    0.79
  -3   3   6   60.52    0.91
  -3   3   6   53.58    1.22
  -3   3   6   55.82    1.19
  -3   3   6   58.54    1.20
   3  -3  -6   38.78    0.77
   3  -3  -6   53.98    1.19
   3  -3  -6   45.10    1.12
   3  -3  -6   59.85    1.22
   3  -3  -6   48.43    1.08
  -3   3   5    2.69    0.37
  -3   3   5    3.34    0.40
  -3   3   5    3.83    0.32
  -3   3   5    4.42    0.48
  -3   3   5    4.20    0.52
  -3   3   5    4.27    0.45
  -3   3   5    3.66    0.41
   3  -3  -5    2.89    0.35
   3  -3  -5    3.20    0.33
   3  -3  -5    4.09    0.51
   3  -3  -5    3.02    0.39
   3  -3  -5    3.95    0.49
   3  -3  -5    2.65    0.35
  -3   3   4  111.92    1.43
  -3   3   4  113.18    1.10
  -3   3   4  123.41    0.93
  -3   3   4  120.72    1.51
  -3   3   4  106.27    1.48
  -3   3   4  111.27    1.40
  -3   3   4  111.32    1.41
   3  -3  -4  108.75    1.43
   3  -3  -4   94.55    0.83
   3  -3  -4  107.85    1.47
   3  -3  -4   99.46    1.43
   3  -3  -4  121.60    1.45
   3  -3  -4   98.19    1.29
  -3   3   3   44.76    0.91
  -3   3   3   47.70    0.77
  -3   3   3   49.22    0.45
  -3   3   3   53.12    0.96
  -3   3   3   45.96    0.98
  -3   3   3   45.36    0.88
  -3   3   3   43.68    0.87
   3  -3  -3   44.43    0.92
   3  -3  -3   40.90    0.42
   3  -3  -3   45.79    0.94
   3  -3  -3   42.78    0.92
   3  -3  -3   42.88    0.89
   3  -3  -3   41.20    0.81
  -3   3   2   55.88    0.98
  -3   3   2   53.86    0.84
  -3   3   2   63.17    0.98
  -3   3   2   50.31    0.96
  -3   3   2   54.73    0.91
  -3   3   2   53.40    0.91
   3  -3  -2   49.01    0.93
   3  -3  -2   50.95    0.92
   3  -3  -2   50.84    0.95
   3  -3  -2   49.38    0.84
  -3   3   1   82.52    1.15
  -3   3   1   80.39    1.03
  -3   3   1   93.80    1.10
  -3   3   1   75.13    1.12
  -3   3   1   78.48    1.04
  -3   3   1   71.10    0.99
   3  -3  -1   76.53    1.13
   3  -3  -1   73.15    0.99
   3  -3  -1   68.61    1.05
   3  -3  -1   72.59    0.97
  -3   3   0   41.23    0.84
  -3   3   0   37.67    0.76
  -3   3   0   34.89    0.77
  -3   3   0   39.98    0.75
  -3   3   0   34.92    0.71
   3  -3   0   37.34    0.81
   3  -3   0   35.32    0.66
   3  -3   0   36.77    0.78
   3  -3   0   38.78    0.95
   3  -3   0   36.93    0.69
  -3   3  -1  159.77    1.59
  -3   3  -1  139.85    1.43
  -3   3  -1  133.68    0.61
  -3   3  -1  177.29    1.24
  -3   3  -1  132.54    1.42
  -3   3  -1  147.45    1.49
  -3   3  -1  148.47    1.39
  -3   3  -1  125.70    1.28
   3  -3   1  134.03    1.47
   3  -3   1  152.30    0.65
   3  -3   1  127.93    1.07
   3  -3   1  140.10    1.31
  -3   3  -2    0.49    0.22
  -3   3  -2    0.36    0.23
  -3   3  -2    0.58    0.15
  -3   3  -2    0.04    0.17
  -3   3  -2    0.41    0.22
  -3   3  -2    0.56    0.19
  -3   3  -2    0.35    0.15
   3  -3   2    0.47    0.23
   3  -3   2    0.51    0.12
   3  -3   2    0.36    0.16
   3  -3   2    0.51    0.17
  -3   3  -3  135.74    1.50
  -3   3  -3  113.63    1.41
  -3   3  -3  108.46    0.98
  -3   3  -3  139.52    0.79
  -3   3  -3  108.67    1.33
  -3   3  -3  122.43    1.39
  -3   3  -3  131.23    1.39
  -3   3  -3  109.16    1.27
   3  -3   3  117.20    1.42
   3  -3   3  120.25    1.02
   3  -3   3  108.18    0.71
   3  -3   3  118.84    1.28
  -3   3  -4    1.42    0.23
  -3   3  -4    0.77    0.26
  -3   3  -4    0.79    0.20
  -3   3  -4    0.90    0.25
  -3   3  -4    1.40    0.27
  -3   3  -4    0.74    0.21
   3  -3   4    1.31    0.30
   3  -3   4    0.74    0.27
   3  -3   4    0.74    0.21
   3  -3   4    1.03    0.22
  -3   3  -5  146.08    1.64
  -3   3  -5  116.86    1.55
  -3   3  -5  115.07    1.29
  -3   3  -5  139.71    1.62
  -3   3  -5  143.19    1.61
  -3   3  -5  116.11    1.45
   3  -3   5  121.18    1.53
   3  -3   5  108.70    1.25
   3  -3   5  119.06    1.50
   3  -3   5  128.89    1.51
   3  -3   5  129.93    1.49
  -3   3  -6   12.30    0.65
  -3   3  -6    9.28    0.60
  -3   3  -6    8.24    0.54
  -3   3  -6   11.80    0.67
  -3   3  -6   12.09    0.65
  -3   3  -6    9.04    0.59
   3  -3   6   10.31    0.59
   3  -3   6    8.33    0.54
   3  -3   6    8.67    0.58
   3  -3   6   10.26    0.58
   3  -3   6   10.79    0.58
  -3   3  -7   23.67    0.87
  -3   3  -7   17.85    0.79
  -3   3  -7   18.07    0.75
  -3   3  -7   22.26    0.88
  -3   3  -7   22.33    0.86
  -3   3  -7   18.51    0.80
   3  -3   7   19.04    0.75
   3  -3   7   16.44    0.74
   3  -3   7   19.63    0.80
   3  -3   7   20.06    0.79
   3  -3   7   19.02    0.78
  -3   3  -8    1.82    0.43
  -3   3  -8    2.57    0.45
  -3   3  -8    1.71    0.37
  -3   3  -8    1.94    0.49
  -3   3  -8    2.15    0.47
  -3   3  -8    1.95    0.44
   3  -3   8    1.99    0.39
   3  -3   8    1.19    0.40
   3  -3   8    2.13    0.41
   3  -3   8    1.23    0.36
   3  -3   8    2.72    0.46
  -3   3  -9   28.72    1.01
  -3   3  -9   29.74    1.02
  -3   3  -9   34.95    1.19
  -3   3  -9   28.05    1.05
   3  -3   9   27.16    0.97
   3  -3   9   29.08    1.01
   3  -3   9   33.26    1.17
  -3   3 -10   35.74    1.18
  -3   3 -10   37.69    1.22
  -3   3 -10   44.28    1.88
  -3   3 -10   35.56    1.26
   3  -3  10   32.05    1.08
   3  -3  10   36.64    1.21
   3  -3  10   41.96    1.39
  -3   3 -11    3.83    0.61
  -3   3 -11    4.13    0.64
  -3   3 -11    2.67    0.60
   3  -3  11    3.23    0.55
   3  -3  11    4.42    0.66
  -3   3 -12    5.76    0.75
  -3   3 -12    6.17    0.79
  -3   3 -12    5.97    0.88
   3  -3  12    4.14    0.70
   3  -3  12    6.36    0.76
  -3   2  12   16.34    1.12
  -3   2  12   13.68    1.26
  -3   2  12   16.21    1.48
   3  -2 -12   12.71    1.22
   3  -2 -12   15.26    1.32
  -3   2  11   14.30    1.38
  -3   2  11   17.72    1.12
  -3   2  11   17.53    1.25
   3  -2 -11   13.97    1.01
   3  -2 -11   15.93    1.13
   3  -2 -11   18.27    1.38
  -3   2  10   21.23    0.94
  -3   2  10   16.57    0.98
  -3   2  10   19.83    1.81
  -3   2  10   18.93    1.65
   3  -2 -10   15.36    0.91
   3  -2 -10   19.35    1.08
   3  -2 -10   19.66    1.18
  -3   2   9   58.62    1.21
  -3   2   9   44.95    1.14
  -3   2   9   51.82    1.21
  -3   2   9   47.26    1.28
  -3   2   9   50.40    1.43
  -3   2   9   55.24    1.42
   3  -2  -9   43.76    1.10
   3  -2  -9   52.66    1.38
   3  -2  -9   55.71    1.45
   3  -2  -9   42.04    1.29
  -3   2   8    8.98    0.63
  -3   2   8    6.83    0.64
  -3   2   8    7.70    0.56
  -3   2   8    7.67    0.62
  -3   2   8    6.80    0.66
  -3   2   8    6.97    0.78
  -3   2   8    8.15    0.70
   3  -2  -8    6.65    0.60
   3  -2  -8    8.42    0.70
   3  -2  -8    8.13    0.78
   3  -2  -8    7.09    0.71
  -3   2   7  148.61    1.67
  -3   2   7  126.78    1.54
  -3   2   7  138.43    1.19
  -3   2   7  148.80    1.56
  -3   2   7  128.69    1.80
  -3   2   7  138.42    1.84
  -3   2   7  144.15    1.87
   3  -2  -7  112.55    1.39
   3  -2  -7  136.63    1.86
   3  -2  -7  106.95    1.65
   3  -2  -7  145.04    1.87
   3  -2  -7  119.91    1.68
  -3   2   6    4.26    0.48
  -3   2   6    4.20    0.41
  -3   2   6    3.82    0.41
  -3   2   6    4.50    0.41
  -3   2   6    4.43    0.48
  -3   2   6    4.36    0.54
  -3   2   6    5.11    0.51
  -3   2   6    5.00    0.55
   3  -2  -6    3.29    0.34
   3  -2  -6    4.68    0.50
   3  -2  -6    3.00    0.38
   3  -2  -6    5.30    0.53
   3  -2  -6    4.27    0.46
  -3   2   5  259.81    2.01
  -3   2   5  217.34    1.83
  -3   2   5  221.16    1.47
  -3   2   5  237.94    1.58
  -3   2   5  244.02    2.15
  -3   2   5  216.89    2.06
  -3   2   5  230.13    2.06
  -3   2   5  228.57    2.06
   3  -2  -5  214.29    1.82
   3  -2  -5  177.57    1.39
   3  -2  -5  213.04    2.04
   3  -2  -5  198.68    1.96
   3  -2  -5  247.52    2.12
   3  -2  -5  204.29    1.91
  -3   2   4   30.19    0.72
  -3   2   4   28.81    0.60
  -3   2   4   32.61    0.55
  -3   2   4   33.13    0.79
  -3   2   4   30.46    0.79
  -3   2   4   30.61    0.77
  -3   2   4   30.04    0.77
   3  -2  -4   28.85    0.71
   3  -2  -4   23.33    0.48
   3  -2  -4   30.44    0.79
   3  -2  -4   27.67    0.75
   3  -2  -4   31.77    0.77
   3  -2  -4   26.98    0.72
  -3   2   3  122.24    1.30
  -3   2   3  123.63    1.13
  -3   2   3  131.25    0.85
  -3   2   3  142.27    1.46
  -3   2   3  114.78    1.35
  -3   2   3  125.60    1.36
  -3   2   3  119.28    1.33
   3  -2  -3  119.19    1.29
   3  -2  -3  123.99    1.39
   3  -2  -3  117.74    1.36
   3  -2  -3  133.97    1.39
   3  -2  -3  112.43    1.27
  -3   2   2  123.51    1.27
  -3   2   2  118.51    1.13
  -3   2   2  137.43    1.33
  -3   2   2  116.98    1.30
  -3   2   2  118.80    1.26
  -3   2   2  112.31    1.23
   3  -2  -2  113.69    1.23
   3  -2  -2   88.11    0.53
   3  -2  -2  119.85    1.27
   3  -2  -2  109.00    1.23
   3  -2  -2  129.97    1.31
   3  -2  -2  109.70    1.19
  -3   2   1   71.00    0.96
  -3   2   1   67.67    0.89
  -3   2   1   81.60    0.97
  -3   2   1   66.28    0.95
  -3   2   1   70.94    0.95
  -3   2   1   61.85    0.89
   3  -2  -1   65.76    0.94
   3  -2  -1   67.45    0.90
   3  -2  -1   63.47    0.91
   3  -2  -1   71.56    0.95
   3  -2  -1   63.32    0.88
  -3   2   0  130.76    1.30
  -3   2   0  112.69    1.16
  -3   2   0  144.41    1.17
  -3   2   0  111.59    1.18
  -3   2   0  122.63    1.21
  -3   2   0  107.13    1.13
   3  -2   0  113.38    1.22
   3  -2   0  117.90    1.07
   3  -2   0  108.44    1.15
   3  -2   0  115.88    1.16
   3  -2   0  108.84    1.12
  -3   2  -1   45.76    0.81
  -3   2  -1   42.28    0.76
  -3   2  -1   39.31    0.39
  -3   2  -1   52.63    0.66
  -3   2  -1   39.15    0.71
  -3   2  -1   44.35    0.75
  -3   2  -1   44.08    0.75
  -3   2  -1   36.05    0.68
   3  -2   1   41.12    0.77
   3  -2   1   33.84    0.37
   3  -2   1   42.60    0.61
   3  -2   1   40.71    0.71
   3  -2   1   38.88    0.69
  -3   2  -2  208.36    1.68
  -3   2  -2  171.05    1.52
  -3   2  -2  165.93    1.02
  -3   2  -2  210.39    1.14
  -3   2  -2  156.61    1.37
  -3   2  -2  183.49    1.47
  -3   2  -2  190.96    1.53
  -3   2  -2  162.36    1.42
   3  -2   2  175.08    1.56
   3  -2   2  140.03    0.93
   3  -2   2  174.38    1.46
   3  -2   2  175.44    1.45
  -3   2  -3   20.56    0.60
  -3   2  -3   15.39    0.55
  -3   2  -3   15.52    0.42
  -3   2  -3   19.51    0.34
  -3   2  -3   17.32    0.52
  -3   2  -3   19.67    0.57
  -3   2  -3   15.69    0.52
   3  -2   3   16.39    0.55
   3  -2   3   13.63    0.40
   3  -2   3   17.21    0.32
   3  -2   3   16.81    0.52
   3  -2   3   16.79    0.53
   3  -2   3   17.73    0.53
  -3   2  -4   78.35    1.12
  -3   2  -4   62.13    1.03
  -3   2  -4   62.78    0.87
  -3   2  -4   72.42    1.02
  -3   2  -4   76.21    1.09
   3  -2   4   66.54    1.04
   3  -2   4   52.86    0.96
   3  -2   4   68.63    0.52
   3  -2   4   65.95    0.50
   3  -2   4   64.55    0.97
   3  -2   4   68.99    1.03
   3  -2   4   66.94    1.00
  -3   2  -5   61.36    1.03
  -3   2  -5   52.76    1.01
  -3   2  -5   50.00    0.88
  -3   2  -5   63.31    1.02
  -3   2  -5   64.30    1.07
  -3   2  -5   53.69    0.99
   3  -2   5   54.62    0.99
   3  -2   5   49.65    0.87
   3  -2   5   59.58    0.45
   3  -2   5   54.22    0.43
   3  -2   5   53.67    0.94
   3  -2   5   57.54    1.00
   3  -2   5   59.20    1.02
  -3   2  -6   15.48    0.63
  -3   2  -6   12.66    0.61
  -3   2  -6   12.73    0.58
  -3   2  -6   15.57    0.64
  -3   2  -6   16.27    0.69
  -3   2  -6   13.58    0.64
   3  -2   6   13.77    0.59
   3  -2   6   13.09    0.58
   3  -2   6   13.20    0.26
   3  -2   6   13.28    0.60
   3  -2   6   12.87    0.72
   3  -2   6   15.20    0.63
  -3   2  -7  124.24    1.59
  -3   2  -7  104.67    1.49
  -3   2  -7  104.18    1.46
  -3   2  -7  126.77    1.59
  -3   2  -7  130.52    1.70
  -3   2  -7  110.21    1.58
   3  -2   7  107.36    1.48
   3  -2   7  102.44    1.44
   3  -2   7  117.68    0.72
   3  -2   7  111.84    0.71
   3  -2   7  110.46    1.47
   3  -2   7  117.47    1.61
   3  -2   7  121.71    1.62
  -3   2  -8    1.20    0.36
  -3   2  -8    1.36    0.38
  -3   2  -8    1.06    0.33
  -3   2  -8    1.35    0.40
  -3   2  -8    1.16    0.35
  -3   2  -8    1.34    0.35
   3  -2   8    1.45    0.34
   3  -2   8    2.02    0.37
   3  -2   8    1.48    0.18
   3  -2   8    1.81    0.20
   3  -2   8    1.64    0.35
   3  -2   8    1.47    0.39
   3  -2   8    1.55    0.38
  -3   2  -9   12.63    0.73
  -3   2  -9   12.02    0.75
  -3   2  -9   13.04    0.85
  -3   2  -9   13.82    0.87
  -3   2  -9   12.90    0.83
   3  -2   9   11.52    0.71
   3  -2   9   14.36    0.45
   3  -2   9   13.52    0.44
   3  -2   9   13.82    0.78
   3  -2   9   14.47    0.85
  -3   2 -10   23.74    0.98
  -3   2 -10   21.49    1.00
  -3   2 -10   29.23    1.18
  -3   2 -10   24.87    1.08
   3  -2  10   26.66    0.60
   3  -2  10   24.35    0.59
   3  -2  10   24.91    1.02
   3  -2  10   26.30    1.12
   3  -2  10   24.52    1.12
  -3   2 -11   10.20    0.84
  -3   2 -11   10.53    0.90
  -3   2 -11    9.09    1.04
   3  -2  11    9.33    0.85
   3  -2  11   10.32    0.54
   3  -2  11    9.54    0.91
   3  -2  11   10.97    1.03
  -3   2 -12    1.39    0.55
  -3   2 -12    3.00    0.58
  -3   2 -12    1.57    0.68
   3  -2  12    2.12    0.58
   3  -2  12    2.19    0.61
  -3   2 -13    0.57    0.60
  -3   2 -13    0.11    0.69
   3  -2  13    1.00    0.64
   3  -2  13    1.61    0.69
  -3   1  12    4.92    0.65
  -3   1  12    4.34    0.75
  -3   1  12    5.28    0.92
   3  -1 -12    2.45    0.66
   3  -1 -12    2.25    0.68
  -3   1  11   12.47    0.85
  -3   1  11    7.94    0.92
  -3   1  11   12.08    0.95
  -3   1  11   10.68    1.14
   3  -1 -11   11.41    0.98
   3  -1 -11   14.64    1.05
   3  -1 -11   12.81    1.32
  -3   1  10   18.95    0.83
  -3   1  10   14.73    0.84
  -3   1  10   17.26    0.73
  -3   1  10   16.89    0.96
  -3   1  10   17.20    1.21
  -3   1  10   18.87    1.11
   3  -1 -10   16.65    0.92
   3  -1 -10   17.63    0.98
   3  -1 -10   17.45    1.20
   3  -1 -10   21.02    1.14
  -3   1   9    3.53    0.44
  -3   1   9    3.15    0.46
  -3   1   9    3.62    0.39
  -3   1   9    3.96    0.48
  -3   1   9    2.81    0.47
  -3   1   9    5.47    0.90
  -3   1   9    4.05    0.60
   3  -1  -9    3.16    0.46
   3  -1  -9    2.74    0.46
   3  -1  -9    4.69    0.62
   3  -1  -9    3.05    0.53
  -3   1   8   51.46    0.99
  -3   1   8   43.63    0.93
  -3   1   8   48.73    0.87
  -3   1   8   47.81    1.07
  -3   1   8   42.80    1.29
  -3   1   8   48.41    1.26
  -3   1   8   50.08    1.24
   3  -1  -8   42.74    1.03
   3  -1  -8   47.75    1.19
   3  -1  -8   52.01    1.28
   3  -1  -8   42.97    1.16
  -3   1   7    3.08    0.34
  -3   1   7    2.73    0.33
  -3   1   7    3.23    0.33
  -3   1   7    2.70    0.34
  -3   1   7    2.30    0.40
  -3   1   7    2.75    0.41
  -3   1   7    2.78    0.46
  -3   1   7    1.47    0.29
   3  -1  -7    2.62    0.35
   3  -1  -7    2.28    0.36
   3  -1  -7    1.54    0.32
   3  -1  -7    2.77    0.43
   3  -1  -7    2.02    0.35
  -3   1   6   87.82    1.12
  -3   1   6   77.06    1.05
  -3   1   6   80.93    0.97
  -3   1   6   85.95    1.13
  -3   1   6   89.86    1.36
  -3   1   6   77.37    1.29
  -3   1   6   80.73    1.32
  -3   1   6   83.86    1.34
   3  -1  -6   74.99    1.08
   3  -1  -6   83.28    1.33
   3  -1  -6   67.37    1.20
   3  -1  -6   88.08    1.37
   3  -1  -6   71.66    1.22
  -3   1   5   58.63    0.88
  -3   1   5   49.55    0.81
  -3   1   5   52.80    0.77
  -3   1   5   56.04    0.84
  -3   1   5   57.90    1.05
  -3   1   5   50.00    0.99
  -3   1   5   53.59    1.03
  -3   1   5   55.24    1.03
   3  -1  -5   50.47    0.82
   3  -1  -5   50.41    0.81
   3  -1  -5   54.09    1.03
   3  -1  -5   47.28    0.96
   3  -1  -5   56.75    1.04
   3  -1  -5   47.26    0.94
  -3   1   4  150.96    1.31
  -3   1   4  157.10    1.25
  -3   1   4  168.36    1.25
  -3   1   4  177.33    1.66
  -3   1   4  149.88    1.54
  -3   1   4  160.53    1.57
  -3   1   4  152.78    1.54
   3  -1  -4  152.48    1.32
   3  -1  -4  156.45    1.21
   3  -1  -4  167.09    1.63
   3  -1  -4  144.16    1.49
   3  -1  -4  171.21    1.64
   3  -1  -4  128.55    1.62
  -3   1   3  243.92    1.53
  -3   1   3  250.32    1.32
  -3   1   3  266.73    1.90
  -3   1   3  226.80    1.75
  -3   1   3  243.14    1.81
  -3   1   3  231.91    1.77
   3  -1  -3  223.24    1.54
   3  -1  -3  259.75    1.36
   3  -1  -3  254.39    1.87
   3  -1  -3  229.14    1.74
   3  -1  -3  245.60    1.93
   3  -1  -3  224.23    1.73
  -3   1   2  107.44    1.09
  -3   1   2  105.68    1.02
  -3   1   2  108.02    0.75
  -3   1   2  127.43    1.23
  -3   1   2   99.40    1.09
  -3   1   2  108.04    1.15
  -3   1   2   99.12    1.11
   3  -1  -2  102.60    1.04
   3  -1  -2  119.00    0.80
   3  -1  -2  113.08    1.18
   3  -1  -2   94.79    1.10
   3  -1  -2  114.31    1.19
   3  -1  -2   96.12    1.08
  -3   1   1  359.20    1.90
  -3   1   1  342.23    1.83
  -3   1   1  390.47    2.07
  -3   1   1  328.32    1.83
  -3   1   1  342.13    1.94
  -3   1   1  311.57    1.86
   3  -1  -1  338.43    1.85
   3  -1  -1  365.50    1.18
   3  -1  -1  302.39    1.08
   3  -1  -1  377.39    1.97
   3  -1  -1  318.27    1.79
   3  -1  -1  352.25    1.97
   3  -1  -1  314.86    1.85
  -3   1   0    1.63    0.25
  -3   1   0    1.30    0.18
  -3   1   0    1.42    0.13
  -3   1   0    1.61    0.17
  -3   1   0    1.53    0.18
  -3   1   0    1.27    0.18
  -3   1   0    0.78    0.14
   3  -1   0    1.41    0.20
   3  -1   0    1.61    0.14
   3  -1   0    2.83    0.25
   3  -1   0    1.43    0.18
   3  -1   0    0.87    0.15
   3  -1   0    1.10    0.15
  -3   1  -1  960.32    3.23
  -3   1  -1  844.74    3.00
  -3   1  -1  836.36    3.63
  -3   1  -1 1107.87    5.78
  -3   1  -1  831.12    4.36
  -3   1  -1  946.76    4.68
  -3   1  -1 1354.33    4.61
  -3   1  -1  826.56    4.47
   3  -1   1  906.34    3.77
   3  -1   1  851.15    3.99
   3  -1   1 1049.51    4.46
   3  -1   1  783.70    2.59
   3  -1   1  918.00    4.60
   3  -1   1  833.38    2.95
  -3   1  -2  211.52    1.57
  -3   1  -2  180.82    1.45
  -3   1  -2  174.76    1.09
  -3   1  -2  210.17    1.16
  -3   1  -2  162.04    1.20
  -3   1  -2  193.13    1.30
  -3   1  -2  198.04    1.50
  -3   1  -2  169.14    1.40
   3  -1   2  167.92    1.07
   3  -1   2  182.49    1.44
   3  -1   2  185.97    1.44
  -3   1  -3   85.63    1.06
  -3   1  -3   67.94    0.95
  -3   1  -3   66.35    0.79
  -3   1  -3   83.63    0.71
  -3   1  -3   80.62    0.89
  -3   1  -3   82.75    1.03
  -3   1  -3   68.92    0.95
   3  -1   3   63.34    0.76
   3  -1   3   82.66    0.71
   3  -1   3   71.29    0.84
   3  -1   3   75.68    0.99
   3  -1   3   74.61    0.97
  -3   1  -4  166.46    1.53
  -3   1  -4  140.70    1.39
  -3   1  -4  132.03    1.23
  -3   1  -4  160.70    1.32
  -3   1  -4  137.90    1.40
   3  -1   4  147.76    1.45
   3  -1   4  158.09    0.95
   3  -1   4  140.77    0.90
   3  -1   4  141.42    1.24
   3  -1   4  146.99    1.43
  -3   1  -5   60.33    0.98
  -3   1  -5   47.84    0.89
  -3   1  -5   46.66    0.85
  -3   1  -5   57.95    0.88
  -3   1  -5   60.61    1.01
  -3   1  -5   50.43    0.94
   3  -1   5   52.95    0.94
   3  -1   5   46.60    0.83
   3  -1   5   51.66    0.58
   3  -1   5   51.99    0.83
   3  -1   5   54.04    0.96
   3  -1   5   54.69    0.96
  -3   1  -6  106.86    1.35
  -3   1  -6   89.40    1.24
  -3   1  -6   88.93    1.24
  -3   1  -6  107.24    1.26
  -3   1  -6  109.94    1.43
  -3   1  -6   91.76    1.33
   3  -1   6   93.57    1.30
   3  -1   6   87.44    1.21
   3  -1   6  104.97    0.88
   3  -1   6   96.04    0.84
   3  -1   6   95.33    1.19
   3  -1   6  105.03    1.41
   3  -1   6  100.33    1.36
  -3   1  -7    5.63    0.50
  -3   1  -7    4.58    0.51
  -3   1  -7    4.82    0.49
  -3   1  -7    6.77    0.55
  -3   1  -7    5.09    0.53
   3  -1   7    4.83    0.47
   3  -1   7    5.61    0.50
   3  -1   7    5.93    0.35
   3  -1   7    5.58    0.33
   3  -1   7    4.96    0.46
   3  -1   7    5.35    0.52
   3  -1   7    6.53    0.56
  -3   1  -8   27.74    0.88
  -3   1  -8   23.96    0.80
  -3   1  -8   23.94    0.84
  -3   1  -8   27.26    0.84
  -3   1  -8   27.59    1.40
  -3   1  -8   23.75    0.87
   3  -1   8   25.41    0.84
   3  -1   8   24.34    0.87
   3  -1   8   28.07    0.60
   3  -1   8   26.59    0.60
   3  -1   8   25.82    0.80
   3  -1   8   27.31    0.92
   3  -1   8   26.96    0.91
  -3   1  -9    1.03    0.38
  -3   1  -9    1.36    0.38
  -3   1  -9    1.73    0.54
  -3   1  -9    1.02    0.39
  -3   1  -9    1.23    0.40
  -3   1  -9    1.08    0.37
   3  -1   9    1.83    0.39
   3  -1   9    1.71    0.28
   3  -1   9    1.56    0.30
   3  -1   9    1.71    0.36
   3  -1   9    1.00    0.44
   3  -1   9    1.57    0.44
  -3   1 -10    2.27    0.45
  -3   1 -10    2.84    0.50
  -3   1 -10    3.10    0.57
  -3   1 -10    3.08    0.58
  -3   1 -10    2.83    0.55
   3  -1  10    2.93    0.49
   3  -1  10    3.11    0.36
   3  -1  10    3.05    0.39
   3  -1  10    3.94    0.50
   3  -1  10    2.26    0.42
   3  -1  10    2.33    0.49
  -3   1 -11   15.13    0.87
  -3   1 -11   15.77    0.98
  -3   1 -11   14.39    0.69
  -3   1 -11   17.05    1.17
  -3   1 -11   13.84    1.03
   3  -1  11   16.19    0.91
   3  -1  11   16.25    0.69
   3  -1  11   16.52    0.77
   3  -1  11   15.09    0.92
   3  -1  11   15.60    1.08
   3  -1  11   13.06    1.14
  -3   1 -12    0.15    0.46
  -3   1 -12    0.35    0.49
  -3   1 -12   -0.50    0.56
   3  -1  12   -0.28    0.46
   3  -1  12    0.40    0.40
   3  -1  12    0.00    0.51
   3  -1  12   -0.06    0.64
  -3   1 -13    6.30    0.72
  -3   1 -13    6.05    0.77
  -3   1 -13    6.50    0.88
   3  -1  13    6.87    0.80
   3  -1  13    6.23    0.79
  -3   0  12    1.63    0.51
  -3   0  12    1.72    0.59
  -3   0  12    1.35    0.78
   3   0 -12    0.58    0.61
   3   0 -12    2.01    0.65
   3   0 -12    1.10    0.76
  -3   0  11    1.73    0.43
  -3   0  11    1.09    0.49
  -3   0  11    1.85    0.57
  -3   0  11    1.59    1.17
  -3   0  11    2.73    0.66
   3   0 -11    1.47    0.53
   3   0 -11    1.00    0.51
   3   0 -11    1.60    0.58
   3   0 -11    1.05    0.59
  -3   0  10   16.59    0.72
  -3   0  10   11.05    0.69
  -3   0  10   14.86    0.73
  -3   0  10   14.40    0.94
  -3   0  10   13.03    1.09
  -3   0  10   14.50    1.04
   3   0 -10   13.54    0.88
   3   0 -10   13.89    0.93
   3   0 -10   11.60    1.01
   3   0 -10   16.10    1.05
  -3   0   9   24.66    0.72
  -3   0   9   19.93    0.69
  -3   0   9   22.94    0.73
  -3   0   9   18.29    0.91
  -3   0   9   21.70    0.93
  -3   0   9   23.64    1.09
  -3   0   9   23.96    1.07
   3   0  -9   22.12    0.90
   3   0  -9   24.30    1.11
   3   0  -9   23.44    1.06
   3   0  -9   20.68    0.98
  -3   0   8    0.04    0.25
  -3   0   8    0.04    0.24
  -3   0   8    0.16    0.27
  -3   0   8    0.27    0.30
  -3   0   8    0.87    0.35
  -3   0   8    0.20    0.33
  -3   0   8    0.17    0.38
  -3   0   8   -0.40    0.37
   3   0  -8    0.39    0.30
   3   0  -8   -0.18    0.27
   3   0  -8    0.04    0.35
   3   0  -8    0.42    0.39
   3   0  -8    0.31    0.32
  -3   0   7   41.72    0.75
  -3   0   7   36.39    0.70
  -3   0   7   39.20    0.79
  -3   0   7   40.93    0.93
  -3   0   7   36.05    0.97
  -3   0   7   40.08    1.04
  -3   0   7   40.23    1.04
   3   0  -7   37.50    0.90
   3   0  -7   43.26    1.04
   3   0  -7   31.32    0.92
   3   0  -7   35.82    0.98
  -3   0   6    5.06    0.34
  -3   0   6    4.02    0.39
  -3   0   6    5.10    0.40
  -3   0   6    5.32    0.43
  -3   0   6    4.63    0.43
  -3   0   6    4.63    0.48
  -3   0   6    5.14    0.51
   3   0  -6    4.85    0.43
   3   0  -6    4.25    0.46
   3   0  -6    4.42    0.47
   3   0  -6    5.72    0.52
  -3   0   5   64.08    0.79
  -3   0   5   57.88    0.75
  -3   0   5   60.01    0.85
  -3   0   5   63.71    0.93
  -3   0   5   55.01    1.00
  -3   0   5   61.47    1.06
  -3   0   5   60.33    1.05
   3   0  -5   66.80    0.96
   3   0  -5   64.80    1.07
   3   0  -5   52.50    0.95
   3   0  -5   62.09    1.06
   3   0  -5   56.50    1.00
  -3   0   4   61.86    0.73
  -3   0   4   62.09    0.83
  -3   0   4   66.81    0.86
  -3   0   4   66.46    1.00
  -3   0   4   55.46    0.92
  -3   0   4   65.68    1.01
  -3   0   4   64.64    1.00
   3   0  -4   63.16    0.74
   3   0  -4   71.91    0.90
   3   0  -4   70.01    1.04
   3   0  -4   59.33    0.93
   3   0  -4   69.85    1.04
   3   0  -4   60.39    0.96
  -3   0   3    0.70    0.13
  -3   0   3    0.43    0.18
  -3   0   3    0.79    0.14
  -3   0   3    0.59    0.19
  -3   0   3    0.58    0.19
  -3   0   3    0.58    0.16
   3   0  -3    0.72    0.13
   3   0  -3    0.54    0.14
   3   0  -3    0.66    0.20
   3   0  -3    0.57    0.16
   3   0  -3    0.76    0.18
   3   0  -3    0.48    0.14
  -3   0   2   29.93    0.49
  -3   0   2   29.33    0.57
  -3   0   2   29.23    0.47
  -3   0   2   35.28    0.66
  -3   0   2   27.87    0.56
  -3   0   2   45.37    0.93
  -3   0   2   28.07    0.60
   3   0  -2   28.81    0.49
   3   0  -2   32.72    0.50
   3   0  -2   34.20    0.65
   3   0  -2   27.64    0.54
   3   0  -2   30.65    0.63
   3   0  -2   25.73    0.56
  -3   0   1   17.65    0.40
  -3   0   1   16.43    0.43
  -3   0   1   18.25    0.46
  -3   0   1   15.47    0.39
  -3   0   1   15.15    0.42
   3   0  -1   16.07    0.39
   3   0  -1   16.06    0.41
   3   0  -1   14.72    0.33
   3   0  -1   20.26    0.49
   3   0  -1   15.92    0.39
   3   0  -1   16.02    0.55
   3   0  -1   14.94    0.42
  -3   0   0   17.70    0.41
  -3   0   0   15.00    0.43
  -3   0   0   19.00    0.44
  -3   0   0   15.25    0.36
  -3   0   0   22.86    0.61
   3   0   0   16.90    0.41
   3   0   0   13.98    0.31
   3   0   0   18.61    0.44
   3   0   0   14.74    0.34
   3   0   0   14.39    0.40
  -3   0  -1  222.19    1.43
  -3   0  -1  196.73    1.38
  -3   0  -1  180.49    1.08
  -3   0  -1  235.95    1.35
  -3   0  -1  316.00    2.12
   3   0   1  209.46    1.39
   3   0   1  188.59    1.10
   3   0   1  229.11    1.34
   3   0   1  184.56    1.04
   3   0   1  197.18    1.39
  -3   0  -2    0.24    0.16
  -3   0  -2    0.07    0.12
  -3   0  -2    0.20    0.11
  -3   0  -2    0.21    0.10
  -3   0  -2    0.19    0.10
  -3   0  -2    0.10    0.11
  -3   0  -2    0.13    0.15
   3   0   2    0.18    0.13
   3   0   2    0.19    0.11
   3   0   2    0.23    0.11
   3   0   2    0.20    0.14
   3   0   2    0.25    0.13
  -3   0  -3   47.47    0.77
  -3   0  -3   38.81    0.68
  -3   0  -3   41.19    0.66
  -3   0  -3   49.61    0.62
  -3   0  -3   47.04    0.57
  -3   0  -3   51.07    0.79
  -3   0  -3   39.62    0.71
   3   0   3   44.20    0.74
   3   0   3   41.57    0.65
   3   0   3   48.49    0.62
   3   0   3   43.77    0.56
   3   0   3   44.87    0.75
   3   0   3   42.84    0.73
  -3   0  -4    4.57    0.33
  -3   0  -4    4.42    0.33
  -3   0  -4    5.51    0.29
  -3   0  -4    5.48    0.36
  -3   0  -4    3.86    0.33
   3   0   4    5.06    0.33
   3   0   4    3.65    0.30
   3   0   4    4.78    0.27
   3   0   4    5.26    0.27
   3   0   4    4.64    0.27
   3   0   4    4.99    0.34
   3   0   4    5.32    0.35
  -3   0  -5   99.50    1.22
  -3   0  -5   88.38    1.08
  -3   0  -5   84.72    1.11
  -3   0  -5   98.92    1.01
  -3   0  -5  107.09    1.29
  -3   0  -5   90.21    1.19
   3   0   5   94.77    1.21
   3   0   5   90.32    1.13
   3   0   5  101.39    0.95
   3   0   5   94.83    0.91
   3   0   5   95.70    0.99
   3   0   5   97.09    1.23
   3   0   5   99.32    1.24
  -3   0  -6  120.97    1.42
  -3   0  -6  109.18    1.26
  -3   0  -6  106.83    1.35
  -3   0  -6  119.22    1.21
  -3   0  -6  134.60    1.54
  -3   0  -6  110.19    1.41
   3   0   6  117.88    1.43
   3   0   6  104.81    1.32
   3   0   6  122.03    1.11
   3   0   6  116.81    1.08
   3   0   6  115.64    1.19
   3   0   6  122.02    1.48
   3   0   6  122.94    1.47
  -3   0  -7   79.06    1.24
  -3   0  -7   71.54    1.09
  -3   0  -7   67.63    1.19
  -3   0  -7   74.53    1.07
  -3   0  -7   86.18    1.35
  -3   0  -7   72.39    1.25
   3   0   7   75.10    1.23
   3   0   7   72.95    1.20
   3   0   7   81.54    0.99
   3   0   7   78.00    0.96
   3   0   7   75.29    1.07
   3   0   7  128.53    2.11
   3   0   7   81.16    1.32
  -3   0  -8   25.92    0.84
  -3   0  -8   24.35    0.74
  -3   0  -8   22.50    0.82
  -3   0  -8   24.20    0.66
  -3   0  -8   24.51    0.78
  -3   0  -8   27.47    0.92
  -3   0  -8   23.82    0.86
   3   0   8   26.56    0.85
   3   0   8   24.75    0.83
   3   0   8   26.60    0.67
   3   0   8   26.52    0.78
   3   0   8   28.24    0.92
   3   0   8   26.87    0.89
  -3   0  -9    6.53    0.64
  -3   0  -9    6.67    0.57
  -3   0  -9    7.11    0.52
  -3   0  -9    6.59    0.62
  -3   0  -9    7.91    0.72
  -3   0  -9    7.62    0.71
   3   0   9    7.50    0.64
   3   0   9    7.77    0.55
   3   0   9    8.46    0.63
   3   0   9    7.76    0.70
   3   0   9    7.99    0.73
  -3   0 -10   20.95    0.81
  -3   0 -10   20.49    0.94
  -3   0 -10   20.72    0.75
  -3   0 -10   20.78    0.94
  -3   0 -10   25.56    1.09
  -3   0 -10   22.56    1.03
   3   0  10   22.07    1.09
   3   0  10   23.79    0.81
   3   0  10   24.65    0.91
   3   0  10   24.46    1.04
   3   0  10   24.51    1.07
  -3   0 -11    0.30    0.39
  -3   0 -11   -0.26    0.37
  -3   0 -11   -0.02    0.38
  -3   0 -11   -0.16    0.51
  -3   0 -11    0.44    0.69
   3   0  11    0.48    0.41
   3   0  11   -0.25    0.43
   3   0  11    0.22    0.41
   3   0  11   -0.17    0.43
   3   0  11   -0.71    0.47
  -3   0 -12   11.48    0.83
  -3   0 -12   12.47    0.99
  -3   0 -12    9.50    0.82
  -3   0 -12   12.21    1.42
  -3   0 -12   12.91    1.13
   3   0  12   12.19    0.95
   3   0  12   13.31    1.02
   3   0  12   11.76    1.13
  -3   0 -13    3.90    0.62
  -3   0 -13    4.16    0.63
  -3   0 -13    3.90    0.64
  -3   0 -13    4.00    0.82
   3   0  13    6.04    0.75
   3   0  13    3.10    0.74
   3   0  13    5.62    0.91
   3   1 -13    3.70    0.78
   3   1 -13    3.21    0.80
   3   1 -13    2.04    0.89
  -3  -1  12    1.03    0.50
  -3  -1  12    1.58    0.57
  -3  -1  12    1.33    0.79
   3   1 -12    1.20    0.54
   3   1 -12    1.16    0.63
   3   1 -12    2.28    0.75
  -3  -1  11    1.06    0.37
  -3  -1  11    1.68    0.44
  -3  -1  11    1.81    0.47
  -3  -1  11    1.83    0.94
  -3  -1  11    1.45    0.55
   3   1 -11    1.34    0.51
   3   1 -11    0.88    0.50
   3   1 -11    0.06    0.75
   3   1 -11    0.59    0.53
  -3  -1  10   10.21    0.55
  -3  -1  10    8.04    0.58
  -3  -1  10    8.86    0.68
  -3  -1  10   10.87    0.82
  -3  -1  10    9.98    1.03
  -3  -1  10    9.41    0.94
   3   1 -10    9.30    0.80
   3   1 -10   11.49    0.87
   3   1 -10    8.46    0.90
   3   1 -10   11.29    0.96
  -3  -1   9   43.23    0.78
  -3  -1   9   36.57    0.74
  -3  -1   9   40.64    0.99
  -3  -1   9   40.17    1.15
  -3  -1   9   39.42    1.23
  -3  -1   9   43.44    1.26
   3   1  -9   43.56    1.14
   3   1  -9   36.50    1.15
  -3  -1   8   12.04    0.46
  -3  -1   8   10.73    0.44
  -3  -1   8   11.29    0.58
  -3  -1   8   13.42    0.72
  -3  -1   8   12.11    0.71
  -3  -1   8   11.47    0.72
  -3  -1   8   11.22    0.76
  -3  -1   8   12.48    0.81
   3   1  -8   11.81    0.70
   3   1  -8   13.29    0.71
   3   1  -8    9.44    0.71
   3   1  -8   12.68    0.78
   3   1  -8   10.75    0.70
  -3  -1   7    0.37    0.18
  -3  -1   7    0.25    0.17
  -3  -1   7    0.13    0.26
  -3  -1   7    0.22    0.26
  -3  -1   7    0.26    0.28
  -3  -1   7    0.08    0.29
  -3  -1   7   -0.04    0.31
  -3  -1   7   -0.08    0.25
   3   1  -7    0.27    0.26
   3   1  -7    0.20    0.27
   3   1  -7    0.09    0.28
   3   1  -7    0.28    0.26
   3   1  -7    0.04    0.28
  -3  -1   6    3.32    0.27
  -3  -1   6    2.76    0.25
  -3  -1   6    3.63    0.36
  -3  -1   6    2.86    0.33
  -3  -1   6    4.12    0.42
  -3  -1   6    2.14    0.32
  -3  -1   6    3.65    0.42
  -3  -1   6    3.32    0.40
   3   1  -6    4.05    0.40
   3   1  -6    3.75    0.39
   3   1  -6    1.99    0.32
   3   1  -6    3.18    0.39
   3   1  -6    2.67    0.35
  -3  -1   5   15.79    0.36
  -3  -1   5   14.02    0.34
  -3  -1   5   16.94    0.54
  -3  -1   5   16.03    0.54
  -3  -1   5   16.99    0.57
  -3  -1   5   14.26    0.57
  -3  -1   5   15.45    0.58
  -3  -1   5   16.38    0.60
   3   1  -5   16.41    0.57
   3   1  -5   18.31    0.61
   3   1  -5   13.27    0.53
   3   1  -5   17.19    0.60
   3   1  -5   13.90    0.56
  -3  -1   4   65.14    0.59
  -3  -1   4   60.15    0.57
  -3  -1   4   58.53    0.85
  -3  -1   4   62.19    0.88
  -3  -1   4   66.56    0.97
  -3  -1   4   52.31    0.87
  -3  -1   4   61.71    0.95
  -3  -1   4   58.09    0.97
   3   1  -4   68.93    0.94
   3   1  -4   72.25    1.02
   3   1  -4   52.06    0.85
   3   1  -4   64.08    0.98
   3   1  -4   55.12    0.90
  -3  -1   3   25.85    0.37
  -3  -1   3   23.41    0.54
  -3  -1   3   25.28    0.54
  -3  -1   3   28.01    0.62
  -3  -1   3   20.94    0.52
  -3  -1   3   24.91    0.58
  -3  -1   3   23.33    0.57
   3   1  -3   23.53    0.35
   3   1  -3   26.63    0.56
   3   1  -3   28.07    0.63
   3   1  -3   22.06    0.52
   3   1  -3   26.28    0.61
   3   1  -3   22.48    0.55
  -3  -1   2    1.26    0.15
  -3  -1   2    1.49    0.20
  -3  -1   2    1.59    0.19
  -3  -1   2    1.71    0.20
  -3  -1   2    1.49    0.18
  -3  -1   2    1.79    0.21
  -3  -1   2    0.99    0.15
   3   1  -2    1.49    0.16
   3   1  -2    1.64    0.19
   3   1  -2    2.19    0.26
   3   1  -2    1.81    0.19
   3   1  -2    1.70    0.20
   3   1  -2    1.32    0.17
  -3  -1   1   -0.04    0.08
  -3  -1   1    0.08    0.16
  -3  -1   1    0.46    0.15
  -3  -1   1    0.02    0.10
  -3  -1   1    0.13    0.10
  -3  -1   1    0.09    0.09
   3   1  -1    0.18    0.10
   3   1  -1    0.03    0.11
   3   1  -1    0.02    0.09
   3   1  -1    0.15    0.14
   3   1  -1    0.28    0.10
   3   1  -1    0.12    0.11
   3   1  -1    0.24    0.12
  -3  -1   0    7.53    0.27
  -3  -1   0    7.83    0.34
  -3  -1   0    7.06    0.28
  -3  -1   0    7.05    0.22
  -3  -1   0    7.77    0.31
   3   1   0    7.97    0.28
   3   1   0    6.83    0.28
   3   1   0    8.45    0.34
   3   1   0    7.38    0.22
   3   1   0    7.09    0.30
   3   1   0    7.21    0.30
  -3  -1  -1    3.08    0.23
  -3  -1  -1    2.80    0.25
  -3  -1  -1    2.36    0.23
  -3  -1  -1    2.88    0.24
  -3  -1  -1    2.88    0.14
  -3  -1  -1    3.12    0.23
  -3  -1  -1    2.44    0.22
   3   1   1    3.23    0.23
   3   1   1    2.81    0.22
   3   1   1    3.01    0.25
   3   1   1    2.63    0.13
   3   1   1    2.84    0.24
   3   1   1    2.66    0.23
  -3  -1  -2    3.89    0.27
  -3  -1  -2    3.80    0.28
  -3  -1  -2    3.29    0.25
  -3  -1  -2    4.62    0.28
  -3  -1  -2    3.54    0.13
  -3  -1  -2    4.03    0.14
  -3  -1  -2    4.37    0.26
  -3  -1  -2    3.75    0.26
   3   1   2    4.26    0.28
   3   1   2    3.45    0.24
   3   1   2    4.86    0.28
   3   1   2    3.92    0.26
   3   1   2    4.00    0.25
  -3  -1  -3   26.04    0.54
  -3  -1  -3   24.29    0.54
  -3  -1  -3   27.63    0.36
  -3  -1  -3   30.80    0.60
  -3  -1  -3   23.33    0.53
   3   1   3   27.89    0.60
   3   1   3   26.28    0.55
   3   1   3   29.30    0.55
   3   1   3   26.15    0.51
   3   1   3   26.78    0.34
   3   1   3   27.44    0.58
  -3  -1  -4   36.91    0.73
  -3  -1  -4   31.93    0.62
  -3  -1  -4   32.83    0.68
  -3  -1  -4   33.79    0.47
  -3  -1  -4   41.86    0.75
  -3  -1  -4   35.70    0.70
   3   1   4   36.36    0.73
   3   1   4   35.65    0.69
   3   1   4   39.42    0.66
   3   1   4   35.96    0.62
   3   1   4   38.28    0.61
   3   1   4   36.62    0.71
   3   1   4   36.96    0.71
  -3  -1  -5    0.35    0.20
  -3  -1  -5    0.27    0.17
  -3  -1  -5    0.18    0.19
  -3  -1  -5    0.36    0.15
   3   1   5    0.47    0.20
   3   1   5    0.60    0.18
   3   1   5    0.51    0.17
   3   1   5    0.55    0.17
   3   1   5    0.56    0.14
   3   1   5    0.28    0.14
   3   1   5    0.35    0.18
  -3  -1  -6    5.78    0.43
  -3  -1  -6    5.81    0.40
  -3  -1  -6    5.49    0.45
  -3  -1  -6    5.63    0.39
  -3  -1  -6    5.73    0.36
  -3  -1  -6    6.70    0.45
  -3  -1  -6    6.04    0.45
   3   1   6    5.76    0.46
   3   1   6    6.67    0.46
   3   1   6    6.46    0.40
   3   1   6    6.85    0.40
   3   1   6    5.73    0.35
   3   1   6    5.52    0.45
   3   1   6    5.65    0.44
  -3  -1  -7   43.89    0.95
  -3  -1  -7   42.53    0.81
  -3  -1  -7   40.65    0.95
  -3  -1  -7   40.04    0.81
  -3  -1  -7   38.33    0.76
  -3  -1  -7   51.13    1.05
  -3  -1  -7   43.15    0.98
   3   1   7   46.85    1.02
   3   1   7   43.03    0.97
   3   1   7   47.53    0.86
   3   1   7   46.19    0.82
   3   1   7   47.04    1.02
   3   1   7   48.91    1.04
  -3  -1  -8    0.72    0.30
  -3  -1  -8    0.28    0.25
  -3  -1  -8    0.08    0.26
  -3  -1  -8    0.21    0.25
  -3  -1  -8    0.79    0.30
  -3  -1  -8    0.50    0.30
  -3  -1  -8    0.46    0.30
   3   1   8    0.37    0.28
   3   1   8   -0.28    0.27
   3   1   8    0.30    0.25
   3   1   8    0.44    0.24
   3   1   8    0.28    0.27
   3   1   8    0.67    0.32
  -3  -1  -9   40.95    1.46
  -3  -1  -9   31.47    0.80
  -3  -1  -9   30.57    1.11
  -3  -1  -9   32.11    0.87
  -3  -1  -9   31.93    0.91
  -3  -1  -9   37.85    1.08
  -3  -1  -9   34.14    1.06
   3   1   9   35.53    1.03
   3   1   9   35.99    0.90
   3   1   9   35.38    0.90
   3   1   9   37.62    1.11
   3   1   9   37.47    1.12
  -3  -1 -10    0.55    0.32
  -3  -1 -10   -0.06    0.29
  -3  -1 -10    1.04    0.37
  -3  -1 -10    1.08    0.44
  -3  -1 -10    0.72    0.43
  -3  -1 -10    0.36    0.40
   3   1  10   -0.21    0.39
   3   1  10    0.66    0.39
   3   1  10    0.52    0.32
   3   1  10    0.80    0.44
   3   1  10    0.11    0.44
  -3  -1 -11   31.97    0.98
  -3  -1 -11   32.76    1.17
  -3  -1 -11   35.45    1.05
  -3  -1 -11   33.97    1.39
  -3  -1 -11   34.15    1.34
  -3  -1 -11   36.51    1.32
   3   1  11   40.13    1.21
   3   1  11   37.00    1.14
   3   1  11   36.05    1.15
   3   1  11   41.68    1.37
  -3  -1 -12   19.07    0.90
  -3  -1 -12   17.98    1.10
  -3  -1 -12   19.69    1.01
  -3  -1 -12   19.05    1.24
   3   1  12   21.79    1.10
   3   1  12   22.16    1.09
   3   1  12   19.94    1.26
  -3  -1 -13    0.85    0.53
  -3  -1 -13    0.97    0.60
   3   1  13    1.11    0.60
   3   1  13    2.18    0.64
   3   1  13    0.86    0.79
  -3  -2  12    4.43    0.63
  -3  -2  12    4.03    0.71
   3   2 -12    4.47    0.73
   3   2 -12    4.30    0.70
   3   2 -12    3.45    0.80
  -3  -2  11    6.58    0.49
  -3  -2  11    7.98    0.78
  -3  -2  11   10.12    0.88
  -3  -2  11    8.48    1.05
   3   2 -11    8.18    0.90
   3   2 -11    8.13    0.91
   3   2 -11    8.48    1.00
  -3  -2  10   11.97    0.49
  -3  -2  10   10.16    0.50
  -3  -2  10   13.56    0.80
  -3  -2  10   11.75    0.85
  -3  -2  10   15.14    1.03
   3   2 -10   12.65    0.88
   3   2 -10   14.11    0.88
   3   2 -10   10.59    0.97
   3   2 -10   15.21    0.97
  -3  -2   9   89.56    0.87
  -3  -2   9   87.08    0.87
  -3  -2   9   99.73    1.50
  -3  -2   9   87.45    1.51
  -3  -2   9   96.03    1.69
  -3  -2   9   96.35    1.70
  -3  -2   9  108.93    1.79
   3   2  -9  103.73    1.72
   3   2  -9  108.82    1.63
   3   2  -9   89.65    1.65
  -3  -2   8    5.71    0.30
  -3  -2   8    5.22    0.54
  -3  -2   8    5.75    0.60
  -3  -2   8    6.68    0.64
  -3  -2   8    5.23    0.62
  -3  -2   8    5.60    0.67
  -3  -2   8    5.98    0.67
   3   2  -8    6.88    0.63
   3   2  -8    7.05    0.63
   3   2  -8    5.37    0.60
   3   2  -8    6.31    0.68
   3   2  -8    5.47    0.56
  -3  -2   7   30.12    0.43
  -3  -2   7   31.43    0.43
  -3  -2   7   31.80    0.95
  -3  -2   7   35.28    0.92
  -3  -2   7   35.02    0.90
  -3  -2   7   31.33    0.91
  -3  -2   7   34.40    0.95
  -3  -2   7   37.84    1.03
   3   2  -7   40.37    1.00
   3   2  -7   40.52    0.96
   3   2  -7   29.80    0.88
   3   2  -7   38.88    1.00
   3   2  -7   31.01    0.89
  -3  -2   6    2.09    0.17
  -3  -2   6    1.88    0.32
  -3  -2   6    2.34    0.31
  -3  -2   6    2.00    0.31
  -3  -2   6    1.62    0.30
  -3  -2   6    2.04    0.31
  -3  -2   6    1.81    0.26
   3   2  -6    3.12    0.37
   3   2  -6    2.56    0.33
   3   2  -6    1.94    0.31
   3   2  -6    2.77    0.36
   3   2  -6    2.16    0.34
  -3  -2   5  170.12    1.58
  -3  -2   5  178.67    1.67
  -3  -2   5  184.16    1.65
  -3  -2   5  151.41    1.56
  -3  -2   5  177.26    1.65
  -3  -2   5  179.05    1.67
   3   2  -5  203.83    1.81
   3   2  -5  205.97    1.76
   3   2  -5  147.33    1.52
   3   2  -5  187.69    1.72
   3   2  -5  157.13    1.57
  -3  -2   4  238.56    1.78
  -3  -2   4  249.00    1.84
  -3  -2   4  269.21    1.89
  -3  -2   4  199.70    1.63
  -3  -2   4  247.32    1.79
  -3  -2   4  242.28    1.78
   3   2  -4  262.48    1.91
   3   2  -4  286.44    1.97
   3   2  -4  208.27    1.65
   3   2  -4  256.23    1.85
   3   2  -4  216.83    1.70
  -3  -2   3   70.72    0.94
  -3  -2   3   72.74    0.94
  -3  -2   3   80.05    1.00
  -3  -2   3   58.44    0.82
  -3  -2   3   74.08    0.92
  -3  -2   3   67.95    0.89
   3   2  -3   80.29    1.01
   3   2  -3   86.92    1.05
   3   2  -3   60.67    0.82
   3   2  -3   76.43    0.95
   3   2  -3   65.64    0.88
  -3  -2   2  124.79    0.63
  -3  -2   2  141.94    1.26
  -3  -2   2  144.33    1.24
  -3  -2   2  167.65    1.36
  -3  -2   2  121.93    1.02
  -3  -2   2  145.40    1.17
   3   2  -2  155.03    0.70
   3   2  -2  154.03    1.30
   3   2  -2  168.75    1.38
   3   2  -2  126.14    1.03
   3   2  -2  152.17    1.23
   3   2  -2  134.35    1.15
  -3  -2   1    3.65    0.18
  -3  -2   1    3.85    0.29
  -3  -2   1    2.32    0.31
  -3  -2   1    3.59    0.21
  -3  -2   1    3.95    0.24
   3   2  -1    4.06    0.18
   3   2  -1    3.54    0.27
   3   2  -1    3.45    0.26
   3   2  -1    4.98    0.31
   3   2  -1    3.85    0.20
   3   2  -1    4.55    0.26
   3   2  -1    3.78    0.23
  -3  -2   0   97.98    0.80
  -3  -2   0  105.77    1.02
  -3  -2   0   92.31    0.95
  -3  -2   0  122.16    1.11
  -3  -2   0  101.27    0.62
  -3  -2   0  114.84    0.95
   3   2   0  100.74    0.99
   3   2   0  121.73    1.12
   3   2   0  100.41    0.62
   3   2   0  105.75    0.92
   3   2   0  101.12    0.90
  -3  -2  -1    1.74    0.19
  -3  -2  -1    2.26    0.24
  -3  -2  -1    1.44    0.18
  -3  -2  -1    2.50    0.24
  -3  -2  -1    2.00    0.19
   3   2   1    1.58    0.18
   3   2   1    1.60    0.18
   3   2   1    2.09    0.25
   3   2   1    2.14    0.20
   3   2   1    2.05    0.20
  -3  -2  -2  156.73    1.24
  -3  -2  -2  161.93    1.22
  -3  -2  -2  147.18    1.26
  -3  -2  -2  161.60    1.55
  -3  -2  -2  185.42    1.27
   3   2   2  167.85    1.29
   3   2   2  159.23    1.30
   3   2   2  176.00    1.36
   3   2   2  144.53    1.45
   3   2   2  167.62    1.23
   3   2   2  161.73    1.21
  -3  -2  -3    5.36    0.33
  -3  -2  -3    6.05    0.32
  -3  -2  -3    5.01    0.32
  -3  -2  -3    5.49    0.13
  -3  -2  -3    6.19    0.36
  -3  -2  -3   -0.03    0.09
   3   2   3    6.22    0.35
   3   2   3    5.72    0.33
   3   2   3    6.52    0.35
   3   2   3    6.27    0.32
   3   2   3    6.55    0.14
   3   2   3    6.23    0.30
   3   2   3    5.99    0.31
  -3  -2  -4   65.41    0.96
  -3  -2  -4   62.79    0.79
  -3  -2  -4   62.08    0.94
  -3  -2  -4   54.40    0.52
  -3  -2  -4   76.37    0.96
  -3  -2  -4   64.13    0.89
   3   2   4   67.61    0.98
   3   2   4   66.90    0.97
   3   2   4   71.88    0.96
   3   2   4   65.28    0.90
   3   2   4   70.46    0.58
   3   2   4   67.36    0.92
   3   2   4   69.57    0.94
  -3  -2  -5    6.26    0.43
  -3  -2  -5    5.15    0.34
  -3  -2  -5    5.04    0.39
  -3  -2  -5    5.64    0.38
  -3  -2  -5    4.10    0.25
  -3  -2  -5    6.50    0.38
  -3  -2  -5    5.49    0.38
   3   2   5    5.78    0.41
   3   2   5    5.49    0.41
   3   2   5    5.42    0.39
   3   2   5    5.31    0.35
   3   2   5    6.68    0.29
   3   2   5    6.06    0.40
   3   2   5    5.87    0.39
  -3  -2  -6  117.70    1.45
  -3  -2  -6   99.95    1.04
  -3  -2  -6  102.49    1.38
  -3  -2  -6  111.26    1.31
  -3  -2  -6   81.71    0.90
  -3  -2  -6  129.43    1.46
  -3  -2  -6  111.14    1.36
   3   2   6  122.85    1.50
   3   2   6  117.56    1.47
   3   2   6  122.67    1.36
   3   2   6  121.27    1.09
   3   2   6  128.64    1.48
   3   2   6  123.43    1.45
  -3  -2  -7   16.78    0.68
  -3  -2  -7   13.34    0.49
  -3  -2  -7   14.90    0.65
  -3  -2  -7   15.37    0.63
  -3  -2  -7   11.60    0.48
  -3  -2  -7   17.84    0.68
  -3  -2  -7   15.84    0.66
   3   2   7   17.31    0.70
   3   2   7   17.42    0.71
   3   2   7   17.68    0.65
   3   2   7   16.09    0.54
   3   2   7   17.53    0.69
   3   2   7   17.69    0.70
  -3  -2  -8   18.60    0.74
  -3  -2  -8   15.51    0.57
  -3  -2  -8   15.77    0.75
  -3  -2  -8   19.01    0.72
  -3  -2  -8   14.36    0.59
  -3  -2  -8   20.61    0.78
  -3  -2  -8   19.71    0.79
   3   2   8   19.59    0.78
   3   2   8   17.89    0.78
   3   2   8   19.33    0.71
   3   2   8   20.53    0.66
   3   2   8   21.48    0.82
   3   2   8   20.37    0.80
  -3  -2  -9   21.12    0.68
  -3  -2  -9   21.84    0.89
  -3  -2  -9   24.79    0.85
  -3  -2  -9   19.79    0.75
  -3  -2  -9   28.43    0.96
  -3  -2  -9   25.49    0.96
   3   2   9   29.31    0.97
   3   2   9   27.82    0.91
   3   2   9   29.39    0.84
   3   2   9   29.72    1.00
   3   2   9   28.89    1.01
  -3  -2 -10    8.27    0.62
  -3  -2 -10    8.81    0.74
  -3  -2 -10   10.43    0.74
  -3  -2 -10    8.46    0.73
  -3  -2 -10   10.96    0.87
  -3  -2 -10   10.68    0.86
   3   2  10   11.80    0.80
   3   2  10   11.42    0.82
   3   2  10   13.03    0.73
   3   2  10   13.42    0.86
  -3  -2 -11   55.44    1.06
  -3  -2 -11   60.92    1.52
  -3  -2 -11   64.40    1.41
  -3  -2 -11   51.05    1.33
  -3  -2 -11   68.45    1.64
   3   2  11   74.78    1.61
   3   2  11   73.21    1.43
   3   2  11   75.46    1.78
   3   2  11   77.35    1.78
  -3  -2 -12   -0.50    0.43
  -3  -2 -12    0.06    0.48
  -3  -2 -12   -0.35    0.63
   3   2  12    0.24    0.48
   3   2  12    0.49    0.49
   3   2  12   -0.23    0.52
  -3  -2 -13    4.00    0.67
  -3  -2 -13    5.53    0.76
   3   2  13    6.56    0.84
   3   2  13    6.80    0.78
   3   2  13    6.50    0.92
  -3  -3  12   18.98    1.04
  -3  -3  12   16.62    1.16
   3   3 -12   17.64    1.19
   3   3 -12   19.56    1.18
   3   3 -12   16.30    1.32
  -3  -3  11    8.07    0.82
  -3  -3  11    8.02    0.89
   3   3 -11    7.93    0.91
   3   3 -11    8.52    0.93
   3   3 -11   10.07    1.03
  -3  -3  10   51.61    1.27
  -3  -3  10   52.86    1.41
  -3  -3  10   56.13    1.46
   3   3 -10   54.15    1.44
   3   3 -10   58.49    1.32
   3   3 -10   46.34    1.42
   3   3 -10   58.60    1.46
  -3  -3   9    1.46    0.41
  -3  -3   9    1.19    0.46
  -3  -3   9    0.95    0.37
   3   3  -9    1.32    0.43
   3   3  -9    2.25    0.40
   3   3  -9    1.02    0.41
   3   3  -9    1.89    0.46
  -3  -3   8   84.08    1.40
  -3  -3   8   80.82    1.34
  -3  -3   8   83.13    1.47
  -3  -3   8   92.98    1.52
   3   3  -8   98.68    1.46
   3   3  -8   78.19    1.44
  -3  -3   7   13.26    0.66
  -3  -3   7   13.35    0.69
  -3  -3   7   12.69    0.66
  -3  -3   7   11.18    0.68
  -3  -3   7   12.79    0.69
  -3  -3   7   14.76    0.68
   3   3  -7   16.07    0.73
   3   3  -7   16.36    0.70
   3   3  -7   12.33    0.64
   3   3  -7   14.62    0.71
   3   3  -7   11.51    0.65
  -3  -3   6  189.73    1.88
  -3  -3   6  193.22    1.95
  -3  -3   6  202.49    1.82
  -3  -3   6  174.73    1.86
  -3  -3   6  196.11    1.84
  -3  -3   6  205.37    1.89
   3   3  -6  230.99    2.15
   3   3  -6  234.78    1.97
   3   3  -6  158.43    1.73
   3   3  -6  206.34    1.93
   3   3  -6  177.15    1.78
  -3  -3   5  113.47    1.40
  -3  -3   5  121.34    1.47
  -3  -3   5  127.73    1.39
  -3  -3   5  108.64    1.37
  -3  -3   5  120.42    1.33
   3   3  -5  139.39    1.58
   3   3  -5  148.38    1.50
   3   3  -5  105.12    1.32
   3   3  -5  125.52    1.40
   3   3  -5  113.55    1.33
  -3  -3   4   35.79    0.79
  -3  -3   4   36.51    0.79
  -3  -3   4   39.44    0.76
  -3  -3   4   32.41    0.73
  -3  -3   4   38.06    0.72
  -3  -3   4   35.65    0.73
   3   3  -4   40.68    0.84
   3   3  -4   44.53    0.83
   3   3  -4   32.98    0.71
   3   3  -4   37.76    0.74
   3   3  -4   32.45    0.68
  -3  -3   3  108.63    1.24
  -3  -3   3  113.82    1.27
  -3  -3   3  118.79    1.23
  -3  -3   3  105.47    1.12
  -3  -3   3  112.30    1.08
  -3  -3   3  108.65    1.07
   3   3  -3  120.18    1.31
   3   3  -3  133.13    1.31
   3   3  -3   95.50    1.10
   3   3  -3  116.31    1.13
   3   3  -3  100.99    1.05
  -3  -3   2   60.66    0.45
  -3  -3   2   54.08    0.85
  -3  -3   2   61.15    0.87
  -3  -3   2   55.74    0.74
  -3  -3   2   58.00    0.72
  -3  -3   2   55.23    0.71
   3   3  -2   61.82    0.45
   3   3  -2   61.86    0.92
   3   3  -2   49.70    0.83
   3   3  -2   68.08    0.93
   3   3  -2   50.41    0.70
   3   3  -2   57.97    0.74
   3   3  -2   52.91    0.71
  -3  -3   1  327.11    1.31
  -3  -3   1  313.92    1.91
  -3  -3   1  349.62    1.99
  -3  -3   1  326.22    1.51
  -3  -3   1  333.13    1.56
  -3  -3   1  304.89    1.50
   3   3  -1  338.63    1.33
   3   3  -1  326.72    1.97
   3   3  -1  300.04    1.88
   3   3  -1  363.79    2.04
   3   3  -1  295.23    1.43
   3   3  -1  327.22    1.60
   3   3  -1  289.42    1.50
  -3  -3   0    1.42    0.15
  -3  -3   0    1.06    0.19
  -3  -3   0    0.98    0.18
  -3  -3   0    1.82    0.24
  -3  -3   0    1.48    0.16
  -3  -3   0    1.34    0.15
  -3  -3   0    1.08    0.14
   3   3   0    1.39    0.17
   3   3   0    1.08    0.21
   3   3   0    1.52    0.21
   3   3   0    1.24    0.15
   3   3   0    1.38    0.15
   3   3   0    1.45    0.15
  -3  -3  -1  761.45    2.59
  -3  -3  -1  764.59    2.75
  -3  -3  -1  684.25    2.82
  -3  -3  -1  847.19    3.11
  -3  -3  -1  884.24    4.47
  -3  -3  -1  734.50    3.15
   3   3   1  794.37    2.67
   3   3   1  737.92    2.93
   3   3   1  867.76    4.84
   3   3   1  742.44    2.59
   3   3   1  823.43    3.04
   3   3   1  794.41    4.05
   3   3   1  769.28    4.36
  -3  -3  -2    2.12    0.24
  -3  -3  -2    2.31    0.28
  -3  -3  -2    1.85    0.23
  -3  -3  -2    2.16    0.20
  -3  -3  -2    1.88    0.21
   3   3   2    1.97    0.22
   3   3   2    2.53    0.31
   3   3   2    2.70    0.29
   3   3   2    1.99    0.20
   3   3   2    2.14    0.22
  -3  -3  -3  109.48    1.18
  -3  -3  -3  109.86    1.02
  -3  -3  -3   94.99    1.15
  -3  -3  -3  102.88    0.56
  -3  -3  -3  125.39    1.09
  -3  -3  -3  104.44    1.00
   3   3   3  118.40    1.25
   3   3   3  108.01    1.21
   3   3   3  120.81    1.28
   3   3   3  116.89    1.25
   3   3   3  105.03    0.56
   3   3   3  114.52    1.07
   3   3   3  112.69    1.06
  -3  -3  -4   42.91    0.83
  -3  -3  -4   42.64    0.66
  -3  -3  -4   38.04    0.79
  -3  -3  -4   43.46    0.83
  -3  -3  -4   41.53    0.47
  -3  -3  -4   50.94    0.77
  -3  -3  -4   42.40    0.72
   3   3   4   46.19    0.87
   3   3   4   44.14    0.84
   3   3   4   48.08    0.87
   3   3   4   46.15    0.84
   3   3   4   41.97    0.48
   3   3   4   47.17    0.76
   3   3   4   46.15    0.76
  -3  -3  -5   97.85    1.30
  -3  -3  -5   89.09    0.91
  -3  -3  -5   85.52    1.23
  -3  -3  -5   89.93    1.22
  -3  -3  -5   91.77    0.82
  -3  -3  -5  111.29    1.22
   3   3   5  105.01    1.36
   3   3   5   96.31    1.29
   3   3   5   98.95    1.25
   3   3   5   96.67    0.84
   3   3   5  106.09    1.23
   3   3   5  101.95    1.21
  -3  -3  -6  188.13    1.88
  -3  -3  -6  166.99    1.24
  -3  -3  -6  171.00    1.81
  -3  -3  -6  183.96    1.80
  -3  -3  -6  169.65    1.27
  -3  -3  -6  215.71    1.83
  -3  -3  -6  181.30    1.71
   3   3   6  208.15    2.00
   3   3   6  203.04    1.95
   3   3   6  204.16    1.87
   3   3   6  199.30    1.38
   3   3   6  213.08    1.87
   3   3   6  209.66    1.85
  -3  -3  -7    0.64    0.29
  -3  -3  -7    0.85    0.24
  -3  -3  -7    0.43    0.27
  -3  -3  -7    0.81    0.28
  -3  -3  -7    0.86    0.23
  -3  -3  -7    1.04    0.27
  -3  -3  -7    0.74    0.26
   3   3   7    1.51    0.37
   3   3   7    0.95    0.31
   3   3   7    1.27    0.32
   3   3   7    0.59    0.23
   3   3   7    0.64    0.24
   3   3   7    0.61    0.26
  -3  -3  -8  102.08    1.81
  -3  -3  -8   68.64    0.88
  -3  -3  -8   88.98    1.49
  -3  -3  -8   96.71    1.48
  -3  -3  -8   65.57    1.03
  -3  -3  -8  110.68    1.56
  -3  -3  -8  100.16    1.50
   3   3   8  110.47    1.66
   3   3   8   93.42    1.52
   3   3   8  104.83    1.54
   3   3   8  107.13    1.28
   3   3   8  113.39    1.61
   3   3   8  109.37    1.59
  -3  -3  -9    9.73    0.54
  -3  -3  -9   20.05    0.87
  -3  -3  -9   20.44    0.84
  -3  -3  -9   10.52    0.65
  -3  -3  -9   20.46    0.88
  -3  -3  -9   22.61    0.91
   3   3   9   19.79    0.89
   3   3   9   22.38    0.76
   3   3   9   24.01    0.92
   3   3   9   23.71    0.95
  -3  -3 -10    8.51    0.77
  -3  -3 -10    8.49    1.14
  -3  -3 -10    4.66    0.53
  -3  -3 -10    9.64    0.84
   3   3  10   11.57    0.83
   3   3  10    9.39    0.69
   3   3  10    9.19    1.00
  -3  -3 -11   13.84    0.91
  -3  -3 -11   14.26    0.95
  -3  -3 -11    9.75    0.91
  -3  -3 -11   15.07    1.07
   3   3  11   19.39    1.04
   3   3  11   16.12    0.90
   3   3  11   17.57    1.02
  -3  -3 -12    6.88    0.78
  -3  -3 -12    9.06    1.02
   3   3  12    9.91    0.97
   3   3  12    9.35    0.96
   3   3  12   11.38    1.08
  -3  -3 -13    1.94    0.62
  -3  -3 -13    3.15    0.77
   3   3  13    2.73    0.71
   3   3  13    3.18    0.72
   3   3  13    3.84    0.83
  -3  -4  12    4.30    0.66
  -3  -4  12    3.91    0.69
   3   4 -12    2.87    0.65
   3   4 -12    4.42    0.75
   3   4 -12    3.76    0.65
  -3  -4  11   23.85    1.10
  -3  -4  11   21.64    1.17
   3   4 -11   23.41    1.18
   3   4 -11   23.97    1.20
  -3  -4  10    1.41    0.48
  -3  -4  10    1.97    0.59
  -3  -4  10    2.26    0.54
  -3  -4  10    1.59    0.53
   3   4 -10    2.56    0.56
   3   4 -10    2.19    0.47
   3   4 -10    3.38    0.57
  -3  -4   9  100.18    1.69
  -3  -4   9   86.17    1.48
  -3  -4   9   98.99    1.79
  -3  -4   9  113.88    1.78
   3   4  -9  123.23    1.96
   3   4  -9  122.12    1.67
   3   4  -9   96.18    1.71
   3   4  -9  111.39    1.79
  -3  -4   8    1.06    0.38
  -3  -4   8    1.34    0.39
  -3  -4   8    1.24    0.38
  -3  -4   8    1.35    0.35
   3   4  -8    0.93    0.35
   3   4  -8    1.53    0.38
   3   4  -8    1.42    0.39
   3   4  -8    1.40    0.38
  -3  -4   7   68.92    1.31
  -3  -4   7   66.66    1.33
  -3  -4   7   70.95    1.19
  -3  -4   7   67.58    1.33
  -3  -4   7   68.36    1.21
   3   4  -7   83.25    1.48
   3   4  -7   89.38    1.32
   3   4  -7   61.32    1.24
   3   4  -7   65.42    1.22
  -3  -4   6   34.00    0.92
  -3  -4   6   33.66    0.92
  -3  -4   6   34.11    0.83
  -3  -4   6   31.82    0.91
  -3  -4   6   34.08    0.80
  -3  -4   6   37.26    0.86
   3   4  -6   39.15    1.00
   3   4  -6   43.86    0.93
   3   4  -6   32.21    0.90
   3   4  -6   36.00    0.87
   3   4  -6   32.21    0.83
  -3  -4   5  143.86    1.68
  -3  -4   5  158.55    1.77
  -3  -4   5  167.57    1.60
  -3  -4   5  144.96    1.63
  -3  -4   5  158.18    1.49
  -3  -4   5  161.27    1.52
   3   4  -5  178.07    1.88
   3   4  -5  198.43    1.75
   3   4  -5  144.52    1.61
   3   4  -5  166.79    1.59
   3   4  -5  143.01    1.47
  -3  -4   4  271.25    2.56
  -3  -4   4  316.75    2.35
  -3  -4   4  328.90    2.14
  -3  -4   4  299.28    2.14
  -3  -4   4  308.60    1.89
  -3  -4   4  316.76    1.92
   3   4  -4  349.20    2.48
   3   4  -4  379.53    2.31
   3   4  -4  295.16    2.11
   3   4  -4  322.87    2.00
   3   4  -4  285.04    1.88
  -3  -4   3   76.67    1.13
  -3  -4   3   79.83    1.15
  -3  -4   3   87.07    1.10
  -3  -4   3   79.71    1.04
  -3  -4   3   81.84    0.89
  -3  -4   3   82.13    0.90
   3   4  -3   88.70    1.22
   3   4  -3   90.95    1.13
   3   4  -3   76.57    1.02
   3   4  -3   83.08    0.94
   3   4  -3   72.77    0.88
  -3  -4   2  512.07    2.73
  -3  -4   2  583.89    2.73
  -3  -4   2  521.37    2.36
  -3  -4   2  537.64    2.01
  -3  -4   2  534.60    2.01
   3   4  -2  529.01    1.62
   3   4  -2  511.57    1.59
   3   4  -2  552.41    2.86
   3   4  -2  481.57    2.65
   3   4  -2  604.92    2.80
   3   4  -2  525.48    2.37
   3   4  -2  551.34    2.15
   3   4  -2  488.11    2.05
  -3  -4   1   58.91    0.66
  -3  -4   1   50.01    0.85
  -3  -4   1   56.73    0.88
  -3  -4   1   52.03    0.70
  -3  -4   1   52.63    0.58
  -3  -4   1   50.49    0.58
   3   4  -1   52.78    0.63
   3   4  -1   50.23    0.61
   3   4  -1   52.96    0.90
   3   4  -1   46.72    0.85
   3   4  -1   58.00    0.90
   3   4  -1   54.63    0.72
   3   4  -1   54.37    0.64
   3   4  -1   45.41    0.72
  -3  -4   0  200.52    1.33
  -3  -4   0  182.71    1.51
  -3  -4   0  172.17    1.54
  -3  -4   0  213.86    1.67
  -3  -4   0  187.54    1.16
  -3  -4   0  199.05    1.04
  -3  -4   0  180.54    0.99
   3   4   0  190.88    1.30
   3   4   0  173.16    1.54
   3   4   0  211.77    1.68
   3   4   0  197.37    1.18
   3   4   0  187.98    1.09
   3   4   0  176.74    1.06
  -3  -4  -1  487.56    2.72
  -3  -4  -1  510.27    2.40
  -3  -4  -1  452.90    2.49
  -3  -4  -1  595.01    2.33
  -3  -4  -1  475.92    1.64
   3   4   1  512.01    2.33
   3   4   1  492.93    2.58
   3   4   1  545.49    2.73
   3   4   1  509.30    2.61
   3   4   1  547.11    1.76
   3   4   1  503.47    1.81
   3   4   1  495.25    1.80
  -3  -4  -2  303.20    1.93
  -3  -4  -2  292.43    1.75
  -3  -4  -2  269.10    1.96
  -3  -4  -2  338.60    1.51
  -3  -4  -2  280.69    1.38
   3   4   2  311.68    1.98
   3   4   2  293.35    2.03
   3   4   2  329.17    2.19
   3   4   2  306.77    2.09
   3   4   2  295.94    1.26
   3   4   2  313.08    1.26
   3   4   2  298.24    1.51
  -3  -4  -3  219.17    1.76
  -3  -4  -3  213.25    1.44
  -3  -4  -3  190.38    1.71
  -3  -4  -3  237.59    1.41
  -3  -4  -3  203.26    1.32
   3   4   3  227.92    1.82
   3   4   3  222.65    1.83
   3   4   3  236.09    1.92
   3   4   3  210.33    1.80
   3   4   3  217.06    1.09
   3   4   3  226.44    1.45
   3   4   3  227.28    1.45
  -3  -4  -4  175.20    1.69
  -3  -4  -4  165.49    1.24
  -3  -4  -4  159.76    1.64
  -3  -4  -4  167.46    1.69
  -3  -4  -4  162.10    1.04
  -3  -4  -4  186.94    1.40
  -3  -4  -4  166.58    1.33
   3   4   4  184.68    1.76
   3   4   4  172.27    1.68
   3   4   4  189.64    1.79
   3   4   4  176.66    1.71
   3   4   4  178.54    1.09
   3   4   4  182.19    1.44
   3   4   4  183.80    1.45
  -3  -4  -5  347.05    2.50
  -3  -4  -5  323.50    1.66
  -3  -4  -5  311.80    2.38
  -3  -4  -5  326.00    2.44
  -3  -4  -5  324.91    1.64
  -3  -4  -5  355.40    2.11
  -3  -4  -5  331.31    2.06
   3   4   5  375.15    2.63
   3   4   5  362.59    2.54
   3   4   5  358.95    2.53
   3   4   5  334.57    1.66
   3   4   5  362.93    2.22
   3   4   5  360.98    2.21
  -3  -4  -6   12.35    0.64
  -3  -4  -6   11.05    0.42
  -3  -4  -6   11.28    0.62
  -3  -4  -6   11.77    0.63
  -3  -4  -6   10.79    0.44
  -3  -4  -6   13.24    0.51
  -3  -4  -6   12.65    0.54
   3   4   6   13.34    0.66
   3   4   6   11.69    0.62
   3   4   6   12.12    0.46
   3   4   6   13.59    0.56
   3   4   6   13.66    0.58
  -3  -4  -7   82.46    0.85
  -3  -4  -7   85.46    1.43
  -3  -4  -7   91.22    1.46
  -3  -4  -7   85.19    1.07
  -3  -4  -7   97.54    1.33
  -3  -4  -7   94.65    1.34
   3   4   7  108.11    1.61
   3   4   7   94.32    1.47
   3   4   7   97.75    1.49
   3   4   7   97.11    1.14
   3   4   7  104.79    1.43
   3   4   7  103.51    1.44
  -3  -4  -8   15.06    0.50
  -3  -4  -8   16.29    0.81
  -3  -4  -8   14.58    0.64
  -3  -4  -8   16.86    0.73
   3   4   8   18.52    0.83
   3   4   8   17.71    0.66
   3   4   8   19.07    0.76
   3   4   8   17.54    0.79
  -3  -4  -9   64.79    1.43
  -3  -4  -9   70.70    1.66
  -3  -4  -9   54.56    1.10
  -3  -4  -9   76.07    1.45
   3   4   9   82.90    1.59
   3   4   9   79.40    1.26
   3   4   9   82.38    1.49
  -3  -4 -10    9.75    0.83
  -3  -4 -10   11.17    0.89
  -3  -4 -10    6.27    0.60
  -3  -4 -10   13.13    0.92
   3   4  10   15.28    0.93
   3   4  10   14.51    0.81
   3   4  10   14.15    0.95
   3   4  10   14.20    0.86
  -3  -4 -11    8.85    0.93
  -3  -4 -11   10.98    0.99
  -3  -4 -11    0.81    0.56
   3   4  11   11.25    0.93
   3   4  11   11.44    0.86
   3   4  11   11.46    0.92
  -3  -4 -12    8.81    0.86
  -3  -4 -12    9.11    1.11
   3   4  12   12.13    1.07
   3   4  12   11.76    1.01
   3   4  12   12.14    1.07
   3   5 -12    8.78    0.94
  -3  -5  11    3.65    0.61
  -3  -5  11    5.21    0.73
   3   5 -11    3.85    0.65
   3   5 -11    4.65    0.64
   3   5 -11    5.32    0.67
  -3  -5  10   29.49    1.16
  -3  -5  10   19.18    1.09
  -3  -5  10   28.47    1.24
   3   5 -10   29.49    1.22
   3   5 -10   33.67    1.09
   3   5 -10   29.90    1.17
  -3  -5   9    7.35    0.76
  -3  -5   9    7.31    0.82
  -3  -5   9    9.07    0.84
  -3  -5   9    6.90    0.83
   3   5  -9   11.13    0.86
   3   5  -9    8.93    0.76
   3   5  -9    7.82    0.86
   3   5  -9    8.16    0.76
  -3  -5   8  102.91    1.75
  -3  -5   8   98.80    1.48
  -3  -5   8   97.82    1.73
  -3  -5   8  112.85    1.64
   3   5  -8  127.10    1.96
   3   5  -8  135.58    1.65
   3   5  -8   96.65    1.59
   3   5  -8  109.58    1.64
  -3  -5   7   18.33    0.84
  -3  -5   7   19.07    0.79
  -3  -5   7   19.67    0.74
   3   5  -7   24.73    0.94
   3   5  -7   24.95    0.80
   3   5  -7   17.77    0.77
   3   5  -7   20.17    0.78
  -3  -5   6  116.90    1.69
  -3  -5   6  119.18    1.71
  -3  -5   6  125.15    1.47
  -3  -5   6  116.87    1.66
  -3  -5   6  115.03    1.37
  -3  -5   6  131.46    1.47
   3   5  -6  149.90    1.92
   3   5  -6  163.73    1.68
   3   5  -6  112.83    1.61
   3   5  -6  114.02    1.44
  -3  -5   5   90.26    1.44
  -3  -5   5   99.35    1.49
  -3  -5   5  106.64    1.33
  -3  -5   5   96.18    1.41
  -3  -5   5  101.38    1.18
  -3  -5   5  104.50    1.20
   3   5  -5  118.80    1.63
   3   5  -5  129.59    1.46
   3   5  -5   99.60    1.43
   3   5  -5  102.51    1.24
   3   5  -5   92.13    1.19
  -3  -5   4   29.94    0.83
  -3  -5   4   32.24    0.86
  -3  -5   4   33.87    0.80
  -3  -5   4   29.99    0.79
  -3  -5   4   32.15    0.63
  -3  -5   4   32.19    0.64
   3   5  -4   35.94    0.38
   3   5  -4   37.10    0.92
   3   5  -4   39.39    0.84
   3   5  -4   31.42    0.81
   3   5  -4   32.69    0.67
   3   5  -4   29.33    0.65
  -3  -5   3  172.68    1.80
  -3  -5   3  185.92    1.84
  -3  -5   3  197.77    1.70
  -3  -5   3  183.18    1.67
  -3  -5   3  184.78    1.24
  -3  -5   3  194.80    1.28
   3   5  -3  189.39    1.04
   3   5  -3  189.70    1.04
   3   5  -3  203.62    1.94
   3   5  -3  168.13    1.76
   3   5  -3  219.44    1.81
   3   5  -3  196.20    1.72
   3   5  -3  191.45    1.37
   3   5  -3  172.35    1.30
  -3  -5   2    4.59    0.42
  -3  -5   2    4.89    0.44
  -3  -5   2    4.18    0.38
  -3  -5   2    4.75    0.23
  -3  -5   2    4.56    0.25
   3   5  -2    4.62    0.28
   3   5  -2    4.56    0.27
   3   5  -2    3.81    0.43
   3   5  -2    3.32    0.41
   3   5  -2    4.65    0.43
   3   5  -2    4.75    0.39
   3   5  -2    4.61    0.26
   3   5  -2    4.18    0.27
  -3  -5   1  336.34    2.29
  -3  -5   1  387.80    2.37
  -3  -5   1  348.69    1.98
  -3  -5   1  360.50    1.22
  -3  -5   1  354.85    1.23
   3   5  -1  359.07    1.83
   3   5  -1  341.29    1.77
   3   5  -1  360.21    2.42
   3   5  -1  328.33    2.30
   3   5  -1  396.21    2.41
   3   5  -1  342.04    2.22
   3   5  -1  357.84    1.47
   3   5  -1  318.82    1.39
  -3  -5   0   56.14    0.94
  -3  -5   0   58.76    0.79
  -3  -5   0   65.53    0.46
   3   5   0   59.55    0.84
   3   5   0   57.36    0.82
   3   5   0   57.52    0.99
   3   5   0   54.95    0.96
   3   5   0   62.59    1.02
   3   5   0   56.10    0.95
   3   5   0   62.98    0.81
   3   5   0   60.14    0.58
   3   5   0   56.05    0.56
  -3  -5  -1  185.14    1.54
  -3  -5  -1  159.39    1.46
  -3  -5  -1  145.78    1.54
  -3  -5  -1  175.79    0.79
   3   5   1  175.32    1.51
   3   5   1  160.94    1.43
   3   5   1  159.16    1.59
   3   5   1  181.99    1.72
   3   5   1  165.47    1.61
   3   5   1  152.27    1.16
   3   5   1  173.51    1.23
   3   5   1  163.65    0.96
   3   5   1  166.26    0.97
  -3  -5  -2  100.89    1.23
  -3  -5  -2   89.04    1.06
  -3  -5  -2   80.89    1.19
  -3  -5  -2   96.85    0.71
  -3  -5  -2   88.87    0.69
   3   5   2   95.07    1.21
   3   5   2   90.57    1.22
   3   5   2   99.57    1.33
   3   5   2   86.99    1.22
   3   5   2   91.76    0.88
   3   5   2   93.24    0.89
   3   5   2   94.21    0.81
   3   5   2   96.06    0.83
  -3  -5  -3   76.61    1.15
  -3  -5  -3   70.48    0.91
  -3  -5  -3   64.95    1.10
  -3  -5  -3   76.14    0.75
  -3  -5  -3   71.83    0.74
   3   5   3   77.83    1.17
   3   5   3   72.82    1.13
   3   5   3   79.71    1.24
   3   5   3   72.62    1.17
   3   5   3   75.66    0.82
   3   5   3   76.47    0.82
   3   5   3   78.09    0.84
   3   5   3   77.88    0.84
  -3  -5  -4  182.28    1.83
  -3  -5  -4  168.87    1.31
  -3  -5  -4  163.07    1.75
  -3  -5  -4  164.31    1.81
  -3  -5  -4  164.93    1.23
  -3  -5  -4  182.75    1.32
  -3  -5  -4  171.20    1.29
   3   5   4  187.30    1.88
   3   5   4  184.89    1.83
   3   5   4  191.14    1.94
   3   5   4  178.34    1.85
   3   5   4  188.69    1.32
   3   5   4  186.91    1.43
   3   5   4  192.20    1.46
  -3  -5  -5    0.79    0.31
  -3  -5  -5    0.95    0.23
  -3  -5  -5    0.18    0.26
  -3  -5  -5    0.16    0.28
  -3  -5  -5    0.17    0.18
  -3  -5  -5    0.24    0.19
  -3  -5  -5    0.13    0.20
   3   5   5    0.07    0.22
   3   5   5    0.48    0.24
   3   5   5   -0.01    0.26
   3   5   5    0.35    0.20
   3   5   5    0.26    0.17
  -3  -5  -6    6.71    0.63
  -3  -5  -6    5.65    0.39
  -3  -5  -6    5.54    0.57
  -3  -5  -6    5.71    0.59
  -3  -5  -6    5.77    0.43
  -3  -5  -6    5.61    0.43
  -3  -5  -6    6.30    0.46
   3   5   6    6.73    0.57
   3   5   6    5.31    0.55
   3   5   6    6.01    0.57
   3   5   6    5.48    0.46
   3   5   6    6.02    0.43
   3   5   6    6.18    0.47
  -3  -5  -7   97.87    0.83
  -3  -5  -7   96.35    1.57
  -3  -5  -7  104.98    1.66
  -3  -5  -7   99.94    1.23
  -3  -5  -7  107.07    1.41
   3   5   7  120.98    1.78
   3   5   7  103.98    1.61
   3   5   7  110.81    1.28
   3   5   7  112.46    1.73
   3   5   7  118.13    1.53
  -3  -5  -8   68.57    1.42
  -3  -5  -8   75.44    1.51
  -3  -5  -8   70.47    1.15
  -3  -5  -8   79.50    1.35
   3   5   8   89.29    1.63
   3   5   8   80.36    1.22
   3   5   8   85.09    1.43
   3   5   8   85.76    1.40
  -3  -5  -9    4.68    0.54
  -3  -5  -9    7.23    0.79
  -3  -5  -9    5.47    0.54
  -3  -5  -9    6.76    0.74
   3   5   9    8.14    0.74
   3   5   9    7.65    0.66
   3   5   9    7.64    0.75
   3   5   9    8.10    0.67
  -3  -5 -10   14.05    0.94
  -3  -5 -10   12.41    0.96
  -3  -5 -10   12.22    0.90
   3   5  10   18.19    1.01
   3   5  10   16.26    0.88
   3   5  10   18.16    0.93
  -3  -5 -11   13.70    1.04
  -3  -5 -11   13.15    1.06
   3   5  11   12.61    0.98
   3   5  11   11.54    1.22
   3   5  11   13.91    0.97
  -3  -5 -12    0.50    0.60
  -3  -5 -12    0.33    0.66
   3   5  12   -0.33    0.59
   3   5  12    0.48    0.59
   3   5  12    1.31    0.58
  -3  -6  11    6.95    0.79
  -3  -6  11    6.26    0.84
   3   6 -11    6.38    0.82
   3   6 -11    6.97    0.77
  -3  -6  10    1.50    0.58
  -3  -6  10    0.87    0.57
   3   6 -10    0.64    0.57
   3   6 -10    1.92    0.52
   3   6 -10    0.35    0.41
  -3  -6   9    9.97    0.84
  -3  -6   9    8.66    0.91
  -3  -6   9    7.89    0.92
   3   6  -9   11.90    0.93
   3   6  -9   11.49    0.81
   3   6  -9    9.71    0.77
  -3  -6   8    8.45    0.79
  -3  -6   8    8.55    0.78
  -3  -6   8    9.04    0.85
  -3  -6   8    9.48    0.78
   3   6  -8    7.44    0.79
   3   6  -8   10.42    0.74
   3   6  -8    7.38    0.78
   3   6  -8    7.88    0.67
  -3  -6   7    8.70    0.72
  -3  -6   7    8.60    0.73
  -3  -6   7    9.54    0.76
  -3  -6   7    9.20    0.66
   3   6  -7   10.30    0.77
   3   6  -7   12.01    0.70
   3   6  -7    8.85    0.59
  -3  -6   6   20.17    0.86
  -3  -6   6   19.19    0.77
  -3  -6   6   19.67    0.87
  -3  -6   6   20.23    0.68
   3   6  -6   24.24    0.93
   3   6  -6   25.91    0.82
   3   6  -6   20.81    1.02
   3   6  -6   19.22    0.71
   3   6  -6   19.82    0.66
  -3  -6   5   15.84    0.76
  -3  -6   5   15.60    0.76
  -3  -6   5   17.12    0.69
  -3  -6   5   17.14    0.77
  -3  -6   5   16.04    0.54
  -3  -6   5   18.33    0.57
   3   6  -5   17.05    0.35
   3   6  -5   19.93    0.38
   3   6  -5   20.66    0.82
   3   6  -5   21.16    0.73
   3   6  -5   14.97    0.74
   3   6  -5   16.49    0.60
   3   6  -5   16.95    0.59
  -3  -6   4   46.98    1.13
  -3  -6   4   51.34    1.12
  -3  -6   4   54.88    1.03
  -3  -6   4   49.73    1.06
  -3  -6   4   50.36    0.71
  -3  -6   4   52.41    0.77
   3   6  -4   52.79    0.64
   3   6  -4   57.14    0.66
   3   6  -4   58.44    1.20
   3   6  -4   44.17    1.06
   3   6  -4   63.49    1.07
   3   6  -4   53.17    1.11
   3   6  -4   46.87    0.79
   3   6  -4   51.69    0.81
  -3  -6   3   97.90    1.48
  -3  -6   3  117.70    1.42
  -3  -6   3  107.80    1.41
  -3  -6   3  108.53    0.84
  -3  -6   3  113.09    0.87
   3   6  -3  112.97    1.01
   3   6  -3  115.91    1.02
   3   6  -3  121.15    1.62
   3   6  -3   93.17    1.41
   3   6  -3  129.91    1.48
   3   6  -3  116.34    1.46
   3   6  -3  110.09    1.01
   3   6  -3  101.30    0.98
  -3  -6   2  235.87    2.16
  -3  -6   2  247.88    1.98
  -3  -6   2  249.96    0.88
   3   6  -2  257.85    1.64
   3   6  -2  266.37    2.29
   3   6  -2  220.78    2.07
   3   6  -2  293.13    2.20
   3   6  -2  241.00    1.98
   3   6  -2  269.63    2.05
   3   6  -2  251.11    1.30
   3   6  -2  228.27    1.24
  -3  -6   1    2.03    0.33
  -3  -6   1    1.79    0.29
   3   6  -1    2.17    0.28
   3   6  -1    2.01    0.26
   3   6  -1    1.76    0.32
   3   6  -1    1.92    0.32
   3   6  -1    1.77    0.31
   3   6  -1    2.28    0.32
   3   6  -1    2.26    0.31
   3   6  -1    1.90    0.18
   3   6  -1    2.27    0.20
  -3  -6   0   51.51    0.98
   3   6   0   57.39    0.93
   3   6   0   51.72    0.87
   3   6   0   56.49    1.06
   3   6   0   49.63    1.00
   3   6   0   62.32    1.10
   3   6   0   53.80    1.02
   3   6   0   48.91    0.83
   3   6   0   60.35    0.92
   3   6   0   57.94    0.48
   3   6   0   54.63    0.47
  -3  -6  -1   22.54    0.68
  -3  -6  -1   20.37    0.71
   3   6   1   26.28    0.72
   3   6   1   22.91    0.66
   3   6   1   21.00    0.71
   3   6   1   26.64    0.80
   3   6   1   22.68    0.71
   3   6   1   21.68    0.58
   3   6   1   25.41    0.62
   3   6   1   24.59    0.35
   3   6   1   24.92    0.35
  -3  -6  -2    4.25    0.41
  -3  -6  -2    3.77    0.39
   3   6   2    5.51    0.48
   3   6   2    3.72    0.45
   3   6   2    3.60    0.43
   3   6   2    4.20    0.51
   3   6   2    3.62    0.39
   3   6   2    4.31    0.37
   3   6   2    3.48    0.38
   3   6   2    4.09    0.23
   3   6   2    4.10    0.24
  -3  -6  -3   64.01    1.15
  -3  -6  -3   53.64    0.88
  -3  -6  -3   48.76    1.03
  -3  -6  -3   55.61    0.55
  -3  -6  -3   55.16    0.56
   3   6   3   62.17    1.15
   3   6   3   53.26    1.05
   3   6   3   53.70    1.07
   3   6   3   61.60    1.20
   3   6   3   53.94    1.10
   3   6   3   57.22    0.86
   3   6   3   50.09    0.97
   3   6   3   58.95    0.70
   3   6   3   59.05    0.72
  -3  -6  -4   11.31    0.62
  -3  -6  -4    9.69    0.48
  -3  -6  -4    9.53    0.62
  -3  -6  -4    9.70    0.64
  -3  -6  -4    9.75    0.33
  -3  -6  -4    9.56    0.37
   3   6   4   12.61    0.66
   3   6   4   11.21    0.60
   3   6   4   10.32    0.61
   3   6   4   10.69    0.62
   3   6   4    9.73    0.62
   3   6   4   10.79    0.50
   3   6   4   10.67    0.48
   3   6   4   11.07    0.41
   3   6   4   11.06    0.44
  -3  -6  -5  260.33    2.45
  -3  -6  -5  256.75    1.60
  -3  -6  -5  234.96    2.28
  -3  -6  -5  243.43    2.43
  -3  -6  -5  244.06    1.78
  -3  -6  -5  244.36    1.62
  -3  -6  -5  226.77    2.46
   3   6   5  293.45    2.62
   3   6   5  229.02    2.31
   3   6   5  269.52    2.42
   3   6   5  283.86    1.92
   3   6   5  275.35    1.88
  -3  -6  -6   76.20    0.84
  -3  -6  -6   72.30    1.39
  -3  -6  -6   62.64    2.14
  -3  -6  -6   73.00    1.08
  -3  -6  -6   78.98    1.09
   3   6   6   87.26    1.68
   3   6   6   82.49    1.47
   3   6   6   87.20    1.18
   3   6   6   84.59    1.20
   3   6   6   86.77    1.19
  -3  -6  -7    6.56    0.70
  -3  -6  -7    7.12    0.69
  -3  -6  -7    6.49    0.59
  -3  -6  -7    8.16    0.59
   3   6   7    8.38    0.67
   3   6   7    6.55    0.61
   3   6   7    7.45    0.58
   3   6   7    7.59    0.52
  -3  -6  -8   14.47    0.87
  -3  -6  -8   16.70    0.92
  -3  -6  -8   16.42    0.81
  -3  -6  -8   16.65    0.79
   3   6   8   18.08    0.91
   3   6   8   19.27    0.80
   3   6   8   19.10    0.87
   3   6   8   18.99    0.75
  -3  -6  -9    1.08    0.48
  -3  -6  -9    2.54    0.52
  -3  -6  -9    2.39    0.51
   3   6   9    1.88    0.48
   3   6   9    2.30    0.47
   3   6   9    2.45    0.45
  -3  -6 -10   22.17    1.17
  -3  -6 -10   25.79    1.20
  -3  -6 -10   20.55    1.13
   3   6  10   30.04    1.23
   3   6  10   28.14    1.09
   3   6  10   29.29    1.08
  -3  -6 -11    1.23    0.60
  -3  -6 -11    0.46    0.64
   3   6  11    0.37    0.58
   3   6  11   -0.41    0.56
   3   6  11   -0.10    0.43
  -3  -7  10    0.87    0.54
  -3  -7  10    1.36    0.62
   3   7 -10    0.37    0.59
   3   7 -10    1.17    0.49
  -3  -7   9   -0.15    0.44
  -3  -7   9    0.97    0.50
   3   7  -9   -0.47    0.47
   3   7  -9   -0.56    0.45
   3   7  -9    0.31    0.40
  -3  -7   8    1.34    0.45
  -3  -7   8    0.75    0.49
  -3  -7   8    0.85    0.54
   3   7  -8    1.14    0.52
   3   7  -8    2.13    0.45
   3   7  -8    0.84    0.33
  -3  -7   7    2.21    0.50
  -3  -7   7    2.33    0.48
  -3  -7   7    2.12    0.47
  -3  -7   7    2.27    0.43
   3   7  -7    1.48    0.46
   3   7  -7    2.16    0.44
   3   7  -7    1.34    0.40
   3   7  -7    1.42    0.31
  -3  -7   6    0.13    0.38
  -3  -7   6    0.47    0.39
  -3  -7   6    0.53    0.35
  -3  -7   6    0.37    0.33
   3   7  -6    1.00    0.23
   3   7  -6    0.49    0.36
   3   7  -6    0.56    0.36
   3   7  -6    0.74    0.32
   3   7  -6    0.27    0.22
  -3  -7   5   22.72    0.93
  -3  -7   5   23.81    0.86
  -3  -7   5   24.66    0.62
   3   7  -5   25.45    0.54
   3   7  -5   28.71    0.59
   3   7  -5   29.31    1.01
   3   7  -5   31.01    0.88
   3   7  -5   21.96    0.65
   3   7  -5   23.61    0.63
  -3  -7   4   24.14    0.92
  -3  -7   4   25.36    0.90
  -3  -7   4   25.70    0.57
  -3  -7   4   26.62    0.49
   3   7  -4   26.61    0.61
   3   7  -4   26.59    0.81
   3   7  -4   31.93    0.89
   3   7  -4   23.74    0.80
   3   7  -4   29.44    1.00
   3   7  -4   24.31    0.59
   3   7  -4   24.62    0.56
  -3  -7   3  101.92    1.62
  -3  -7   3  112.34    1.57
   3   7  -3  116.05    1.20
   3   7  -3  120.19    1.22
   3   7  -3  122.99    1.73
   3   7  -3   93.66    1.52
   3   7  -3  137.86    1.63
   3   7  -3  102.14    1.40
   3   7  -3  117.69    1.60
   3   7  -3  103.50    0.92
   3   7  -3  107.62    0.93
  -3  -7   2    0.91    0.32
  -3  -7   2    1.07    0.33
   3   7  -2    1.92    0.30
   3   7  -2    1.24    0.29
   3   7  -2    1.39    0.34
   3   7  -2    1.54    0.37
   3   7  -2    1.57    0.35
   3   7  -2    1.05    0.31
   3   7  -2    1.41    0.37
   3   7  -2    1.26    0.16
   3   7  -2    1.34    0.15
  -3  -7   1    4.48    0.50
  -3  -7   1    4.43    0.52
   3   7  -1    5.14    0.46
   3   7  -1    5.14    0.46
   3   7  -1    3.76    0.42
   3   7  -1    3.61    0.44
   3   7  -1    4.64    0.55
   3   7  -1    5.19    0.56
   3   7  -1    5.49    0.55
  -3  -7   0   37.47    0.93
   3   7   0   42.27    0.92
   3   7   0   39.52    0.88
   3   7   0   40.84    1.00
   3   7   0   36.63    0.99
   3   7   0   45.37    1.05
   3   7   0   37.69    0.95
   3   7   0   36.98    0.85
   3   7   0   45.16    0.93
  -3  -7  -1    0.44    0.34
   3   7   1    0.45    0.28
   3   7   1    0.21    0.27
   3   7   1   -0.08    0.27
   3   7   1    0.08    0.30
   3   7   1    0.33    0.30
   3   7   1    0.28    0.31
   3   7   1    0.42    0.24
   3   7   1    0.27    0.26
  -3  -7  -2    0.11    0.25
  -3  -7  -2    0.33    0.29
   3   7   2    0.49    0.28
   3   7   2    0.07    0.29
   3   7   2   -0.23    0.28
   3   7   2    0.45    0.31
   3   7   2   -0.14    0.28
   3   7   2    0.47    0.25
   3   7   2    0.70    0.26
   3   7   2    0.29    0.11
   3   7   2    0.26    0.11
  -3  -7  -3    1.91    0.33
  -3  -7  -3    1.10    0.33
   3   7   3    2.11    0.38
   3   7   3    1.73    0.38
   3   7   3    1.14    0.36
   3   7   3    1.65    0.41
   3   7   3    1.50    0.40
   3   7   3    1.37    0.30
   3   7   3    1.75    0.30
   3   7   3    1.63    0.19
   3   7   3    1.80    0.18
  -3  -7  -4    2.11    0.30
  -3  -7  -4    1.80    0.36
  -3  -7  -4    1.47    0.38
  -3  -7  -4    1.48    0.16
  -3  -7  -4    1.84    0.18
   3   7   4    1.99    0.40
   3   7   4    1.28    0.38
   3   7   4    1.91    0.37
   3   7   4    2.10    0.34
   3   7   4    1.48    0.33
   3   7   4    1.60    0.24
  -3  -7  -5   30.00    0.70
  -3  -7  -5   27.36    0.97
  -3  -7  -5   28.82    1.03
  -3  -7  -5   29.40    0.59
   3   7   5   31.36    1.07
   3   7   5   29.15    1.01
   3   7   5   31.85    1.06
   3   7   5   33.21    0.85
   3   7   5   31.20    0.83
   3   7   5   32.05    0.72
   3   7   5   33.21    0.69
  -3  -7  -6    3.43    0.50
  -3  -7  -6    3.47    0.56
  -3  -7  -6    5.18    0.62
  -3  -7  -6    3.24    0.35
   3   7   6    4.09    0.55
   3   7   6    4.74    0.48
   3   7   6    4.31    0.51
   3   7   6    3.63    0.39
  -3  -7  -7   16.65    0.93
  -3  -7  -7   17.12    0.96
  -3  -7  -7   17.61    0.85
  -3  -7  -7   19.01    0.73
   3   7   7   20.99    1.00
   3   7   7   21.72    0.88
   3   7   7   20.12    0.80
   3   7   7   19.22    0.67
  -3  -7  -8    0.30    0.43
  -3  -7  -8    0.67    0.47
  -3  -7  -8   -0.29    0.45
  -3  -7  -8    0.89    0.65
   3   7   8    0.69    0.39
   3   7   8   -0.27    0.42
   3   7   8    0.43    0.41
   3   7   8    0.06    0.27
  -3  -7  -9    4.93    0.68
  -3  -7  -9    4.46    0.64
  -3  -7  -9    4.06    0.67
   3   7   9    5.55    0.66
   3   7   9    7.10    0.86
   3   7   9    6.47    0.66
  -3  -7 -10    2.92    0.64
  -3  -7 -10    1.84    0.68
   3   7  10    2.33    0.67
   3   7  10    2.30    0.61
   3   7  10    2.50    0.51
  -3  -8   9    1.48    0.58
  -3  -8   9    1.41    0.72
   3   8  -9    0.20    0.66
   3   8  -9    1.77    0.47
  -3  -8   8    2.40    0.55
  -3  -8   8    3.06    0.63
   3   8  -8    3.18    0.66
   3   8  -8    4.82    0.59
   3   8  -8    2.04    0.41
  -3  -8   7    8.26    0.87
  -3  -8   7    8.93    0.96
   3   8  -7   12.01    0.96
   3   8  -7   12.18    0.83
   3   8  -7    8.47    0.73
   3   8  -7    7.88    0.62
  -3  -8   6    8.34    0.76
  -3  -8   6    8.20    0.89
  -3  -8   6    8.72    0.56
   3   8  -6    9.08    0.48
   3   8  -6    9.65    0.90
   3   8  -6   11.54    0.78
   3   8  -6    7.15    0.80
   3   8  -6    7.73    0.61
   3   8  -6    7.77    0.53
  -3  -8   5    7.60    0.73
  -3  -8   5    8.77    0.82
  -3  -8   5    7.79    0.39
   3   8  -5    8.92    0.52
   3   8  -5   10.51    0.59
   3   8  -5    9.36    0.83
   3   8  -5   11.11    0.74
   3   8  -5    6.69    0.72
   3   8  -5    7.33    0.50
   3   8  -5    8.42    0.47
  -3  -8   4    4.39    0.58
  -3  -8   4    4.68    0.56
   3   8  -4    4.89    0.49
   3   8  -4    4.54    0.55
   3   8  -4    6.22    0.76
   3   8  -4    5.45    0.66
   3   8  -4    3.72    0.49
   3   8  -4    3.47    0.36
   3   8  -4    4.50    0.33
  -3  -8   3    0.19    0.35
  -3  -8   3    0.07    0.36
   3   8  -3   -0.08    0.27
   3   8  -3    0.17    0.31
   3   8  -3    0.68    0.36
   3   8  -3   -0.05    0.35
   3   8  -3    0.67    0.36
   3   8  -3    0.56    0.43
   3   8  -3    0.50    0.16
   3   8  -3    0.25    0.13
  -3  -8   2    0.15    0.34
  -3  -8   2    0.79    0.36
   3   8  -2    0.09    0.27
   3   8  -2    0.07    0.33
   3   8  -2    0.31    0.36
   3   8  -2    0.08    0.36
   3   8  -2    0.47    0.38
  -3  -8   1    1.61    0.40
   3   8  -1    2.15    0.38
   3   8  -1    2.18    0.41
   3   8  -1    2.18    0.39
   3   8  -1    0.99    0.44
   3   8  -1    1.93    0.42
   3   8  -1    1.26    0.39
   3   8  -1    1.59    0.36
   3   8  -1    1.85    0.43
  -3  -8   0   30.43    0.93
   3   8   0   34.71    0.94
   3   8   0   32.45    0.93
   3   8   0   34.33    1.00
   3   8   0   29.92    1.04
   3   8   0   39.45    1.08
   3   8   0   29.44    0.99
   3   8   0   30.37    0.89
   3   8   0   36.69    1.00
  -3  -8  -1    8.89    0.61
   3   8   1    9.58    0.66
   3   8   1    8.46    0.68
   3   8   1    8.95    0.67
   3   8   1    6.97    0.71
   3   8   1    9.86    0.73
   3   8   1    8.26    0.62
   3   8   1    8.30    0.66
  -3  -8  -2    5.02    0.54
  -3  -8  -2    4.01    0.46
   3   8   2    5.61    0.61
   3   8   2    4.60    0.52
   3   8   2    4.48    0.55
   3   8   2    5.11    0.56
   3   8   2    5.47    0.57
   3   8   2    4.83    0.49
  -3  -8  -3   14.63    0.76
  -3  -8  -3   14.98    0.83
   3   8   3   16.33    1.07
   3   8   3   15.20    0.89
   3   8   3   17.62    0.91
   3   8   3   16.18    0.73
   3   8   3   14.49    0.73
  -3  -8  -4   20.62    0.73
  -3  -8  -4   17.01    1.09
   3   8   4   22.78    0.98
   3   8   4   21.64    0.99
   3   8   4   23.27    0.86
   3   8   4   21.14    0.84
   3   8   4   20.39    0.50
   3   8   4   21.16    0.48
  -3  -8  -5    9.16    0.60
  -3  -8  -5    7.58    0.78
  -3  -8  -5    8.68    0.88
   3   8   5    8.58    0.80
   3   8   5    7.67    0.80
   3   8   5    8.31    0.70
   3   8   5    8.39    0.74
   3   8   5    7.85    0.49
   3   8   5    8.50    0.43
  -3  -8  -6    2.38    0.54
  -3  -8  -6    2.11    0.54
  -3  -8  -6    2.10    0.31
   3   8   6    2.45    0.52
   3   8   6    3.79    0.51
   3   8   6    2.28    0.49
   3   8   6    2.99    0.40
   3   8   6    2.89    0.33
  -3  -8  -7    2.32    0.56
  -3  -8  -7    1.64    0.51
  -3  -8  -7    1.18    0.54
  -3  -8  -7    1.95    0.38
   3   8   7    1.64    0.49
   3   8   7    1.55    0.51
   3   8   7    1.96    0.44
   3   8   7    1.91    0.32
  -3  -8  -8    0.68    0.51
  -3  -8  -8   -0.07    0.49
   3   8   8   -0.14    0.46
   3   8   8   -0.43    0.54
   3   8   8   -0.15    0.29
  -3  -8  -9    4.90    0.76
  -3  -8  -9    4.60    0.80
   3   8   9    6.66    0.79
   3   8   9    5.91    0.74
   3   8   9    4.55    0.52
  -3  -9   8    2.81    0.78
   3   9  -8    2.33    0.69
  -3  -9   7   27.46    1.26
  -3  -9   7   25.78    1.37
   3   9  -7   32.06    1.39
   3   9  -7   22.46    0.78
  -3  -9   6   20.70    1.09
  -3  -9   6   22.06    1.25
   3   9  -6   26.84    1.28
   3   9  -6   28.40    1.05
   3   9  -6   19.85    0.74
   3   9  -6   19.17    0.64
  -3  -9   5   14.44    0.96
  -3  -9   5   15.66    1.07
   3   9  -5   16.47    0.74
   3   9  -5   18.43    1.06
   3   9  -5   19.76    0.94
   3   9  -5   14.38    0.57
   3   9  -5   13.33    0.49
  -3  -9   4    0.94    0.45
  -3  -9   4    0.79    0.51
   3   9  -4    0.33    0.37
   3   9  -4    0.34    0.46
   3   9  -4    1.01    0.47
   3   9  -4    1.18    0.51
   3   9  -4    1.16    0.32
   3   9  -4    0.26    0.17
  -3  -9   3   35.32    1.20
  -3  -9   3   36.27    1.22
   3   9  -3   37.62    0.98
   3   9  -3   38.26    1.06
   3   9  -3   39.51    1.28
   3   9  -3   43.62    1.19
   3   9  -3   31.76    1.11
  -3  -9   2    6.03    0.70
   3   9  -2    6.99    0.68
   3   9  -2    6.30    0.77
   3   9  -2    5.98    0.61
   3   9  -2    8.78    0.83
   3   9  -2    4.91    0.56
  -3  -9   1   55.93    1.34
   3   9  -1   62.70    1.28
   3   9  -1   56.39    1.29
   3   9  -1   63.33    1.44
   3   9  -1   68.44    1.44
  -3  -9   0   21.38    0.91
   3   9   0   24.46    0.96
   3   9   0   24.16    1.02
   3   9   0   20.94    0.93
   3   9   0   24.50    1.05
  -3  -9  -1   48.79    1.17
   3   9   1   52.92    1.31
   3   9   1   55.91    1.39
   3   9   1   47.70    1.17
   3   9   1   48.28    1.24
  -3  -9  -2    8.45    0.69
   3   9   2    9.76    0.80
   3   9   2    8.14    0.79
   3   9   2    9.60    0.90
   3   9   2    7.28    0.73
   3   9   2    8.79    0.85
  -3  -9  -3    9.87    0.73
  -3  -9  -3    9.41    0.84
   3   9   3   12.71    0.88
   3   9   3    8.80    0.82
   3   9   3   11.98    0.96
   3   9   3   11.04    0.82
   3   9   3   10.86    0.86
  -3  -9  -4   44.07    1.10
  -3  -9  -4   40.02    1.27
   3   9   4   51.43    1.44
   3   9   4   51.03    1.49
   3   9   4   47.44    1.24
   3   9   4   42.93    1.23
  -3  -9  -5    1.24    0.49
   3   9   5    1.90    0.56
   3   9   5    2.12    0.54
   3   9   5    1.16    0.48
   3   9   5    1.58    0.56
   3   9   5    1.67    0.29
   3   9   5    1.55    0.24
  -3  -9  -6   42.28    1.42
  -3  -9  -6   44.71    1.54
   3   9   6   55.57    1.58
   3   9   6   51.56    1.57
   3   9   6   50.93    1.58
   3   9   6   49.64    0.95
   3   9   6   49.86    0.89
  -3  -9  -7    4.99    0.70
  -3  -9  -7    4.89    0.79
   3   9   7    5.22    0.73
   3   9   7    3.72    0.70
   3   9   7    5.32    0.73
   3   9   7    4.22    0.44
  -3  -9  -8    6.68    0.86
  -3  -9  -8    9.44    1.00
   3   9   8    8.92    1.11
   3   9   8   11.64    1.22
   3   9   8    8.73    0.69
  -3 -10   6   21.16    1.45
   3  10  -6   26.02    1.45
   3  10  -6   18.83    0.71
   3  10  -6   17.59    0.62
  -3 -10   5    1.17    0.49
  -3 -10   5    1.77    0.69
   3  10  -5    0.05    0.59
   3  10  -5    2.19    0.66
  -3 -10   4   47.75    1.49
  -3 -10   4   44.70    1.54
   3  10  -4   48.40    1.19
   3  10  -4   53.37    1.57
   3  10  -4   58.51    1.46
   3  10  -4   42.63    1.45
  -3 -10   3    0.10    0.43
   3  10  -3    0.08    0.43
   3  10  -3    0.15    0.54
   3  10  -3   -1.07    0.47
  -3 -10   2   47.85    1.41
   3  10  -2   57.05    1.36
   3  10  -2   59.29    1.56
   3  10  -2   61.41    1.51
   3  10  -2   44.55    1.40
  -3 -10   1   14.63    0.93
   3  10  -1   15.17    0.96
   3  10  -1   16.57    1.08
   3  10  -1   16.00    1.03
   3  10  -1   13.29    1.00
  -3 -10   0   27.80    1.10
   3  10   0   30.04    1.16
   3  10   0   30.15    1.23
   3  10   0   31.14    1.25
   3  10   0   27.18    1.17
  -3 -10  -1   51.43    1.31
   3  10   1   54.90    1.45
   3  10   1   56.19    1.49
   3  10   1   56.86    1.56
   3  10   1   50.15    1.37
  -3 -10  -2    4.59    0.57
   3  10   2    5.11    0.67
   3  10   2    3.53    0.60
   3  10   2    4.56    0.66
   3  10   2    4.61    0.66
  -3 -10  -3   45.42    1.21
   3  10   3   49.99    1.50
   3  10   3   44.27    1.40
   3  10   3   46.21    1.53
   3  10   3   44.29    1.37
  -3 -10  -4    0.10    0.51
   3  10   4    0.57    0.62
   3  10   4   -0.36    0.55
   3  10   4    0.20    0.58
   3  10   4    0.82    0.60
  -3 -10  -5   30.60    1.37
   3  10   5   38.31    1.56
   3  10   5   36.25    1.56
   3  10   5   36.19    1.37
  -3 -10  -6    2.92    0.71
   3  10   6    4.36    0.83
   3  10   6    2.49    0.70
   3  10   6    3.06    0.72
   3  10   6    2.83    0.39
   3  10   6    2.54    0.31
  -3 -11   2   20.10    1.14
   3  11  -2   19.99    1.22
   3  11  -2   18.60    1.37
   3  11  -2   23.38    1.42
   3  11  -2   19.48    1.33
  -3 -11   1   16.72    1.09
   3  11  -1   19.69    1.23
   3  11  -1   15.92    1.28
   3  11  -1   20.32    1.34
   3  11  -1   13.98    1.26
  -3 -11   0   13.35    1.00
   3  11   0   13.43    1.16
   3  11   0   15.79    1.22
   3  11   0   15.32    1.27
   3  11   0   11.44    1.18
  -3 -11  -1    3.75    0.65
   3  11   1    2.88    0.70
   3  11   1    4.13    0.76
   3  11   1    3.21    0.80
   3  11   1    3.06    0.69
  -3 -11  -2   38.81    1.30
   3  11   2   41.06    1.54
   3  11   2   39.07    1.53
   3  11   2   38.45    1.63
   3  11   2   39.50    1.55
  -4   8   4    1.27    0.68
  -4   8   4    2.99    0.52
   4  -8  -4    2.96    0.73
   4  -8  -4    2.76    0.74
  -4   8   3    0.96    0.60
  -4   8   3    1.15    0.60
  -4   8   3    1.26    0.40
   4  -8  -3   -0.30    0.59
   4  -8  -3   -0.25    0.62
  -4   8   2   -0.28    0.50
  -4   8   2    0.78    0.63
  -4   8   2    0.55    0.40
   4  -8  -2   -0.37    0.54
   4  -8  -2    0.31    0.60
  -4   8   1    2.17    0.57
  -4   8   1    1.40    0.62
  -4   8   1    2.05    0.43
   4  -8  -1    2.86    0.68
   4  -8  -1    2.59    0.56
  -4   8   0    1.12    0.53
  -4   8   0   -0.31    0.54
  -4   8   0    0.03    0.33
   4  -8   0    1.20    0.54
   4  -8   0    0.60    0.49
  -4   8  -1    2.07    0.61
  -4   8  -1    3.31    0.66
  -4   8  -1    2.30    0.43
   4  -8   1    1.75    0.56
   4  -8   1    1.81    0.47
  -4   8  -2   -0.34    0.47
  -4   8  -2   -0.61    0.55
  -4   8  -2   -0.07    0.35
   4  -8   2    0.36    0.53
  -4   8  -3    8.35    0.99
  -4   8  -3    8.13    0.86
  -4   8  -3    8.20    0.72
   4  -8   3   11.07    1.07
  -4   8  -4    1.41    0.59
  -4   8  -4    1.50    0.72
  -4   8  -4    1.18    0.41
   4  -8   4    1.65    0.64
  -4   8  -5    0.58    0.54
  -4   8  -5    0.10    0.62
  -4   8  -5    0.28    0.40
   4  -8   5    0.39    0.63
  -4   7   6    0.73    0.58
  -4   7   6   -0.96    0.57
  -4   7   6    0.20    0.49
   4  -7  -6    1.75    0.69
  -4   7   5    2.41    0.61
  -4   7   5    2.75    0.66
  -4   7   5    2.89    0.49
   4  -7  -5    1.29    0.58
   4  -7  -5    2.49    0.66
  -4   7   4    8.19    0.90
  -4   7   4    8.13    1.00
  -4   7   4    8.81    0.76
   4  -7  -4    9.79    1.01
   4  -7  -4    9.97    1.00
  -4   7   3    0.25    0.48
  -4   7   3    1.17    0.56
  -4   7   3   -0.46    0.32
   4  -7  -3    0.27    0.47
   4  -7  -3    0.86    0.51
  -4   7   2   29.30    1.07
  -4   7   2   27.62    1.24
  -4   7   2   26.80    0.92
   4  -7  -2   27.68    1.19
   4  -7  -2   18.78    1.23
  -4   7   1    0.33    0.44
  -4   7   1    0.07    0.56
  -4   7   1    0.42    0.48
  -4   7   1   -0.34    0.40
  -4   7   1    0.16    0.31
   4  -7  -1    0.25    0.38
   4  -7  -1    0.54    0.41
  -4   7   0    0.63    0.47
  -4   7   0    0.94    0.52
  -4   7   0    1.26    0.50
  -4   7   0    1.19    0.44
  -4   7   0    0.45    0.34
   4  -7   0    1.17    0.46
   4  -7   0    0.25    0.38
   4  -7   0    0.51    0.49
  -4   7  -1   15.87    0.95
  -4   7  -1   18.10    0.90
  -4   7  -1   14.17    1.00
  -4   7  -1   16.87    0.89
  -4   7  -1   12.50    0.71
   4  -7   1   13.24    0.95
   4  -7   1   14.72    0.74
   4  -7   1   15.36    0.93
  -4   7  -2   13.41    0.95
  -4   7  -2   12.88    0.95
  -4   7  -2   15.88    0.90
  -4   7  -2   12.59    0.72
   4  -7   2   14.52    0.94
   4  -7   2   13.39    0.67
  -4   7  -3   20.28    1.07
  -4   7  -3   19.64    1.13
  -4   7  -3   16.71    0.79
   4  -7   3   18.38    1.03
   4  -7   3   20.00    0.59
  -4   7  -4   -0.32    0.43
  -4   7  -4   -0.60    0.45
  -4   7  -4    0.23    0.33
   4  -7   4   -0.01    0.43
  -4   7  -5   13.57    0.98
  -4   7  -5   13.01    1.08
  -4   7  -5   10.70    0.79
   4  -7   5   12.73    1.01
  -4   7  -6   -0.05    0.49
  -4   7  -6    0.20    0.56
  -4   7  -6   -0.22    0.57
  -4   7  -6    0.31    0.39
   4  -7   6    0.88    0.57
  -4   7  -7    4.08    0.70
  -4   7  -7    3.43    0.72
  -4   7  -7    5.80    0.62
   4  -7   7    6.48    0.83
  -4   7  -8    4.99    0.91
  -4   7  -8    8.84    0.96
   4  -7   8    5.45    0.86
  -4   6   8   21.75    1.30
  -4   6   8   14.49    1.30
  -4   6   8   16.74    1.15
   4  -6  -8   18.27    1.37
  -4   6   7    6.63    0.77
  -4   6   7    5.07    0.76
  -4   6   7    7.31    0.74
   4  -6  -7    5.19    0.78
  -4   6   6   17.08    1.05
  -4   6   6   12.86    1.04
  -4   6   6   12.51    0.88
   4  -6  -6   11.50    1.06
  -4   6   5   60.01    1.16
  -4   6   5   62.84    1.57
  -4   6   5   57.23    1.36
   4  -6  -5   59.41    1.53
   4  -6  -5   50.80    1.47
  -4   6   4    1.56    0.46
  -4   6   4    1.50    0.49
  -4   6   4    1.64    0.49
  -4   6   4    1.19    0.39
   4  -6  -4    0.93    0.42
   4  -6  -4    0.99    0.46
   4  -6  -4    1.22    0.47
  -4   6   3   42.99    1.10
  -4   6   3   43.71    1.31
  -4   6   3   43.13    1.17
  -4   6   3   43.04    1.09
   4  -6  -3   40.06    1.25
   4  -6  -3   44.97    1.14
  -4   6   2    3.56    0.49
  -4   6   2    3.36    0.56
  -4   6   2    2.34    0.48
  -4   6   2    3.83    0.51
  -4   6   2    3.44    0.44
   4  -6  -2    3.56    0.51
   4  -6  -2    2.68    0.48
   4  -6  -2    3.98    0.50
  -4   6   1   84.96    1.48
  -4   6   1   98.24    1.53
  -4   6   1   82.77    1.65
  -4   6   1   87.06    1.45
  -4   6   1   81.04    1.36
   4  -6  -1   82.87    1.62
   4  -6  -1   76.31    1.34
   4  -6  -1   88.21    1.39
  -4   6   0    7.98    0.70
  -4   6   0   10.08    0.73
  -4   6   0    8.35    0.77
  -4   6   0    8.51    0.84
  -4   6   0    7.41    0.60
   4  -6   0    7.60    0.71
   4  -6   0    7.67    0.61
   4  -6   0    7.69    0.67
  -4   6  -1   21.24    0.93
  -4   6  -1   30.02    0.87
  -4   6  -1   20.64    0.96
  -4   6  -1   24.00    1.06
  -4   6  -1   21.28    0.79
   4  -6   1   22.21    0.95
   4  -6   1   21.05    0.73
   4  -6   1   22.95    0.87
  -4   6  -2   83.60    1.59
  -4   6  -2  112.45    1.25
  -4   6  -2   83.01    1.64
  -4   6  -2   94.80    1.52
  -4   6  -2   78.15    1.33
   4  -6   2   83.95    1.62
   4  -6   2   81.74    1.07
   4  -6   2   89.26    1.40
  -4   6  -3    0.83    0.40
  -4   6  -3    1.27    0.23
  -4   6  -3    1.42    0.25
  -4   6  -3    1.76    0.29
  -4   6  -3    1.71    0.44
  -4   6  -3    1.31    0.44
  -4   6  -3    1.66    0.37
   4  -6   3    1.87    0.46
   4  -6   3    1.22    0.25
   4  -6   3    2.05    0.44
  -4   6  -4   48.67    1.34
  -4   6  -4   49.03    0.83
  -4   6  -4   45.37    1.33
  -4   6  -4   55.46    1.27
  -4   6  -4   44.55    1.10
   4  -6   4   45.15    1.28
   4  -6   4   49.40    1.19
  -4   6  -5    2.04    0.50
  -4   6  -5    1.52    0.35
  -4   6  -5    0.92    0.50
  -4   6  -5    1.83    0.51
  -4   6  -5    1.60    0.37
   4  -6   5    2.03    0.53
   4  -6   5    1.41    0.38
   4  -6   5    1.33    0.51
  -4   6  -6   32.35    1.23
  -4   6  -6   33.87    0.96
  -4   6  -6   31.01    1.26
  -4   6  -6   30.77    1.07
   4  -6   6   34.98    1.25
   4  -6   6   34.47    1.01
  -4   6  -7   13.15    0.99
  -4   6  -7   13.44    0.87
  -4   6  -7   13.73    1.12
  -4   6  -7   13.78    0.92
   4  -6   7   13.14    0.98
   4  -6   7   14.32    0.98
  -4   6  -8    3.13    0.67
  -4   6  -8    3.33    0.60
  -4   6  -8    3.03    0.66
  -4   6  -8    2.62    0.58
   4  -6   8    4.14    0.73
   4  -6   8    2.66    0.67
  -4   6  -9   11.28    1.07
  -4   6  -9   10.38    1.11
  -4   6  -9   11.67    1.09
   4  -6   9    9.33    0.93
   4  -6   9   11.85    1.19
  -4   5   9   10.38    1.12
  -4   5   9    8.31    0.87
  -4   5   9   10.27    1.09
   4  -5  -9   10.61    1.16
  -4   5   8   23.31    1.18
  -4   5   8   20.04    1.20
  -4   5   8   19.75    1.11
   4  -5  -8   18.24    1.17
  -4   5   7   12.43    0.96
  -4   5   7   11.44    1.04
  -4   5   7   11.14    0.91
   4  -5  -7    8.61    0.55
   4  -5  -7   11.38    0.99
  -4   5   6   40.38    1.25
  -4   5   6   34.49    1.01
  -4   5   6   33.95    1.24
  -4   5   6   37.61    1.15
   4  -5  -6   34.36    1.19
   4  -5  -6   29.15    0.57
   4  -5  -6   30.07    1.17
   4  -5  -6   39.03    1.26
  -4   5   5    1.01    0.36
  -4   5   5    0.23    0.37
  -4   5   5    1.32    0.43
  -4   5   5    0.94    0.36
   4  -5  -5    0.32    0.41
   4  -5  -5    1.02    0.43
   4  -5  -5    1.17    0.44
  -4   5   4   70.77    1.17
  -4   5   4   70.81    1.53
  -4   5   4   69.38    1.37
  -4   5   4   72.47    1.37
   4  -5  -4   70.93    1.49
   4  -5  -4   78.11    1.41
  -4   5   3    6.02    0.75
  -4   5   3    6.91    0.70
  -4   5   3    6.88    0.73
  -4   5   3    6.67    0.66
  -4   5   3    6.24    0.57
   4  -5  -3    6.34    0.64
   4  -5  -3    5.53    0.65
   4  -5  -3    6.33    0.65
  -4   5   2   91.37    1.38
  -4   5   2  106.38    1.56
  -4   5   2   90.13    1.62
  -4   5   2   88.95    1.42
  -4   5   2   84.73    1.40
   4  -5  -2   77.24    1.35
   4  -5  -2   92.25    1.40
  -4   5   1   84.95    1.37
  -4   5   1  103.73    1.45
  -4   5   1   72.75    1.55
  -4   5   1   86.01    1.36
  -4   5   1   65.52    1.86
   4  -5  -1   80.08    1.63
   4  -5  -1   73.52    1.24
   4  -5  -1   86.33    1.32
  -4   5   0   28.77    0.91
  -4   5   0   34.63    0.86
  -4   5   0   22.35    1.42
  -4   5   0   27.58    0.85
  -4   5   0   26.20    0.84
   4  -5   0   27.66    0.94
   4  -5   0   24.88    0.75
   4  -5   0   30.31    0.87
  -4   5  -1   96.88    1.55
  -4   5  -1  124.80    1.36
  -4   5  -1   86.50    1.81
  -4   5  -1   93.97    2.14
  -4   5  -1  103.00    1.45
  -4   5  -1   89.59    1.41
   4  -5   1   93.69    1.58
   4  -5   1   89.64    1.16
   4  -5   1  102.97    1.41
  -4   5  -2    3.34    0.46
  -4   5  -2    5.15    0.47
  -4   5  -2    2.09    0.51
  -4   5  -2    3.46    0.43
  -4   5  -2    2.41    0.51
   4  -5   2    3.04    0.43
   4  -5   2    3.37    0.33
   4  -5   2    4.12    0.46
  -4   5  -3  100.19    1.66
  -4   5  -3   99.75    0.91
  -4   5  -3  127.27    1.05
  -4   5  -3   75.85    2.02
  -4   5  -3  114.38    1.58
  -4   5  -3   89.46    1.46
   4  -5   3   92.24    2.48
   4  -5   3  106.31    0.94
   4  -5   3   99.53    0.93
   4  -5   3  103.69    1.48
  -4   5  -4    0.03    0.37
  -4   5  -4   -0.13    0.22
  -4   5  -4   -0.36    0.30
  -4   5  -4    0.01    0.36
  -4   5  -4   -0.10    0.26
   4  -5   4    0.15    0.38
   4  -5   4    0.20    0.34
  -4   5  -5   26.05    1.00
  -4   5  -5   26.53    0.74
  -4   5  -5   25.01    1.02
  -4   5  -5   32.54    1.04
  -4   5  -5   24.49    0.89
   4  -5   5   27.83    1.02
   4  -5   5   29.49    0.79
   4  -5   5   27.49    0.98
  -4   5  -6   23.13    1.02
  -4   5  -6   24.06    0.81
  -4   5  -6   23.35    1.03
  -4   5  -6   26.94    1.04
  -4   5  -6   22.60    0.90
   4  -5   6   22.67    0.98
   4  -5   6   22.98    0.85
   4  -5   6   24.54    1.03
  -4   5  -7   26.11    1.10
  -4   5  -7   24.78    0.94
  -4   5  -7   26.18    1.06
   4  -5   7   25.04    1.06
   4  -5   7   22.40    0.97
   4  -5   7   27.88    1.15
   4  -5   7   26.21    1.11
  -4   5  -8   24.80    1.15
  -4   5  -8   24.14    1.08
   4  -5   8   23.47    1.09
   4  -5   8   24.35    1.17
  -4   5  -9    6.45    0.78
  -4   5  -9    4.09    0.64
  -4   5  -9    4.78    0.61
   4  -5   9    4.80    0.66
   4  -5   9    5.32    0.78
  -4   5 -10   23.72    1.23
  -4   5 -10   24.26    1.28
  -4   5 -10   23.34    1.27
   4  -5  10   20.52    1.18
   4  -5  10   20.91    1.32
  -4   4  10   13.92    1.14
  -4   4  10    8.22    0.90
  -4   4  10   11.25    1.29
   4  -4 -10    6.01    0.68
   4  -4 -10   12.80    1.19
  -4   4   9   23.83    1.15
  -4   4   9   17.51    1.15
  -4   4   9   22.34    1.16
   4  -4  -9    6.39    0.59
   4  -4  -9   18.17    1.15
  -4   4   8    2.08    0.54
  -4   4   8    1.19    0.56
  -4   4   8    3.02    0.62
   4  -4  -8    1.07    0.36
   4  -4  -8    2.04    0.53
  -4   4   7   34.26    1.13
  -4   4   7   31.70    0.80
  -4   4   7   29.94    1.17
  -4   4   7   30.84    1.21
  -4   4   7   32.91    1.16
   4  -4  -7   23.96    0.71
   4  -4  -7   30.93    1.16
   4  -4  -7   33.71    1.20
  -4   4   6    0.65    0.51
  -4   4   6    0.33    0.36
  -4   4   6   -0.18    0.22
  -4   4   6   -0.24    0.39
  -4   4   6    0.06    0.38
  -4   4   6   -0.14    0.32
   4  -4  -6   -0.11    0.41
   4  -4  -6   -0.18    0.21
   4  -4  -6    0.25    0.39
   4  -4  -6    0.10    0.45
  -4   4   5   19.93    0.70
  -4   4   5   19.45    0.44
  -4   4   5   20.22    0.90
  -4   4   5   18.44    0.87
  -4   4   5   18.24    1.33
   4  -4  -5   18.10    0.86
   4  -4  -5   16.43    0.42
   4  -4  -5   20.93    0.87
  -4   4   4   39.80    0.89
  -4   4   4   44.47    1.33
  -4   4   4   34.92    1.11
  -4   4   4   38.69    1.02
  -4   4   4   38.91    1.02
   4  -4  -4   35.62    1.03
   4  -4  -4   35.83    1.04
   4  -4  -4   30.97    0.89
  -4   4   3   61.74    1.25
  -4   4   3   63.01    1.09
  -4   4   3   73.95    1.32
  -4   4   3   64.07    1.32
  -4   4   3   61.61    1.19
  -4   4   3   59.86    1.18
   4  -4  -3   60.26    1.24
   4  -4  -3   56.49    1.17
   4  -4  -3   52.24    1.06
  -4   4   2   34.55    0.95
  -4   4   2   35.35    0.89
  -4   4   2   41.45    0.98
  -4   4   2   36.42    1.01
  -4   4   2   35.35    0.93
  -4   4   2   35.76    0.90
   4  -4  -2   33.16    0.95
   4  -4  -2   32.63    0.88
   4  -4  -2   37.13    0.94
   4  -4  -2   32.38    0.82
  -4   4   1   41.34    1.02
  -4   4   1   35.05    1.11
  -4   4   1   48.89    0.98
  -4   4   1   41.05    1.05
  -4   4   1   40.14    0.95
  -4   4   1   37.06    0.89
   4  -4  -1   38.88    1.00
   4  -4  -1   35.23    0.85
   4  -4  -1   35.83    0.96
   4  -4  -1   44.37    0.96
   4  -4  -1   35.67    0.83
  -4   4   0   49.28    1.11
  -4   4   0   45.93    1.01
  -4   4   0   60.18    1.00
  -4   4   0   46.93    1.08
  -4   4   0   46.25    1.06
  -4   4   0   49.32    1.01
  -4   4   0   44.65    0.95
   4  -4   0   45.62    1.06
   4  -4   0   40.54    0.84
   4  -4   0   49.63    0.99
   4  -4   0   45.35    0.91
  -4   4  -1   26.38    0.91
  -4   4  -1   23.87    0.80
  -4   4  -1   30.22    0.70
  -4   4  -1   21.50    0.78
  -4   4  -1   25.27    0.83
  -4   4  -1   27.16    0.80
  -4   4  -1   22.01    0.72
   4  -4   1   23.15    0.81
   4  -4   1   20.84    0.59
   4  -4   1   24.80    0.77
   4  -4   1   22.99    0.69
  -4   4  -2   83.79    1.42
  -4   4  -2   71.97    1.29
  -4   4  -2   69.03    0.59
  -4   4  -2   95.91    1.06
  -4   4  -2   70.45    1.28
  -4   4  -2   76.53    1.31
  -4   4  -2   80.09    1.26
  -4   4  -2   67.42    1.15
   4  -4   2   73.54    1.33
   4  -4   2   78.93    0.63
   4  -4   2   65.92    0.86
   4  -4   2   74.29    1.19
   4  -4   2   74.46    1.16
  -4   4  -3   24.35    0.87
  -4   4  -3   20.83    0.83
  -4   4  -3   21.40    0.50
  -4   4  -3   27.42    0.52
  -4   4  -3   19.94    0.80
  -4   4  -3   22.67    0.81
  -4   4  -3   26.01    0.82
  -4   4  -3   20.67    0.73
   4  -4   3   22.00    0.84
   4  -4   3   24.46    0.52
   4  -4   3   21.14    0.48
   4  -4   3   22.99    0.82
   4  -4   3   21.81    0.70
  -4   4  -4  213.66    2.29
  -4   4  -4  182.21    2.12
  -4   4  -4  186.63    1.47
  -4   4  -4  222.44    0.97
  -4   4  -4  177.71    2.01
  -4   4  -4  206.88    2.15
  -4   4  -4  226.71    2.16
  -4   4  -4  181.24    1.94
   4  -4   4  191.30    2.13
   4  -4   4  159.00    1.99
   4  -4   4  185.57    0.90
   4  -4   4  189.41    1.91
  -4   4  -5    0.01    0.32
  -4   4  -5    0.90    0.26
  -4   4  -5    0.45    0.32
  -4   4  -5    0.59    0.38
  -4   4  -5    0.11    0.34
  -4   4  -5    0.37    0.29
   4  -4   5    1.06    0.33
   4  -4   5    0.94    0.29
   4  -4   5   -0.12    0.29
  -4   4  -6   50.72    1.26
  -4   4  -6   55.49    1.07
  -4   4  -6   64.62    1.79
  -4   4  -6   64.57    1.34
  -4   4  -6   50.17    1.32
   4  -4   6   51.84    1.29
   4  -4   6   48.19    1.03
   4  -4   6   53.71    1.51
   4  -4   6   56.89    1.26
  -4   4  -7   45.66    1.27
  -4   4  -7   45.38    1.07
  -4   4  -7   57.32    1.36
  -4   4  -7   41.38    1.16
   4  -4   7   47.07    1.23
   4  -4   7   36.76    1.03
   4  -4   7   45.83    1.24
   4  -4   7   48.78    1.28
  -4   4  -8    9.45    0.81
  -4   4  -8    9.20    0.76
  -4   4  -8   11.63    0.98
  -4   4  -8    7.91    0.79
   4  -4   8    9.33    0.82
   4  -4   8    5.63    0.63
   4  -4   8    9.71    0.85
   4  -4   8   10.39    0.90
  -4   4  -9   26.51    1.13
  -4   4  -9   23.22    1.04
  -4   4  -9   25.16    1.15
   4  -4   9   19.92    1.04
   4  -4   9   25.58    1.15
  -4   4 -10    2.80    0.61
  -4   4 -10    2.37    0.60
  -4   4 -10    3.03    0.57
   4  -4  10    2.36    0.58
   4  -4  10    2.44    0.62
  -4   4 -11   23.85    1.26
  -4   4 -11   22.70    1.31
  -4   4 -11   23.23    1.41
   4  -4  11   17.82    1.22
   4  -4  11   20.18    1.33
  -4   3  11    0.02    0.64
  -4   3  11    0.77    0.56
  -4   3  11    0.41    0.70
   4  -3 -11    0.28    0.59
   4  -3 -11    0.93    0.67
  -4   3  10    7.52    0.94
  -4   3  10    4.33    0.62
  -4   3  10    6.08    0.85
   4  -3 -10    4.13    0.73
   4  -3 -10    5.67    0.76
  -4   3   9    4.37    0.58
  -4   3   9    4.21    0.57
  -4   3   9    3.15    0.51
  -4   3   9    2.54    0.50
   4  -3  -9    2.70    0.47
   4  -3  -9    3.14    0.59
   4  -3  -9    6.00    0.80
  -4   3   8   11.52    0.80
  -4   3   8   11.90    0.76
  -4   3   8    8.22    0.80
  -4   3   8   10.07    0.99
  -4   3   8   10.24    0.90
   4  -3  -8    5.57    0.61
   4  -3  -8    8.06    0.79
   4  -3  -8   10.59    0.94
  -4   3   7   15.54    0.80
  -4   3   7   14.14    0.64
  -4   3   7   14.07    0.64
  -4   3   7   12.94    0.87
  -4   3   7   14.03    0.98
  -4   3   7   15.01    0.89
   4  -3  -7    6.94    0.53
   4  -3  -7   13.38    0.84
   4  -3  -7   16.07    0.98
  -4   3   6   26.46    0.90
  -4   3   6   21.50    0.89
  -4   3   6   23.05    0.69
  -4   3   6   24.37    0.64
  -4   3   6   21.77    0.94
  -4   3   6   21.20    0.91
  -4   3   6   22.27    0.91
   4  -3  -6   21.25    0.82
   4  -3  -6   11.94    0.50
   4  -3  -6   19.47    0.92
   4  -3  -6   25.93    0.97
   4  -3  -6   18.14    0.85
  -4   3   5   19.94    0.82
  -4   3   5   21.06    0.67
  -4   3   5   21.09    0.52
  -4   3   5   20.61    0.86
  -4   3   5   18.94    0.80
  -4   3   5   20.22    0.83
   4  -3  -5   18.04    0.76
   4  -3  -5   14.91    0.46
   4  -3  -5   20.19    0.86
   4  -3  -5   15.70    0.82
   4  -3  -5   21.56    0.83
   4  -3  -5   17.96    0.78
  -4   3   4    6.73    0.59
  -4   3   4    6.95    0.49
  -4   3   4    7.08    0.29
  -4   3   4    8.64    0.58
  -4   3   4    7.41    0.59
  -4   3   4    7.00    0.56
  -4   3   4    7.64    0.57
   4  -3  -4    7.84    0.58
   4  -3  -4    6.14    0.43
   4  -3  -4    6.91    0.61
   4  -3  -4    6.65    0.57
   4  -3  -4    7.59    0.58
   4  -3  -4    5.48    0.54
  -4   3   3   29.39    0.83
  -4   3   3   27.52    0.74
  -4   3   3   32.92    0.88
  -4   3   3   28.60    0.90
  -4   3   3   30.21    0.84
  -4   3   3   27.19    0.81
   4  -3  -3   27.05    0.82
   4  -3  -3   27.52    0.83
   4  -3  -3   23.95    0.78
   4  -3  -3   30.52    0.84
   4  -3  -3   26.27    0.78
  -4   3   2    0.73    0.25
  -4   3   2    1.38    0.30
  -4   3   2    0.97    0.28
  -4   3   2    1.16    0.29
  -4   3   2    1.03    0.30
  -4   3   2    1.06    0.26
   4  -3  -2    1.64    0.33
   4  -3  -2    0.92    0.28
   4  -3  -2    0.71    0.27
   4  -3  -2    0.72    0.24
   4  -3  -2    1.08    0.25
  -4   3   1   18.88    0.68
  -4   3   1   15.48    0.62
  -4   3   1   20.68    0.65
  -4   3   1   16.66    0.68
  -4   3   1   17.57    0.65
  -4   3   1   14.81    0.61
   4  -3  -1   16.51    0.66
   4  -3  -1   16.59    0.61
   4  -3  -1   14.80    0.60
   4  -3  -1   17.82    0.65
   4  -3  -1   14.43    0.56
  -4   3   0   13.93    0.62
  -4   3   0   12.49    0.56
  -4   3   0   15.60    0.56
  -4   3   0   12.31    0.60
  -4   3   0   12.68    0.57
  -4   3   0   11.34    0.55
   4  -3   0   11.07    0.57
   4  -3   0   25.97    0.66
   4  -3   0   12.42    0.55
   4  -3   0   12.42    0.56
   4  -3   0   12.41    0.51
  -4   3  -1   23.84    0.77
  -4   3  -1   25.96    0.61
  -4   3  -1   18.44    0.66
  -4   3  -1   21.89    0.70
  -4   3  -1   22.09    0.70
  -4   3  -1   17.53    0.61
   4  -3   1   20.35    0.70
   4  -3   1   19.41    0.55
   4  -3   1   20.94    0.67
   4  -3   1   19.99    0.63
  -4   3  -2    4.52    0.51
  -4   3  -2    2.85    0.36
  -4   3  -2    4.30    0.33
  -4   3  -2    2.46    0.33
  -4   3  -2    3.93    0.48
  -4   3  -2    4.02    0.44
  -4   3  -2    2.70    0.33
   4  -3   2    3.85    0.42
   4  -3   2    3.65    0.24
   4  -3   2    3.19    0.32
   4  -3   2    3.47    0.43
   4  -3   2    3.26    0.37
  -4   3  -3   36.07    0.94
  -4   3  -3   29.68    0.85
  -4   3  -3   30.56    0.57
  -4   3  -3   37.71    0.58
  -4   3  -3   28.62    0.80
  -4   3  -3   31.78    0.83
  -4   3  -3   36.03    0.88
  -4   3  -3   30.11    0.81
   4  -3   3   31.64    0.86
   4  -3   3   28.37    0.54
   4  -3   3   28.15    0.51
   4  -3   3   31.31    0.82
   4  -3   3   33.50    0.82
  -4   3  -4   24.89    0.83
  -4   3  -4   21.15    0.79
  -4   3  -4   20.92    0.57
  -4   3  -4   24.53    0.42
  -4   3  -4   20.05    0.73
  -4   3  -4   23.36    0.77
  -4   3  -4   25.39    0.81
  -4   3  -4   20.93    0.73
   4  -3   4   23.16    0.79
   4  -3   4   16.69    0.61
   4  -3   4   19.93    0.38
   4  -3   4   22.41    0.75
   4  -3   4   22.66    0.73
  -4   3  -5   53.66    1.12
  -4   3  -5   45.25    1.11
  -4   3  -5   43.65    0.86
  -4   3  -5   50.90    1.08
  -4   3  -5   53.41    1.13
  -4   3  -5   44.03    1.04
   4  -3   5   46.47    1.08
   4  -3   5   38.15    0.80
   4  -3   5   44.87    1.02
   4  -3   5   45.04    1.03
   4  -3   5   47.86    1.04
  -4   3  -6   22.97    0.86
  -4   3  -6   18.44    0.84
  -4   3  -6   20.20    0.72
  -4   3  -6   22.83    0.88
  -4   3  -6   24.45    0.89
  -4   3  -6   20.40    0.81
   4  -3   6   19.28    0.80
   4  -3   6   16.61    0.66
   4  -3   6   19.39    0.79
   4  -3   6   22.01    0.85
   4  -3   6   22.05    0.83
  -4   3  -7    3.35    0.49
  -4   3  -7    2.57    0.40
  -4   3  -7    2.72    0.46
  -4   3  -7    2.58    0.42
  -4   3  -7    2.65    0.45
   4  -3   7    3.59    0.48
   4  -3   7    2.19    0.37
   4  -3   7    3.47    0.45
   4  -3   7    2.10    0.41
   4  -3   7    3.61    0.50
  -4   3  -8   16.00    0.85
  -4   3  -8   16.08    0.82
  -4   3  -8   18.89    0.99
  -4   3  -8   15.63    0.88
   4  -3   8   15.25    0.82
   4  -3   8   14.34    0.83
   4  -3   8   16.84    0.90
  -4   3  -9   14.76    0.86
  -4   3  -9   14.94    0.90
  -4   3  -9   14.04    1.05
  -4   3  -9   13.76    0.96
   4  -3   9   14.09    0.86
   4  -3   9   14.08    0.90
   4  -3   9   14.57    0.97
  -4   3 -10   83.03    1.74
  -4   3 -10   79.10    1.69
  -4   3 -10   80.49    1.81
   4  -3  10   75.77    1.63
   4  -3  10   80.28    1.68
   4  -3  10   82.63    1.81
  -4   3 -11    1.35    0.53
  -4   3 -11    0.78    0.57
  -4   3 -11    0.58    0.64
   4  -3  11    0.41    0.55
   4  -3  11    1.26    0.57
  -4   3 -12    2.33    0.66
  -4   3 -12    1.82    0.70
  -4   3 -12    2.01    0.84
   4  -3  12    2.94    0.75
   4  -3  12    2.08    0.72
  -4   2  11    8.92    0.95
  -4   2  11    8.40    1.03
  -4   2  11    7.65    0.91
   4  -2 -11    6.51    0.74
   4  -2 -11    9.15    1.11
  -4   2  10    3.86    0.59
  -4   2  10    2.05    0.51
  -4   2  10    3.00    0.62
   4  -2 -10    2.43    0.54
   4  -2 -10    2.08    0.60
   4  -2 -10    2.06    0.72
  -4   2   9    0.04    0.40
  -4   2   9   -0.66    0.48
  -4   2   9    0.50    0.46
  -4   2   9   -0.22    0.38
  -4   2   9    0.29    0.65
  -4   2   9   -0.14    0.48
   4  -2  -9   -0.42    0.37
   4  -2  -9   -0.32    0.40
   4  -2  -9   -0.02    0.51
  -4   2   8   28.17    0.90
  -4   2   8   22.40    0.92
  -4   2   8   24.43    0.72
  -4   2   8   27.01    0.92
  -4   2   8   26.12    1.02
  -4   2   8   24.53    1.14
  -4   2   8   28.10    1.09
   4  -2  -8   22.15    0.83
   4  -2  -8   24.50    1.03
   4  -2  -8   27.82    1.13
   4  -2  -8   22.13    1.07
  -4   2   7    0.06    0.31
  -4   2   7    0.30    0.36
  -4   2   7   -0.20    0.28
  -4   2   7   -0.18    0.27
  -4   2   7   -0.11    0.30
  -4   2   7    0.46    0.37
  -4   2   7   -0.33    0.34
   4  -2  -7    0.35    0.27
   4  -2  -7    0.33    0.35
   4  -2  -7    0.05    0.37
   4  -2  -7    0.31    0.33
  -4   2   6    5.51    0.55
  -4   2   6    4.46    0.55
  -4   2   6    5.04    0.49
  -4   2   6    5.62    0.45
  -4   2   6    5.49    0.65
  -4   2   6    5.52    0.68
  -4   2   6    5.14    0.64
   4  -2  -6    5.17    0.51
   4  -2  -6    4.23    0.44
   4  -2  -6    5.32    0.60
   4  -2  -6    4.03    0.47
   4  -2  -6    6.46    0.61
   4  -2  -6    4.16    0.50
  -4   2   5    7.32    0.55
  -4   2   5    7.40    0.51
  -4   2   5    8.06    0.41
  -4   2   5    7.77    0.60
  -4   2   5    7.12    0.60
  -4   2   5    5.81    0.58
  -4   2   5    7.92    0.59
   4  -2  -5    7.12    0.53
   4  -2  -5    5.99    0.40
   4  -2  -5    8.64    0.64
   4  -2  -5    6.36    0.57
   4  -2  -5    7.40    0.63
   4  -2  -5    6.46    0.57
  -4   2   4   39.37    0.88
  -4   2   4   40.07    0.81
  -4   2   4   39.95    0.61
  -4   2   4   42.70    0.96
  -4   2   4   38.52    0.97
  -4   2   4   37.96    0.93
  -4   2   4   39.80    0.96
   4  -2  -4   37.85    0.86
   4  -2  -4   31.44    0.56
   4  -2  -4   39.15    0.97
   4  -2  -4   36.49    0.90
   4  -2  -4   35.64    0.89
  -4   2   3   46.13    0.92
  -4   2   3   45.76    0.85
  -4   2   3   55.54    1.02
  -4   2   3   44.59    0.96
  -4   2   3   47.32    0.97
  -4   2   3   44.60    0.96
   4  -2  -3   43.66    0.89
   4  -2  -3   48.35    1.00
   4  -2  -3   42.01    0.92
   4  -2  -3   49.63    1.00
   4  -2  -3   42.36    0.91
  -4   2   2   10.48    0.50
  -4   2   2   11.99    0.52
  -4   2   2   12.83    0.54
  -4   2   2   11.49    0.56
  -4   2   2   11.84    0.55
  -4   2   2   10.97    0.55
   4  -2  -2   11.14    0.53
   4  -2  -2    9.93    0.24
   4  -2  -2   10.21    0.24
   4  -2  -2   13.15    0.57
   4  -2  -2   11.21    0.51
   4  -2  -2   12.32    0.55
   4  -2  -2   11.41    0.53
  -4   2   1    2.69    0.31
  -4   2   1    2.19    0.29
  -4   2   1    3.26    0.37
  -4   2   1    2.14    0.30
  -4   2   1    2.66    0.32
  -4   2   1    2.36    0.31
   4  -2  -1    2.70    0.34
   4  -2  -1    2.98    0.33
   4  -2  -1    2.15    0.29
   4  -2  -1    2.97    0.35
   4  -2  -1    2.54    0.31
  -4   2   0  467.79    2.70
  -4   2   0  396.15    2.43
  -4   2   0  495.42    2.45
  -4   2   0  389.65    2.38
  -4   2   0  418.15    2.52
  -4   2   0  374.26    2.39
   4  -2   0  397.78    2.51
   4  -2   0  322.28    0.94
   4  -2   0  413.09    2.26
   4  -2   0  380.65    2.33
   4  -2   0  425.80    2.53
   4  -2   0  386.61    2.39
  -4   2  -1   80.52    1.17
  -4   2  -1   69.30    1.07
  -4   2  -1   62.21    0.56
  -4   2  -1   77.19    1.13
  -4   2  -1   65.33    0.99
  -4   2  -1   72.67    1.04
  -4   2  -1   71.32    1.09
  -4   2  -1   62.70    1.01
   4  -2   1   69.05    1.10
   4  -2   1   53.57    0.52
   4  -2   1   73.09    0.91
   4  -2   1   70.20    1.06
   4  -2   1   64.90    1.02
  -4   2  -2   40.84    0.89
  -4   2  -2   34.59    0.81
  -4   2  -2   34.07    0.52
  -4   2  -2   43.46    0.67
  -4   2  -2   32.56    0.73
  -4   2  -2   38.44    0.79
  -4   2  -2   38.23    0.83
  -4   2  -2   33.35    0.78
   4  -2   2   36.71    0.84
   4  -2   2   28.88    0.48
   4  -2   2   37.59    0.63
   4  -2   2   35.01    0.79
   4  -2   2   35.73    0.79
  -4   2  -3    6.76    0.51
  -4   2  -3    5.12    0.33
  -4   2  -3    6.68    0.32
  -4   2  -3    5.47    0.41
  -4   2  -3    5.84    0.42
  -4   2  -3    7.10    0.49
  -4   2  -3    5.29    0.47
   4  -2   3    6.19    0.46
   4  -2   3    4.53    0.31
   4  -2   3    6.44    0.32
   4  -2   3    6.23    0.46
   4  -2   3    5.94    0.45
  -4   2  -4    3.25    0.36
  -4   2  -4    3.07    0.42
  -4   2  -4    2.44    0.27
  -4   2  -4    3.64    0.29
  -4   2  -4    2.46    0.31
  -4   2  -4    2.70    0.32
  -4   2  -4    4.02    0.46
  -4   2  -4    3.04    0.37
   4  -2   4    2.58    0.34
   4  -2   4    2.51    0.27
   4  -2   4    2.75    0.30
   4  -2   4    2.10    0.31
   4  -2   4    3.72    0.42
  -4   2  -5   14.25    0.64
  -4   2  -5   11.33    0.61
  -4   2  -5   11.09    0.52
  -4   2  -5   12.54    0.62
  -4   2  -5   12.91    0.66
  -4   2  -5   10.04    0.59
   4  -2   5   10.27    0.53
   4  -2   5   11.62    0.34
   4  -2   5   11.27    0.32
   4  -2   5   10.78    0.56
   4  -2   5   12.24    0.60
  -4   2  -6    0.69    0.30
  -4   2  -6    0.38    0.31
  -4   2  -6    0.29    0.26
  -4   2  -6    0.93    0.31
  -4   2  -6    0.34    0.34
  -4   2  -6    0.35    0.20
   4  -2   6    0.41    0.26
   4  -2   6    0.08    0.28
   4  -2   6    0.70    0.16
   4  -2   6    0.41    0.15
   4  -2   6    0.47    0.27
   4  -2   6    0.91    0.34
   4  -2   6    0.73    0.32
  -4   2  -7   19.68    0.80
  -4   2  -7   17.74    0.79
  -4   2  -7   16.09    0.73
  -4   2  -7   19.83    0.83
  -4   2  -7   20.58    0.89
  -4   2  -7   17.60    0.80
   4  -2   7   16.75    0.74
   4  -2   7   17.18    0.77
   4  -2   7   18.68    0.37
   4  -2   7   18.33    0.37
   4  -2   7   16.78    0.73
   4  -2   7   18.16    0.82
   4  -2   7   18.94    0.79
  -4   2  -8    9.88    0.70
  -4   2  -8    9.24    0.69
  -4   2  -8   11.55    0.79
  -4   2  -8   12.78    0.87
  -4   2  -8    9.47    0.78
   4  -2   8    9.70    0.66
   4  -2   8    8.94    0.75
   4  -2   8    9.84    0.34
   4  -2   8   10.36    0.68
   4  -2   8    9.67    0.78
   4  -2   8   11.59    0.83
  -4   2  -9   41.65    1.19
  -4   2  -9   40.65    1.18
  -4   2  -9   42.19    1.23
  -4   2  -9   49.22    1.42
  -4   2  -9   43.03    1.29
   4  -2   9   39.62    1.14
   4  -2   9   38.75    0.82
   4  -2   9   45.84    0.59
   4  -2   9   43.31    1.15
   4  -2   9   46.93    1.32
   4  -2   9   44.33    1.31
  -4   2 -10    8.05    0.82
  -4   2 -10    6.30    0.66
  -4   2 -10    9.38    0.94
  -4   2 -10    8.14    0.82
   4  -2  10    6.00    0.75
   4  -2  10    8.81    0.79
   4  -2  10    8.73    0.97
  -4   2 -11    0.38    0.47
  -4   2 -11   -0.45    0.50
  -4   2 -11    0.78    0.60
   4  -2  11   -0.44    0.46
   4  -2  11    0.93    0.46
   4  -2  11    0.11    0.65
  -4   2 -12    0.05    0.52
  -4   2 -12   -0.11    0.57
  -4   2 -12    1.45    0.72
   4  -2  12    0.64    0.56
   4  -2  12   -0.62    0.56
  -4   1  12    0.98    0.80
  -4   1  12   -0.89    0.76
   4  -1 -12    1.04    0.71
   4  -1 -12    1.81    0.73
  -4   1  11   12.44    0.90
  -4   1  11   15.05    1.11
  -4   1  11   15.49    1.34
   4  -1 -11   10.84    1.06
   4  -1 -11   12.31    1.14
  -4   1  10    5.13    0.57
  -4   1  10    2.52    0.59
  -4   1  10    3.71    0.48
  -4   1  10    4.31    0.65
  -4   1  10    4.49    0.76
   4  -1 -10    3.50    0.57
   4  -1 -10    3.10    0.58
   4  -1 -10    4.33    0.76
  -4   1   9    7.62    0.63
  -4   1   9    5.54    0.57
  -4   1   9    6.94    0.67
  -4   1   9    5.01    0.57
  -4   1   9    6.07    0.65
  -4   1   9    6.32    0.77
  -4   1   9    4.83    0.59
   4  -1  -9    6.91    0.73
   4  -1  -9    6.99    0.81
   4  -1  -9    7.39    0.77
   4  -1  -9    5.71    0.73
  -4   1   8   61.10    1.10
  -4   1   8   50.34    1.06
  -4   1   8   55.01    1.00
  -4   1   8   55.99    1.17
  -4   1   8   58.08    1.47
  -4   1   8   57.60    1.38
   4  -1  -8   52.09    1.12
   4  -1  -8   59.94    1.40
   4  -1  -8   61.95    1.46
   4  -1  -8   47.46    1.27
  -4   1   7   48.91    0.96
  -4   1   7   43.69    0.93
  -4   1   7   44.72    0.88
  -4   1   7   46.49    0.98
  -4   1   7   45.79    1.23
  -4   1   7   47.67    1.23
   4  -1  -7   41.54    0.94
   4  -1  -7   47.88    1.19
   4  -1  -7   50.42    1.27
   4  -1  -7   38.61    1.09
  -4   1   6   20.28    0.65
  -4   1   6   17.64    0.64
  -4   1   6   17.25    0.62
  -4   1   6   18.87    0.62
  -4   1   6   18.44    0.78
  -4   1   6   16.58    0.76
  -4   1   6   18.16    0.87
  -4   1   6   17.96    0.80
   4  -1  -6   16.94    0.61
   4  -1  -6   17.49    0.77
   4  -1  -6   13.53    0.70
   4  -1  -6   19.51    0.84
   4  -1  -6   17.79    0.77
  -4   1   5   24.58    0.67
  -4   1   5   23.31    0.65
  -4   1   5   24.83    0.62
  -4   1   5   25.89    0.83
  -4   1   5   22.11    0.80
  -4   1   5   23.30    0.81
  -4   1   5   23.61    0.81
   4  -1  -5   22.83    0.65
   4  -1  -5   23.15    0.61
   4  -1  -5   24.45    0.81
   4  -1  -5   19.89    0.73
   4  -1  -5   26.11    0.84
   4  -1  -5   19.95    0.77
  -4   1   4   70.87    1.00
  -4   1   4   69.56    1.02
  -4   1   4   70.29    0.86
  -4   1   4   78.35    1.24
  -4   1   4   67.32    1.15
  -4   1   4   67.42    1.15
  -4   1   4   69.17    1.18
   4  -1  -4   66.37    0.98
   4  -1  -4   75.05    0.90
   4  -1  -4   74.91    1.22
   4  -1  -4   62.88    1.09
   4  -1  -4   75.89    1.23
   4  -1  -4   64.96    1.13
  -4   1   3    8.58    0.43
  -4   1   3    8.74    0.46
  -4   1   3    8.86    0.33
  -4   1   3   10.03    0.49
  -4   1   3    8.96    0.50
  -4   1   3    8.75    0.49
  -4   1   3    8.77    0.51
   4  -1  -3    9.11    0.43
   4  -1  -3    9.84    0.35
   4  -1  -3    9.75    0.51
   4  -1  -3    8.52    0.46
   4  -1  -3    8.01    0.48
  -4   1   2    0.24    0.18
  -4   1   2    0.63    0.22
  -4   1   2    0.86    0.21
  -4   1   2    0.32    0.18
  -4   1   2    0.81    0.23
  -4   1   2    0.53    0.23
   4  -1  -2    0.83    0.21
   4  -1  -2    0.52    0.13
   4  -1  -2    0.39    0.13
   4  -1  -2    0.54    0.21
   4  -1  -2    0.54    0.19
   4  -1  -2    0.91    0.24
   4  -1  -2    0.38    0.18
  -4   1   1  223.82    1.70
  -4   1   1  205.50    1.66
  -4   1   1  244.67    1.79
  -4   1   1  203.08    1.62
  -4   1   1  299.67    2.55
  -4   1   1  192.18    1.69
   4  -1  -1  198.25    1.62
   4  -1  -1  181.31    1.01
   4  -1  -1  228.00    1.75
   4  -1  -1  187.59    1.54
   4  -1  -1  209.72    2.68
   4  -1  -1  177.23    1.96
  -4   1   0  970.07    3.55
  -4   1   0  831.50    3.35
  -4   1   0 1029.71    3.44
  -4   1   0  807.24    3.05
  -4   1   0  900.44    3.55
  -4   1   0  782.81    3.32
   4  -1   0  868.16    3.40
   4  -1   0  820.92    3.39
   4  -1   0 1010.64    4.52
   4  -1   0  757.30    3.07
   4  -1   0  791.61    3.30
  -4   1  -1  166.12    1.52
  -4   1  -1  141.71    1.43
  -4   1  -1  129.62    0.93
  -4   1  -1  139.22    1.25
  -4   1  -1  154.35    1.49
  -4   1  -1  127.08    1.36
   4  -1   1  147.93    1.45
   4  -1   1  136.17    0.95
   4  -1   1  168.31    1.34
   4  -1   1  130.12    1.26
   4  -1   1  139.12    1.41
  -4   1  -2    6.80    0.44
  -4   1  -2    7.34    0.42
  -4   1  -2    6.23    0.30
  -4   1  -2    7.42    0.35
  -4   1  -2    6.08    0.34
  -4   1  -2    6.35    0.36
  -4   1  -2   10.49    0.66
  -4   1  -2    6.52    0.43
   4  -1   2    6.55    0.41
   4  -1   2    6.85    0.31
   4  -1   2    7.63    0.36
   4  -1   2    5.69    0.49
   4  -1   2    5.55    0.48
  -4   1  -3   47.12    0.90
  -4   1  -3   38.31    0.82
  -4   1  -3   38.23    0.66
  -4   1  -3   47.41    0.67
  -4   1  -3   37.16    0.68
  -4   1  -3   44.71    0.88
  -4   1  -3   38.56    0.83
   4  -1   3   41.28    0.85
   4  -1   3   37.64    0.66
   4  -1   3   45.95    0.67
   4  -1   3   42.00    0.86
   4  -1   3   39.39    0.83
  -4   1  -4    4.12    0.44
  -4   1  -4    3.81    0.42
  -4   1  -4    4.11    0.36
  -4   1  -4    4.34    0.30
  -4   1  -4    4.55    0.37
  -4   1  -4    4.82    0.45
  -4   1  -4    4.23    0.45
   4  -1   4    3.59    0.38
   4  -1   4    3.75    0.35
   4  -1   4    4.54    0.30
   4  -1   4    3.99    0.36
   4  -1   4    4.10    0.42
   4  -1   4    5.49    0.43
  -4   1  -5   75.90    1.22
  -4   1  -5   47.64    1.37
  -4   1  -5   61.73    1.00
  -4   1  -5   77.33    1.05
  -4   1  -5   81.41    1.28
  -4   1  -5   64.04    1.14
   4  -1   5   69.40    1.17
   4  -1   5   61.15    0.98
   4  -1   5   77.56    0.82
   4  -1   5   68.17    0.77
   4  -1   5   66.82    0.98
   4  -1   5   72.50    1.20
   4  -1   5   72.15    1.19
  -4   1  -6   14.70    0.63
  -4   1  -6   13.50    0.65
  -4   1  -6   13.67    0.61
  -4   1  -6   16.09    0.63
  -4   1  -6   16.40    0.70
  -4   1  -6   12.93    0.65
   4  -1   6   13.40    0.65
   4  -1   6   12.64    0.61
   4  -1   6   14.63    0.44
   4  -1   6   13.32    0.42
   4  -1   6   13.41    0.56
   4  -1   6   15.06    0.68
   4  -1   6   15.18    0.71
  -4   1  -7   23.35    0.82
  -4   1  -7   22.69    0.80
  -4   1  -7   27.48    0.81
  -4   1  -7   21.45    0.84
   4  -1   7   25.20    0.84
   4  -1   7   22.86    0.81
   4  -1   7   26.86    0.57
   4  -1   7   25.39    0.56
   4  -1   7   23.29    0.73
   4  -1   7   26.94    0.91
   4  -1   7   26.76    0.88
  -4   1  -8   16.89    0.77
  -4   1  -8   16.45    0.78
  -4   1  -8   17.18    0.78
  -4   1  -8   20.29    0.94
  -4   1  -8   16.15    0.86
   4  -1   8   17.70    0.79
   4  -1   8   16.83    0.82
   4  -1   8   18.90    0.66
   4  -1   8   18.28    0.54
   4  -1   8   17.18    0.70
   4  -1   8   18.32    0.87
   4  -1   8   19.41    0.93
  -4   1  -9    4.38    0.55
  -4   1  -9    3.42    0.45
  -4   1  -9    3.50    0.52
  -4   1  -9    4.08    0.61
  -4   1  -9    3.73    0.57
   4  -1   9    3.56    0.53
   4  -1   9    4.09    0.44
   4  -1   9    4.22    0.48
   4  -1   9    4.40    0.48
   4  -1   9    3.95    0.58
   4  -1   9    3.98    0.52
  -4   1 -10    4.52    0.57
  -4   1 -10    4.63    0.55
  -4   1 -10    2.43    0.56
  -4   1 -10    4.82    0.70
  -4   1 -10    3.65    0.59
   4  -1  10    3.79    0.56
   4  -1  10    4.55    0.52
   4  -1  10    4.29    0.42
   4  -1  10    3.71    0.53
   4  -1  10    5.04    0.67
   4  -1  10    4.65    0.65
  -4   1 -11    3.41    0.57
  -4   1 -11    7.00    0.87
  -4   1 -11    3.92    0.74
   4  -1  11    3.61    0.59
   4  -1  11    4.00    0.45
   4  -1  11    5.01    0.63
   4  -1  11    4.28    0.75
  -4   1 -12    4.58    0.65
  -4   1 -12    5.99    0.72
  -4   1 -12    3.22    0.74
   4  -1  12    4.96    0.73
   4  -1  12    5.60    0.72
   4  -1  12    5.37    0.86
  -4   1 -13    3.15    0.65
  -4   1 -13    2.45    0.65
  -4   1 -13    1.61    0.84
   4  -1  13    2.76    0.71
   4  -1  13    2.47    0.71
  -4   0  12    3.76    0.72
  -4   0  12    3.80    0.95
   4   0 -12    3.76    0.74
   4   0 -12    3.71    0.79
   4   0 -12    5.73    0.97
  -4   0  11    5.80    0.57
  -4   0  11    4.40    0.57
  -4   0  11    3.92    0.67
  -4   0  11    4.81    0.72
   4   0 -11    4.30    0.63
   4   0 -11    4.10    0.71
  -4   0  10   63.87    1.14
  -4   0  10   52.18    1.11
  -4   0  10   59.15    1.19
  -4   0  10   59.30    1.54
  -4   0  10   59.57    1.81
  -4   0  10   64.73    1.71
   4   0 -10   58.12    1.45
   4   0 -10   61.03    1.56
   4   0 -10   65.28    1.73
   4   0 -10   53.59    1.65
  -4   0   9    4.54    0.54
  -4   0   9    4.13    0.46
  -4   0   9    4.89    0.57
  -4   0   9    3.71    0.55
  -4   0   9    4.27    0.67
  -4   0   9    3.12    0.51
   4   0  -9    4.15    0.55
   4   0  -9    7.26    0.96
   4   0  -9    3.31    0.58
  -4   0   8   16.43    0.61
  -4   0   8   14.78    0.61
  -4   0   8   15.56    0.70
  -4   0   8   14.78    0.76
  -4   0   8   13.80    0.80
  -4   0   8   14.89    0.97
  -4   0   8   14.09    0.90
   4   0  -8   15.50    0.77
   4   0  -8   14.55    1.02
   4   0  -8   16.33    0.94
   4   0  -8   13.82    0.88
  -4   0   7   58.06    0.91
  -4   0   7   51.84    0.87
  -4   0   7   54.44    0.99
  -4   0   7   54.70    1.08
  -4   0   7   50.05    1.18
  -4   0   7   58.08    1.31
  -4   0   7   59.88    1.32
   4   0  -7   57.31    1.12
   4   0  -7   62.80    1.30
   4   0  -7   42.48    1.08
   4   0  -7   92.74    1.98
   4   0  -7   51.20    1.20
  -4   0   6    0.04    0.21
  -4   0   6    0.24    0.23
  -4   0   6   -0.09    0.25
  -4   0   6    0.15    0.24
  -4   0   6    0.01    0.26
  -4   0   6   -0.29    0.23
  -4   0   6   -0.16    0.26
  -4   0   6    0.17    0.28
   4   0  -6   -0.02    0.23
   4   0  -6   -0.43    0.28
   4   0  -6    0.12    0.24
   4   0  -6    0.11    0.27
   4   0  -6   -0.24    0.27
  -4   0   5  125.91    1.19
  -4   0   5  128.15    1.37
  -4   0   5  134.02    1.37
  -4   0   5  143.59    1.69
  -4   0   5  115.30    1.51
  -4   0   5  131.31    1.63
  -4   0   5  134.05    1.65
   4   0  -5  124.56    1.18
   4   0  -5  143.84    1.44
   4   0  -5  145.67    1.72
   4   0  -5  110.71    1.44
   4   0  -5  141.26    1.69
   4   0  -5  112.50    1.56
  -4   0   4    3.33    0.38
  -4   0   4    3.55    0.32
  -4   0   4    3.54    0.43
  -4   0   4    3.73    0.38
  -4   0   4    3.51    0.37
  -4   0   4    4.54    0.46
   4   0  -4    3.63    0.31
   4   0  -4    3.63    0.36
   4   0  -4    4.14    0.43
   4   0  -4    2.99    0.36
   4   0  -4    3.27    0.38
   4   0  -4    3.16    0.36
  -4   0   3  135.89    1.21
  -4   0   3  137.84    1.37
  -4   0   3  133.81    1.16
  -4   0   3  155.88    1.57
  -4   0   3  124.63    1.34
  -4   0   3  137.87    1.48
  -4   0   3  130.66    1.46
   4   0  -3  126.33    1.14
   4   0  -3  154.46    1.25
   4   0  -3  151.67    1.57
   4   0  -3  129.52    1.35
   4   0  -3  146.52    1.54
   4   0  -3  121.84    1.40
  -4   0   2  192.91    1.46
  -4   0   2  189.73    1.57
  -4   0   2  217.92    1.75
  -4   0   2  180.15    1.49
  -4   0   2  184.90    1.64
  -4   0   2  182.62    1.64
   4   0  -2  182.70    1.38
   4   0  -2  200.75    1.32
   4   0  -2  163.88    1.19
   4   0  -2  212.17    1.75
   4   0  -2  176.21    1.46
   4   0  -2  199.02    1.72
   4   0  -2  172.05    1.58
  -4   0   1   25.33    0.62
  -4   0   1   30.07    0.66
  -4   0   1   23.37    0.54
  -4   0   1   27.17    0.66
  -4   0   1   22.88    0.62
   4   0  -1   25.91    0.57
   4   0  -1   26.31    0.49
   4   0  -1   22.34    0.45
   4   0  -1   30.54    0.68
   4   0  -1   23.23    0.53
   4   0  -1   26.09    0.65
   4   0  -1   23.91    0.62
  -4   0   0  333.94    1.92
  -4   0   0  302.34    1.97
  -4   0   0  270.60    1.44
  -4   0   0  350.69    2.01
  -4   0   0  292.97    1.63
  -4   0   0  320.87    2.05
  -4   0   0  279.32    1.92
   4   0   0  310.14    1.87
   4   0   0  275.96    1.45
   4   0   0  346.18    2.02
   4   0   0  276.13    1.57
   4   0   0  301.18    1.99
   4   0   0  284.37    1.93
  -4   0  -1   14.30    0.46
  -4   0  -1   12.64    0.47
  -4   0  -1   12.41    0.38
  -4   0  -1   13.38    0.53
  -4   0  -1   13.22    0.38
  -4   0  -1   13.01    0.49
  -4   0  -1   11.92    0.47
   4   0   1   13.66    0.46
   4   0   1   13.36    0.38
   4   0   1   14.86    0.46
   4   0   1   12.64    0.37
   4   0   1   13.21    0.50
   4   0   1   12.90    0.48
  -4   0  -2  158.27    1.45
  -4   0  -2  137.54    1.37
  -4   0  -2  130.67    1.13
  -4   0  -2  167.17    1.31
  -4   0  -2  132.47    1.02
  -4   0  -2  151.08    1.08
  -4   0  -2  183.52    1.92
   4   0   2  154.71    1.44
   4   0   2  140.45    1.16
   4   0   2  165.34    1.30
   4   0   2  146.35    1.43
   4   0   2  142.95    1.40
  -4   0  -3   37.80    0.78
  -4   0  -3   32.31    0.72
  -4   0  -3   31.09    0.64
  -4   0  -3   38.47    0.65
  -4   0  -3   30.79    0.53
  -4   0  -3   35.70    0.57
  -4   0  -3   37.86    0.79
  -4   0  -3   45.07    1.06
   4   0   3   33.48    0.74
   4   0   3   38.08    0.65
   4   0   3   32.87    0.74
   4   0   3   33.92    0.75
  -4   0  -4  176.55    1.68
  -4   0  -4  151.34    1.52
  -4   0  -4  147.03    1.41
  -4   0  -4  182.63    1.28
  -4   0  -4  190.97    1.75
  -4   0  -4  147.87    1.55
   4   0   4  169.75    1.66
   4   0   4  155.71    1.43
   4   0   4  182.86    1.35
   4   0   4  162.99    1.27
   4   0   4  157.51    1.19
   4   0   4  166.55    1.64
   4   0   4  169.38    1.65
  -4   0  -5  365.25    2.52
  -4   0  -5  321.66    2.27
  -4   0  -5  313.46    2.20
  -4   0  -5  372.93    1.96
  -4   0  -5  401.88    2.65
  -4   0  -5  318.13    2.37
   4   0   5  331.76    2.43
   4   0   5  331.73    2.24
   4   0   5  365.24    1.93
   4   0   5  326.95    2.06
   4   0   5  326.99    1.84
   4   0   5  348.07    2.48
   4   0   5  357.38    2.50
  -4   0  -6  145.10    1.69
  -4   0  -6  123.68    1.48
  -4   0  -6  122.37    1.51
  -4   0  -6  144.90    1.35
  -4   0  -6  156.07    1.77
  -4   0  -6  123.38    1.59
   4   0   6  134.40    1.64
   4   0   6  122.53    1.49
   4   0   6  146.95    1.29
   4   0   6  133.15    1.22
   4   0   6  132.97    1.29
   4   0   6  140.59    1.69
   4   0   6  185.52    2.27
  -4   0  -7   72.80    1.29
  -4   0  -7   62.57    1.13
  -4   0  -7   64.81    1.22
  -4   0  -7   73.17    1.08
  -4   0  -7   83.03    1.40
  -4   0  -7   66.67    1.29
   4   0   7   68.72    1.27
   4   0   7   64.17    1.19
   4   0   7   77.29    1.01
   4   0   7   72.54    0.98
   4   0   7   72.72    1.06
   4   0   7   73.20    1.33
   4   0   7   73.74    1.33
  -4   0  -8    0.00    0.46
  -4   0  -8   -0.14    0.28
  -4   0  -8   -0.24    0.27
  -4   0  -8    0.22    0.31
  -4   0  -8    0.15    0.32
  -4   0  -8    0.70    0.40
   4   0   8    0.52    0.30
   4   0   8    0.00    0.33
   4   0   8    0.31    0.26
   4   0   8   -0.19    0.23
   4   0   8   -0.10    0.25
   4   0   8    0.25    0.36
   4   0   8    0.93    0.38
  -4   0  -9   32.93    0.93
  -4   0  -9   32.79    1.05
  -4   0  -9   33.32    0.98
  -4   0  -9   42.79    1.25
  -4   0  -9   35.18    1.17
   4   0   9   40.35    0.87
   4   0   9   38.50    0.87
   4   0   9   37.05    0.95
   4   0   9   39.45    1.22
   4   0   9   38.23    1.18
  -4   0 -10    2.43    0.45
  -4   0 -10    1.36    0.43
  -4   0 -10    1.87    0.48
  -4   0 -10    1.35    0.45
  -4   0 -10    1.55    0.49
   4   0  10    2.92    0.48
   4   0  10    2.17    0.39
   4   0  10    2.48    0.44
   4   0  10    2.85    0.44
   4   0  10    2.69    0.56
   4   0  10    2.25    0.52
  -4   0 -11   44.53    1.19
  -4   0 -11   45.08    1.39
  -4   0 -11   49.44    1.58
  -4   0 -11   48.18    1.52
   4   0  11   55.54    1.48
   4   0  11   52.61    1.12
   4   0  11   52.14    1.16
   4   0  11   49.16    1.40
   4   0  11   54.23    1.57
   4   0  11   51.89    1.63
  -4   0 -12   10.96    0.91
  -4   0 -12    8.86    1.02
  -4   0 -12    7.32    0.83
   4   0  12   14.00    1.07
   4   0  12   12.57    0.86
   4   0  12   13.26    0.99
   4   0  12   12.56    1.22
  -4   0 -13   10.97    1.05
  -4   0 -13    6.96    0.84
   4   0  13   12.61    1.20
   4   0  13   11.22    1.18
  -4  -1  12    7.02    0.74
  -4  -1  12    6.60    0.77
   4   1 -12    5.94    0.79
   4   1 -12    7.16    0.88
   4   1 -12    5.87    0.85
  -4  -1  11    9.68    0.69
  -4  -1  11    8.46    0.85
  -4  -1  11   10.73    0.98
  -4  -1  11   10.07    1.25
   4   1 -11    8.10    0.98
   4   1 -11   10.15    1.08
   4   1 -11   12.02    1.32
  -4  -1  10   21.83    0.68
  -4  -1  10   18.80    0.71
  -4  -1  10   21.06    0.89
  -4  -1  10   21.58    1.07
  -4  -1  10   18.43    1.31
  -4  -1  10   25.29    1.26
   4   1 -10   20.06    0.99
   4   1 -10   22.98    1.08
   4   1 -10   22.13    1.25
   4   1 -10   18.30    1.23
  -4  -1   9    2.31    0.32
  -4  -1   9    1.24    0.31
  -4  -1   9    2.12    0.42
  -4  -1   9    1.13    0.45
  -4  -1   9    1.42    0.60
  -4  -1   9    1.78    0.52
   4   1  -9    1.51    0.44
   4   1  -9    2.40    0.47
   4   1  -9    1.48    0.45
   4   1  -9    1.66    0.49
  -4  -1   8   90.63    0.99
  -4  -1   8   78.60    0.94
  -4  -1   8   84.33    1.33
  -4  -1   8   81.27    1.44
  -4  -1   8   81.65    1.54
  -4  -1   8   86.00    1.63
  -4  -1   8   94.24    1.65
   4   1  -8   94.61    1.54
   4   1  -8   95.63    1.62
   4   1  -8   93.52    1.66
   4   1  -8   77.70    1.54
  -4  -1   7    6.83    0.37
  -4  -1   7    5.84    0.37
  -4  -1   7    6.60    0.58
  -4  -1   7    6.77    0.62
  -4  -1   7    6.27    0.62
  -4  -1   7    7.07    0.73
  -4  -1   7    6.67    0.68
   4   1  -7    7.02    0.60
   4   1  -7    6.52    0.63
   4   1  -7    4.34    0.45
   4   1  -7    7.15    0.69
   4   1  -7    6.04    0.69
  -4  -1   6   87.21    0.86
  -4  -1   6   78.77    0.82
  -4  -1   6   78.22    1.18
  -4  -1   6   82.28    1.24
  -4  -1   6   86.92    1.36
  -4  -1   6   71.08    1.27
  -4  -1   6   84.58    1.39
  -4  -1   6  121.96    1.97
   4   1  -6   93.39    1.33
   4   1  -6   93.80    1.44
   4   1  -6   70.14    1.22
   4   1  -6  137.03    2.18
   4   1  -6   73.99    1.30
  -4  -1   5   56.55    0.68
  -4  -1   5   49.78    0.64
  -4  -1   5   49.52    0.92
  -4  -1   5   53.20    0.95
  -4  -1   5   52.50    1.03
  -4  -1   5   46.97    0.97
  -4  -1   5   50.64    1.02
  -4  -1   5   53.49    1.07
   4   1  -5   59.53    1.02
   4   1  -5   59.02    1.12
   4   1  -5   44.05    0.92
   4   1  -5   56.13    1.10
   4   1  -5   44.07    0.96
  -4  -1   4  415.30    1.73
  -4  -1   4  402.43    2.40
  -4  -1   4  419.73    2.36
  -4  -1   4  462.68    2.77
  -4  -1   4  355.99    2.32
  -4  -1   4  418.74    2.61
  -4  -1   4  415.63    2.62
   4   1  -4  395.70    1.69
   4   1  -4  471.69    2.52
   4   1  -4  475.04    2.83
   4   1  -4  388.74    2.40
   4   1  -4  450.25    2.74
   4   1  -4  575.85    3.79
  -4  -1   3   54.57    0.65
  -4  -1   3   49.90    0.86
  -4  -1   3   51.86    0.80
  -4  -1   3   61.27    1.00
  -4  -1   3   44.51    0.81
  -4  -1   3   49.85    0.94
   4   1  -3   52.93    0.65
   4   1  -3   58.63    0.87
   4   1  -3   62.21    1.02
   4   1  -3   47.64    0.81
   4   1  -3   54.35    0.94
   4   1  -3   47.28    0.88
  -4  -1   2    0.88    0.15
  -4  -1   2    1.21    0.26
  -4  -1   2    1.06    0.24
  -4  -1   2    0.46    0.17
  -4  -1   2    0.72    0.17
  -4  -1   2    1.08    0.29
   4   1  -2    0.94    0.17
   4   1  -2    0.77    0.18
   4   1  -2    0.59    0.18
   4   1  -2    0.82    0.21
   4   1  -2    0.95    0.18
   4   1  -2    1.07    0.24
   4   1  -2    0.79    0.19
  -4  -1   1  279.82    1.55
  -4  -1   1  271.44    1.86
  -4  -1   1  308.13    1.98
  -4  -1   1  241.06    1.44
  -4  -1   1  273.14    1.85
  -4  -1   1  250.49    1.78
   4   1  -1  283.69    1.57
   4   1  -1  270.94    1.63
   4   1  -1  246.24    1.55
   4   1  -1  313.47    2.02
   4   1  -1  263.96    1.49
   4   1  -1  275.25    1.88
   4   1  -1  246.56    1.77
  -4  -1   0    5.96    0.30
  -4  -1   0    5.34    0.36
  -4  -1   0    4.29    0.30
  -4  -1   0    6.67    0.35
  -4  -1   0    5.25    0.26
  -4  -1   0    8.71    0.51
  -4  -1   0    4.27    0.32
   4   1   0    5.93    0.30
   4   1   0    5.13    0.30
   4   1   0    5.45    0.25
   4   1   0    5.93    0.36
   4   1   0    5.67    0.35
  -4  -1  -1  703.19    2.76
  -4  -1  -1  651.36    2.84
  -4  -1  -1  596.57    2.44
  -4  -1  -1  798.60    2.99
  -4  -1  -1  652.46    2.98
  -4  -1  -1  712.01    2.92
  -4  -1  -1  631.17    2.77
   4   1   1  717.98    2.79
   4   1   1  637.56    2.51
   4   1   1  806.77    4.14
   4   1   1  636.49    2.43
   4   1   1  683.89    2.90
   4   1   1  637.94    2.78
  -4  -1  -2   43.03    0.75
  -4  -1  -2   40.55    0.75
  -4  -1  -2   37.63    0.68
  -4  -1  -2   48.62    0.76
  -4  -1  -2   40.16    0.45
  -4  -1  -2   43.32    0.46
  -4  -1  -2   45.45    0.79
  -4  -1  -2   38.75    0.74
   4   1   2   43.93    0.76
   4   1   2   39.84    0.70
   4   1   2   48.08    0.77
   4   1   2   60.74    1.13
   4   1   2   39.66    0.74
  -4  -1  -3  255.24    1.87
  -4  -1  -3  232.95    1.75
  -4  -1  -3  224.22    1.68
  -4  -1  -3  286.77    1.79
  -4  -1  -3  218.98    1.03
  -4  -1  -3  262.91    1.13
  -4  -1  -3  272.35    1.94
  -4  -1  -3  233.44    1.81
   4   1   3  255.88    1.88
   4   1   3  240.44    1.71
   4   1   3  271.68    1.75
   4   1   3  251.22    1.87
   4   1   3  245.98    1.84
  -4  -1  -4   28.85    0.72
  -4  -1  -4   25.63    0.65
  -4  -1  -4   25.32    0.66
  -4  -1  -4   29.53    0.46
  -4  -1  -4   31.88    0.74
  -4  -1  -4   25.49    0.86
   4   1   4   28.41    0.72
   4   1   4   27.85    0.67
   4   1   4   30.53    0.65
   4   1   4   27.54    0.61
   4   1   4   27.62    0.45
   4   1   4   28.33    0.71
   4   1   4   28.88    0.72
  -4  -1  -5   28.15    0.77
  -4  -1  -5   24.53    0.67
  -4  -1  -5   24.08    0.70
  -4  -1  -5   27.06    0.51
  -4  -1  -5   30.50    0.77
  -4  -1  -5   25.13    0.72
   4   1   5   27.33    0.75
   4   1   5   26.39    0.71
   4   1   5   29.40    0.67
   4   1   5   27.46    0.65
   4   1   5   27.70    0.51
   4   1   5   28.42    0.77
   4   1   5   28.64    0.77
  -4  -1  -6  200.90    1.98
  -4  -1  -6  179.24    1.67
  -4  -1  -6  178.35    1.84
  -4  -1  -6  183.72    1.36
  -4  -1  -6  226.77    2.07
  -4  -1  -6  180.54    1.87
   4   1   6  192.05    1.94
   4   1   6  192.82    1.88
   4   1   6  210.45    1.69
   4   1   6  198.27    1.63
   4   1   6  200.17    1.41
   4   1   6  201.24    1.97
   4   1   6  214.26    2.03
  -4  -1  -7   22.96    0.81
  -4  -1  -7   20.40    0.70
  -4  -1  -7   20.43    0.77
  -4  -1  -7   20.95    0.61
  -4  -1  -7   25.63    0.85
  -4  -1  -7   22.50    0.83
   4   1   7   23.77    0.82
   4   1   7   22.74    0.78
   4   1   7   25.05    0.71
   4   1   7   24.28    0.69
   4   1   7   23.26    0.61
   4   1   7   25.71    0.86
   4   1   7   24.32    0.83
  -4  -1  -8  121.29    1.72
  -4  -1  -8  133.50    1.81
  -4  -1  -8  132.58    1.42
  -4  -1  -8  170.20    2.05
  -4  -1  -8  139.56    1.87
   4   1   8  154.51    1.95
   4   1   8  127.18    1.74
   4   1   8  158.54    1.63
   4   1   8  152.77    1.59
   4   1   8  147.27    1.49
   4   1   8  157.48    1.99
   4   1   8  160.06    2.09
  -4  -1  -9    0.21    0.33
  -4  -1  -9    0.10    0.34
  -4  -1  -9    0.48    0.35
  -4  -1  -9    0.03    0.36
  -4  -1  -9   -0.07    0.38
   4   1   9    0.06    0.30
   4   1   9    0.52    0.32
   4   1   9    0.23    0.27
   4   1   9    0.24    0.30
   4   1   9    0.44    0.44
  -4  -1 -10   82.89    1.37
  -4  -1 -10   82.79    1.64
  -4  -1 -10   87.38    1.47
  -4  -1 -10  104.42    1.89
  -4  -1 -10   93.92    1.79
   4   1  10  104.95    1.81
   4   1  10  103.54    1.50
   4   1  10   97.49    1.48
   4   1  10   96.65    1.46
   4   1  10  100.14    1.84
   4   1  10  101.82    1.87
  -4  -1 -11   15.37    0.88
  -4  -1 -11   14.24    0.97
  -4  -1 -11   15.81    1.06
  -4  -1 -11   20.11    1.33
  -4  -1 -11   16.45    1.14
   4   1  11   18.49    1.01
   4   1  11   19.29    0.90
   4   1  11   15.55    0.98
   4   1  11   16.18    0.89
   4   1  11   18.54    1.14
   4   1  11   18.73    1.22
  -4  -1 -12   23.03    1.09
  -4  -1 -12   19.41    1.18
  -4  -1 -12   23.53    1.40
   4   1  12   25.57    1.22
   4   1  12   27.38    1.10
   4   1  12   24.92    1.13
   4   1  12   22.09    1.56
  -4  -1 -13   22.66    1.19
  -4  -1 -13   18.29    1.27
   4   1  13   25.54    1.35
   4   1  13   25.70    1.24
   4   1  13   21.60    1.25
   4   1  13   26.53    1.59
  -4  -2  12    3.12    0.67
  -4  -2  12    4.36    0.72
   4   2 -12    2.82    0.70
   4   2 -12    2.39    0.75
   4   2 -12    4.10    0.88
  -4  -2  11   17.57    0.97
  -4  -2  11   16.04    1.08
  -4  -2  11   17.48    1.48
   4   2 -11   17.27    1.07
   4   2 -11   19.73    1.18
   4   2 -11   20.14    1.28
  -4  -2  10    0.05    0.31
  -4  -2  10   -0.71    0.34
  -4  -2  10   -0.68    0.42
  -4  -2  10    0.17    0.57
   4   2 -10   -0.08    0.42
   4   2 -10    0.12    0.41
   4   2 -10    0.61    0.86
  -4  -2   9   35.18    0.53
  -4  -2   9   39.10    1.06
  -4  -2   9   39.98    1.22
  -4  -2   9   36.85    1.30
  -4  -2   9   42.20    1.32
   4   2  -9   42.61    1.23
   4   2  -9   42.62    1.22
   4   2  -9   40.67    1.28
   4   2  -9   36.55    1.28
  -4  -2   8    8.75    0.32
  -4  -2   8    7.71    0.30
  -4  -2   8    9.08    0.63
  -4  -2   8    9.27    0.72
  -4  -2   8   10.18    0.86
  -4  -2   8    8.26    0.78
   4   2  -8   10.05    0.90
   4   2  -8    9.53    0.73
   4   2  -8    9.89    0.78
   4   2  -8    8.92    0.80
  -4  -2   7   17.67    0.33
  -4  -2   7   18.15    0.73
  -4  -2   7   19.14    0.79
  -4  -2   7   18.11    0.79
  -4  -2   7   16.81    0.79
  -4  -2   7   19.00    0.85
  -4  -2   7   20.33    0.86
   4   2  -7   20.73    0.81
   4   2  -7   21.56    0.85
   4   2  -7   14.74    0.71
   4   2  -7   22.63    0.89
   4   2  -7   16.31    0.78
  -4  -2   6   12.81    0.62
  -4  -2   6   14.22    0.64
  -4  -2   6   14.95    0.67
  -4  -2   6   11.06    0.64
  -4  -2   6   14.01    0.70
   4   2  -6   16.05    0.70
   4   2  -6   17.34    0.74
   4   2  -6   10.29    0.58
   4   2  -6   14.59    0.71
   4   2  -6   12.74    0.66
  -4  -2   5    8.53    0.22
  -4  -2   5    8.14    0.52
  -4  -2   5    9.37    0.52
  -4  -2   5    9.24    0.54
  -4  -2   5    7.29    0.53
  -4  -2   5    9.72    0.54
  -4  -2   5    9.31    0.55
   4   2  -5   11.29    0.57
   4   2  -5   10.08    0.58
   4   2  -5    6.25    0.47
   4   2  -5    9.92    0.57
   4   2  -5    7.83    0.53
  -4  -2   4  239.06    0.95
  -4  -2   4  262.17    2.03
  -4  -2   4  276.52    2.04
  -4  -2   4  298.98    2.22
  -4  -2   4  224.79    1.83
  -4  -2   4  273.02    2.06
  -4  -2   4  266.18    2.05
   4   2  -4  255.95    0.97
   4   2  -4  307.55    2.18
   4   2  -4  321.42    2.32
   4   2  -4  242.10    1.88
   4   2  -4  283.94    2.14
   4   2  -4  245.52    1.98
  -4  -2   3    4.73    0.21
  -4  -2   3    5.06    0.40
  -4  -2   3    4.63    0.36
  -4  -2   3    5.71    0.43
  -4  -2   3    4.16    0.35
  -4  -2   3    4.53    0.34
  -4  -2   3    4.41    0.37
   4   2  -3    4.88    0.21
   4   2  -3    5.95    0.39
   4   2  -3    6.29    0.43
   4   2  -3    4.96    0.35
   4   2  -3    4.65    0.38
   4   2  -3    4.97    0.39
  -4  -2   2  145.24    0.93
  -4  -2   2  167.53    1.54
  -4  -2   2  197.05    1.67
  -4  -2   2  133.04    1.16
  -4  -2   2  170.83    1.46
  -4  -2   2  164.72    1.45
   4   2  -2  171.34    1.07
   4   2  -2  180.12    1.52
   4   2  -2  157.64    1.41
   4   2  -2  200.62    1.70
   4   2  -2  162.41    1.27
   4   2  -2  179.24    1.53
   4   2  -2  156.96    1.42
  -4  -2   1    9.93    0.31
  -4  -2   1   11.19    0.47
  -4  -2   1   13.15    0.49
  -4  -2   1    8.45    0.31
  -4  -2   1   10.57    0.40
  -4  -2   1    9.70    0.40
   4   2  -1   11.74    0.33
   4   2  -1   10.95    0.43
   4   2  -1   10.01    0.42
   4   2  -1   12.88    0.49
   4   2  -1   11.25    0.34
   4   2  -1   11.67    0.44
   4   2  -1   10.12    0.41
  -4  -2   0  200.39    1.32
  -4  -2   0  213.35    1.66
  -4  -2   0  190.47    1.50
  -4  -2   0  242.04    1.76
  -4  -2   0  155.51    0.91
  -4  -2   0  214.52    1.54
  -4  -2   0  192.22    1.47
   4   2   0  229.63    1.42
   4   2   0  196.44    1.55
   4   2   0  245.35    1.78
   4   2   0  208.69    1.04
   4   2   0  213.96    1.57
   4   2   0  197.66    1.50
  -4  -2  -1    4.54    0.36
  -4  -2  -1    4.21    0.32
  -4  -2  -1    5.33    0.36
  -4  -2  -1    3.76    0.15
  -4  -2  -1    4.96    0.29
  -4  -2  -1    3.95    0.29
   4   2   1    4.78    0.31
   4   2   1    4.83    0.31
   4   2   1    5.16    0.36
   4   2   1    4.60    0.15
   4   2   1    4.67    0.32
   4   2   1    3.93    0.30
  -4  -2  -2  227.95    1.64
  -4  -2  -2  235.90    1.71
  -4  -2  -2  214.35    1.65
  -4  -2  -2  287.10    1.90
  -4  -2  -2  266.95    1.77
  -4  -2  -2  225.90    1.64
   4   2   2  250.82    1.74
   4   2   2  236.54    1.72
   4   2   2  265.63    1.84
   4   2   2  249.19    1.74
   4   2   2  238.07    1.69
  -4  -2  -3   84.04    1.09
  -4  -2  -3   79.09    1.02
  -4  -2  -3   74.89    1.04
  -4  -2  -3   96.66    1.13
  -4  -2  -3   96.98    1.12
  -4  -2  -3   75.12    1.01
   4   2   3   87.17    1.12
   4   2   3   86.81    1.11
   4   2   3   93.97    1.13
   4   2   3   85.60    1.07
   4   2   3   85.85    1.08
   4   2   3   85.60    1.08
  -4  -2  -4  209.57    1.80
  -4  -2  -4  198.34    1.60
  -4  -2  -4  182.65    1.69
  -4  -2  -4  134.85    0.67
  -4  -2  -4  240.64    1.85
  -4  -2  -4  197.86    1.69
   4   2   4  213.20    1.84
   4   2   4  213.44    1.80
   4   2   4  228.49    1.78
   4   2   4  214.62    1.70
   4   2   4  206.72    0.82
   4   2   4  218.34    1.79
   4   2   4  213.43    1.77
  -4  -2  -5  233.90    2.02
  -4  -2  -5  224.41    1.72
  -4  -2  -5  218.94    1.95
  -4  -2  -5  153.01    0.94
  -4  -2  -5  284.13    2.13
  -4  -2  -5  229.32    1.93
   4   2   5  253.02    2.12
   4   2   5  263.21    1.97
   4   2   5  244.69    1.88
   4   2   5  248.61    2.03
   4   2   5  254.41    2.04
  -4  -2  -6   19.24    0.71
  -4  -2  -6   17.56    0.60
  -4  -2  -6   16.93    0.69
  -4  -2  -6   12.68    0.41
  -4  -2  -6   21.60    0.71
  -4  -2  -6   17.45    0.66
   4   2   6   19.93    0.75
   4   2   6   19.39    0.72
   4   2   6   20.73    0.67
   4   2   6   19.28    0.65
   4   2   6   19.50    0.46
   4   2   6   20.95    0.72
   4   2   6   18.98    0.69
  -4  -2  -7  221.17    2.20
  -4  -2  -7  187.03    1.66
  -4  -2  -7  194.08    2.07
  -4  -2  -7  157.55    1.31
  -4  -2  -7  246.53    2.25
  -4  -2  -7  206.85    2.21
   4   2   7  228.37    2.25
   4   2   7  214.22    2.17
   4   2   7  236.00    2.03
   4   2   7  221.66    1.96
   4   2   7  226.25    1.55
   4   2   7  230.71    2.22
   4   2   7  233.01    2.22
  -4  -2  -8    1.59    0.33
  -4  -2  -8    1.77    0.36
  -4  -2  -8    0.80    0.27
  -4  -2  -8    1.15    0.33
  -4  -2  -8    1.41    0.40
   4   2   8    0.97    0.33
   4   2   8    0.14    0.33
   4   2   8    1.45    0.35
   4   2   8    1.15    0.34
   4   2   8    1.50    0.29
   4   2   8    1.33    0.36
   4   2   8    1.24    0.36
  -4  -2  -9   94.33    1.29
  -4  -2  -9  100.96    1.71
  -4  -2  -9  111.25    1.58
  -4  -2  -9   90.41    1.27
  -4  -2  -9  126.67    1.86
  -4  -2  -9  110.98    1.78
   4   2   9  125.58    1.88
   4   2   9  123.08    1.64
   4   2   9  120.23    1.63
   4   2   9  120.45    1.42
   4   2   9  127.65    1.90
   4   2   9  129.34    1.93
  -4  -2 -10   27.16    0.84
  -4  -2 -10   29.65    1.10
  -4  -2 -10   32.04    1.04
  -4  -2 -10   28.10    0.95
  -4  -2 -10   38.66    1.39
  -4  -2 -10   33.26    1.20
   4   2  10   39.09    1.21
   4   2  10   37.96    1.07
   4   2  10   33.75    1.11
   4   2  10   36.36    0.97
   4   2  10   36.06    1.23
   4   2  10   39.17    1.35
  -4  -2 -11   21.22    0.86
  -4  -2 -11   23.15    1.07
  -4  -2 -11   24.45    1.05
  -4  -2 -11   20.35    1.05
  -4  -2 -11   23.96    1.22
   4   2  11   28.65    1.15
   4   2  11   27.09    1.05
   4   2  11   28.89    1.01
   4   2  11   27.05    1.22
  -4  -2 -12   20.04    0.96
  -4  -2 -12   19.79    1.12
  -4  -2 -12   23.23    1.17
   4   2  12   26.27    1.21
   4   2  12   24.34    1.14
   4   2  12   25.26    1.12
   4   2  12   25.58    1.36
  -4  -2 -13    1.55    0.60
  -4  -2 -13    4.55    0.78
   4   2  13    4.62    0.79
   4   2  13    3.77    0.72
   4   2  13    5.26    0.74
   4   2  13    3.50    0.95
  -4  -3  12    8.09    0.99
  -4  -3  12   10.68    1.18
   4   3 -12    6.23    0.80
   4   3 -12    9.99    1.23
   4   3 -12    8.31    0.98
  -4  -3  11    1.47    0.53
  -4  -3  11    1.79    0.59
   4   3 -11    1.73    0.57
   4   3 -11    2.28    0.59
   4   3 -11    2.03    0.65
  -4  -3  10   13.99    0.88
  -4  -3  10   10.82    0.92
  -4  -3  10   17.24    1.16
   4   3 -10   16.52    1.01
   4   3 -10   16.35    0.99
   4   3 -10   17.22    1.11
  -4  -3   9   26.98    0.99
  -4  -3   9   25.38    1.05
  -4  -3   9   30.79    1.19
   4   3  -9   31.26    1.13
   4   3  -9   28.15    1.69
   4   3  -9   29.07    1.18
   4   3  -9   25.05    1.14
  -4  -3   8    1.10    0.37
  -4  -3   8    1.17    0.44
  -4  -3   8    0.80    0.34
  -4  -3   8    0.23    0.43
  -4  -3   8    0.65    0.37
   4   3  -8    0.61    0.34
   4   3  -8    1.26    0.39
   4   3  -8    1.07    0.42
   4   3  -8    0.25    0.36
  -4  -3   7   18.32    0.79
  -4  -3   7   18.33    0.78
  -4  -3   7   19.87    0.86
  -4  -3   7   16.75    0.81
  -4  -3   7   19.59    0.84
  -4  -3   7   21.52    0.85
   4   3  -7   23.03    0.89
   4   3  -7   24.05    0.87
   4   3  -7   16.17    0.77
   4   3  -7   22.12    0.88
   4   3  -7   16.99    0.79
  -4  -3   6   12.42    0.64
  -4  -3   6   12.01    0.64
  -4  -3   6   13.49    0.70
  -4  -3   6   10.79    0.65
  -4  -3   6   12.88    0.67
  -4  -3   6   14.57    0.69
   4   3  -6   15.21    0.71
   4   3  -6   17.00    0.73
   4   3  -6   12.15    0.65
   4   3  -6   14.27    0.70
   4   3  -6   11.98    0.65
  -4  -3   5   71.83    1.21
  -4  -3   5   72.71    1.20
  -4  -3   5   79.19    1.25
  -4  -3   5   63.25    1.11
  -4  -3   5   73.56    1.15
  -4  -3   5   74.52    1.17
   4   3  -5   85.20    1.31
   4   3  -5   92.26    1.35
   4   3  -5   64.88    1.12
   4   3  -5   78.70    1.22
   4   3  -5   64.49    1.11
  -4  -3   4    0.40    0.30
  -4  -3   4    0.52    0.21
  -4  -3   4    0.78    0.25
  -4  -3   4    0.33    0.22
  -4  -3   4    0.33    0.15
   4   3  -4    0.82    0.25
   4   3  -4    0.79    0.27
   4   3  -4    0.52    0.23
   4   3  -4    0.67    0.20
   4   3  -4    0.70    0.23
  -4  -3   3   56.01    1.00
  -4  -3   3   60.62    1.00
  -4  -3   3   67.08    1.05
  -4  -3   3   52.70    0.85
  -4  -3   3   58.84    0.89
   4   3  -3   65.33    1.06
   4   3  -3   53.19    0.96
   4   3  -3   74.17    1.13
   4   3  -3   51.01    0.82
   4   3  -3   62.73    0.96
   4   3  -3   55.03    0.90
  -4  -3   2    0.78    0.12
  -4  -3   2    0.45    0.20
  -4  -3   2    0.84    0.23
  -4  -3   2    0.70    0.17
  -4  -3   2    0.30    0.14
  -4  -3   2    0.71    0.18
   4   3  -2    0.47    0.12
   4   3  -2    0.15    0.18
   4   3  -2    0.08    0.16
   4   3  -2    0.35    0.19
   4   3  -2    0.53    0.16
   4   3  -2    0.14    0.15
   4   3  -2    0.57    0.17
  -4  -3   1  108.16    0.87
  -4  -3   1  110.88    1.27
  -4  -3   1  131.42    1.38
  -4  -3   1  113.18    0.93
  -4  -3   1  117.89    1.12
  -4  -3   1  109.12    1.09
   4   3  -1  125.61    0.94
   4   3  -1  113.48    1.28
   4   3  -1  106.34    1.23
   4   3  -1  134.80    1.41
   4   3  -1  103.88    0.89
   4   3  -1  117.69    1.16
   4   3  -1  101.29    1.07
  -4  -3   0   45.32    0.66
  -4  -3   0   47.68    0.84
  -4  -3   0   42.72    0.81
  -4  -3   0   56.44    0.93
  -4  -3   0   52.42    0.53
  -4  -3   0   53.01    0.75
  -4  -3   0   44.76    0.70
   4   3   0   54.49    0.72
   4   3   0   44.84    0.82
   4   3   0   57.24    0.94
   4   3   0   47.03    0.50
   4   3   0   49.93    0.75
   4   3   0   45.10    0.72
  -4  -3  -1  321.10    2.41
  -4  -3  -1  402.74    2.28
  -4  -3  -1  363.97    2.25
  -4  -3  -1  466.60    2.54
  -4  -3  -1  437.85    2.10
  -4  -3  -1  372.61    1.95
   4   3   1  427.06    2.13
   4   3   1  391.96    2.31
   4   3   1  457.57    2.54
   4   3   1  396.22    2.06
   4   3   1  385.99    2.02
  -4  -3  -2  148.27    1.36
  -4  -3  -2  162.10    1.45
  -4  -3  -2  141.54    1.45
  -4  -3  -2  186.26    1.64
  -4  -3  -2  179.92    1.40
  -4  -3  -2  149.05    1.28
   4   3   2  172.11    1.48
   4   3   2  161.07    1.53
   4   3   2  177.36    1.61
   4   3   2  163.03    1.37
   4   3   2  162.13    1.36
  -4  -3  -3    3.83    0.33
  -4  -3  -3    4.24    0.37
  -4  -3  -3    2.16    0.26
  -4  -3  -3    4.64    0.31
  -4  -3  -3    3.18    0.29
   4   3   3    3.53    0.36
   4   3   3    3.47    0.38
   4   3   3    4.08    0.39
   4   3   3    3.58    0.37
   4   3   3    3.56    0.31
   4   3   3    3.66    0.32
  -4  -3  -4   87.71    1.21
  -4  -3  -4   86.38    1.06
  -4  -3  -4   83.19    1.22
  -4  -3  -4  108.92    1.22
   4   3   4   96.94    1.29
   4   3   4   93.98    1.28
   4   3   4  102.26    1.30
   4   3   4   98.11    1.26
   4   3   4   96.28    1.18
   4   3   4   97.55    1.19
  -4  -3  -5   23.97    0.74
  -4  -3  -5   21.56    0.61
  -4  -3  -5   21.70    0.72
  -4  -3  -5   23.26    0.36
  -4  -3  -5   27.93    0.69
  -4  -3  -5   18.73    0.65
   4   3   5   25.39    0.77
   4   3   5   23.62    0.75
   4   3   5   26.65    0.76
   4   3   5   23.09    0.69
   4   3   5   25.01    0.38
   4   3   5   24.87    0.69
   4   3   5   24.78    0.71
  -4  -3  -6  167.18    1.87
  -4  -3  -6  145.27    1.38
  -4  -3  -6  150.04    1.78
  -4  -3  -6  147.23    1.04
  -4  -3  -6  189.27    1.82
  -4  -3  -6  161.19    1.70
   4   3   6  185.81    1.98
   4   3   6  173.99    1.90
   4   3   6  183.44    1.86
   4   3   6  169.64    1.77
   4   3   6  181.77    1.15
   4   3   6  178.22    1.81
   4   3   6  178.98    1.81
  -4  -3  -7    3.16    0.45
  -4  -3  -7    2.15    0.33
  -4  -3  -7    1.61    0.32
  -4  -3  -7    1.95    0.26
  -4  -3  -7    2.34    0.35
  -4  -3  -7    2.48    0.33
   4   3   7    2.90    0.41
   4   3   7    2.93    0.43
   4   3   7    2.96    0.41
   4   3   7    2.73    0.36
   4   3   7    2.79    0.27
   4   3   7    2.53    0.38
   4   3   7    2.84    0.40
  -4  -3  -8   47.67    0.90
  -4  -3  -8   58.37    1.34
  -4  -3  -8   66.89    1.30
  -4  -3  -8   40.81    0.80
  -4  -3  -8   75.27    1.36
  -4  -3  -8   67.72    1.33
   4   3   8   78.63    1.48
   4   3   8   76.72    1.36
   4   3   8   69.28    1.30
   4   3   8   75.08    1.02
   4   3   8   73.99    1.39
   4   3   8   74.23    1.41
  -4  -3  -9    1.87    0.37
  -4  -3  -9    2.77    0.44
  -4  -3  -9    4.26    0.53
  -4  -3  -9    1.64    0.36
  -4  -3  -9    4.25    0.71
   4   3   9    5.62    0.62
   4   3   9    4.28    0.52
   4   3   9    4.50    0.51
   4   3   9    4.20    0.51
   4   3   9    4.34    0.59
  -4  -3 -10    5.19    0.50
  -4  -3 -10    8.87    0.80
  -4  -3 -10    6.41    0.70
  -4  -3 -10   10.38    0.89
   4   3  10   11.58    0.84
   4   3  10   12.39    0.71
   4   3  10   11.67    0.86
   4   3  10   10.59    0.97
  -4  -3 -11   14.27    0.97
  -4  -3 -11   17.03    1.04
  -4  -3 -11   13.02    0.97
  -4  -3 -11   16.06    1.13
   4   3  11   19.90    1.07
   4   3  11   20.30    0.93
   4   3  11   16.97    1.07
  -4  -3 -12    5.24    0.75
  -4  -3 -12    6.98    0.80
   4   3  12    7.96    0.85
   4   3  12    5.49    0.83
   4   3  12    5.83    0.80
  -4  -3 -13   19.80    1.41
   4   3  13   16.99    1.31
   4   3  13   15.53    1.31
   4   3  13   18.62    1.24
   4   3  13   18.99    1.48
   4   4 -12    3.93    0.87
  -4  -4  11    3.82    0.64
  -4  -4  11    4.07    0.74
   4   4 -11    2.18    0.59
   4   4 -11    4.35    0.67
   4   4 -11    3.12    0.66
  -4  -4  10   21.37    1.04
  -4  -4  10   20.19    1.12
   4   4 -10   25.92    1.20
   4   4 -10   25.22    1.09
   4   4 -10   25.04    1.20
  -4  -4   9    7.05    0.73
  -4  -4   9    6.57    0.81
  -4  -4   9    9.33    0.86
   4   4  -9    9.51    0.86
   4   4  -9    9.14    0.82
   4   4  -9    8.22    0.93
  -4  -4   8    9.80    0.72
  -4  -4   8    8.37    0.79
  -4  -4   8    8.49    0.78
  -4  -4   8   11.10    0.79
   4   4  -8   12.35    0.80
   4   4  -8   13.51    0.80
   4   4  -8   10.92    0.76
   4   4  -8    9.29    0.80
  -4  -4   7   -0.14    0.31
  -4  -4   7   -0.13    0.34
  -4  -4   7    0.36    0.33
  -4  -4   7    0.47    0.46
   4   4  -7   -0.22    0.30
   4   4  -7    0.88    0.34
   4   4  -7    0.48    0.36
   4   4  -7    0.42    0.28
   4   4  -7    0.50    0.32
  -4  -4   6   55.39    1.18
  -4  -4   6   55.37    1.21
  -4  -4   6   56.60    1.14
  -4  -4   6   51.96    1.14
  -4  -4   6   56.11    1.07
  -4  -4   6   62.48    1.18
   4   4  -6   66.51    1.31
   4   4  -6   73.08    1.27
   4   4  -6   50.33    1.11
   4   4  -6   62.56    1.18
   4   4  -6   52.08    1.08
  -4  -4   5   10.33    0.61
  -4  -4   5   10.01    0.64
  -4  -4   5   12.36    0.64
  -4  -4   5    9.69    0.59
  -4  -4   5   10.40    0.52
  -4  -4   5   11.50    0.57
   4   4  -5   11.37    0.64
   4   4  -5   14.11    0.66
   4   4  -5    9.49    0.57
   4   4  -5   11.96    0.58
   4   4  -5    9.07    0.53
  -4  -4   4   31.11    0.86
  -4  -4   4   32.75    0.86
  -4  -4   4   33.52    0.84
  -4  -4   4   30.71    0.78
  -4  -4   4   32.34    0.72
  -4  -4   4   31.77    0.74
   4   4  -4   37.29    0.92
   4   4  -4   40.22    0.91
   4   4  -4   28.22    0.74
   4   4  -4   36.05    0.80
   4   4  -4   29.92    0.74
  -4  -4   3   25.68    0.77
  -4  -4   3   31.76    0.78
  -4  -4   3   26.95    0.67
  -4  -4   3   27.05    0.61
  -4  -4   3   28.28    0.65
   4   4  -3   30.52    0.81
   4   4  -3   25.45    0.76
   4   4  -3   33.37    0.82
   4   4  -3   24.46    0.64
   4   4  -3   28.79    0.67
   4   4  -3   25.16    0.63
  -4  -4   2   32.58    0.45
  -4  -4   2   28.42    0.75
  -4  -4   2   33.83    0.78
  -4  -4   2   30.76    0.63
  -4  -4   2   29.94    0.60
  -4  -4   2   28.55    0.60
   4   4  -2   33.65    0.46
   4   4  -2   31.18    0.79
   4   4  -2   27.44    0.75
   4   4  -2   36.30    0.83
   4   4  -2   27.03    0.62
   4   4  -2   31.96    0.65
   4   4  -2   27.58    0.60
  -4  -4   1   16.59    0.40
  -4  -4   1   15.10    0.56
  -4  -4   1   17.10    0.59
  -4  -4   1   15.80    0.43
  -4  -4   1   16.50    0.44
  -4  -4   1   14.35    0.43
   4   4  -1   17.51    0.41
   4   4  -1   15.37    0.58
   4   4  -1   13.26    0.58
   4   4  -1   19.08    0.63
   4   4  -1   14.33    0.41
   4   4  -1   15.33    0.46
   4   4  -1   13.66    0.43
  -4  -4   0   20.88    0.50
  -4  -4   0   19.87    0.61
  -4  -4   0   18.31    0.61
  -4  -4   0   22.59    0.67
  -4  -4   0   21.67    0.41
  -4  -4   0   22.77    0.48
  -4  -4   0   19.58    0.46
   4   4   0   21.93    0.51
   4   4   0   18.35    0.62
   4   4   0   23.49    0.68
   4   4   0   19.47    0.39
   4   4   0   21.49    0.50
   4   4   0   19.26    0.47
  -4  -4  -1  198.24    1.52
  -4  -4  -1  189.23    1.64
  -4  -4  -1  177.39    1.69
  -4  -4  -1  225.30    1.89
  -4  -4  -1  220.25    1.41
  -4  -4  -1  181.09    1.29
   4   4   1  209.88    1.57
   4   4   1  193.03    1.75
   4   4   1  220.41    1.88
   4   4   1  183.33    0.87
   4   4   1  187.18    0.88
   4   4   1  197.87    1.40
   4   4   1  190.84    1.37
  -4  -4  -2   18.52    0.55
  -4  -4  -2   18.50    0.57
  -4  -4  -2   16.20    0.59
  -4  -4  -2   21.62    0.50
  -4  -4  -2   17.77    0.46
   4   4   2   20.31    0.60
   4   4   2   23.31    0.69
   4   4   2   18.64    0.64
   4   4   2   19.80    0.50
   4   4   2   19.87    0.51
  -4  -4  -3    3.01    0.34
  -4  -4  -3    3.23    0.36
  -4  -4  -3    3.25    0.35
  -4  -4  -3    3.55    0.30
  -4  -4  -3    2.94    0.29
   4   4   3    3.00    0.33
   4   4   3    2.67    0.31
   4   4   3    3.48    0.42
   4   4   3    2.97    0.32
   4   4   3    3.37    0.29
   4   4   3    3.61    0.32
  -4  -4  -4    9.51    0.50
  -4  -4  -4    8.99    0.48
  -4  -4  -4    8.52    0.54
  -4  -4  -4   10.93    0.43
  -4  -4  -4    9.09    0.44
   4   4   4   10.25    0.56
   4   4   4    9.09    0.55
   4   4   4   10.70    0.58
   4   4   4    9.54    0.53
   4   4   4   10.14    0.44
   4   4   4   10.52    0.47
  -4  -4  -5   49.89    1.03
  -4  -4  -5   45.68    0.81
  -4  -4  -5   44.86    1.01
  -4  -4  -5   46.83    0.52
  -4  -4  -5   57.45    0.94
  -4  -4  -5   48.06    0.88
   4   4   5   55.69    1.11
   4   4   5   50.75    1.06
   4   4   5   56.16    1.11
   4   4   5   51.31    1.05
   4   4   5   50.02    0.55
   4   4   5   53.87    0.95
   4   4   5   53.18    0.96
  -4  -4  -6   84.60    1.39
  -4  -4  -6   79.99    1.04
  -4  -4  -6   79.41    1.37
  -4  -4  -6   84.45    0.82
  -4  -4  -6   98.58    1.30
  -4  -4  -6   85.20    1.23
   4   4   6  101.75    1.54
   4   4   6   94.90    1.49
   4   4   6  100.45    1.50
   4   4   6   92.57    1.41
   4   4   6   94.25    0.86
   4   4   6   97.94    1.35
   4   4   6   97.38    1.36
  -4  -4  -7    5.99    0.50
  -4  -4  -7    7.02    0.60
  -4  -4  -7    7.35    0.65
  -4  -4  -7    6.15    0.40
  -4  -4  -7    7.00    0.51
  -4  -4  -7    4.49    0.61
   4   4   7    7.77    0.65
   4   4   7    7.22    0.67
   4   4   7    7.99    0.64
   4   4   7    5.72    0.63
   4   4   7    7.27    0.41
   4   4   7    7.55    0.57
   4   4   7    7.60    0.59
  -4  -4  -8    8.18    0.55
  -4  -4  -8    7.77    0.68
  -4  -4  -8    9.08    0.73
  -4  -4  -8    9.58    0.54
  -4  -4  -8    7.50    0.83
   4   4   8   10.30    0.73
   4   4   8    8.92    0.71
   4   4   8    9.44    0.50
   4   4   8    8.73    0.77
   4   4   8   10.67    0.72
  -4  -4  -9   10.96    0.61
  -4  -4  -9   12.48    0.80
  -4  -4  -9   13.62    0.88
  -4  -4  -9   11.09    0.66
  -4  -4  -9   13.94    0.87
   4   4   9   16.07    0.90
   4   4   9   15.69    0.67
   4   4   9   14.27    0.81
   4   4   9   14.60    0.89
  -4  -4 -10    9.84    0.81
  -4  -4 -10    9.38    0.91
  -4  -4 -10    6.30    0.58
  -4  -4 -10   10.35    0.92
   4   4  10   10.74    0.86
   4   4  10    9.74    0.70
   4   4  10   10.40    0.83
  -4  -4 -11    0.71    0.46
  -4  -4 -11    0.04    0.55
   4   4  11   -0.20    0.47
   4   4  11    1.19    0.46
   4   4  11    0.15    0.49
  -4  -4 -12    2.21    0.62
  -4  -4 -12    3.16    0.76
   4   4  12    4.43    0.73
   4   4  12    3.94    0.87
   4   4  12    4.27    0.75
  -4  -5  11    8.52    0.93
  -4  -5  11    7.08    0.87
   4   5 -11    7.66    0.85
   4   5 -11   10.12    1.08
   4   5 -11   10.43    1.13
  -4  -5  10    0.96    0.51
  -4  -5  10    1.57    0.61
   4   5 -10    1.95    0.56
   4   5 -10    1.01    0.53
   4   5 -10    0.81    0.49
  -4  -5   9   47.91    1.36
  -4  -5   9   45.30    1.41
   4   5  -9   56.47    1.50
   4   5  -9   58.47    1.38
   4   5  -9   53.86    1.38
  -4  -5   8    2.36    0.45
  -4  -5   8    2.05    0.53
  -4  -5   8    1.65    0.46
  -4  -5   8    2.03    0.44
   4   5  -8    3.55    0.53
   4   5  -8    3.48    0.54
   4   5  -8    2.39    0.47
  -4  -5   7   12.89    0.73
  -4  -5   7   11.51    0.81
  -4  -5   7   12.85    0.80
  -4  -5   7   15.29    0.76
   4   5  -7   16.05    0.83
   4   5  -7   17.64    0.82
   4   5  -7   13.15    0.72
   4   5  -7   11.99    0.74
  -4  -5   6   18.61    0.81
  -4  -5   6   19.89    0.82
  -4  -5   6   19.51    0.82
  -4  -5   6   21.47    0.77
   4   5  -6   22.81    0.89
   4   5  -6   25.62    0.86
   4   5  -6   17.10    0.82
   4   5  -6   18.68    0.74
  -4  -5   5   11.04    0.66
  -4  -5   5    9.67    0.67
  -4  -5   5   11.56    0.66
  -4  -5   5   10.60    0.63
  -4  -5   5    9.64    0.50
  -4  -5   5   11.40    0.58
   4   5  -5   12.05    0.69
   4   5  -5   13.43    0.70
   4   5  -5   10.18    0.64
   4   5  -5   11.39    0.56
   4   5  -5    9.24    0.54
  -4  -5   4   95.13    1.47
  -4  -5   4  101.00    1.51
  -4  -5   4  107.02    1.44
  -4  -5   4  101.12    1.38
  -4  -5   4  100.93    1.16
  -4  -5   4  106.53    1.21
   4   5  -4  114.84    1.62
   4   5  -4   90.57    1.45
   4   5  -4  131.34    1.59
   4   5  -4   93.98    1.31
   4   5  -4  111.38    1.29
   4   5  -4   93.15    1.19
  -4  -5   3    1.43    0.30
  -4  -5   3    2.18    0.36
  -4  -5   3    1.79    0.29
  -4  -5   3    1.64    0.23
  -4  -5   3    2.23    0.26
   4   5  -3    2.36    0.21
   4   5  -3    1.57    0.19
   4   5  -3    1.64    0.32
   4   5  -3    1.18    0.29
   4   5  -3    1.93    0.32
   4   5  -3    2.27    0.31
   4   5  -3    2.18    0.27
   4   5  -3    1.80    0.26
  -4  -5   2   68.56    1.18
  -4  -5   2   78.01    1.20
  -4  -5   2   73.76    1.00
  -4  -5   2   70.26    0.83
  -4  -5   2   72.58    0.85
   4   5  -2   76.01    0.76
   4   5  -2   70.35    0.72
   4   5  -2   75.87    1.25
   4   5  -2   64.84    1.16
   4   5  -2   85.68    1.27
   4   5  -2   70.01    0.97
   4   5  -2   76.29    0.92
   4   5  -2   68.75    0.88
  -4  -5   1    2.94    0.29
  -4  -5   1    3.98    0.40
  -4  -5   1    3.12    0.32
  -4  -5   1    3.13    0.25
  -4  -5   1    2.67    0.26
   4   5  -1    3.22    0.31
   4   5  -1    3.09    0.28
   4   5  -1    3.39    0.39
   4   5  -1    2.45    0.34
   4   5  -1    4.46    0.46
   4   5  -1    2.65    0.32
   4   5  -1    2.43    0.28
   4   5  -1    2.59    0.28
  -4  -5   0   33.27    0.66
  -4  -5   0   28.62    0.76
  -4  -5   0   32.25    0.82
  -4  -5   0   31.40    0.57
  -4  -5   0   33.74    0.52
  -4  -5   0   31.41    0.52
   4   5   0   32.49    0.66
   4   5   0   29.49    0.80
   4   5   0   27.53    0.79
   4   5   0   35.39    0.87
   4   5   0   30.43    0.77
   4   5   0   32.55    0.58
   4   5   0   31.73    0.56
   4   5   0   29.09    0.55
  -4  -5  -1   22.18    0.62
  -4  -5  -1   19.72    0.63
  -4  -5  -1   18.42    0.66
  -4  -5  -1   23.84    0.45
  -4  -5  -1   20.31    0.44
   4   5   1   22.00    0.61
   4   5   1   25.35    0.76
   4   5   1   19.52    0.68
   4   5   1   18.67    0.41
   4   5   1   22.09    0.45
   4   5   1   20.77    0.48
   4   5   1   21.28    0.48
  -4  -5  -2    2.06    0.28
  -4  -5  -2    2.43    0.31
  -4  -5  -2    2.24    0.34
  -4  -5  -2    2.51    0.25
  -4  -5  -2    2.53    0.26
   4   5   2    3.32    0.40
   4   5   2    1.96    0.29
   4   5   2    2.71    0.37
   4   5   2    2.11    0.30
   4   5   2    2.61    0.23
   4   5   2    2.18    0.26
   4   5   2    2.38    0.28
  -4  -5  -3   21.48    0.67
  -4  -5  -3   21.19    0.62
  -4  -5  -3   19.64    0.71
  -4  -5  -3   24.59    0.53
  -4  -5  -3   20.01    0.50
   4   5   3   24.30    0.74
   4   5   3   21.91    0.73
   4   5   3   23.93    0.78
   4   5   3   22.13    0.77
   4   5   3   20.94    0.42
   4   5   3   23.57    0.40
   4   5   3   23.50    0.55
   4   5   3   22.61    0.56
  -4  -5  -4    1.53    0.30
  -4  -5  -4    1.67    0.30
  -4  -5  -4    1.87    0.34
  -4  -5  -4    2.08    0.24
  -4  -5  -4    1.66    0.25
   4   5   4    2.01    0.33
   4   5   4    1.72    0.32
   4   5   4    1.28    0.31
   4   5   4    1.94    0.34
   4   5   4    1.81    0.18
   4   5   4    1.39    0.20
  -4  -5  -5   15.85    0.68
  -4  -5  -5   15.93    0.58
  -4  -5  -5   14.95    0.71
  -4  -5  -5   16.05    0.41
  -4  -5  -5   18.43    0.57
  -4  -5  -5   16.89    0.58
   4   5   5   19.50    0.76
   4   5   5   18.04    0.73
   4   5   5   19.00    0.79
   4   5   5   16.14    0.72
   4   5   5   16.76    0.42
   4   5   5   17.84    0.59
   4   5   5   18.08    0.63
  -4  -5  -6   42.64    0.80
  -4  -5  -6   42.52    1.09
  -4  -5  -6   42.98    0.67
  -4  -5  -6   45.32    0.89
  -4  -5  -6   43.22    0.90
   4   5   6   51.39    1.19
   4   5   6   45.77    1.11
   4   5   6   50.18    1.19
   4   5   6   46.07    0.69
   4   5   6   49.00    0.98
   4   5   6   49.64    1.00
  -4  -5  -7   13.33    0.56
  -4  -5  -7   11.88    0.74
  -4  -5  -7   14.17    0.94
  -4  -5  -7   12.38    0.67
  -4  -5  -7   14.26    0.68
   4   5   7   14.36    0.83
   4   5   7   15.01    0.88
   4   5   7   15.14    0.53
   4   5   7   15.86    0.69
   4   5   7   15.57    0.72
  -4  -5  -8    1.11    0.32
  -4  -5  -8    0.38    0.35
  -4  -5  -8    0.84    0.39
  -4  -5  -8    1.10    0.32
  -4  -5  -8    0.97    0.38
   4   5   8    0.58    0.43
   4   5   8    0.66    0.40
   4   5   8    0.53    0.29
   4   5   8    0.72    0.35
   4   5   8    0.68    0.39
  -4  -5  -9    1.16    0.43
  -4  -5  -9    1.66    0.54
  -4  -5  -9    0.59    0.38
  -4  -5  -9    0.75    0.40
   4   5   9    2.20    0.47
   4   5   9    1.30    0.35
   4   5   9    1.12    0.40
   4   5   9    0.66    0.43
  -4  -5 -10    9.85    0.90
  -4  -5 -10    9.11    0.97
  -4  -5 -10    8.69    0.80
   4   5  10   11.18    0.93
   4   5  10   10.12    0.72
   4   5  10   10.21    0.86
  -4  -5 -11    3.71    0.63
  -4  -5 -11    5.19    0.75
   4   5  11    7.02    0.76
   4   5  11    6.65    0.64
   4   5  11    6.49    0.74
  -4  -5 -12    2.31    0.68
  -4  -5 -12    2.03    0.78
   4   5  12    4.08    0.80
   4   5  12    2.28    0.65
  -4  -6  10    4.81    0.73
  -4  -6  10    4.52    0.79
   4   6 -10    5.97    0.81
   4   6 -10    5.98    0.72
   4   6 -10    4.88    0.69
  -4  -6   9    4.52    0.60
  -4  -6   9    3.67    0.66
   4   6  -9    4.42    0.59
   4   6  -9    5.36    0.64
   4   6  -9    5.27    0.60
  -4  -6   8    1.61    0.46
  -4  -6   8    0.56    0.60
  -4  -6   8    0.13    0.41
  -4  -6   8    0.42    0.63
   4   6  -8    1.46    0.44
   4   6  -8    1.98    0.46
   4   6  -8    0.73    0.63
   4   6  -8    0.80    0.37
  -4  -6   7   20.95    0.92
  -4  -6   7   18.68    0.95
  -4  -6   7   20.32    0.97
  -4  -6   7   21.55    0.84
   4   6  -7   26.09    1.04
   4   6  -7   27.58    0.96
   4   6  -7   18.65    0.85
   4   6  -7   23.87    0.84
  -4  -6   6    1.78    0.44
  -4  -6   6    1.46    0.45
  -4  -6   6    1.33    0.75
  -4  -6   6    1.64    0.34
   4   6  -6    1.95    0.42
   4   6  -6    2.02    0.41
   4   6  -6    1.84    0.32
   4   6  -6    1.71    0.37
  -4  -6   5   33.09    1.01
  -4  -6   5   37.52    1.04
  -4  -6   5   38.09    1.02
  -4  -6   5   39.74    0.83
   4   6  -5   45.94    1.18
   4   6  -5   47.05    1.08
   4   6  -5   34.40    1.00
   4   6  -5   40.71    0.87
   4   6  -5   34.83    0.85
  -4  -6   4   62.37    1.31
  -4  -6   4   69.63    1.25
  -4  -6   4   66.64    1.21
  -4  -6   4   62.68    0.88
  -4  -6   4   72.32    0.96
   4   6  -4   76.91    1.43
   4   6  -4   57.00    1.28
   4   6  -4   83.18    1.34
   4   6  -4   66.47    1.19
   4   6  -4   70.87    1.03
   4   6  -4   63.96    0.99
  -4  -6   3   48.34    1.12
  -4  -6   3   57.73    1.14
  -4  -6   3   53.10    1.03
  -4  -6   3   51.19    0.72
  -4  -6   3   56.54    0.79
   4   6  -3   57.80    0.67
   4   6  -3   55.76    0.66
   4   6  -3   59.82    1.24
   4   6  -3   45.57    1.11
   4   6  -3   65.06    1.20
   4   6  -3   54.43    1.04
   4   6  -3   57.06    0.85
   4   6  -3   48.77    0.81
  -4  -6   2   27.95    0.86
  -4  -6   2   33.41    0.91
  -4  -6   2   30.49    0.76
  -4  -6   2   31.35    0.52
  -4  -6   2   32.45    0.54
   4   6  -2   31.91    0.61
   4   6  -2   29.97    0.58
   4   6  -2   32.71    0.93
   4   6  -2   28.70    0.90
   4   6  -2   37.13    0.94
   4   6  -2   31.91    0.77
   4   6  -2   32.33    0.61
   4   6  -2   28.24    0.59
  -4  -6   1    0.72    0.29
  -4  -6   1    0.36    0.28
  -4  -6   1    0.44    0.22
  -4  -6   1    0.74    0.13
  -4  -6   1    1.05    0.15
   4   6  -1    0.85    0.22
   4   6  -1    0.13    0.19
   4   6  -1    0.44    0.29
   4   6  -1    0.52    0.26
   4   6  -1    0.97    0.32
   4   6  -1    1.09    0.32
   4   6  -1    0.99    0.26
   4   6  -1    0.72    0.16
   4   6  -1    0.62    0.17
  -4  -6   0  120.62    1.54
  -4  -6   0  134.06    1.26
  -4  -6   0  140.78    0.82
  -4  -6   0  134.19    0.81
   4   6   0  135.34    1.38
   4   6   0  129.81    1.34
   4   6   0  132.16    1.67
   4   6   0  121.62    1.60
   4   6   0  148.12    1.74
   4   6   0  127.34    1.59
   4   6   0  135.57    1.03
   4   6   0  124.45    0.99
  -4  -6  -1    8.52    0.51
  -4  -6  -1    6.25    0.57
  -4  -6  -1    6.43    0.54
  -4  -6  -1    7.80    0.25
  -4  -6  -1    7.35    0.26
   4   6   1    7.97    0.49
   4   6   1    7.82    0.49
   4   6   1    7.04    0.54
   4   6   1    7.43    0.57
   4   6   1    6.68    0.51
   4   6   1    6.94    0.38
   4   6   1    8.04    0.40
   4   6   1    7.20    0.31
   4   6   1    6.78    0.33
  -4  -6  -2  100.78    1.36
  -4  -6  -2   91.02    1.26
  -4  -6  -2   86.00    1.38
  -4  -6  -2  101.86    0.80
  -4  -6  -2   92.21    0.77
   4   6   2  101.41    1.37
   4   6   2   91.22    1.40
   4   6   2  105.41    1.54
   4   6   2   93.58    1.44
   4   6   2   94.79    0.94
   4   6   2  105.50    1.00
   4   6   2   95.13    0.93
   4   6   2   98.84    0.95
  -4  -6  -3    9.24    0.61
  -4  -6  -3    8.74    0.52
  -4  -6  -3    8.38    0.62
  -4  -6  -3    9.66    0.33
  -4  -6  -3    9.19    0.36
   4   6   3   10.58    0.61
   4   6   3    9.18    0.59
   4   6   3   10.98    0.65
   4   6   3    9.05    0.59
   4   6   3    9.56    0.40
   4   6   3    9.81    0.40
   4   6   3   10.02    0.40
   4   6   3   10.70    0.43
  -4  -6  -4   39.00    1.02
  -4  -6  -4   35.83    0.79
  -4  -6  -4   34.15    1.00
  -4  -6  -4   37.78    0.65
  -4  -6  -4   32.43    0.96
   4   6   4   43.75    1.06
   4   6   4   38.56    0.99
   4   6   4   40.87    1.09
   4   6   4   35.20    1.07
   4   6   4   41.40    0.66
   4   6   4   39.14    0.64
   4   6   4   39.61    0.73
   4   6   4   40.76    0.78
  -4  -6  -5    7.24    0.48
  -4  -6  -5    7.52    0.66
  -4  -6  -5    7.96    0.47
   4   6   5    7.71    0.63
   4   6   5    7.82    0.63
   4   6   5    8.43    0.68
   4   6   5    9.50    0.47
   4   6   5    9.05    0.44
   4   6   5    8.06    0.50
  -4  -6  -6    4.17    0.47
  -4  -6  -6    4.07    0.49
  -4  -6  -6    3.76    0.53
  -4  -6  -6    5.33    0.50
   4   6   6    5.12    0.62
   4   6   6    5.58    0.67
   4   6   6    4.39    0.44
   4   6   6    4.79    0.45
   4   6   6    5.46    0.56
  -4  -6  -7   34.60    0.72
  -4  -6  -7   33.66    1.12
  -4  -6  -7   35.10    1.17
  -4  -6  -7   34.50    0.78
  -4  -6  -7   34.74    0.91
   4   6   7   41.80    1.19
   4   6   7   39.83    1.19
   4   6   7   38.70    0.80
   4   6   7   39.83    0.96
   4   6   7   34.44    1.18
  -4  -6  -8    1.28    0.44
  -4  -6  -8    1.83    0.54
  -4  -6  -8    2.04    0.41
  -4  -6  -8    1.95    0.42
   4   6   8    1.30    0.43
   4   6   8    1.34    0.46
   4   6   8    1.25    0.35
   4   6   8    1.33    0.35
  -4  -6  -9   29.77    1.21
  -4  -6  -9   34.20    1.29
  -4  -6  -9   28.85    0.96
   4   6   9   39.59    1.33
   4   6   9   36.60    0.96
   4   6   9   35.78    1.11
  -4  -6 -10    2.64    0.65
  -4  -6 -10    4.41    0.76
   4   6  10    2.91    0.61
   4   6  10    3.77    0.55
   4   6  10    4.44    0.60
  -4  -6 -11    1.13    0.66
  -4  -6 -11    0.94    0.75
   4   6  11    1.21    0.63
   4   6  11    1.20    0.55
  -4  -7  10    7.03    0.83
  -4  -7  10    6.83    0.82
   4   7 -10    6.95    1.03
   4   7 -10    9.68    1.21
   4   7 -10    8.45    0.92
  -4  -7   9    0.27    0.50
  -4  -7   9    1.61    0.56
   4   7  -9    0.06    0.53
   4   7  -9    0.33    0.60
   4   7  -9   -0.12    0.40
  -4  -7   8    7.19    0.79
  -4  -7   8    7.79    0.96
   4   7  -8   10.51    0.99
   4   7  -8   10.82    0.91
   4   7  -8    7.69    0.69
  -4  -7   7   -0.10    0.42
  -4  -7   7    0.49    0.53
  -4  -7   7   -0.20    0.42
  -4  -7   7    0.02    0.41
   4   7  -7    0.51    0.46
   4   7  -7    0.19    0.43
   4   7  -7   -0.83    0.35
   4   7  -7    0.27    0.31
  -4  -7   6    5.76    0.69
  -4  -7   6    4.54    0.57
  -4  -7   6    6.54    0.74
  -4  -7   6    5.31    0.59
   4   7  -6    7.18    0.74
   4   7  -6    7.36    0.74
   4   7  -6    5.63    0.60
   4   7  -6    6.06    0.49
  -4  -7   5    4.86    0.59
  -4  -7   5    4.00    0.53
  -4  -7   5    3.49    0.57
  -4  -7   5    3.86    0.37
   4   7  -5    4.81    0.56
   4   7  -5    5.34    0.65
   4   7  -5    3.71    0.39
   4   7  -5    4.53    0.43
  -4  -7   4    1.06    0.39
  -4  -7   4    1.25    0.44
  -4  -7   4    1.59    0.39
  -4  -7   4    0.75    0.22
   4   7  -4    1.34    0.22
   4   7  -4    1.38    0.24
   4   7  -4    0.85    0.39
   4   7  -4    1.46    0.37
   4   7  -4    1.25    0.40
   4   7  -4    1.20    0.27
  -4  -7   3   22.82    0.88
  -4  -7   3   26.09    0.93
  -4  -7   3   26.33    0.85
  -4  -7   3   24.21    0.47
  -4  -7   3   25.61    0.47
   4   7  -3   26.53    0.61
   4   7  -3   25.99    0.60
   4   7  -3   26.18    0.96
   4   7  -3   29.71    0.94
   4   7  -3   22.04    0.86
   4   7  -3   26.70    0.88
   4   7  -3   26.61    0.58
   4   7  -3   23.75    0.58
  -4  -7   2    1.30    0.40
  -4  -7   2    0.87    0.33
   4   7  -2    1.72    0.29
   4   7  -2    0.97    0.28
   4   7  -2    1.11    0.35
   4   7  -2    0.11    0.37
   4   7  -2    1.29    0.37
   4   7  -2    1.18    0.36
   4   7  -2    0.90    0.34
   4   7  -2    1.18    0.19
   4   7  -2    1.01    0.19
  -4  -7   1   45.04    1.08
  -4  -7   1   49.21    0.97
   4   7  -1   51.53    0.92
   4   7  -1   47.38    0.88
   4   7  -1   48.30    1.14
   4   7  -1   41.11    1.09
   4   7  -1   57.93    1.21
   4   7  -1   43.94    1.08
   4   7  -1   52.62    1.00
   4   7  -1   50.45    0.61
   4   7  -1   44.83    0.58
  -4  -7   0    0.28    0.28
   4   7   0    0.32    0.26
   4   7   0    0.53    0.28
   4   7   0    0.62    0.31
   4   7   0   -0.18    0.30
   4   7   0    0.24    0.35
   4   7   0    0.08    0.34
   4   7   0    0.19    0.24
   4   7   0    0.16    0.27
   4   7   0    0.31    0.14
   4   7   0    0.18    0.14
  -4  -7  -1   23.02    0.78
   4   7   1   24.46    0.78
   4   7   1   22.75    0.75
   4   7   1   23.84    0.88
   4   7   1   20.62    0.83
   4   7   1   26.62    0.92
   4   7   1   20.24    0.83
   4   7   1   22.03    0.63
   4   7   1   24.59    0.69
   4   7   1   23.69    0.43
   4   7   1   24.04    0.43
  -4  -7  -2   38.25    0.93
  -4  -7  -2   35.17    1.03
   4   7   2   42.30    1.01
   4   7   2   35.42    0.94
   4   7   2   34.83    0.99
   4   7   2   44.77    1.14
   4   7   2   38.33    0.76
   4   7   2   43.24    0.81
   4   7   2   39.12    0.57
   4   7   2   40.13    0.59
  -4  -7  -3   16.65    0.67
  -4  -7  -3   17.46    0.83
  -4  -7  -3   16.88    0.32
  -4  -7  -3   17.64    0.34
   4   7   3   18.52    0.79
   4   7   3   17.84    0.80
   4   7   3   15.77    0.80
   4   7   3   20.31    0.86
   4   7   3   19.44    0.61
   4   7   3   19.54    0.61
   4   7   3   15.46    0.71
   4   7   3   18.91    0.49
  -4  -7  -4   88.04    1.23
  -4  -7  -4   62.72    2.16
  -4  -7  -4   88.50    0.85
   4   7   4   99.89    1.62
   4   7   4  100.09    1.70
   4   7   4   99.72    1.14
   4   7   4   94.37    1.11
   4   7   4   95.49    1.06
   4   7   4   98.29    1.10
  -4  -7  -5    7.18    0.56
  -4  -7  -5    7.24    0.74
  -4  -7  -5    6.51    0.43
   4   7   5    8.88    0.70
   4   7   5    9.67    0.76
   4   7   5    8.21    0.53
   4   7   5    7.24    0.51
   4   7   5    7.69    0.44
   4   7   5    8.20    0.52
  -4  -7  -6   80.59    1.09
  -4  -7  -6   72.02    1.52
  -4  -7  -6   79.32    1.11
   4   7   6   93.94    1.71
   4   7   6   90.78    1.73
   4   7   6   91.02    1.19
   4   7   6   84.29    1.15
   4   7   6   87.02    1.23
  -4  -7  -7    6.41    0.79
  -4  -7  -7    5.08    0.66
  -4  -7  -7    5.10    0.64
  -4  -7  -7    4.65    0.47
   4   7   7    5.98    0.66
   4   7   7    6.55    0.77
   4   7   7    4.85    0.47
   4   7   7    5.18    0.64
   4   7   7    5.54    0.53
  -4  -7  -8   31.16    1.24
  -4  -7  -8   34.31    1.33
  -4  -7  -8   30.88    1.07
   4   7   8   41.43    1.32
   4   7   8   36.78    1.31
   4   7   8   36.45    0.96
   4   7   8   37.44    1.02
  -4  -7  -9    8.68    1.03
  -4  -7  -9   12.20    1.13
   4   7   9   12.49    0.95
   4   7   9    9.64    1.02
   4   7   9   11.34    0.86
   4   7   9   12.02    0.80
  -4  -7 -10   19.38    1.33
  -4  -7 -10   22.51    1.39
   4   7  10   24.69    1.26
   4   7  10   20.66    1.30
   4   7  10   23.00    1.06
  -4  -8   9    1.12    0.66
   4   8  -9   -0.31    0.70
   4   8  -9    0.01    0.51
  -4  -8   8   11.36    0.99
  -4  -8   8   11.55    1.14
   4   8  -8   16.57    1.22
   4   8  -8   16.37    1.06
   4   8  -8   11.27    0.75
  -4  -8   7    0.83    0.51
  -4  -8   7    1.76    0.58
   4   8  -7    1.34    0.59
   4   8  -7    2.06    0.57
   4   8  -7    1.61    0.36
  -4  -8   6    8.61    0.85
  -4  -8   6   10.14    0.92
  -4  -8   6    9.75    0.66
   4   8  -6    8.57    0.91
   4   8  -6   13.22    0.90
   4   8  -6    8.40    0.68
   4   8  -6    9.29    0.57
  -4  -8   5    1.40    0.48
  -4  -8   5    1.83    0.58
  -4  -8   5    1.27    0.47
  -4  -8   5    0.67    0.27
   4   8  -5    1.63    0.26
   4   8  -5    0.55    0.45
   4   8  -5    1.27    0.43
   4   8  -5    0.46    0.50
   4   8  -5    1.09    0.32
   4   8  -5    0.52    0.24
  -4  -8   4   22.00    1.00
  -4  -8   4   18.93    1.12
   4   8  -4   25.46    0.63
   4   8  -4   27.17    1.10
   4   8  -4   29.66    1.02
   4   8  -4   20.11    0.97
   4   8  -4   21.84    0.62
   4   8  -4   22.67    0.58
  -4  -8   3   -0.30    0.33
  -4  -8   3    0.16    0.38
   4   8  -3   -0.02    0.27
   4   8  -3    0.00    0.30
   4   8  -3   -0.48    0.34
   4   8  -3    0.58    0.38
   4   8  -3    0.06    0.42
   4   8  -3   -0.73    0.42
   4   8  -3   -0.06    0.19
   4   8  -3    0.37    0.18
  -4  -8   2   21.29    0.91
  -4  -8   2   20.65    0.86
   4   8  -2   22.33    0.72
   4   8  -2   20.61    0.73
   4   8  -2   24.31    1.00
   4   8  -2   26.00    0.97
   4   8  -2   19.44    1.04
   4   8  -2   21.36    0.88
   4   8  -2   20.10    0.41
   4   8  -2   20.25    0.39
  -4  -8   1    6.80    0.68
   4   8  -1    9.24    0.60
   4   8  -1    8.02    0.61
   4   8  -1    9.77    0.77
   4   8  -1    9.72    0.76
   4   8  -1    7.93    0.61
   4   8  -1    9.37    0.70
  -4  -8   0   31.89    0.99
   4   8   0   37.24    0.95
   4   8   0   35.18    0.94
   4   8   0   36.90    1.09
   4   8   0   39.26    1.13
   4   8   0   32.52    0.86
   4   8   0   39.42    0.99
  -4  -8  -1   20.29    0.81
   4   8   1   25.40    0.87
   4   8   1   21.35    0.86
   4   8   1   23.09    0.91
   4   8   1   22.07    0.76
   4   8   1   24.06    0.82
  -4  -8  -2   10.40    0.65
  -4  -8  -2    9.84    0.74
   4   8   2   12.87    0.74
   4   8   2   10.35    0.74
   4   8   2   11.87    0.76
   4   8   2   13.04    0.86
   4   8   2   12.08    0.62
   4   8   2   12.29    0.67
  -4  -8  -3   25.89    0.83
  -4  -8  -3   24.74    1.00
   4   8   3   29.49    1.05
   4   8   3   31.16    1.10
   4   8   3   28.98    0.81
   4   8   3   31.38    0.85
   4   8   3   28.53    0.51
   4   8   3   27.52    0.49
  -4  -8  -4    1.24    0.45
   4   8   4    1.23    0.42
   4   8   4    1.64    0.46
   4   8   4    2.02    0.38
   4   8   4    1.73    0.39
   4   8   4    1.77    0.26
   4   8   4    2.17    0.25
  -4  -8  -5   54.76    1.04
  -4  -8  -5   50.71    1.37
  -4  -8  -5   51.26    0.66
   4   8   5   61.98    1.47
   4   8   5   59.54    1.50
   4   8   5   60.43    1.10
   4   8   5   57.31    1.08
   4   8   5   58.15    0.94
   4   8   5   56.70    0.89
  -4  -8  -6    2.54    0.54
  -4  -8  -6    2.91    0.35
   4   8   6    2.18    0.45
   4   8   6    2.17    0.55
   4   8   6    3.57    0.48
   4   8   6    3.15    0.50
   4   8   6    3.11    0.41
   4   8   6    2.74    0.33
  -4  -8  -7   38.84    1.39
   4   8   7   46.34    1.42
   4   8   7   44.52    1.46
   4   8   7   48.08    1.15
   4   8   7   45.46    1.11
   4   8   7   44.23    1.01
  -4  -8  -8   15.66    1.17
  -4  -8  -8   16.96    1.19
   4   8   8   16.98    1.11
   4   8   8   20.78    1.17
   4   8   8   18.05    0.95
   4   8   8   17.70    0.79
  -4  -8  -9    6.88    0.76
  -4  -8  -9    8.30    0.92
   4   8   9    8.87    0.91
   4   8   9    9.27    0.95
   4   8   9    8.25    0.77
  -4  -9   7    5.32    0.75
  -4  -9   7    6.63    0.86
   4   9  -7    6.06    0.79
   4   9  -7    5.54    0.63
  -4  -9   6    2.93    0.64
  -4  -9   6    2.61    0.66
   4   9  -6    1.58    0.58
   4   9  -6    2.79    0.71
   4   9  -6    2.02    0.43
   4   9  -6    1.78    0.36
  -4  -9   5    9.82    0.92
  -4  -9   5    9.60    1.03
   4   9  -5   10.71    0.99
   4   9  -5   12.43    1.09
   4   9  -5    9.14    0.57
   4   9  -5    9.07    0.51
  -4  -9   4   10.51    0.89
  -4  -9   4    9.33    0.94
   4   9  -4   11.19    0.65
   4   9  -4   11.76    0.98
   4   9  -4   11.38    1.08
   4   9  -4    9.54    0.46
   4   9  -4   10.65    0.43
  -4  -9   3    2.02    0.48
  -4  -9   3    3.70    0.59
   4   9  -3    3.87    0.48
   4   9  -3    2.68    0.51
  -4  -9   2   14.20    0.89
   4   9  -2   15.80    0.78
   4   9  -2   15.14    0.85
   4   9  -2   16.05    0.97
   4   9  -2   17.81    1.01
  -4  -9   1    6.05    0.74
   4   9  -1    5.81    0.70
   4   9  -1    6.75    0.65
   4   9  -1    7.66    0.81
   4   9  -1    7.48    0.83
   4   9  -1    6.77    0.71
   4   9  -1    6.22    0.65
  -4  -9   0   30.28    1.06
   4   9   0   35.41    1.06
   4   9   0   31.00    1.08
   4   9   0   36.00    1.17
   4   9   0   36.34    1.22
   4   9   0   30.42    0.98
   4   9   0   33.78    1.11
  -4  -9  -1   -0.44    0.37
   4   9   1    0.07    0.42
   4   9   1    0.36    0.38
   4   9   1   -0.20    0.45
   4   9   1    0.14    0.35
   4   9   1   -0.62    0.45
  -4  -9  -2   36.80    1.07
   4   9   2   41.75    1.21
   4   9   2   39.24    1.23
   4   9   2   43.51    1.35
   4   9   2   38.59    1.02
   4   9   2   40.01    1.12
  -4  -9  -3    0.25    0.37
  -4  -9  -3    0.13    0.42
   4   9   3   -0.06    0.42
   4   9   3    0.99    0.49
   4   9   3    0.33    0.41
   4   9   3    0.43    0.46
  -4  -9  -4   25.81    0.92
  -4  -9  -4   22.19    1.10
   4   9   4   29.45    1.17
   4   9   4   29.04    1.26
   4   9   4   30.58    1.00
   4   9   4   25.33    1.11
   4   9   4   24.89    0.49
  -4  -9  -5   10.33    0.82
  -4  -9  -5   11.41    1.02
   4   9   5   10.84    0.96
   4   9   5   11.88    1.07
   4   9   5   11.30    0.81
   4   9   5   10.64    0.55
   4   9   5   10.17    0.47
  -4  -9  -6    4.07    0.69
   4   9   6    3.50    0.68
   4   9   6    5.64    0.74
   4   9   6    5.12    0.61
   4   9   6    5.16    0.61
   4   9   6    4.81    0.48
  -4  -9  -7   12.30    1.14
   4   9   7   12.62    1.08
   4   9   7   12.54    1.20
   4   9   7   10.85    0.65
  -4  -9  -8   -1.44    0.64
   4   9   8   -0.23    0.59
   4   9   8   -0.41    0.62
   4   9   8    0.20    0.45
  -4 -10   5   18.75    1.14
  -4 -10   5   16.98    1.33
   4  10  -5   18.75    1.32
   4  10  -5   23.98    1.25
   4  10  -5   17.02    0.57
   4  10  -5   14.89    0.50
  -4 -10   4    0.85    0.53
  -4 -10   4    1.59    0.63
   4  10  -4    1.79    0.64
   4  10  -4    1.66    0.62
  -4 -10   3   19.93    1.11
   4  10  -3   21.51    0.97
   4  10  -3   24.81    1.31
   4  10  -3   26.40    1.23
   4  10  -3   19.37    1.11
  -4 -10   2    0.99    0.52
   4  10  -2    0.26    0.48
   4  10  -2    0.17    0.52
   4  10  -2    0.45    0.61
   4  10  -2    0.58    0.50
  -4 -10   1   29.41    1.19
   4  10  -1   32.34    1.16
   4  10  -1   31.56    1.30
   4  10  -1   37.01    1.37
   4  10  -1   29.06    1.16
  -4 -10   0    3.13    0.54
   4  10   0    2.79    0.58
   4  10   0    2.92    0.60
   4  10   0    3.25    0.65
   4  10   0    2.58    0.55
  -4 -10  -1    4.84    0.62
   4  10   1    6.39    0.74
   4  10   1    5.09    0.68
   4  10   1    6.20    0.76
   4  10   1    3.75    0.71
  -4 -10  -2    7.97    0.82
   4  10   2    7.17    0.77
   4  10   2    8.71    0.95
   4  10   2    9.58    1.11
   4  10   2    9.19    0.90
  -4 -10  -3    2.53    0.51
   4  10   3    2.44    0.60
   4  10   3    1.27    0.57
   4  10   3    2.40    0.64
   4  10   3    1.79    0.58
  -4 -10  -4    6.93    0.83
  -4 -10  -4    6.54    0.78
   4  10   4    8.60    0.88
   4  10   4    6.66    0.77
   4  10   4    8.68    0.92
   4  10   4    9.25    0.98
  -4 -10  -5    0.23    0.62
   4  10   5   -0.64    0.54
   4  10   5    0.68    0.64
   4  10   5    0.29    0.66
  -4 -10  -6   10.32    1.27
   4  10   6   11.37    1.22
   4  10   6   10.04    1.01
   4  10   6    9.55    0.64
   4  10   6    9.86    0.54
  -4 -11   1   10.30    1.02
   4  11  -1    9.15    1.11
   4  11  -1   12.75    1.27
   4  11  -1   13.03    1.35
   4  11  -1    8.48    0.87
  -4 -11   0    1.91    0.59
   4  11   0    1.58    0.72
   4  11   0    2.00    0.72
   4  11   0    3.02    0.73
   4  11   0    1.53    0.66
  -4 -11  -1   17.80    1.11
   4  11   1   19.80    1.33
   4  11   1   17.36    1.32
   4  11   1   20.28    1.41
   4  11   1   16.44    1.22
   4  11   2   -1.09    0.64
   4  11   2   -0.83    0.59
   4  11   2    0.08    0.71
   4  11   2   -0.14    0.65
  -5   8   0    1.25    0.63
  -5   8   0    0.72    0.85
  -5   8   0    0.93    0.67
   5  -8   0    1.57    0.62
  -5   8  -1    6.09    0.76
  -5   8  -1    4.23    0.83
  -5   8  -1    4.33    0.63
   5  -8   1    3.71    0.74
  -5   8  -2    1.95    0.63
  -5   8  -2    2.47    0.86
   5  -8   2    1.18    0.69
  -5   7   5   -1.05    0.49
  -5   7   4    6.38    0.72
  -5   7   4    3.74    0.72
  -5   7   4    6.91    0.85
   5  -7  -4    5.57    0.82
   5  -7  -4    4.49    0.79
  -5   7   3    3.65    0.67
  -5   7   3    4.13    0.69
  -5   7   3    2.82    0.53
   5  -7  -3    1.87    0.67
   5  -7  -3    2.68    0.65
  -5   7   2    1.36    0.57
  -5   7   2    0.57    0.60
  -5   7   2    1.17    0.44
   5  -7  -2    1.37    0.53
   5  -7  -2    0.87    0.57
  -5   7   1   -0.32    0.51
  -5   7   1   -0.44    0.55
  -5   7   1    0.49    0.40
   5  -7  -1    0.71    0.51
   5  -7  -1    0.36    0.60
  -5   7   0    1.07    0.52
  -5   7   0    0.45    0.53
  -5   7   0    0.63    0.41
   5  -7   0   -0.44    0.43
   5  -7   0    0.39    0.47
  -5   7  -1    3.39    0.59
  -5   7  -1    3.68    0.70
  -5   7  -1    3.74    0.51
   5  -7   1    3.24    0.58
   5  -7   1    3.59    0.52
  -5   7  -2    0.21    0.46
  -5   7  -2    0.22    0.58
  -5   7  -2    0.59    0.41
   5  -7   2    0.29    0.48
   5  -7   2    0.52    0.40
  -5   7  -3    7.05    0.78
  -5   7  -3    6.63    0.84
  -5   7  -3    8.38    0.81
   5  -7   3    5.68    0.71
  -5   7  -4    1.14    0.57
  -5   7  -4    0.15    0.59
  -5   7  -4    0.17    0.41
   5  -7   4    0.77    0.54
  -5   7  -5    1.46    0.56
  -5   7  -5    1.70    0.68
  -5   7  -5    0.75    0.47
   5  -7   5    2.26    0.65
  -5   7  -6   -0.37    0.78
  -5   7  -6   -0.01    0.72
  -5   7  -6   -0.24    0.51
   5  -7   6    1.47    0.65
  -5   6   6   12.59    1.14
  -5   6   6   10.34    1.10
  -5   6   6    9.83    0.98
   5  -6  -6    9.25    1.08
   5  -6  -6    9.71    0.96
  -5   6   5    3.21    0.58
  -5   6   5    2.27    0.63
  -5   6   5    3.94    0.60
   5  -6  -5    3.48    0.73
   5  -6  -5    3.24    0.64
  -5   6   4   19.30    0.97
  -5   6   4   18.63    1.12
  -5   6   4   18.73    0.99
   5  -6  -4   17.98    1.14
   5  -6  -4   17.58    1.10
  -5   6   3    0.84    0.49
  -5   6   3    1.21    0.54
  -5   6   3    0.58    0.38
   5  -6  -3    1.88    0.54
   5  -6  -3    1.50    0.51
  -5   6   2   28.07    1.07
  -5   6   2   29.41    1.22
  -5   6   2   29.71    1.05
   5  -6  -2   29.99    1.18
   5  -6  -2   24.47    1.07
  -5   6   1    0.74    0.46
  -5   6   1    1.42    0.52
  -5   6   1    1.43    0.43
   5  -6  -1    1.51    0.44
   5  -6  -1    1.11    0.44
  -5   6   0   20.20    0.98
  -5   6   0   24.38    1.05
  -5   6   0   19.65    1.08
  -5   6   0   22.81    1.30
  -5   6   0   18.10    0.87
   5  -6   0   21.27    1.02
   5  -6   0   18.95    0.86
   5  -6   0   21.68    1.28
  -5   6  -1    6.01    0.67
  -5   6  -1    8.30    0.81
  -5   6  -1    5.55    0.68
  -5   6  -1    6.82    0.85
  -5   6  -1    4.88    0.55
   5  -6   1    4.50    0.57
   5  -6   1    5.17    0.64
   5  -6   1    6.08    0.71
  -5   6  -2    8.10    0.83
  -5   6  -2    7.29    0.85
  -5   6  -2    8.69    0.75
   5  -6   2    8.68    0.83
   5  -6   2    8.03    0.61
  -5   6  -3   16.93    0.98
  -5   6  -3   16.62    1.05
  -5   6  -3   15.98    0.86
   5  -6   3   16.07    0.97
   5  -6   3   16.49    0.61
  -5   6  -4    1.03    0.52
  -5   6  -4    1.78    0.54
  -5   6  -4    2.23    0.48
   5  -6   4    1.78    0.48
  -5   6  -5    7.88    0.85
  -5   6  -5    6.11    0.77
  -5   6  -5    7.02    0.81
   5  -6   5    5.89    0.72
  -5   6  -6   -0.79    0.43
  -5   6  -6    0.26    0.55
  -5   6  -6    0.94    0.49
   5  -6   6    0.62    0.59
  -5   6  -7    5.52    0.79
  -5   6  -7    5.22    0.80
  -5   6  -7    4.51    0.66
   5  -6   7    4.62    0.76
  -5   6  -8   -0.23    0.82
  -5   6  -8   -0.24    0.67
  -5   6  -8    0.52    0.59
   5  -6   8    1.36    0.67
  -5   5   8   11.48    1.19
  -5   5   8   13.55    1.20
  -5   5   8   13.32    1.20
   5  -5  -8   10.95    1.17
  -5   5   7   21.22    1.17
  -5   5   7   16.52    1.21
  -5   5   7   21.08    1.20
   5  -5  -7   19.49    1.23
  -5   5   6    2.91    0.56
  -5   5   6    1.65    0.52
  -5   5   6    1.41    0.53
  -5   5   6    1.52    0.50
   5  -5  -6    1.06    0.53
   5  -5  -6    1.77    0.62
  -5   5   5   49.76    1.16
  -5   5   5   50.95    1.47
  -5   5   5   50.81    1.37
   5  -5  -5   50.20    1.43
   5  -5  -5   45.87    1.41
  -5   5   4   -0.13    0.39
  -5   5   4    0.11    0.40
  -5   5   4   -0.07    0.37
   5  -5  -4   -0.10    0.42
   5  -5  -4    0.11    0.40
   5  -5  -4   -0.17    0.38
  -5   5   3   53.31    1.21
  -5   5   3   55.49    1.46
  -5   5   3   54.08    1.36
  -5   5   3   52.99    1.28
   5  -5  -3   53.56    1.39
   5  -5  -3   45.56    1.26
   5  -5  -3   59.95    1.36
  -5   5   2   17.93    0.87
  -5   5   2   18.12    1.00
  -5   5   2   19.05    0.99
  -5   5   2   17.72    0.85
   5  -5  -2   17.76    0.92
   5  -5  -2   16.30    0.83
   5  -5  -2   18.39    0.91
  -5   5   1   17.10    0.86
  -5   5   1   20.39    0.93
  -5   5   1   16.51    0.96
  -5   5   1   17.43    0.89
  -5   5   1   15.58    0.80
   5  -5  -1   17.92    0.90
   5  -5  -1   14.03    0.78
   5  -5  -1   17.81    0.85
  -5   5   0   33.03    1.05
  -5   5   0   42.91    1.06
  -5   5   0   34.55    1.16
  -5   5   0   37.59    1.11
  -5   5   0   31.71    0.99
   5  -5   0   32.66    1.08
   5  -5   0   29.06    0.88
   5  -5   0   37.65    1.09
  -5   5  -1    1.70    0.44
  -5   5  -1    3.35    0.46
  -5   5  -1    2.23    0.47
  -5   5  -1    2.28    0.43
  -5   5  -1    1.89    0.40
   5  -5   1    1.39    0.38
   5  -5   1    1.86    0.35
   5  -5   1    2.11    0.48
  -5   5  -2   53.18    1.32
  -5   5  -2   68.19    1.07
  -5   5  -2   50.40    1.31
  -5   5  -2   61.16    1.34
  -5   5  -2   51.49    1.21
   5  -5   2   52.06    1.33
   5  -5   2   48.59    0.91
   5  -5   2   57.76    1.29
  -5   5  -3    0.89    0.41
  -5   5  -3    0.91    0.38
  -5   5  -3    0.49    0.38
  -5   5  -3    0.45    0.45
  -5   5  -3    0.63    0.32
   5  -5   3    0.83    0.46
   5  -5   3    0.64    0.18
   5  -5   3    0.87    0.27
   5  -5   3    1.54    0.46
  -5   5  -4    6.17    0.64
  -5   5  -4    7.93    0.48
  -5   5  -4   10.11    0.43
  -5   5  -4    7.56    0.81
  -5   5  -4   11.30    0.89
  -5   5  -4    6.87    0.69
   5  -5   4    7.78    0.81
   5  -5   4    7.42    0.48
   5  -5   4    8.91    0.84
  -5   5  -5   -0.46    0.39
  -5   5  -5    0.39    0.31
  -5   5  -5    0.73    0.46
  -5   5  -5    1.15    0.54
  -5   5  -5    0.69    0.40
   5  -5   5    0.72    0.45
   5  -5   5    0.58    0.34
   5  -5   5    0.61    0.49
  -5   5  -6   12.64    0.87
  -5   5  -6   11.91    0.74
  -5   5  -6   12.22    0.98
  -5   5  -6   12.13    0.90
   5  -5   6   12.82    0.93
   5  -5   6   12.50    0.80
  -5   5  -7   11.47    0.93
  -5   5  -7   10.57    0.80
  -5   5  -7   11.81    1.01
  -5   5  -7   11.15    0.92
   5  -5   7   11.03    0.92
   5  -5   7   10.89    0.95
  -5   5  -8    0.29    0.49
  -5   5  -8    1.62    0.62
  -5   5  -8   -0.20    0.58
  -5   5  -8    0.14    0.52
   5  -5   8    1.23    0.57
  -5   5  -9    1.36    0.57
  -5   5  -9    3.25    0.63
  -5   5  -9    2.55    0.68
  -5   5  -9    2.22    0.68
   5  -5   9    2.91    0.67
   5  -5   9    1.37    0.73
  -5   4   9    8.01    0.85
  -5   4   9    6.61    0.85
  -5   4   9    8.87    0.97
   5  -4  -9    8.48    0.94
  -5   4   8   31.94    1.29
  -5   4   8   27.72    1.34
  -5   4   8   29.60    1.35
   5  -4  -8   28.93    1.35
  -5   4   7    1.53    0.49
  -5   4   7   -0.18    0.53
  -5   4   7    1.17    0.51
   5  -4  -7    1.68    0.32
   5  -4  -7    1.72    0.58
  -5   4   6   26.28    1.19
  -5   4   6   26.59    1.13
   5  -4  -6   24.93    1.06
   5  -4  -6   21.83    0.52
   5  -4  -6   24.64    1.14
   5  -4  -6   30.51    1.26
  -5   4   5    1.79    0.42
  -5   4   5    2.12    0.49
  -5   4   5    1.76    0.52
  -5   4   5    1.14    0.47
   5  -4  -5    0.96    0.42
   5  -4  -5    1.46    0.45
   5  -4  -5    2.62    0.57
  -5   4   4   30.77    0.91
  -5   4   4   33.20    1.14
  -5   4   4   30.30    1.08
  -5   4   4   33.11    1.07
   5  -4  -4   33.01    1.08
   5  -4  -4   30.54    1.07
   5  -4  -4   33.36    1.09
  -5   4   3   22.23    0.83
  -5   4   3   21.54    0.97
  -5   4   3   23.48    0.98
  -5   4   3   21.52    1.41
   5  -4  -3   19.16    1.10
   5  -4  -3   21.20    0.91
   5  -4  -3   23.34    0.93
  -5   4   2   21.90    0.84
  -5   4   2   25.16    0.95
  -5   4   2   22.78    0.96
  -5   4   2   23.10    0.95
  -5   4   2   21.18    0.85
   5  -4  -2   19.11    1.05
   5  -4  -2   18.88    0.84
   5  -4  -2   22.69    0.90
  -5   4   1   45.63    1.11
  -5   4   1   59.07    1.18
  -5   4   1   42.85    1.86
  -5   4   1   47.75    1.16
  -5   4   1   46.85    1.11
   5  -4  -1   45.80    1.17
   5  -4  -1   41.55    1.03
   5  -4  -1   49.21    1.19
   5  -4  -1   41.24    1.05
  -5   4   0   12.77    0.77
  -5   4   0   15.65    0.72
  -5   4   0   11.33    0.75
  -5   4   0   10.21    0.75
  -5   4   0   12.71    0.73
  -5   4   0   12.08    0.69
   5  -4   0   12.28    0.73
   5  -4   0   10.33    0.63
   5  -4   0    9.70    0.67
  -5   4  -1   66.98    1.34
  -5   4  -1   88.82    1.23
  -5   4  -1   66.83    1.35
  -5   4  -1   68.47    1.38
  -5   4  -1   75.16    1.35
  -5   4  -1   64.86    1.28
   5  -4   1   67.04    1.43
   5  -4   1   59.21    1.03
   5  -4   1   62.60    1.21
  -5   4  -2    0.31    0.35
  -5   4  -2    0.20    0.27
  -5   4  -2   -0.08    0.31
  -5   4  -2    0.11    0.40
  -5   4  -2    0.66    0.37
  -5   4  -2   -0.22    0.26
   5  -4   2    0.16    0.54
   5  -4   2    0.57    0.26
   5  -4   2   -0.84    0.33
   5  -4   2    0.12    0.35
  -5   4  -3   48.18    1.23
  -5   4  -3   49.09    0.67
  -5   4  -3   48.80    1.19
  -5   4  -3   49.44    1.20
  -5   4  -3   59.14    1.29
  -5   4  -3   50.01    1.16
   5  -4   3   52.00    1.30
   5  -4   3   56.39    0.70
   5  -4   3   48.60    0.79
   5  -4   3   54.97    1.22
  -5   4  -4   11.64    0.75
  -5   4  -4   11.65    0.51
  -5   4  -4   14.28    0.47
  -5   4  -4   10.25    0.75
  -5   4  -4   11.27    0.94
  -5   4  -4   13.14    0.83
   5  -4   4   11.87    0.74
   5  -4   4   10.88    0.41
   5  -4   4   13.15    0.80
  -5   4  -5   51.30    1.34
  -5   4  -5   52.01    0.94
  -5   4  -5   48.11    1.29
  -5   4  -5   63.89    1.41
  -5   4  -5   52.53    1.27
   5  -4   5   52.13    1.31
   5  -4   5   48.09    0.95
   5  -4   5   52.04    1.28
  -5   4  -6   25.96    1.04
  -5   4  -6   24.68    0.84
  -5   4  -6   23.96    1.01
  -5   4  -6   30.53    1.15
  -5   4  -6   24.95    1.01
   5  -4   6   25.44    1.03
   5  -4   6   19.61    0.82
   5  -4   6   25.68    1.10
  -5   4  -7    1.62    0.44
  -5   4  -7    1.40    0.43
  -5   4  -7    1.86    0.52
  -5   4  -7    1.36    0.42
   5  -4   7    2.63    0.53
   5  -4   7    1.60    0.46
   5  -4   7    2.37    0.58
  -5   4  -8    9.74    0.88
  -5   4  -8   12.55    1.54
  -5   4  -8   10.98    1.06
   5  -4   8   10.42    0.92
   5  -4   8   10.26    0.97
  -5   4  -9    2.03    0.55
  -5   4  -9    3.64    0.60
  -5   4  -9    2.90    0.63
   5  -4   9    3.21    0.63
   5  -4   9    1.78    0.60
  -5   4 -10   17.58    1.11
  -5   4 -10   20.44    1.22
  -5   4 -10   15.11    1.25
   5  -4  10   15.12    1.19
   5  -4  10   13.95    1.28
  -5   3  10    1.88    0.70
  -5   3  10    1.28    0.60
  -5   3  10    1.21    0.72
   5  -3 -10    1.53    0.67
  -5   3   9    6.07    0.71
  -5   3   9    2.40    0.56
  -5   3   9    5.53    0.80
   5  -3  -9    3.66    0.55
   5  -3  -9    4.49    0.71
  -5   3   8    0.86    0.48
  -5   3   8   -0.08    0.43
  -5   3   8    1.49    0.60
   5  -3  -8    0.98    0.38
   5  -3  -8    0.77    0.50
  -5   3   7   12.83    1.02
  -5   3   7   14.97    0.76
  -5   3   7   13.40    0.69
  -5   3   7   12.49    0.94
  -5   3   7   15.65    1.00
   5  -3  -7    6.78    0.56
   5  -3  -7   13.02    0.92
   5  -3  -7   16.47    1.13
  -5   3   6    0.99    0.45
  -5   3   6    0.81    0.47
  -5   3   6    0.71    0.49
   5  -3  -6    0.73    0.40
   5  -3  -6    0.44    0.24
   5  -3  -6    1.26    0.45
   5  -3  -6    0.68    0.40
  -5   3   5   25.63    1.02
  -5   3   5   26.01    1.03
  -5   3   5   25.88    1.01
   5  -3  -5   25.50    0.94
   5  -3  -5   17.89    0.48
   5  -3  -5   25.40    1.02
   5  -3  -5   23.37    1.06
  -5   3   4    1.54    0.39
  -5   3   4    1.19    0.33
  -5   3   4    1.60    0.42
  -5   3   4    1.73    0.44
  -5   3   4    2.26    0.44
   5  -3  -4    1.92    0.40
   5  -3  -4    1.33    0.16
   5  -3  -4    1.66    0.18
   5  -3  -4    1.45    0.40
   5  -3  -4    1.74    0.42
   5  -3  -4    1.15    0.37
  -5   3   3   25.55    0.89
  -5   3   3   26.78    0.84
  -5   3   3   29.67    0.96
  -5   3   3   27.25    0.94
  -5   3   3   28.60    0.99
  -5   3   3   25.76    0.91
   5  -3  -3   25.34    0.87
   5  -3  -3   26.74    0.91
   5  -3  -3   20.73    0.84
   5  -3  -3   28.23    0.94
   5  -3  -3   23.72    0.89
  -5   3   2   22.50    0.89
  -5   3   2   22.25    0.79
  -5   3   2   26.45    0.88
  -5   3   2   23.05    0.89
  -5   3   2   22.49    0.88
  -5   3   2   22.45    0.84
   5  -3  -2   21.08    0.81
   5  -3  -2   22.96    0.82
   5  -3  -2   20.41    0.80
   5  -3  -2   23.47    0.84
   5  -3  -2   21.41    0.80
  -5   3   1    7.50    0.61
  -5   3   1    6.73    0.58
  -5   3   1    8.43    0.60
  -5   3   1    4.81    0.57
  -5   3   1    7.73    0.65
  -5   3   1    6.76    0.57
   5  -3  -1    6.26    0.56
   5  -3  -1    6.01    0.53
   5  -3  -1    7.13    0.59
   5  -3  -1    7.27    0.61
   5  -3  -1    6.19    0.53
  -5   3   0   22.88    0.83
  -5   3   0   19.48    0.77
  -5   3   0   25.39    0.77
  -5   3   0   20.24    0.78
  -5   3   0   21.57    0.80
  -5   3   0   20.16    0.78
   5  -3   0   19.57    0.78
   5  -3   0   20.18    0.70
   5  -3   0   18.39    0.75
   5  -3   0   21.26    0.80
   5  -3   0   19.83    0.75
  -5   3  -1    2.56    0.43
  -5   3  -1    1.09    0.34
  -5   3  -1    1.88    0.32
  -5   3  -1    1.75    0.36
  -5   3  -1    1.91    0.37
  -5   3  -1    1.15    0.31
  -5   3  -1    1.32    0.34
   5  -3   1    1.59    0.34
   5  -3   1    1.56    0.29
   5  -3   1    1.48    0.35
   5  -3   1    1.06    0.32
  -5   3  -2   38.94    1.05
  -5   3  -2   35.87    1.00
  -5   3  -2   31.06    0.70
  -5   3  -2   45.84    0.83
  -5   3  -2   35.14    0.93
  -5   3  -2   38.52    0.99
  -5   3  -2   41.74    1.03
  -5   3  -2   35.76    0.94
   5  -3   2   37.89    1.00
   5  -3   2   36.31    0.51
   5  -3   2   32.65    0.72
   5  -3   2   36.49    0.97
   5  -3   2   34.45    0.92
  -5   3  -3   19.60    0.95
  -5   3  -3   15.49    0.77
  -5   3  -3   15.63    0.47
  -5   3  -3   15.95    0.84
  -5   3  -3   15.68    0.72
  -5   3  -3   16.57    0.74
  -5   3  -3   18.65    0.83
  -5   3  -3   15.63    0.73
   5  -3   3   17.68    0.77
   5  -3   3   13.59    0.45
   5  -3   3   12.95    0.49
   5  -3   3   17.12    0.79
   5  -3   3   16.28    0.75
  -5   3  -4   13.78    0.74
  -5   3  -4   12.66    0.53
  -5   3  -4   16.94    0.50
  -5   3  -4   14.11    0.72
  -5   3  -4   14.88    0.75
  -5   3  -4   16.40    0.81
  -5   3  -4   14.62    0.76
   5  -3   4   14.89    0.75
   5  -3   4    9.46    0.49
   5  -3   4   11.87    0.44
   5  -3   4   15.34    0.77
   5  -3   4   15.05    0.76
  -5   3  -5   33.16    1.03
  -5   3  -5   33.01    0.80
  -5   3  -5   31.07    0.96
  -5   3  -5   37.87    1.04
  -5   3  -5   39.07    1.12
  -5   3  -5   32.62    1.02
   5  -3   5   35.23    1.34
   5  -3   5   23.72    0.72
   5  -3   5   33.48    0.53
   5  -3   5   34.64    1.08
   5  -3   5   33.96    1.03
  -5   3  -6    1.31    0.39
  -5   3  -6    0.97    0.32
  -5   3  -6    0.62    0.38
  -5   3  -6    0.90    0.46
  -5   3  -6    1.02    0.42
  -5   3  -6    0.71    0.41
   5  -3   6    1.80    0.42
   5  -3   6    0.61    0.33
   5  -3   6    1.11    0.45
  -5   3  -7   48.75    1.33
  -5   3  -7   48.68    1.13
  -5   3  -7   56.69    1.59
  -5   3  -7   60.27    1.44
  -5   3  -7   50.64    1.49
   5  -3   7   48.68    1.27
   5  -3   7   41.12    1.08
   5  -3   7   50.68    1.29
   5  -3   7   52.46    1.37
  -5   3  -8    0.73    0.42
  -5   3  -8    0.08    0.40
  -5   3  -8    0.44    0.57
  -5   3  -8    0.39    0.46
   5  -3   8    0.08    0.39
   5  -3   8    0.27    0.49
   5  -3   8    0.09    0.40
   5  -3   8    0.76    0.51
  -5   3  -9   13.97    0.98
  -5   3  -9   12.83    0.94
  -5   3  -9   11.37    0.99
   5  -3   9   11.81    0.93
   5  -3   9   13.80    1.01
   5  -3   9   14.09    1.11
  -5   3 -10   33.48    1.32
  -5   3 -10   34.20    1.32
  -5   3 -10   34.34    1.42
   5  -3  10   31.74    1.30
   5  -3  10   34.46    1.34
  -5   3 -11    6.63    0.81
  -5   3 -11    5.63    0.84
  -5   3 -11    4.63    0.76
   5  -3  11    5.71    0.82
   5  -3  11    7.34    0.86
  -5   2  10   -0.41    0.50
  -5   2  10    0.42    0.50
  -5   2  10   -0.98    0.68
   5  -2 -10   -0.26    0.50
   5  -2 -10    0.41    0.58
  -5   2   9    0.81    0.48
  -5   2   9    0.04    0.44
  -5   2   9    0.78    0.56
   5  -2  -9    0.38    0.44
   5  -2  -9   -0.56    0.50
   5  -2  -9   -0.31    0.58
  -5   2   8    0.17    0.40
  -5   2   8    0.16    0.55
  -5   2   8    0.08    0.41
  -5   2   8    0.42    0.41
  -5   2   8    0.31    0.69
  -5   2   8   -0.07    0.71
   5  -2  -8   -0.55    0.34
   5  -2  -8    0.29    0.45
   5  -2  -8    0.18    0.57
  -5   2   7    6.14    0.64
  -5   2   7    4.58    0.55
  -5   2   7    5.97    0.60
  -5   2   7    4.42    0.58
  -5   2   7    5.10    0.71
  -5   2   7    5.89    0.66
   5  -2  -7    4.99    0.56
   5  -2  -7    5.49    0.64
   5  -2  -7    4.02    0.57
   5  -2  -7    3.23    0.56
  -5   2   6    1.17    0.39
  -5   2   6    0.75    0.36
  -5   2   6    1.44    0.29
  -5   2   6    0.31    0.37
  -5   2   6    0.17    0.35
  -5   2   6    0.36    0.41
   5  -2  -6    0.34    0.33
   5  -2  -6    0.85    0.27
   5  -2  -6    1.03    0.34
   5  -2  -6    0.61    0.48
   5  -2  -6    0.67    0.45
  -5   2   5    2.43    0.41
  -5   2   5    3.88    0.50
  -5   2   5    3.52    0.33
  -5   2   5    3.46    0.48
  -5   2   5    2.24    0.39
   5  -2  -5    3.28    0.42
   5  -2  -5    3.12    0.31
   5  -2  -5    4.11    0.52
   5  -2  -5    2.81    0.40
   5  -2  -5    3.15    0.49
  -5   2   4    4.51    0.52
  -5   2   4    3.92    0.51
  -5   2   4    3.12    0.39
  -5   2   4    4.47    0.52
  -5   2   4    5.03    0.61
  -5   2   4    5.20    0.55
   5  -2  -4    4.67    0.52
   5  -2  -4    3.26    0.33
   5  -2  -4    4.21    0.38
   5  -2  -4    4.78    0.60
   5  -2  -4    2.70    0.39
   5  -2  -4    4.61    0.50
   5  -2  -4    5.45    0.60
  -5   2   3   14.94    0.68
  -5   2   3   16.30    0.73
  -5   2   3   14.66    0.73
  -5   2   3   15.13    0.75
  -5   2   3   14.73    0.72
   5  -2  -3   14.57    0.66
   5  -2  -3   13.02    0.36
   5  -2  -3   13.77    0.38
   5  -2  -3   15.60    0.73
   5  -2  -3   13.33    0.67
   5  -2  -3   17.14    0.77
   5  -2  -3   13.31    0.70
  -5   2   2    0.60    0.29
  -5   2   2    1.15    0.29
  -5   2   2    0.26    0.27
  -5   2   2    1.40    0.35
  -5   2   2    0.95    0.31
   5  -2  -2    0.74    0.28
   5  -2  -2    0.51    0.13
   5  -2  -2    0.77    0.13
   5  -2  -2    0.18    0.26
   5  -2  -2    0.98    0.32
   5  -2  -2    0.62    0.28
   5  -2  -2    0.95    0.28
  -5   2   1   12.81    0.65
  -5   2   1   10.98    0.58
  -5   2   1   13.70    0.62
  -5   2   1   12.06    0.62
  -5   2   1   12.36    0.67
  -5   2   1   11.61    0.63
   5  -2  -1   11.87    0.62
   5  -2  -1   13.73    0.27
   5  -2  -1   10.83    0.25
   5  -2  -1   12.30    0.60
   5  -2  -1   11.02    0.58
   5  -2  -1   10.14    0.59
  -5   2   0    0.87    0.30
  -5   2   0    0.17    0.26
  -5   2   0    0.23    0.24
  -5   2   0    0.69    0.25
  -5   2   0    0.22    0.24
  -5   2   0    0.08    0.24
   5  -2   0    0.56    0.27
   5  -2   0    0.18    0.10
   5  -2   0    0.37    0.11
   5  -2   0    0.41    0.24
   5  -2   0    0.51    0.28
   5  -2   0    0.21    0.22
  -5   2  -1  169.59    1.83
  -5   2  -1  143.52    1.70
  -5   2  -1  118.85    1.27
  -5   2  -1  177.33    1.58
  -5   2  -1  142.95    1.57
  -5   2  -1  150.43    1.60
  -5   2  -1  158.38    1.77
  -5   2  -1  134.72    1.64
   5  -2   1  145.26    1.71
   5  -2   1  118.17    0.85
   5  -2   1  156.43    1.50
   5  -2   1  139.47    1.64
  -5   2  -2   20.01    0.76
  -5   2  -2   16.03    0.70
  -5   2  -2   14.91    0.43
  -5   2  -2   18.54    0.58
  -5   2  -2   16.53    0.63
  -5   2  -2   16.75    0.66
  -5   2  -2   17.77    0.72
  -5   2  -2   14.79    0.67
   5  -2   2   16.39    0.67
   5  -2   2   13.44    0.41
   5  -2   2   17.23    0.56
   5  -2   2   15.51    0.67
  -5   2  -3    1.06    0.33
  -5   2  -3    0.27    0.24
  -5   2  -3    0.01    0.18
  -5   2  -3    0.42    0.20
  -5   2  -3    0.74    0.26
  -5   2  -3    0.36    0.25
  -5   2  -3    0.49    0.30
  -5   2  -3    0.55    0.28
   5  -2   3    0.66    0.26
   5  -2   3    0.33    0.19
   5  -2   3    0.24    0.19
   5  -2   3    0.38    0.32
   5  -2   3    0.37    0.29
  -5   2  -4   25.56    0.88
  -5   2  -4   20.22    0.80
  -5   2  -4   20.77    0.62
  -5   2  -4   26.04    0.59
  -5   2  -4   21.21    0.72
  -5   2  -4   24.56    0.76
  -5   2  -4   25.71    0.87
  -5   2  -4   21.32    0.80
   5  -2   4   22.05    0.81
   5  -2   4   19.02    0.60
   5  -2   4   23.20    0.55
   5  -2   4   22.87    0.84
   5  -2   4   23.54    0.82
  -5   2  -5    2.18    0.44
  -5   2  -5    1.55    0.35
  -5   2  -5    1.60    0.30
  -5   2  -5    1.87    0.35
  -5   2  -5    2.60    0.38
  -5   2  -5    2.06    0.36
  -5   2  -5    2.29    0.42
   5  -2   5    2.23    0.40
   5  -2   5    1.48    0.31
   5  -2   5    2.46    0.26
   5  -2   5    2.44    0.25
   5  -2   5    2.09    0.37
   5  -2   5    2.67    0.43
  -5   2  -6   14.41    0.78
  -5   2  -6   14.00    0.66
  -5   2  -6   14.20    0.69
  -5   2  -6   16.43    0.78
  -5   2  -6   19.31    0.90
  -5   2  -6   13.37    0.83
   5  -2   6   14.03    0.73
   5  -2   6   15.22    0.73
   5  -2   6   15.05    0.45
   5  -2   6   15.82    0.45
   5  -2   6   16.32    0.73
   5  -2   6   15.58    0.84
   5  -2   6   15.92    0.81
  -5   2  -7    9.67    0.73
  -5   2  -7    8.16    0.65
  -5   2  -7   11.30    0.78
  -5   2  -7    9.81    0.81
  -5   2  -7    9.19    0.78
   5  -2   7   10.91    0.72
   5  -2   7   10.04    0.75
   5  -2   7    9.27    0.40
   5  -2   7    9.55    0.40
   5  -2   7    8.27    0.67
   5  -2   7    9.79    0.83
   5  -2   7   10.03    0.82
  -5   2  -8    4.60    0.56
  -5   2  -8    6.19    0.69
  -5   2  -8    9.22    0.88
  -5   2  -8    8.42    0.79
  -5   2  -8    6.40    0.77
   5  -2   8    5.37    0.67
   5  -2   8    5.75    0.63
   5  -2   8    6.91    0.37
   5  -2   8    6.24    0.69
   5  -2   8    6.22    0.65
   5  -2   8    5.09    0.58
  -5   2  -9    1.13    0.43
  -5   2  -9    0.82    0.46
  -5   2  -9    2.20    0.67
  -5   2  -9    0.70    0.40
   5  -2   9    0.79    0.43
   5  -2   9    1.24    0.54
   5  -2   9    1.17    0.50
  -5   2 -10    1.97    0.51
  -5   2 -10    0.40    0.49
  -5   2 -10    2.00    0.59
   5  -2  10    1.99    0.55
   5  -2  10    2.28    0.54
   5  -2  10    2.03    0.68
  -5   2 -11   10.89    0.96
  -5   2 -11    9.60    1.12
  -5   2 -11   13.02    1.31
   5  -2  11   10.96    1.02
   5  -2  11   11.28    1.08
  -5   2 -12    0.18    0.52
  -5   2 -12    0.88    0.76
   5  -2  12    0.43    0.66
   5  -2  12    0.66    0.68
  -5   1  11    0.94    0.64
  -5   1  11    1.65    0.88
   5  -1 -11   -0.15    0.64
   5  -1 -11    0.58    0.67
  -5   1  10    1.31    0.49
  -5   1  10    0.91    0.49
  -5   1  10    0.85    0.57
   5  -1 -10    0.46    0.52
   5  -1 -10    0.35    0.59
   5  -1 -10    1.36    0.78
  -5   1   9    2.06    0.46
  -5   1   9    1.37    0.52
  -5   1   9    1.84    0.50
  -5   1   9    1.21    0.46
  -5   1   9    2.93    1.17
  -5   1   9    1.11    0.51
   5  -1  -9    0.78    0.46
   5  -1  -9    0.96    0.51
   5  -1  -9    0.94    0.53
   5  -1  -9    1.37    0.99
  -5   1   8    0.46    0.36
  -5   1   8   -0.02    0.39
  -5   1   8    0.11    0.35
  -5   1   8    0.09    0.39
  -5   1   8   -0.71    0.35
  -5   1   8    0.95    0.60
  -5   1   8   -0.07    0.49
   5  -1  -8    0.69    0.37
   5  -1  -8    0.64    0.40
   5  -1  -8    0.70    0.54
   5  -1  -8    0.41    0.63
  -5   1   7   14.82    0.69
  -5   1   7   13.63    0.71
  -5   1   7   12.86    0.69
  -5   1   7   14.01    0.71
  -5   1   7   11.12    0.80
  -5   1   7   13.28    0.96
  -5   1   7   14.33    0.92
   5  -1  -7   13.91    0.68
   5  -1  -7   15.27    0.87
   5  -1  -7   15.13    0.97
   5  -1  -7   11.14    0.94
  -5   1   6   -0.08    0.30
  -5   1   6    0.43    0.27
  -5   1   6    0.11    0.42
  -5   1   6   -0.24    0.38
  -5   1   6    0.14    0.40
   5  -1  -6   -0.05    0.28
   5  -1  -6   -0.11    0.26
   5  -1  -6   -0.07    0.41
   5  -1  -6   -0.25    0.34
   5  -1  -6    0.24    0.34
  -5   1   5   13.35    0.62
  -5   1   5   12.63    0.72
  -5   1   5   13.24    0.54
  -5   1   5   12.29    0.75
  -5   1   5   13.30    0.75
  -5   1   5   12.67    0.77
   5  -1  -5   13.23    0.61
   5  -1  -5   13.33    0.56
   5  -1  -5   14.79    0.76
   5  -1  -5   10.25    0.69
   5  -1  -5   14.81    0.79
   5  -1  -5   10.78    0.74
  -5   1   4    0.22    0.24
  -5   1   4    0.04    0.29
  -5   1   4    0.33    0.21
  -5   1   4   -0.36    0.27
  -5   1   4    0.51    0.29
  -5   1   4    0.00    0.23
  -5   1   4    0.02    0.25
   5  -1  -4    0.12    0.23
   5  -1  -4    0.09    0.20
   5  -1  -4    0.29    0.32
   5  -1  -4    0.03    0.25
   5  -1  -4   -0.01    0.32
   5  -1  -4    0.14    0.32
  -5   1   3   47.78    0.93
  -5   1   3   44.09    0.94
  -5   1   3   54.02    1.07
  -5   1   3   45.67    1.00
  -5   1   3   45.24    1.03
  -5   1   3   43.80    1.03
   5  -1  -3   42.84    0.88
   5  -1  -3   53.24    0.74
   5  -1  -3   41.35    0.67
   5  -1  -3   49.72    1.07
   5  -1  -3   43.82    0.96
   5  -1  -3   50.62    1.09
   5  -1  -3   42.65    1.01
  -5   1   2   13.63    0.59
  -5   1   2   12.39    0.58
  -5   1   2   15.34    0.62
  -5   1   2   13.01    0.61
  -5   1   2   14.17    0.68
  -5   1   2   11.67    0.61
   5  -1  -2   13.76    0.58
   5  -1  -2   14.03    0.40
   5  -1  -2   11.56    0.38
   5  -1  -2   14.82    0.65
   5  -1  -2   12.10    0.58
   5  -1  -2   13.55    0.65
   5  -1  -2   13.28    0.66
  -5   1   1   26.07    0.74
  -5   1   1   22.45    0.72
  -5   1   1   27.13    0.75
  -5   1   1   22.87    0.70
  -5   1   1   24.00    0.78
  -5   1   1   19.88    0.72
   5  -1  -1   24.20    0.70
   5  -1  -1   24.52    0.47
   5  -1  -1   21.14    0.44
   5  -1  -1   26.54    0.75
   5  -1  -1   21.82    0.65
   5  -1  -1   22.76    0.74
   5  -1  -1   22.22    0.73
  -5   1   0   74.45    1.14
  -5   1   0   59.48    1.25
  -5   1   0   83.15    1.15
  -5   1   0   62.67    0.99
  -5   1   0   71.51    1.19
  -5   1   0   62.23    1.11
   5  -1   0   66.93    1.10
   5  -1   0   69.56    0.74
   5  -1   0   63.88    0.71
   5  -1   0   76.69    1.12
   5  -1   0   62.44    0.97
   5  -1   0   72.25    1.20
   5  -1   0   63.02    1.10
  -5   1  -1  115.92    1.42
  -5   1  -1   93.21    1.64
  -5   1  -1   96.01    0.92
  -5   1  -1  123.73    1.32
  -5   1  -1  100.62    1.20
  -5   1  -1  111.97    1.46
   5  -1   1  106.72    1.39
   5  -1   1   95.83    0.90
   5  -1   1  120.05    1.32
   5  -1   1   95.11    1.15
   5  -1   1  106.08    1.42
   5  -1   1   98.62    1.36
  -5   1  -2   80.13    1.24
  -5   1  -2   62.47    1.13
  -5   1  -2   63.96    0.82
  -5   1  -2   81.40    1.04
  -5   1  -2   66.09    0.96
  -5   1  -2   74.82    1.02
  -5   1  -2   77.73    1.24
  -5   1  -2   64.66    1.14
   5  -1   2   75.02    1.21
   5  -1   2   68.86    0.85
   5  -1   2   82.68    1.06
   5  -1   2   72.19    1.21
   5  -1   2   69.41    1.17
  -5   1  -3    0.22    0.25
  -5   1  -3    0.45    0.24
  -5   1  -3   -0.04    0.18
  -5   1  -3    0.93    0.23
  -5   1  -3    0.34    0.19
  -5   1  -3    0.43    0.22
  -5   1  -3    0.27    0.28
  -5   1  -3    0.76    0.28
   5  -1   3    0.42    0.24
   5  -1   3    0.76    0.23
   5  -1   3    0.82    0.22
   5  -1   3    0.41    0.26
   5  -1   3    0.36    0.30
  -5   1  -4   11.27    0.65
  -5   1  -4   10.02    0.50
  -5   1  -4   13.20    0.50
  -5   1  -4   10.02    0.50
  -5   1  -4   12.29    0.54
  -5   1  -4   12.59    0.65
  -5   1  -4   10.74    0.63
   5  -1   4   10.92    0.59
   5  -1   4   10.61    0.50
   5  -1   4   13.11    0.49
   5  -1   4   12.24    0.65
   5  -1   4   11.28    0.64
  -5   1  -5    1.60    0.35
  -5   1  -5    0.90    0.34
  -5   1  -5    0.64    0.27
  -5   1  -5    0.33    0.25
  -5   1  -5    0.58    0.28
  -5   1  -5    0.59    0.27
  -5   1  -5    0.72    0.32
   5  -1   5    1.22    0.31
   5  -1   5    0.60    0.27
   5  -1   5    1.11    0.24
   5  -1   5    0.70    0.31
   5  -1   5    1.35    0.36
  -5   1  -6   57.37    1.62
  -5   1  -6   48.52    1.12
  -5   1  -6   50.58    1.05
  -5   1  -6   61.60    1.06
  -5   1  -6   60.95    1.29
  -5   1  -6   51.48    1.20
   5  -1   6   52.19    1.16
   5  -1   6   46.50    1.02
   5  -1   6   59.29    0.85
   5  -1   6   53.31    0.98
   5  -1   6   54.12    1.23
   5  -1   6   58.11    1.26
  -5   1  -7    2.33    0.42
  -5   1  -7    2.68    0.40
  -5   1  -7    3.42    0.44
  -5   1  -7    2.81    0.49
  -5   1  -7    2.99    0.52
   5  -1   7    2.19    0.40
   5  -1   7    2.81    0.43
   5  -1   7    3.27    0.32
   5  -1   7    2.55    0.37
   5  -1   7    2.08    0.41
   5  -1   7    3.39    0.52
  -5   1  -8   12.08    0.75
  -5   1  -8   12.23    0.81
  -5   1  -8   14.44    0.82
  -5   1  -8   15.37    0.93
   5  -1   8   14.60    0.82
   5  -1   8   14.83    1.01
   5  -1   8   15.11    0.56
   5  -1   8   13.65    0.55
   5  -1   8   12.98    0.71
   5  -1   8   13.85    0.90
   5  -1   8   15.39    0.92
  -5   1  -9    0.04    0.35
  -5   1  -9   -0.16    0.38
  -5   1  -9    0.55    0.47
  -5   1  -9   -0.06    0.56
  -5   1  -9    0.37    0.39
   5  -1   9    0.02    0.39
   5  -1   9    0.09    0.27
   5  -1   9   -0.12    0.30
   5  -1   9   -0.06    0.35
   5  -1   9   -0.15    0.41
   5  -1   9    0.44    0.58
  -5   1 -10    4.43    0.60
  -5   1 -10    3.20    0.58
  -5   1 -10    4.74    0.79
  -5   1 -10    5.37    0.72
   5  -1  10    5.44    0.65
   5  -1  10    4.52    0.43
   5  -1  10    3.20    0.89
   5  -1  10    5.21    0.77
   5  -1  10    5.79    0.82
  -5   1 -11    1.18    0.49
  -5   1 -11   -0.30    0.50
  -5   1 -11   -0.03    0.83
   5  -1  11    1.35    0.57
   5  -1  11    1.05    0.54
   5  -1  11    1.48    0.67
  -5   1 -12    2.50    0.62
  -5   1 -12    0.82    0.66
  -5   1 -12   -0.22    0.65
   5  -1  12    2.62    0.72
   5  -1  12    2.90    0.68
  -5   0  11    9.64    0.97
  -5   0  11    6.71    0.80
  -5   0  11    8.45    0.99
   5   0 -11    7.30    0.81
   5   0 -11    8.53    0.93
   5   0 -11   10.12    1.11
  -5   0  10    1.26    0.43
  -5   0  10    0.75    0.49
  -5   0  10    1.45    0.56
  -5   0  10    0.83    0.56
   5   0 -10    1.60    0.53
   5   0 -10    2.90    0.65
   5   0 -10    1.42    0.69
  -5   0   9   43.53    0.97
  -5   0   9   36.79    0.94
  -5   0   9   38.52    1.08
  -5   0   9   35.66    1.28
  -5   0   9   34.38    1.49
  -5   0   9   40.94    1.45
   5   0  -9   37.86    1.19
   5   0  -9   43.24    1.37
   5   0  -9   41.78    1.45
   5   0  -9   34.37    1.45
  -5   0   8   52.68    0.98
  -5   0   8   44.05    0.94
  -5   0   8   44.64    1.04
  -5   0   8   43.86    1.18
  -5   0   8   44.75    1.28
  -5   0   8   46.48    1.44
  -5   0   8   50.84    1.44
   5   0  -8   46.67    1.15
   5   0  -8   50.31    1.34
   5   0  -8   52.97    1.50
   5   0  -8   42.82    1.37
  -5   0   7    1.89    0.34
  -5   0   7    1.23    0.33
  -5   0   7    2.09    0.39
  -5   0   7    1.97    0.39
  -5   0   7    1.87    0.42
  -5   0   7    1.80    0.49
  -5   0   7    1.93    0.50
   5   0  -7    2.32    0.40
   5   0  -7    2.25    0.46
   5   0  -7    1.74    0.43
   5   0  -7    1.08    0.42
  -5   0   6   85.08    1.12
  -5   0   6   72.73    1.05
  -5   0   6   75.00    1.25
  -5   0   6   73.89    1.18
  -5   0   6   69.95    1.38
  -5   0   6   73.15    1.44
  -5   0   6   76.93    1.50
   5   0  -6   72.26    1.03
   5   0  -6   84.33    1.27
   5   0  -6   80.00    1.49
   5   0  -6   62.47    1.28
   5   0  -6   82.52    1.53
   5   0  -6   67.86    1.41
  -5   0   5    3.93    0.43
  -5   0   5    3.38    0.35
  -5   0   5    3.97    0.50
  -5   0   5    3.30    0.42
  -5   0   5    4.18    0.48
  -5   0   5    3.56    0.42
   5   0  -5    3.59    0.41
   5   0  -5    3.88    0.44
   5   0  -5    4.21    0.46
   5   0  -5    3.08    0.43
   5   0  -5    3.10    0.39
   5   0  -5    2.59    0.40
  -5   0   4  146.83    1.39
  -5   0   4  131.66    1.59
  -5   0   4  140.54    1.37
  -5   0   4  158.91    1.84
  -5   0   4  131.05    1.61
  -5   0   4  228.26    2.84
  -5   0   4  139.30    1.74
   5   0  -4  136.18    1.35
   5   0  -4  166.20    1.50
   5   0  -4  160.14    1.86
   5   0  -4  129.47    1.58
   5   0  -4  146.40    1.78
   5   0  -4  128.07    1.66
  -5   0   3   29.62    0.69
  -5   0   3   25.88    0.77
  -5   0   3   31.65    0.85
  -5   0   3   26.76    0.77
  -5   0   3   28.94    0.84
  -5   0   3   27.29    0.83
   5   0  -3   26.72    0.66
   5   0  -3   31.66    0.66
   5   0  -3   24.54    0.64
   5   0  -3   32.79    0.88
   5   0  -3   26.41    0.74
   5   0  -3   29.41    0.87
   5   0  -3   22.11    0.90
  -5   0   2   28.72    0.68
  -5   0   2   25.79    0.74
  -5   0   2   30.82    0.79
  -5   0   2   26.36    0.72
  -5   0   2   25.05    0.85
  -5   0   2   24.63    0.77
   5   0  -2   26.57    0.66
   5   0  -2   28.80    0.60
   5   0  -2   23.18    0.55
   5   0  -2   31.29    0.82
   5   0  -2   24.74    0.67
   5   0  -2   28.49    0.82
   5   0  -2   23.93    0.75
  -5   0   1  163.86    1.51
  -5   0   1  140.14    1.54
  -5   0   1  171.51    1.66
  -5   0   1  144.87    1.39
  -5   0   1  153.30    1.65
  -5   0   1  138.87    1.58
   5   0  -1  149.77    1.45
   5   0  -1  151.61    1.22
   5   0  -1  132.19    1.14
   5   0  -1  174.90    1.71
   5   0  -1  139.12    1.34
   5   0  -1  153.42    1.65
   5   0  -1  135.44    1.54
  -5   0   0    2.46    0.32
  -5   0   0    2.03    0.31
  -5   0   0    2.62    0.31
  -5   0   0    1.77    0.26
  -5   0   0    1.89    0.29
  -5   0   0    2.42    0.34
   5   0   0    2.41    0.30
   5   0   0    2.59    0.30
   5   0   0    1.81    0.22
   5   0   0    2.27    0.31
   5   0   0    2.45    0.34
   5   0   0    1.39    0.26
  -5   0  -1  148.80    1.51
  -5   0  -1  130.29    1.50
  -5   0  -1  124.40    1.15
  -5   0  -1  158.58    1.49
  -5   0  -1  128.06    1.17
  -5   0  -1  192.42    2.07
  -5   0  -1  114.25    1.41
   5   0   1  141.85    1.49
   5   0   1  130.67    1.17
   5   0   1  160.94    1.52
   5   0   1  125.39    1.15
   5   0   1  138.01    1.56
   5   0   1  131.23    1.51
  -5   0  -2   10.95    0.52
  -5   0  -2   10.22    0.53
  -5   0  -2    9.23    0.43
  -5   0  -2   11.61    0.49
  -5   0  -2    9.88    0.40
  -5   0  -2   10.52    0.42
  -5   0  -2   16.81    0.83
  -5   0  -2    9.08    0.51
   5   0   2   10.89    0.52
   5   0   2   12.36    0.51
   5   0   2   11.40    0.56
   5   0   2    9.55    0.54
  -5   0  -3  133.35    1.55
  -5   0  -3  102.85    1.95
  -5   0  -3  108.34    1.21
  -5   0  -3  140.54    1.35
  -5   0  -3  109.60    1.05
  -5   0  -3  127.30    1.13
  -5   0  -3  142.48    1.81
  -5   0  -3  114.36    1.47
   5   0   3  125.91    1.51
   5   0   3  116.71    1.24
   5   0   3  136.81    1.34
   5   0   3  119.73    1.50
   5   0   3  119.90    1.49
  -5   0  -4    7.41    0.53
  -5   0  -4    6.73    0.47
  -5   0  -4    7.44    0.45
  -5   0  -4    6.57    0.37
  -5   0  -4    8.81    0.42
  -5   0  -4    8.54    0.57
  -5   0  -4    7.09    0.53
   5   0   4    6.35    0.47
   5   0   4    7.72    0.45
   5   0   4    7.24    0.55
  -5   0  -5   19.31    0.77
  -5   0  -5   16.92    0.71
  -5   0  -5   17.60    0.66
  -5   0  -5   16.85    0.53
  -5   0  -5   21.23    0.77
  -5   0  -5   18.03    0.77
   5   0   5   19.17    0.74
   5   0   5   17.37    0.68
   5   0   5   21.18    0.61
   5   0   5   19.34    0.58
   5   0   5   19.48    0.77
   5   0   5   20.05    0.77
  -5   0  -6   86.80    1.44
  -5   0  -6   74.81    1.31
  -5   0  -6   76.15    1.27
  -5   0  -6   92.09    1.13
  -5   0  -6   78.46    1.40
   5   0   6   86.54    1.44
   5   0   6   79.98    1.29
   5   0   6   94.68    1.14
   5   0   6   85.92    1.09
   5   0   6   82.94    1.07
   5   0   6  127.65    2.16
   5   0   6   91.05    1.48
  -5   0  -7   24.62    0.85
  -5   0  -7   24.99    0.86
  -5   0  -7   27.25    0.77
  -5   0  -7   31.86    1.03
  -5   0  -7   25.20    0.94
   5   0   7   26.38    0.91
   5   0   7   25.11    0.88
   5   0   7   28.82    0.73
   5   0   7   27.42    0.71
   5   0   7   26.19    0.71
   5   0   7   43.37    1.50
   5   0   7   27.58    0.98
  -5   0  -8   21.49    0.85
  -5   0  -8   22.78    0.81
  -5   0  -8   21.83    0.96
   5   0   8   23.13    0.91
   5   0   8   25.93    0.74
   5   0   8   24.37    0.74
   5   0   8   21.82    0.74
   5   0   8   23.55    1.00
   5   0   8   26.11    1.05
  -5   0  -9    1.09    0.40
  -5   0  -9    0.92    0.38
  -5   0  -9    1.01    0.43
  -5   0  -9    1.05    0.44
  -5   0  -9    2.43    0.56
   5   0   9    1.59    0.44
   5   0   9    1.68    0.35
   5   0   9    0.59    0.36
   5   0   9    1.19    0.36
   5   0   9    1.88    0.53
   5   0   9    1.63    0.55
  -5   0 -10    3.58    0.53
  -5   0 -10    4.04    0.58
  -5   0 -10    4.57    0.62
  -5   0 -10    6.53    0.83
  -5   0 -10    4.14    0.71
   5   0  10    3.66    0.54
   5   0  10    5.52    0.62
   5   0  10    5.93    0.71
   5   0  10    6.40    0.71
   5   0  10    5.81    0.74
   5   0  10    5.81    0.77
  -5   0 -11    4.01    0.58
  -5   0 -11    3.85    0.62
  -5   0 -11    5.24    0.81
   5   0  11    5.55    0.70
   5   0  11    4.62    0.57
   5   0  11    5.25    0.82
  -5   0 -12   13.89    1.07
  -5   0 -12   13.82    1.13
  -5   0 -12   13.57    1.47
   5   0  12   16.66    1.17
   5   0  12   14.65    1.07
   5   0  12   15.12    1.45
  -5  -1  11   13.46    0.96
  -5  -1  11    9.86    1.14
   5   1 -11   12.53    1.17
   5   1 -11   15.74    1.29
   5   1 -11   13.29    1.47
  -5  -1  10   25.60    0.79
  -5  -1  10   25.02    1.02
  -5  -1  10   21.08    1.18
  -5  -1  10   25.67    1.40
   5   1 -10   25.13    1.16
   5   1 -10   29.20    1.28
   5   1 -10   26.03    1.40
  -5  -1   9  114.16    1.19
  -5  -1   9   96.75    1.12
  -5  -1   9  105.48    1.66
  -5  -1   9  103.05    1.92
  -5  -1   9   98.96    2.00
  -5  -1   9  114.29    2.05
   5   1  -9  112.65    1.85
   5   1  -9  116.90    1.99
   5   1  -9  120.11    2.12
   5   1  -9   87.50    1.86
  -5  -1   8    0.60    0.27
  -5  -1   8    0.35    0.30
  -5  -1   8    0.06    0.33
  -5  -1   8    0.28    0.48
  -5  -1   8    0.56    0.41
  -5  -1   8    0.45    0.43
  -5  -1   8    0.43    0.46
   5   1  -8    1.05    0.39
   5   1  -8    0.44    0.39
   5   1  -8    1.95    0.55
   5   1  -8    0.93    0.50
  -5  -1   7   98.53    1.03
  -5  -1   7   74.10    1.43
  -5  -1   7   87.51    1.40
  -5  -1   7   83.93    1.42
  -5  -1   7   81.20    1.52
  -5  -1   7   88.04    1.64
  -5  -1   7   95.71    1.70
   5   1  -7  101.60    1.55
   5   1  -7   99.24    1.94
   5   1  -7  102.77    1.76
   5   1  -7   82.11    1.59
  -5  -1   6    0.92    0.24
  -5  -1   6    0.60    0.23
  -5  -1   6    0.87    0.31
  -5  -1   6    1.00    0.31
  -5  -1   6    0.80    0.33
  -5  -1   6    0.75    0.37
  -5  -1   6    0.45    0.33
   5   1  -6    0.78    0.30
   5   1  -6    1.04    0.37
   5   1  -6    0.97    0.36
   5   1  -6    0.83    0.41
   5   1  -6    0.63    0.37
  -5  -1   5  187.94    1.36
  -5  -1   5  176.79    1.83
  -5  -1   5  184.75    1.78
  -5  -1   5  194.28    2.08
  -5  -1   5  163.79    1.83
  -5  -1   5  182.24    2.00
  -5  -1   5  177.23    2.00
   5   1  -5  182.44    1.34
   5   1  -5  214.36    1.92
   5   1  -5  216.62    2.21
   5   1  -5  165.05    1.82
   5   1  -5  201.56    2.13
   5   1  -5  167.99    1.96
  -5  -1   4  155.15    1.25
  -5  -1   4  153.34    1.53
  -5  -1   4  168.19    1.87
  -5  -1   4  136.06    1.57
  -5  -1   4  151.34    1.75
  -5  -1   4  150.20    1.76
   5   1  -4  149.87    1.22
   5   1  -4  175.71    1.65
   5   1  -4  180.14    1.94
   5   1  -4  140.87    1.58
   5   1  -4  164.63    1.85
   5   1  -4  137.50    1.69
  -5  -1   3  203.62    1.55
  -5  -1   3  193.57    1.85
  -5  -1   3  234.31    2.10
  -5  -1   3  177.90    1.66
  -5  -1   3  199.62    1.91
  -5  -1   3  195.86    1.92
   5   1  -3  197.96    1.43
   5   1  -3  222.99    1.76
   5   1  -3  179.64    1.58
   5   1  -3  236.06    2.13
   5   1  -3  188.59    1.68
   5   1  -3  216.83    2.02
   5   1  -3  262.24    2.63
  -5  -1   2  218.94    1.62
  -5  -1   2  209.58    1.88
  -5  -1   2  244.45    2.06
  -5  -1   2  192.50    1.59
  -5  -1   2  215.99    1.93
  -5  -1   2  206.82    1.90
   5   1  -2  215.03    1.53
   5   1  -2  229.04    1.71
   5   1  -2  192.80    1.56
   5   1  -2  249.68    2.10
   5   1  -2  206.89    1.62
   5   1  -2  227.40    2.00
   5   1  -2  189.98    1.81
  -5  -1   1   13.61    0.48
  -5  -1   1   12.09    0.56
  -5  -1   1   14.81    0.56
  -5  -1   1   12.09    0.46
  -5  -1   1   13.67    0.58
  -5  -1   1   12.22    0.56
   5   1  -1   13.43    0.48
   5   1  -1   13.29    0.48
   5   1  -1   10.92    0.46
   5   1  -1   14.96    0.60
   5   1  -1   12.31    0.44
   5   1  -1   13.10    0.57
   5   1  -1   11.63    0.53
  -5  -1   0  302.64    1.95
  -5  -1   0  273.03    2.10
  -5  -1   0  257.52    1.75
  -5  -1   0  323.84    2.20
  -5  -1   0  262.63    1.54
  -5  -1   0  300.11    2.17
  -5  -1   0  257.88    2.03
   5   1   0  305.48    1.97
   5   1   0  260.12    1.75
   5   1   0  335.39    2.27
   5   1   0  268.95    1.54
   5   1   0  293.42    2.17
   5   1   0  272.60    2.08
  -5  -1  -1    0.56    0.20
  -5  -1  -1    0.13    0.22
  -5  -1  -1    0.20    0.18
  -5  -1  -1    0.36    0.19
  -5  -1  -1    0.32    0.14
  -5  -1  -1    0.11    0.22
  -5  -1  -1    0.02    0.21
   5   1   1    0.12    0.17
   5   1   1    0.35    0.17
   5   1   1    0.36    0.20
   5   1   1    0.46    0.15
   5   1   1   -0.18    0.21
   5   1   1    0.07    0.20
  -5  -1  -2  294.11    2.10
  -5  -1  -2  269.96    2.11
  -5  -1  -2  252.47    1.83
  -5  -1  -2  327.06    2.14
  -5  -1  -2  269.98    1.33
  -5  -1  -2  287.77    1.37
  -5  -1  -2  308.21    2.22
  -5  -1  -2  264.65    2.08
   5   1   2  301.88    2.15
   5   1   2  275.60    1.89
   5   1   2  328.01    2.16
   5   1   2  290.18    2.19
   5   1   2  276.35    2.12
  -5  -1  -3   63.62    1.06
  -5  -1  -3   56.81    1.02
  -5  -1  -3   54.61    0.93
  -5  -1  -3   72.22    1.04
  -5  -1  -3   57.36    0.63
  -5  -1  -3   63.49    0.66
  -5  -1  -3   68.41    1.12
  -5  -1  -3   55.39    1.03
   5   1   3   61.87    1.06
   5   1   3   58.94    0.95
   5   1   3   68.01    1.01
   5   1   3   60.11    1.07
   5   1   3   59.92    1.06
  -5  -1  -4   92.29    1.34
  -5  -1  -4   93.73    1.26
  -5  -1  -4  121.28    1.33
  -5  -1  -4   92.28    0.81
  -5  -1  -4  113.38    0.90
  -5  -1  -4  120.43    1.50
  -5  -1  -4   95.60    1.36
   5   1   4  107.32    1.43
   5   1   4  101.98    1.30
   5   1   4  117.49    1.32
   5   1   4  104.32    1.23
   5   1   4  109.36    1.45
   5   1   4  149.93    2.01
  -5  -1  -5   24.36    0.80
  -5  -1  -5   20.36    0.72
  -5  -1  -5   20.47    0.72
  -5  -1  -5   20.97    0.48
  -5  -1  -5   24.23    0.51
  -5  -1  -5   25.77    0.82
  -5  -1  -5   23.00    0.81
   5   1   5   24.76    0.79
   5   1   5   22.44    0.73
   5   1   5   25.95    0.71
   5   1   5   22.44    0.66
   5   1   5   23.40    0.78
   5   1   5   25.45    0.82
  -5  -1  -6   39.03    1.03
  -5  -1  -6   36.14    0.92
  -5  -1  -6   37.48    0.96
  -5  -1  -6   41.27    0.71
  -5  -1  -6   47.36    1.09
  -5  -1  -6   35.71    0.97
   5   1   6   42.13    1.03
   5   1   6   39.38    0.97
   5   1   6   43.23    0.89
   5   1   6   40.47    0.86
   5   1   6   39.64    0.68
   5   1   6   40.97    1.03
   5   1   6   42.22    1.04
  -5  -1  -7   74.78    1.28
  -5  -1  -7   72.12    1.36
  -5  -1  -7   78.98    1.03
  -5  -1  -7   99.08    1.60
  -5  -1  -7  122.42    2.30
   5   1   7   87.21    1.50
   5   1   7   79.75    1.41
   5   1   7   90.25    1.26
   5   1   7   84.64    1.22
   5   1   7   82.39    1.03
   5   1   7   85.74    1.49
   5   1   7   90.04    1.61
  -5  -1  -8    2.29    0.43
  -5  -1  -8    2.30    0.44
  -5  -1  -8    2.19    0.36
  -5  -1  -8    3.00    0.57
  -5  -1  -8    2.12    0.46
   5   1   8    3.49    0.49
   5   1   8    2.93    0.41
   5   1   8    3.09    0.40
   5   1   8    2.99    0.34
   5   1   8    2.47    0.42
   5   1   8    2.37    0.49
  -5  -1  -9   43.79    1.12
  -5  -1  -9   46.54    1.26
  -5  -1  -9   44.90    1.02
  -5  -1  -9   54.50    1.46
  -5  -1  -9   46.54    1.32
   5   1   9   53.59    1.34
   5   1   9   54.21    1.13
   5   1   9   50.97    1.11
   5   1   9   49.49    1.00
   5   1   9   52.29    1.38
   5   1   9   54.58    1.47
  -5  -1 -10    1.12    0.46
  -5  -1 -10    0.88    0.41
  -5  -1 -10    0.94    0.47
  -5  -1 -10    0.71    0.60
  -5  -1 -10   -0.03    0.56
   5   1  10    0.28    0.40
   5   1  10    0.74    0.42
   5   1  10    0.70    0.45
   5   1  10    1.01    0.37
   5   1  10    0.34    0.49
   5   1  10    0.22    0.55
  -5  -1 -11   46.19    1.28
  -5  -1 -11   47.64    1.46
  -5  -1 -11   48.00    1.38
  -5  -1 -11   49.86    1.66
   5   1  11   56.81    1.53
   5   1  11   56.91    1.32
   5   1  11   63.64    2.09
   5   1  11   53.35    1.27
   5   1  11   57.49    1.74
  -5  -1 -12    6.48    0.76
  -5  -1 -12    6.82    0.79
   5   1  12   12.87    1.06
   5   1  12    9.44    0.97
   5   1  12    6.80    0.72
   5   1  12    8.00    0.96
  -5  -2  11    7.83    0.88
  -5  -2  11    6.36    0.79
   5   2 -11    5.84    0.79
   5   2 -11    9.13    1.14
  -5  -2  10   30.96    1.08
  -5  -2  10   33.38    1.31
  -5  -2  10   34.03    1.53
   5   2 -10   32.06    1.26
   5   2 -10   34.61    1.32
   5   2 -10   36.82    1.50
  -5  -2   9    1.74    0.44
  -5  -2   9    2.25    0.55
  -5  -2   9    1.89    0.57
   5   2  -9    2.25    0.52
   5   2  -9    2.26    0.53
   5   2  -9    1.80    0.68
   5   2  -9    1.67    0.62
  -5  -2   8   52.71    1.22
  -5  -2   8   49.90    1.32
  -5  -2   8   52.53    1.41
  -5  -2   8   54.81    1.44
   5   2  -8   63.09    1.39
   5   2  -8   63.68    1.45
   5   2  -8   60.85    1.49
   5   2  -8   46.68    1.35
  -5  -2   7    0.68    0.17
  -5  -2   7   -0.02    0.32
  -5  -2   7    0.58    0.37
  -5  -2   7    0.19    0.36
  -5  -2   7    0.99    0.44
   5   2  -7    0.47    0.31
   5   2  -7    0.63    0.43
   5   2  -7    1.16    0.42
   5   2  -7    0.34    0.35
  -5  -2   6  153.60    0.91
  -5  -2   6  133.15    0.85
  -5  -2   6  138.31    1.74
  -5  -2   6  142.41    1.76
  -5  -2   6  154.04    2.24
  -5  -2   6  130.86    1.75
  -5  -2   6  141.31    1.84
  -5  -2   6  155.62    1.95
   5   2  -6  171.63    1.93
   5   2  -6  170.61    2.05
   5   2  -6  124.40    1.69
   5   2  -6  160.19    1.98
   5   2  -6  130.16    1.79
  -5  -2   5   60.63    0.63
  -5  -2   5   64.69    1.19
  -5  -2   5   63.54    1.16
  -5  -2   5   70.79    1.30
  -5  -2   5   58.09    1.13
  -5  -2   5   67.69    1.29
   5   2  -5   76.71    1.25
   5   2  -5   79.55    1.38
   5   2  -5   58.19    1.12
   5   2  -5   68.96    1.28
   5   2  -5   58.65    1.21
  -5  -2   4   44.66    0.58
  -5  -2   4   45.88    1.01
  -5  -2   4   50.07    0.99
  -5  -2   4   55.93    1.13
  -5  -2   4   42.25    0.91
  -5  -2   4   49.41    1.02
  -5  -2   4   48.28    1.08
   5   2  -4   45.92    0.76
   5   2  -4   56.75    1.05
   5   2  -4   59.11    1.16
   5   2  -4   46.32    0.94
   5   2  -4   54.72    1.10
   5   2  -4   45.29    1.01
  -5  -2   3  122.64    0.98
  -5  -2   3  111.16    1.76
  -5  -2   3  108.16    1.27
  -5  -2   3  134.94    1.54
  -5  -2   3  127.82    1.51
   5   2  -3  135.51    1.03
   5   2  -3  150.04    1.56
   5   2  -3  121.43    1.41
   5   2  -3  161.95    1.77
   5   2  -3  127.46    1.35
   5   2  -3  142.36    1.61
   5   2  -3  120.70    1.48
  -5  -2   2   37.28    0.61
  -5  -2   2   37.42    0.89
  -5  -2   2   45.32    0.95
  -5  -2   2   32.06    0.67
  -5  -2   2   40.95    0.87
  -5  -2   2   38.28    0.85
   5   2  -2   43.52    0.66
   5   2  -2   43.01    0.85
   5   2  -2   36.21    0.80
   5   2  -2   50.62    1.00
   5   2  -2   37.70    0.73
   5   2  -2   44.90    0.93
   5   2  -2   37.06    0.84
  -5  -2   1  216.36    1.48
  -5  -2   1  226.27    1.95
  -5  -2   1  264.80    2.09
  -5  -2   1  172.51    1.27
  -5  -2   1  243.91    1.92
  -5  -2   1  212.02    1.80
   5   2  -1  251.99    1.59
   5   2  -1  236.07    1.83
   5   2  -1  210.38    1.72
   5   2  -1  277.80    2.16
   5   2  -1  229.09    1.46
   5   2  -1  232.56    1.91
   5   2  -1  214.05    1.83
  -5  -2   0   11.38    0.44
  -5  -2   0   10.58    0.52
  -5  -2   0    9.25    0.47
  -5  -2   0   12.93    0.54
  -5  -2   0    8.45    0.31
  -5  -2   0   12.52    0.52
  -5  -2   0   10.52    0.50
   5   2   0   12.37    0.44
   5   2   0   10.32    0.48
   5   2   0   13.12    0.56
   5   2   0   11.68    0.35
   5   2   0   12.13    0.53
   5   2   0   10.46    0.50
  -5  -2  -1  410.35    2.29
  -5  -2  -1  404.30    2.55
  -5  -2  -1  372.88    2.30
  -5  -2  -1  483.14    2.71
  -5  -2  -1  296.87    1.20
  -5  -2  -1  449.34    2.56
  -5  -2  -1  388.60    2.39
   5   2   1  454.43    2.43
   5   2   1  392.61    2.33
   5   2   1  481.10    2.74
   5   2   1  383.44    1.35
   5   2   1  424.30    2.53
   5   2   1  408.17    2.47
  -5  -2  -2   16.75    0.56
  -5  -2  -2   16.79    0.62
  -5  -2  -2   14.13    0.56
  -5  -2  -2   19.86    0.62
  -5  -2  -2   12.42    0.23
  -5  -2  -2   17.80    0.26
  -5  -2  -2   18.99    0.61
  -5  -2  -2   15.16    0.56
   5   2   2   18.29    0.59
   5   2   2   17.14    0.56
   5   2   2   20.23    0.65
   5   2   2   16.39    0.59
   5   2   2   15.39    0.59
  -5  -2  -3  153.66    1.58
  -5  -2  -3  145.06    1.55
  -5  -2  -3  138.48    1.51
  -5  -2  -3  180.10    1.68
  -5  -2  -3  179.02    1.70
  -5  -2  -3  143.33    1.54
   5   2   3  168.73    1.68
   5   2   3  149.68    1.54
   5   2   3  175.69    1.68
   5   2   3  159.93    1.64
   5   2   3  153.34    1.60
  -5  -2  -4   92.75    1.32
  -5  -2  -4   87.08    1.23
  -5  -2  -4   85.19    1.25
  -5  -2  -4  106.39    1.38
  -5  -2  -4   84.38    1.24
   5   2   4   99.59    1.38
   5   2   4   86.77    1.24
   5   2   4  106.71    1.34
   5   2   4   94.91    1.26
   5   2   4   97.05    1.34
   5   2   4   93.95    1.32
  -5  -2  -5   92.19    1.40
  -5  -2  -5   79.43    1.20
  -5  -2  -5   81.43    1.30
  -5  -2  -5   80.08    0.63
  -5  -2  -5   64.98    0.58
  -5  -2  -5  104.46    1.43
  -5  -2  -5   85.29    1.33
   5   2   5   92.15    1.41
   5   2   5   90.27    1.33
   5   2   5   98.99    1.33
   5   2   5   91.66    1.27
   5   2   5   92.89    1.38
   5   2   5   92.99    1.38
  -5  -2  -6  203.08    2.12
  -5  -2  -6  197.22    2.07
  -5  -2  -6  155.39    1.06
  -5  -2  -6  247.48    2.27
  -5  -2  -6  204.77    2.16
   5   2   6  230.62    2.28
   5   2   6  213.90    2.12
   5   2   6  241.30    2.07
   5   2   6  220.13    1.96
   5   2   6  215.52    1.23
   5   2   6  225.30    2.20
   5   2   6  229.33    2.22
  -5  -2  -7   -0.23    0.28
  -5  -2  -7    0.42    0.30
  -5  -2  -7    0.21    0.22
  -5  -2  -7    0.36    0.33
  -5  -2  -7    0.00    0.29
   5   2   7    0.56    0.32
   5   2   7    0.04    0.27
   5   2   7   -0.03    0.30
   5   2   7   -0.30    0.28
   5   2   7   -0.07    0.18
   5   2   7    0.04    0.33
  -5  -2  -8   83.20    1.32
  -5  -2  -8   89.37    1.59
  -5  -2  -8   77.34    1.03
  -5  -2  -8  110.43    1.74
  -5  -2  -8   94.22    1.62
   5   2   8  110.69    1.77
   5   2   8  109.23    1.54
   5   2   8   99.90    1.48
   5   2   8  102.73    1.14
   5   2   8  108.45    1.74
   5   2   8  110.56    1.77
  -5  -2  -9   -0.08    0.34
  -5  -2  -9   -0.27    0.34
  -5  -2  -9    0.34    0.33
  -5  -2  -9    0.64    0.46
  -5  -2  -9    0.22    0.44
   5   2   9    0.48    0.40
   5   2   9    0.71    0.37
   5   2   9   -0.38    0.37
   5   2   9    0.00    0.28
   5   2   9    0.27    0.43
   5   2   9   -0.04    0.49
  -5  -2 -10    8.71    0.78
  -5  -2 -10   10.36    0.86
  -5  -2 -10    9.10    0.76
  -5  -2 -10   11.37    1.03
   5   2  10    9.85    0.88
   5   2  10   13.67    0.87
   5   2  10   12.34    0.69
   5   2  10   10.85    1.23
   5   2  10   12.88    1.10
  -5  -2 -11   34.13    1.13
  -5  -2 -11   37.62    1.35
  -5  -2 -11   40.84    1.54
   5   2  11   44.17    1.45
   5   2  11   43.52    1.12
   5   2  11   48.05    1.56
  -5  -2 -12    3.47    0.66
  -5  -2 -12    3.84    0.68
   5   2  12    3.34    0.69
   5   2  12    4.33    0.68
   5   2  12    4.14    0.61
   5   2  12    5.41    0.91
  -5  -3  11    5.09    0.71
  -5  -3  11    3.43    0.71
   5   3 -11    4.71    0.81
   5   3 -11    5.23    0.78
  -5  -3  10    0.94    0.50
  -5  -3  10    2.18    0.57
   5   3 -10    1.13    0.53
   5   3 -10    1.63    0.57
   5   3 -10    1.44    0.64
  -5  -3   9   32.46    1.12
  -5  -3   9   31.08    1.21
  -5  -3   9   37.78    1.41
   5   3  -9   38.75    1.28
   5   3  -9   38.53    1.26
   5   3  -9   38.00    1.36
  -5  -3   8    0.32    0.38
  -5  -3   8    0.65    0.41
  -5  -3   8   -0.37    0.46
   5   3  -8   -0.15    0.35
   5   3  -8    0.01    0.42
   5   3  -8   -0.06    0.56
   5   3  -8    0.23    0.38
  -5  -3   7   21.30    0.87
  -5  -3   7   19.65    0.92
  -5  -3   7   23.70    0.98
   5   3  -7   25.32    0.96
   5   3  -7   27.04    1.02
   5   3  -7   24.36    1.12
   5   3  -7   17.94    0.88
  -5  -3   6    9.37    0.67
  -5  -3   6    8.24    0.68
  -5  -3   6    8.94    0.69
  -5  -3   6    8.14    0.65
  -5  -3   6    7.87    0.65
  -5  -3   6    9.26    0.73
   5   3  -6   11.35    0.69
   5   3  -6   11.01    0.74
   5   3  -6    7.43    0.66
   5   3  -6   10.43    0.71
   5   3  -6    7.69    0.67
  -5  -3   5   64.03    1.25
  -5  -3   5   65.82    1.22
  -5  -3   5   67.55    1.26
  -5  -3   5   55.72    1.11
  -5  -3   5   65.54    1.19
  -5  -3   5   70.86    1.26
   5   3  -5   79.79    1.35
   5   3  -5   83.47    1.41
   5   3  -5   59.92    1.13
   5   3  -5   76.54    1.32
   5   3  -5   60.82    1.20
  -5  -3   4   66.28    1.21
  -5  -3   4   68.85    1.18
  -5  -3   4   74.39    1.27
  -5  -3   4   56.14    1.02
  -5  -3   4   67.14    1.13
  -5  -3   4   67.00    1.15
   5   3  -4   77.63    1.27
   5   3  -4   59.85    1.14
   5   3  -4   84.92    1.37
   5   3  -4   62.16    1.06
   5   3  -4   75.36    1.24
   5   3  -4   61.32    1.13
  -5  -3   3   65.96    0.63
  -5  -3   3   69.88    1.20
  -5  -3   3   78.85    1.26
  -5  -3   3   57.21    0.93
  -5  -3   3   72.04    1.11
  -5  -3   3   67.13    1.09
   5   3  -3   75.64    0.66
   5   3  -3   79.37    1.24
   5   3  -3   63.44    1.11
   5   3  -3   89.23    1.36
   5   3  -3   69.37    1.02
   5   3  -3   79.57    1.20
   5   3  -3   64.85    1.08
  -5  -3   2  156.40    1.09
  -5  -3   2  175.41    1.80
  -5  -3   2  201.26    1.92
  -5  -3   2  150.64    1.31
  -5  -3   2  186.89    1.67
   5   3  -2  198.76    1.22
   5   3  -2  189.68    1.81
   5   3  -2  163.44    1.67
   5   3  -2  211.25    1.98
   5   3  -2  194.62    1.76
   5   3  -2  168.31    1.63
  -5  -3   1   29.38    0.57
  -5  -3   1   28.68    0.91
  -5  -3   1   29.41    0.55
  -5  -3   1   34.41    0.74
   5   3  -1   38.41    0.63
   5   3  -1   33.67    0.80
   5   3  -1   31.51    0.78
   5   3  -1   39.92    0.89
   5   3  -1   32.77    0.57
   5   3  -1   33.92    0.76
   5   3  -1   30.46    0.72
  -5  -3   0   91.50    1.02
  -5  -3   0  100.78    1.34
  -5  -3   0   91.58    1.24
  -5  -3   0  116.31    1.43
  -5  -3   0   99.00    1.02
  -5  -3   0  113.60    1.26
   5   3   0  118.74    1.16
   5   3   0   99.14    1.27
   5   3   0  123.86    1.49
   5   3   0  105.45    0.80
   5   3   0  107.89    1.26
   5   3   0  101.97    1.22
  -5  -3  -1  196.09    1.58
  -5  -3  -1  210.46    1.87
  -5  -3  -1  195.83    1.79
  -5  -3  -1  245.21    2.03
  -5  -3  -1  231.23    1.77
   5   3   1  233.01    1.73
   5   3   1  213.25    1.85
   5   3   1  244.93    2.05
   5   3   1  216.33    1.77
   5   3   1  211.12    1.74
  -5  -3  -2  222.69    1.80
  -5  -3  -2  237.09    1.97
  -5  -3  -2  215.74    1.91
  -5  -3  -2  288.41    2.20
  -5  -3  -2  275.57    1.97
   5   3   2  266.36    1.98
   5   3   2  248.10    2.03
   5   3   2  274.69    2.17
   5   3   2  248.52    1.92
   5   3   2  247.65    1.91
  -5  -3  -3   77.22    1.15
  -5  -3  -3   79.78    1.17
  -5  -3  -3   74.79    1.19
  -5  -3  -3   97.58    1.32
  -5  -3  -3   95.19    1.21
   5   3   3   90.89    1.26
   5   3   3   82.48    1.22
   5   3   3   96.09    1.33
   5   3   3   82.46    1.21
   5   3   3   84.69    1.18
   5   3   3   86.74    1.19
  -5  -3  -4   79.38    1.23
  -5  -3  -4   81.72    1.19
  -5  -3  -4   76.34    1.25
  -5  -3  -4  102.50    1.31
  -5  -3  -4   81.84    1.19
   5   3   4   95.78    1.37
   5   3   4   86.12    1.30
   5   3   4   99.50    1.38
   5   3   4   87.48    1.27
   5   3   4   90.14    1.27
   5   3   4   90.46    1.27
  -5  -3  -5  138.38    1.70
  -5  -3  -5  127.33    1.47
  -5  -3  -5  127.99    1.65
  -5  -3  -5  162.62    1.72
  -5  -3  -5  132.99    1.58
   5   3   5  157.26    1.83
   5   3   5  149.47    1.76
   5   3   5  158.01    1.76
   5   3   5  147.83    1.69
   5   3   5  148.48    1.68
   5   3   5  149.24    1.69
  -5  -3  -6    6.18    0.59
  -5  -3  -6    4.55    0.50
  -5  -3  -6    4.57    0.54
  -5  -3  -6    4.80    0.25
  -5  -3  -6    6.83    0.56
  -5  -3  -6    5.74    0.52
   5   3   6    7.02    0.61
   5   3   6    5.15    0.58
   5   3   6    7.19    0.60
   5   3   6    6.62    0.56
   5   3   6    5.65    0.25
   5   3   6    5.11    0.50
   5   3   6    6.10    0.58
  -5  -3  -7   39.90    0.92
  -5  -3  -7   41.79    0.62
  -5  -3  -7   58.60    1.22
  -5  -3  -7   50.26    1.14
   5   3   7   56.67    1.27
   5   3   7   55.93    1.19
   5   3   7   51.53    1.13
   5   3   7   52.96    0.67
   5   3   7   54.15    1.20
   5   3   7   54.47    1.22
  -5  -3  -8   18.32    0.89
  -5  -3  -8   15.21    0.54
  -5  -3  -8   24.51    0.96
  -5  -3  -8   18.82    0.86
   5   3   8   24.38    0.96
   5   3   8   25.27    0.93
   5   3   8   21.85    0.91
   5   3   8   24.43    0.60
   5   3   8   23.90    1.01
   5   3   8   25.46    1.00
  -5  -3  -9   41.99    1.01
  -5  -3  -9   57.24    1.40
  -5  -3  -9   30.19    0.93
  -5  -3  -9   61.16    1.43
   5   3   9   70.10    1.55
   5   3   9   72.07    1.44
   5   3   9   68.45    1.01
   5   3   9   64.38    1.57
   5   3   9   71.45    1.58
  -5  -3 -10    3.98    0.54
  -5  -3 -10    6.15    0.67
  -5  -3 -10    3.67    0.49
  -5  -3 -10    6.82    0.80
   5   3  10    6.83    0.82
   5   3  10    6.58    0.82
   5   3  10    6.28    0.61
   5   3  10    8.57    0.91
  -5  -3 -11    2.82    0.57
  -5  -3 -11    2.08    0.56
   5   3  11    3.61    0.63
   5   3  11    2.44    0.61
   5   3  11    3.17    0.48
   5   3  11    2.95    0.63
  -5  -3 -12    9.54    1.11
   5   3  12   15.41    1.15
   5   3  12   11.40    1.12
   5   3  12   13.59    1.32
  -5  -4  11    0.71    0.57
  -5  -4  11   -0.58    0.59
   5   4 -11    0.88    0.66
   5   4 -11    0.54    0.65
   5   4 -11    0.71    0.68
  -5  -4  10    1.64    0.51
  -5  -4  10    1.85    0.57
   5   4 -10    2.57    0.62
   5   4 -10    1.06    0.59
  -5  -4   9    4.93    0.61
  -5  -4   9    4.50    0.65
   5   4  -9    4.49    0.65
   5   4  -9    5.67    0.68
   5   4  -9    5.60    0.71
  -5  -4   8   21.61    0.96
  -5  -4   8   19.84    1.00
  -5  -4   8   22.74    1.09
   5   4  -8   25.45    1.09
   5   4  -8   27.34    1.09
   5   4  -8   20.81    0.99
   5   4  -8   16.81    0.98
  -5  -4   7    0.01    0.34
  -5  -4   7    0.57    0.34
  -5  -4   7    0.62    0.37
   5   4  -7    0.37    0.38
   5   4  -7    0.21    0.35
   5   4  -7    0.37    0.35
   5   4  -7   -0.04    0.35
  -5  -4   6   19.53    0.82
  -5  -4   6   19.68    1.02
  -5  -4   6   16.92    0.80
  -5  -4   6   19.12    1.04
   5   4  -6   20.85    1.04
   5   4  -6   25.59    0.93
   5   4  -6   18.05    0.84
   5   4  -6   21.55    0.85
   5   4  -6   17.25    0.81
  -5  -4   5    6.84    0.60
  -5  -4   5    9.30    0.63
  -5  -4   5    8.15    0.67
  -5  -4   5    6.37    0.59
  -5  -4   5    5.59    0.48
  -5  -4   5    8.36    0.70
   5   4  -5    8.81    0.66
   5   4  -5    9.01    0.67
   5   4  -5    6.81    0.60
   5   4  -5    7.63    0.61
   5   4  -5    7.06    0.60
  -5  -4   4    1.12    0.34
  -5  -4   4    0.48    0.32
  -5  -4   4    1.08    0.31
  -5  -4   4    1.05    0.23
  -5  -4   4    1.21    0.30
   5   4  -4    1.08    0.33
   5   4  -4    1.08    0.32
   5   4  -4    1.47    0.34
   5   4  -4    1.25    0.30
   5   4  -4    0.87    0.30
   5   4  -4    0.83    0.26
  -5  -4   3   12.56    0.28
  -5  -4   3   10.14    0.59
  -5  -4   3   11.05    0.61
  -5  -4   3   10.42    0.51
  -5  -4   3   10.58    0.48
  -5  -4   3   10.24    0.52
   5   4  -3   11.45    0.27
   5   4  -3   12.21    0.63
   5   4  -3    9.20    0.59
   5   4  -3   13.80    0.67
   5   4  -3   10.58    0.53
   5   4  -3   11.40    0.55
   5   4  -3    9.94    0.53
  -5  -4   2    0.08    0.15
  -5  -4   2   -0.04    0.21
  -5  -4   2    0.23    0.24
  -5  -4   2    0.32    0.19
  -5  -4   2    0.15    0.17
  -5  -4   2    0.08    0.19
   5   4  -2    0.04    0.14
   5   4  -2    0.01    0.23
   5   4  -2   -0.08    0.25
   5   4  -2    0.53    0.29
   5   4  -2    0.50    0.21
   5   4  -2    0.26    0.21
   5   4  -2    0.08    0.21
  -5  -4   1   77.40    0.87
  -5  -4   1   71.17    1.19
  -5  -4   1   85.00    1.30
  -5  -4   1   78.74    0.87
  -5  -4   1   79.84    1.04
  -5  -4   1   73.87    1.02
   5   4  -1   84.39    0.91
   5   4  -1   78.03    1.24
   5   4  -1   68.62    1.17
   5   4  -1   91.94    1.35
   5   4  -1   71.82    0.83
   5   4  -1   79.80    1.08
   5   4  -1   70.37    1.02
  -5  -4   0    1.49    0.24
  -5  -4   0    0.83    0.31
  -5  -4   0    1.32    0.27
  -5  -4   0    1.58    0.32
  -5  -4   0    1.62    0.17
  -5  -4   0    1.00    0.20
  -5  -4   0    1.28    0.23
   5   4   0    1.80    0.25
   5   4   0    1.16    0.28
   5   4   0    1.86    0.31
   5   4   0    2.11    0.33
   5   4   0    1.41    0.18
   5   4   0    1.37    0.25
   5   4   0    1.44    0.23
  -5  -4  -1    3.14    0.37
  -5  -4  -1    3.75    0.39
  -5  -4  -1    2.26    0.32
  -5  -4  -1    4.27    0.52
  -5  -4  -1    3.84    0.33
  -5  -4  -1    2.72    0.33
   5   4   1    3.46    0.38
   5   4   1    1.82    0.29
   5   4   1    4.27    0.47
   5   4   1    3.01    0.35
   5   4   1    2.34    0.26
  -5  -4  -2    7.70    0.48
  -5  -4  -2    7.09    0.48
  -5  -4  -2    6.70    0.51
  -5  -4  -2    7.98    0.54
  -5  -4  -2    7.57    0.39
  -5  -4  -2    6.58    0.41
   5   4   2    8.59    0.50
   5   4   2    6.11    0.48
   5   4   2    8.88    0.56
   5   4   2    6.85    0.50
   5   4   2    7.48    0.42
   5   4   2    6.74    0.42
  -5  -4  -3    5.25    0.47
  -5  -4  -3    4.92    0.49
  -5  -4  -3    4.21    0.48
  -5  -4  -3    6.66    0.39
  -5  -4  -3    5.15    0.40
   5   4   3    5.86    0.47
   5   4   3    4.90    0.50
   5   4   3    6.08    0.53
   5   4   3    7.12    0.53
   5   4   3    6.38    0.43
   5   4   3    5.93    0.44
  -5  -4  -4   23.86    0.77
  -5  -4  -4   24.70    0.74
  -5  -4  -4   24.25    0.81
  -5  -4  -4   30.57    0.73
  -5  -4  -4   24.05    0.69
   5   4   4   29.11    0.84
   5   4   4   25.83    0.82
   5   4   4   28.03    0.86
   5   4   4   27.18    0.83
   5   4   4   26.66    0.73
   5   4   4   28.16    0.76
  -5  -4  -5    2.73    0.36
  -5  -4  -5    2.05    0.36
  -5  -4  -5    2.35    0.38
  -5  -4  -5    3.38    0.36
  -5  -4  -5    2.56    0.35
   5   4   5    3.67    0.45
   5   4   5    2.54    0.40
   5   4   5    3.40    0.44
   5   4   5    2.35    0.36
   5   4   5    3.22    0.38
   5   4   5    2.92    0.37
  -5  -4  -6    0.75    0.32
  -5  -4  -6    1.75    0.36
  -5  -4  -6    1.23    0.30
  -5  -4  -6    0.93    0.33
   5   4   6    0.84    0.34
   5   4   6    0.95    0.34
   5   4   6    1.02    0.34
   5   4   6    0.47    0.38
   5   4   6    0.84    0.27
   5   4   6    0.86    0.30
  -5  -4  -7   48.40    0.97
  -5  -4  -7   50.97    1.26
  -5  -4  -7   55.20    0.64
   5   4   7   56.80    1.55
   5   4   7   69.01    1.38
   5   4   7   65.81    0.68
   5   4   7   64.16    1.28
   5   4   7   64.28    1.30
  -5  -4  -8   10.46    0.63
  -5  -4  -8   12.84    0.80
  -5  -4  -8   13.52    0.52
  -5  -4  -8   13.56    0.77
   5   4   8   18.57    0.88
   5   4   8   13.40    1.39
   5   4   8   17.01    0.50
   5   4   8   15.22    0.81
   5   4   8   16.19    0.89
  -5  -4  -9    0.96    0.39
  -5  -4  -9    2.16    0.43
  -5  -4  -9    1.95    0.36
  -5  -4  -9    1.43    0.41
   5   4   9    1.81    0.50
   5   4   9    0.59    0.46
   5   4   9    1.59    0.31
   5   4   9    0.87    0.40
   5   4   9    2.08    0.54
  -5  -4 -10    1.49    0.45
  -5  -4 -10    1.80    0.48
   5   4  10    1.90    0.51
   5   4  10    2.80    0.58
   5   4  10    2.71    0.42
   5   4  10    2.76    0.58
  -5  -4 -11    2.75    0.62
   5   4  11    5.85    0.75
   5   4  11    5.66    0.74
   5   4  11    6.42    0.75
   5   4  11    5.43    0.71
  -5  -4 -12    1.71    0.64
   5   4  12    2.05    0.64
   5   4  12    1.64    0.72
   5   4  12    1.81    0.75
  -5  -5  10    1.00    0.56
  -5  -5  10   -0.04    0.59
   5   5 -10    0.55    0.54
   5   5 -10    0.34    0.63
   5   5 -10    0.81    0.55
  -5  -5   9    3.95    0.60
  -5  -5   9    2.94    0.62
   5   5  -9    4.79    0.64
   5   5  -9    5.05    0.68
  -5  -5   8    2.01    0.46
  -5  -5   8    1.61    0.49
  -5  -5   8    1.98    0.55
   5   5  -8    2.88    0.57
   5   5  -8    2.48    0.52
   5   5  -8    1.79    0.44
  -5  -5   7   10.28    0.76
  -5  -5   7    8.13    0.77
  -5  -5   7    9.61    0.80
   5   5  -7   12.14    0.84
   5   5  -7   12.44    0.96
   5   5  -7   10.15    0.74
   5   5  -7    8.23    0.75
  -5  -5   6    0.78    0.39
  -5  -5   6    0.40    0.35
  -5  -5   6    0.74    0.35
   5   5  -6    0.13    0.33
   5   5  -6    0.56    0.38
   5   5  -6    0.85    0.41
   5   5  -6    0.32    0.30
   5   5  -6    0.52    0.32
  -5  -5   5    1.35    0.35
  -5  -5   5    1.35    0.40
  -5  -5   5    1.48    0.36
  -5  -5   5    2.52    0.40
   5   5  -5    1.36    0.37
   5   5  -5    1.82    0.41
   5   5  -5    1.70    0.38
   5   5  -5    1.19    0.34
  -5  -5   4    2.13    0.40
  -5  -5   4    2.70    0.44
  -5  -5   4    3.38    0.39
  -5  -5   4    3.49    0.41
  -5  -5   4    3.46    0.38
   5   5  -4    3.31    0.46
   5   5  -4    1.47    0.36
   5   5  -4    2.81    0.44
   5   5  -4    3.18    0.38
   5   5  -4    3.24    0.37
   5   5  -4    2.76    0.35
  -5  -5   3   60.44    1.23
  -5  -5   3   66.53    1.26
  -5  -5   3   66.17    1.06
  -5  -5   3   61.33    0.97
  -5  -5   3   66.28    1.03
   5   5  -3   69.20    1.30
   5   5  -3   54.67    1.18
   5   5  -3   78.65    1.35
   5   5  -3   57.69    1.00
   5   5  -3   70.21    1.09
   5   5  -3   57.47    1.00
  -5  -5   2   11.61    0.38
  -5  -5   2   10.08    0.62
  -5  -5   2   11.73    0.65
  -5  -5   2    9.79    0.48
  -5  -5   2   10.08    0.45
  -5  -5   2    9.45    0.47
   5   5  -2   11.36    0.38
   5   5  -2   11.45    0.65
   5   5  -2    8.85    0.64
   5   5  -2   13.36    0.68
   5   5  -2    9.74    0.48
   5   5  -2   10.24    0.48
   5   5  -2    9.19    0.49
  -5  -5   1   14.04    0.48
  -5  -5   1   12.14    0.63
  -5  -5   1   13.85    0.66
  -5  -5   1   12.18    0.44
  -5  -5   1   12.57    0.47
  -5  -5   1   12.71    0.48
   5   5  -1   13.87    0.47
   5   5  -1   13.00    0.64
   5   5  -1   12.93    0.69
   5   5  -1   15.04    0.68
   5   5  -1   12.24    0.45
   5   5  -1   12.26    0.49
  -5  -5   0   21.12    0.59
  -5  -5   0   19.62    0.71
  -5  -5   0   24.18    0.82
  -5  -5   0   21.48    0.47
  -5  -5   0   22.79    0.56
  -5  -5   0   20.35    0.55
   5   5   0   23.64    0.62
   5   5   0   20.01    0.74
   5   5   0   18.14    0.75
   5   5   0   25.12    0.82
   5   5   0   19.33    0.45
   5   5   0   21.80    0.58
   5   5   0   19.45    0.59
  -5  -5  -1    1.70    0.29
  -5  -5  -1    1.64    0.34
  -5  -5  -1    1.40    0.32
  -5  -5  -1    1.81    0.36
  -5  -5  -1    1.47    0.21
  -5  -5  -1    1.49    0.23
   5   5   1    2.36    0.32
   5   5   1    1.23    0.30
   5   5   1    1.50    0.31
   5   5   1    1.36    0.33
   5   5   1    1.77    0.21
   5   5   1    1.70    0.17
   5   5   1    1.80    0.24
   5   5   1    1.51    0.24
  -5  -5  -2   20.30    0.68
  -5  -5  -2   19.70    0.76
  -5  -5  -2   23.94    0.58
  -5  -5  -2   19.94    0.56
   5   5   2   22.60    0.71
   5   5   2   19.08    0.74
   5   5   2   23.92    0.82
   5   5   2   20.48    0.77
   5   5   2   21.64    0.59
  -5  -5  -3    2.23    0.36
  -5  -5  -3    1.95    0.32
  -5  -5  -3    1.59    0.31
  -5  -5  -3    2.86    0.30
  -5  -5  -3    1.84    0.26
   5   5   3    2.30    0.36
   5   5   3    1.53    0.35
   5   5   3    2.04    0.37
   5   5   3    1.92    0.37
   5   5   3    2.63    0.30
   5   5   3    2.06    0.29
  -5  -5  -4   17.64    0.74
  -5  -5  -4   17.05    0.65
  -5  -5  -4   17.24    0.78
  -5  -5  -4   22.08    0.64
  -5  -5  -4   18.52    0.61
   5   5   4   22.34    0.79
   5   5   4   17.09    0.75
   5   5   4   21.49    0.85
   5   5   4   19.97    0.81
   5   5   4   19.57    0.62
   5   5   4   20.72    0.65
  -5  -5  -5   24.36    0.85
  -5  -5  -5   25.61    0.75
  -5  -5  -5   24.93    0.91
  -5  -5  -5   30.19    0.76
  -5  -5  -5   26.72    0.75
   5   5   5   31.24    0.96
   5   5   5   31.95    0.99
   5   5   5   30.55    0.80
   5   5   5   30.05    0.82
  -5  -5  -6   91.32    1.25
  -5  -5  -6   94.03    1.63
  -5  -5  -6   98.77    1.41
   5   5   6  122.81    1.88
   5   5   6  117.12    1.78
   5   5   6  107.66    1.55
   5   5   6  112.54    1.54
  -5  -5  -7   33.30    0.84
  -5  -5  -7   34.28    1.11
  -5  -5  -7   35.69    0.56
  -5  -5  -7   38.25    1.00
   5   5   7   42.82    1.19
   5   5   7   43.50    1.21
   5   5   7   44.51    0.59
   5   5   7   42.22    1.05
   5   5   7   42.47    1.10
  -5  -5  -8    2.38    0.39
  -5  -5  -8    1.48    0.45
  -5  -5  -8    1.71    0.29
  -5  -5  -8    1.19    0.43
   5   5   8    1.73    0.44
   5   5   8    1.64    0.50
   5   5   8    2.12    0.28
   5   5   8    2.11    0.42
   5   5   8    2.13    0.44
  -5  -5  -9    0.82    0.38
  -5  -5  -9    0.38    0.44
  -5  -5  -9    0.45    0.36
   5   5   9    1.29    0.49
   5   5   9    1.40    0.48
   5   5   9    1.08    0.32
   5   5   9    1.11    0.43
  -5  -5 -10    5.14    0.69
   5   5  10    7.84    0.84
   5   5  10    6.66    0.75
   5   5  10    6.91    0.76
   5   5  10    7.34    0.89
  -5  -5 -11    3.29    0.62
   5   5  11    3.63    0.64
   5   5  11    1.71    0.69
   5   5  11    2.85    0.64
  -5  -6  10   17.82    1.19
  -5  -6  10   18.11    1.32
   5   6 -10   18.78    1.30
   5   6 -10   21.24    1.33
   5   6 -10   17.68    1.15
  -5  -6   9    0.33    0.46
  -5  -6   9    0.98    0.57
   5   6  -9   -0.77    0.48
   5   6  -9    0.73    0.59
   5   6  -9    0.49    0.47
  -5  -6   8   27.97    1.15
  -5  -6   8   26.27    1.17
   5   6  -8   35.28    1.31
   5   6  -8   37.07    1.26
  -5  -6   7    4.07    0.53
  -5  -6   7    6.33    0.66
  -5  -6   7    6.09    0.76
   5   6  -7    5.78    0.66
   5   6  -7    5.51    0.72
   5   6  -7    5.42    0.66
   5   6  -7    4.45    0.56
  -5  -6   6   17.83    0.87
  -5  -6   6   17.01    0.92
  -5  -6   6   19.83    0.84
   5   6  -6   22.32    1.00
   5   6  -6   24.62    1.00
   5   6  -6   19.99    0.80
   5   6  -6   17.14    0.86
  -5  -6   5    1.32    0.43
  -5  -6   5    1.11    0.37
  -5  -6   5    2.15    0.38
   5   6  -5    1.19    0.38
   5   6  -5    1.49    0.43
   5   6  -5    2.33    0.45
   5   6  -5    1.83    0.34
   5   6  -5    1.89    0.38
  -5  -6   4    0.59    0.34
  -5  -6   4    0.74    0.42
  -5  -6   4    0.85    0.32
  -5  -6   4    1.22    0.30
   5   6  -4    0.83    0.35
   5   6  -4    1.25    0.37
   5   6  -4    1.08    0.37
   5   6  -4    0.93    0.25
   5   6  -4    0.90    0.31
  -5  -6   3  404.59    3.19
  -5  -6   3  432.29    3.10
  -5  -6   3  423.55    2.68
  -5  -6   3  449.02    2.38
   5   6  -3  458.46    2.03
   5   6  -3  416.82    1.54
   5   6  -3  520.10    3.41
   5   6  -3  399.16    2.59
   5   6  -3  395.23    2.40
  -5  -6   2    2.92    0.45
  -5  -6   2    3.60    0.46
  -5  -6   2    3.64    0.43
  -5  -6   2    3.37    0.31
  -5  -6   2    3.75    0.45
   5   6  -2    4.08    0.36
   5   6  -2    3.48    0.33
   5   6  -2    3.73    0.46
   5   6  -2    2.48    0.49
   5   6  -2    4.91    0.52
   5   6  -2    3.10    0.36
   5   6  -2    3.80    0.34
   5   6  -2    3.29    0.34
  -5  -6   1   46.72    1.10
  -5  -6   1   55.28    1.21
  -5  -6   1   52.88    0.86
  -5  -6   1   51.99    0.74
  -5  -6   1   50.02    0.90
   5   6  -1   56.78    0.86
   5   6  -1   51.10    0.83
   5   6  -1   55.20    1.20
   5   6  -1   43.99    1.15
   5   6  -1   63.24    1.27
   5   6  -1   51.92    0.86
   5   6  -1   55.99    0.87
   5   6  -1   49.70    0.83
  -5  -6   0    0.66    0.25
  -5  -6   0    0.27    0.28
  -5  -6   0    1.01    0.33
  -5  -6   0    0.26    0.21
  -5  -6   0    0.42    0.17
  -5  -6   0    0.29    0.19
   5   6   0    0.82    0.27
   5   6   0    0.51    0.28
   5   6   0    0.13    0.34
   5   6   0    0.15    0.31
   5   6   0    0.32    0.29
   5   6   0    0.91    0.23
   5   6   0    0.30    0.19
   5   6   0    0.69    0.21
  -5  -6  -1   48.92    0.96
  -5  -6  -1   44.00    1.02
  -5  -6  -1   41.38    1.06
  -5  -6  -1   49.84    0.71
  -5  -6  -1   43.58    0.70
   5   6   1   48.93    0.96
   5   6   1   41.74    1.07
   5   6   1   51.12    1.18
   5   6   1   42.80    1.07
   5   6   1   43.21    0.63
   5   6   1   45.92    0.65
   5   6   1   46.76    0.77
   5   6   1   45.65    0.78
  -5  -6  -2   57.64    1.10
  -5  -6  -2   51.52    1.07
  -5  -6  -2   50.87    1.16
  -5  -6  -2   59.14    0.80
  -5  -6  -2   48.09    0.95
   5   6   2   59.01    1.12
   5   6   2   52.23    1.17
   5   6   2   62.42    1.28
   5   6   2   49.93    1.16
   5   6   2   57.97    0.62
   5   6   2   54.13    0.85
   5   6   2   56.25    0.88
  -5  -6  -3    9.09    0.65
  -5  -6  -3    8.22    0.57
  -5  -6  -3    7.42    0.65
  -5  -6  -3   10.17    0.42
  -5  -6  -3    8.59    0.47
   5   6   3   10.34    0.65
   5   6   3    7.93    0.66
   5   6   3    9.96    0.68
   5   6   3    9.66    0.29
   5   6   3    8.71    0.44
   5   6   3    9.32    0.47
  -5  -6  -4   82.06    1.43
  -5  -6  -4   81.44    1.07
   5   6   4   96.81    1.54
   5   6   4   97.81    1.65
   5   6   4   85.03    1.24
   5   6   4   92.87    1.22
  -5  -6  -5   49.78    0.99
  -5  -6  -5   50.30    1.26
  -5  -6  -5   48.74    0.92
   5   6   5   57.90    1.30
   5   6   5   61.44    1.37
   5   6   5   57.05    1.02
   5   6   5   58.26    1.07
  -5  -6  -6    8.67    0.60
  -5  -6  -6    7.26    0.70
  -5  -6  -6    9.33    0.61
   5   6   6    8.46    0.74
   5   6   6    9.46    0.80
   5   6   6    8.71    0.36
   5   6   6    9.03    0.57
   5   6   6    8.96    0.66
  -5  -6  -7    4.81    0.56
  -5  -6  -7    3.70    0.55
  -5  -6  -7    3.91    0.49
   5   6   7    7.24    0.74
   5   6   7    5.60    0.65
   5   6   7    5.75    0.40
   5   6   7    4.60    0.41
   5   6   7    4.68    0.55
   5   6   7    5.81    0.67
  -5  -6  -8   21.12    0.75
  -5  -6  -8   21.31    1.09
  -5  -6  -8   21.04    0.68
  -5  -6  -8   22.22    1.39
   5   6   8   27.16    1.14
   5   6   8   25.64    1.15
   5   6   8   26.25    0.65
   5   6   8   25.25    0.95
   5   6   8   27.08    1.30
  -5  -6  -9    2.64    0.57
   5   6   9    2.43    0.55
   5   6   9    2.39    0.62
   5   6   9    1.85    0.46
  -5  -6 -10   13.26    1.10
   5   6  10   13.93    1.02
   5   6  10   11.66    1.11
   5   6  10   13.80    1.01
  -5  -6 -11    0.44    0.67
   5   6  11   -0.81    0.59
   5   6  11   -0.95    0.64
   5   6  11    0.00    0.53
  -5  -7   9   11.61    1.06
  -5  -7   9    8.76    0.91
   5   7  -9   13.13    1.15
   5   7  -9   14.89    1.24
   5   7  -9   10.14    0.92
  -5  -7   8    8.20    0.89
  -5  -7   8    9.81    1.05
   5   7  -8   10.57    0.99
   5   7  -8   10.57    1.04
   5   7  -8    9.72    0.81
  -5  -7   7   28.22    1.16
  -5  -7   7   28.37    1.19
   5   7  -7   37.46    1.30
   5   7  -7   40.78    1.28
  -5  -7   6   32.44    1.16
  -5  -7   6   34.40    1.17
  -5  -7   6   36.08    0.98
   5   7  -6   40.24    1.32
   5   7  -6   36.94    1.51
   5   7  -6   35.25    0.95
   5   7  -6   31.78    1.01
  -5  -7   5   46.02    1.28
  -5  -7   5   50.40    1.00
   5   7  -5   52.40    1.39
   5   7  -5   56.90    1.39
   5   7  -5   48.51    1.00
   5   7  -5   41.34    1.00
  -5  -7   4   34.49    1.11
  -5  -7   4   37.89    1.03
  -5  -7   4   39.81    0.81
   5   7  -4   41.98    1.21
   5   7  -4   45.40    1.19
   5   7  -4   34.60    1.05
   5   7  -4   39.07    0.84
   5   7  -4   34.45    0.84
  -5  -7   3    1.05    0.40
  -5  -7   3    1.56    0.35
  -5  -7   3    1.27    0.25
   5   7  -3    1.45    0.24
   5   7  -3    1.60    0.26
   5   7  -3    1.31    0.38
   5   7  -3    1.51    0.39
   5   7  -3    1.43    0.40
   5   7  -3    1.64    0.27
   5   7  -3    1.38    0.28
  -5  -7   2   28.93    0.99
  -5  -7   2   30.32    0.85
  -5  -7   2   33.87    0.61
   5   7  -2   34.46    0.71
   5   7  -2   30.88    0.68
   5   7  -2   35.47    1.10
   5   7  -2   38.65    1.09
   5   7  -2   32.47    0.88
   5   7  -2   34.04    0.69
   5   7  -2   28.90    0.66
  -5  -7   1    0.32    0.34
  -5  -7   1    0.39    0.26
  -5  -7   1    0.61    0.18
   5   7  -1    0.12    0.27
   5   7  -1    0.83    0.28
   5   7  -1   -0.44    0.29
   5   7  -1    0.14    0.34
   5   7  -1    0.22    0.31
   5   7  -1    0.45    0.20
   5   7  -1    0.15    0.20
  -5  -7   0  152.93    1.92
  -5  -7   0  172.20    1.01
  -5  -7   0  175.33    1.03
   5   7   0  184.27    1.75
   5   7   0  166.98    1.66
   5   7   0  178.24    2.16
   5   7   0  199.05    2.26
   5   7   0  157.11    1.43
   5   7   0  176.24    1.52
   5   7   0  178.75    1.36
   5   7   0  166.78    1.31
  -5  -7  -1   53.03    1.16
  -5  -7  -1   58.38    0.62
  -5  -7  -1   58.97    0.63
   5   7   1   65.43    1.16
   5   7   1   57.85    1.11
   5   7   1   56.25    1.29
   5   7   1   66.99    1.40
   5   7   1   56.30    0.84
   5   7   1   60.12    1.13
   5   7   1   60.85    0.82
   5   7   1   59.38    0.82
  -5  -7  -2   15.72    0.76
  -5  -7  -2   13.69    0.70
  -5  -7  -2   11.81    0.77
  -5  -7  -2   13.90    0.41
   5   7   2   16.95    0.75
   5   7   2   14.16    0.73
   5   7   2   14.97    0.49
   5   7   2   15.32    0.51
   5   7   2   14.57    0.48
   5   7   2   14.81    0.51
  -5  -7  -3  109.96    1.65
  -5  -7  -3   98.56    1.44
  -5  -7  -3  102.62    1.72
  -5  -7  -3  107.21    0.99
   5   7   3  123.33    1.72
   5   7   3  125.31    1.91
   5   7   3  119.28    1.02
   5   7   3  121.70    1.04
   5   7   3  111.09    1.18
   5   7   3  116.78    1.23
  -5  -7  -4   31.19    0.88
  -5  -7  -4   32.00    1.10
  -5  -7  -4   34.66    0.71
   5   7   4   40.27    1.12
   5   7   4   38.55    1.18
   5   7   4   37.88    0.63
   5   7   4   38.72    0.64
   5   7   4   35.28    0.76
   5   7   4   38.60    0.82
  -5  -7  -5   60.94    1.73
  -5  -7  -5   72.84    1.55
  -5  -7  -5   75.76    1.06
   5   7   5   90.76    1.65
   5   7   5   87.26    1.68
   5   7   5   82.90    0.88
   5   7   5   84.39    0.87
   5   7   5   81.75    1.18
   5   7   5   86.32    1.24
  -5  -7  -6    0.10    0.35
  -5  -7  -6   -0.37    0.41
  -5  -7  -6    0.05    0.32
   5   7   6   -0.05    0.38
   5   7   6   -0.51    0.40
   5   7   6   -0.18    0.24
   5   7   6    0.11    0.25
   5   7   6    0.35    0.24
   5   7   6   -0.33    0.32
  -5  -7  -7   46.57    0.98
  -5  -7  -7   44.40    1.38
  -5  -7  -7   47.40    1.15
   5   7   7   54.15    1.48
   5   7   7   54.95    1.52
   5   7   7   50.19    0.81
   5   7   7   50.82    1.11
   5   7   7   55.53    1.24
  -5  -7  -8   12.97    1.07
   5   7   8   14.65    1.01
   5   7   8   13.25    1.10
   5   7   8   13.36    0.78
  -5  -7  -9   18.65    1.21
   5   7   9   25.11    1.27
   5   7   9   25.28    1.31
   5   7   9   21.27    1.00
  -5  -7 -10   15.79    1.36
   5   7  10   24.07    1.31
   5   7  10   25.22    1.47
   5   7  10   22.39    1.13
  -5  -8   8    8.79    0.93
  -5  -8   8    7.03    0.82
   5   8  -8    9.35    1.08
   5   8  -8   12.83    1.18
   5   8  -8    8.23    0.78
  -5  -8   7   30.51    1.28
  -5  -8   7   29.31    1.30
   5   8  -7   36.05    1.40
   5   8  -7   40.54    1.40
   5   8  -7   31.63    0.98
  -5  -8   6   31.19    1.22
  -5  -8   6   28.63    1.20
   5   8  -6   37.33    1.38
   5   8  -6   40.52    1.31
   5   8  -6   33.05    0.92
  -5  -8   5   23.59    1.09
  -5  -8   5   24.60    1.04
  -5  -8   5   24.19    0.74
   5   8  -5   27.15    1.18
   5   8  -5   31.90    1.15
   5   8  -5   23.09    0.83
  -5  -8   4    2.33    0.47
  -5  -8   4    3.02    0.33
   5   8  -4    4.21    0.44
   5   8  -4    3.77    0.56
   5   8  -4    3.56    0.54
   5   8  -4    2.94    0.33
   5   8  -4    3.56    0.39
  -5  -8   3   77.31    1.61
  -5  -8   3   85.33    1.48
  -5  -8   3   83.53    0.72
   5   8  -3   92.57    1.07
   5   8  -3   87.86    1.06
   5   8  -3   94.91    1.80
   5   8  -3  105.39    1.77
   5   8  -3   84.66    1.52
   5   8  -3   85.89    1.05
   5   8  -3   81.50    1.04
  -5  -8   2    2.05    0.42
  -5  -8   2    2.52    0.44
   5   8  -2    3.26    0.38
   5   8  -2    2.94    0.40
   5   8  -2    2.01    0.49
   5   8  -2    3.12    0.55
   5   8  -2    2.10    0.46
   5   8  -2    2.73    0.28
   5   8  -2    2.65    0.29
  -5  -8   1  126.80    1.92
  -5  -8   1  140.72    1.63
   5   8  -1  151.13    1.61
   5   8  -1  138.09    1.55
   5   8  -1  145.02    2.11
   5   8  -1  166.74    2.18
   5   8  -1  144.04    1.67
   5   8  -1  147.43    1.14
   5   8  -1  133.81    1.10
  -5  -8   0   30.98    1.03
   5   8   0   38.92    0.98
   5   8   0   34.49    0.95
   5   8   0   35.03    1.15
   5   8   0   38.97    1.20
   5   8   0   32.01    0.84
   5   8   0   38.26    0.93
   5   8   0   36.77    0.59
   5   8   0   34.48    0.59
  -5  -8  -1   86.54    1.52
   5   8   1  100.04    1.51
   5   8   1   87.99    1.44
   5   8   1   94.31    1.70
   5   8   1  109.68    1.83
   5   8   1   91.02    1.20
   5   8   1  102.39    1.28
   5   8   1   95.98    0.90
   5   8   1   95.75    0.90
  -5  -8  -2   14.86    0.78
  -5  -8  -2   15.08    0.87
   5   8   2   17.64    0.84
   5   8   2   17.79    1.05
   5   8   2   17.67    0.91
   5   8   2   16.80    0.94
   5   8   2   16.39    0.63
   5   8   2   16.67    0.67
   5   8   2   16.53    0.46
   5   8   2   16.12    0.49
  -5  -8  -3   19.28    0.83
  -5  -8  -3   17.36    0.97
   5   8   3   23.37    1.07
   5   8   3   20.90    0.67
   5   8   3   22.17    0.71
   5   8   3   19.85    0.54
   5   8   3   21.57    0.58
  -5  -8  -4   99.09    1.50
  -5  -8  -4   95.48    1.81
  -5  -8  -4   99.98    0.83
   5   8   4  120.77    1.90
   5   8   4  118.91    2.02
   5   8   4  114.96    1.19
   5   8   4  121.20    1.51
   5   8   4  106.81    1.18
   5   8   4  111.98    1.23
  -5  -8  -5    0.03    0.38
  -5  -8  -5    0.32    0.46
  -5  -8  -5    0.30    0.28
   5   8   5    0.04    0.44
   5   8   5    0.81    0.43
   5   8   5    0.04    0.32
   5   8   5   -0.01    0.25
   5   8   5   -0.32    0.30
  -5  -8  -6  100.29    1.91
  -5  -8  -6  105.21    1.24
   5   8   6  133.87    2.17
   5   8   6  128.00    2.19
   5   8   6  120.19    1.30
   5   8   6  115.77    1.45
   5   8   6  125.02    1.57
  -5  -8  -7    4.42    0.71
   5   8   7    5.91    0.75
   5   8   7    6.02    0.75
   5   8   7    5.34    0.57
  -5  -8  -8   26.89    1.40
   5   8   8   32.04    1.37
   5   8   8   30.74    1.46
   5   8   8   28.34    0.94
  -5  -8  -9   13.30    1.30
   5   8   9   18.53    1.25
   5   8   9   17.61    1.39
   5   8   9   15.50    1.01
  -5  -9   7    0.51    0.66
   5   9  -7    0.99    0.74
   5   9  -7    1.01    0.70
  -5  -9   6   20.97    1.18
  -5  -9   6   18.95    1.26
   5   9  -6   25.44    1.35
   5   9  -6   26.77    1.28
   5   9  -6   19.21    0.76
  -5  -9   5    2.02    0.52
  -5  -9   5    3.33    0.65
   5   9  -5    3.28    0.67
   5   9  -5    3.06    0.63
   5   9  -5    1.44    0.38
   5   9  -5    2.21    0.33
  -5  -9   4   39.80    1.34
  -5  -9   4   43.97    1.35
   5   9  -4   47.40    1.52
   5   9  -4   55.76    1.46
   5   9  -4   39.49    0.81
   5   9  -4   41.86    0.78
  -5  -9   3    0.26    0.41
  -5  -9   3    0.65    0.50
   5   9  -3    1.01    0.38
   5   9  -3   -0.28    0.47
   5   9  -3    0.16    0.51
   5   9  -3    0.80    0.24
   5   9  -3    0.87    0.22
  -5  -9   2   32.39    1.18
  -5  -9   2   35.17    1.10
   5   9  -2   36.70    0.96
   5   9  -2   36.47    1.28
   5   9  -2   42.16    1.35
   5   9  -2   35.41    1.22
   5   9  -2   32.49    0.52
  -5  -9   1    6.08    0.75
   5   9  -1    8.23    0.72
   5   9  -1    7.45    0.79
   5   9  -1    6.97    0.72
   5   9  -1    8.35    0.94
   5   9  -1    5.85    0.68
   5   9  -1    7.26    0.88
  -5  -9   0   32.02    1.10
   5   9   0   40.35    1.11
   5   9   0   32.63    1.09
   5   9   0   35.66    1.23
   5   9   0   43.07    1.35
   5   9   0   32.62    0.97
   5   9   0   35.65    1.10
  -5  -9  -1   45.96    1.24
   5   9   1   57.54    1.32
   5   9   1   52.76    1.43
   5   9   1   61.29    1.54
   5   9   1   49.89    1.07
   5   9   1   57.93    1.20
  -5  -9  -2   10.54    0.76
   5   9   2   13.71    0.88
   5   9   2   10.22    0.91
   5   9   2   11.70    0.95
   5   9   2   11.06    0.72
  -5  -9  -3   47.94    1.21
  -5  -9  -3   48.75    1.45
   5   9   3   58.70    1.46
   5   9   3   61.44    1.61
   5   9   3   56.18    1.10
   5   9   3   55.43    0.68
  -5  -9  -4    0.41    0.40
  -5  -9  -4   -0.49    0.47
   5   9   4   -0.06    0.46
   5   9   4    0.02    0.53
   5   9   4   -0.22    0.38
   5   9   4    0.08    0.26
   5   9   4   -0.14    0.22
  -5  -9  -5   36.45    1.09
  -5  -9  -5   33.14    1.35
   5   9   5   41.30    1.39
   5   9   5   41.05    1.45
   5   9   5   38.11    0.85
   5   9   5   35.79    0.77
  -5  -9  -6    4.26    0.76
   5   9   6    5.47    0.74
   5   9   6    5.70    0.75
   5   9   6    4.72    0.50
   5   9   6    5.72    0.55
  -5  -9  -7    5.51    0.79
   5   9   7    7.18    0.81
   5   9   7    7.03    0.82
   5   9   7    7.55    0.62
  -5 -10   4    0.24    0.49
  -5 -10   4   -0.24    0.66
   5  10  -4    0.00    0.61
   5  10  -4    0.90    0.62
   5  10  -4    0.25    0.26
   5  10  -4    0.35    0.23
  -5 -10   3    2.38    0.57
  -5 -10   3    2.74    0.68
   5  10  -3    2.68    0.70
   5  10  -3    2.99    0.71
   5  10  -3    2.38    0.59
  -5 -10   2   10.52    0.96
   5  10  -2   12.00    0.86
   5  10  -2   12.94    1.14
   5  10  -2   14.04    1.17
   5  10  -2    9.00    0.95
  -5 -10   1    5.84    0.67
   5  10  -1    7.35    0.86
   5  10  -1    5.19    0.71
   5  10  -1    8.83    0.87
   5  10  -1    5.98    0.65
  -5 -10   0    3.65    0.59
   5  10   0    4.28    0.78
   5  10   0    5.18    0.69
   5  10   0    3.96    0.68
   5  10   0    4.55    0.62
  -5 -10  -1    0.62    0.49
   5  10   1    0.97    0.53
   5  10   1    1.11    0.55
   5  10   1    0.85    0.59
   5  10   1    1.30    0.48
  -5 -10  -2    9.36    0.87
   5  10   2   10.92    1.01
   5  10   2   10.46    1.05
   5  10   2   11.41    1.10
   5  10   2   11.80    0.90
  -5 -10  -3    2.89    0.56
   5  10   3    3.30    0.65
   5  10   3    1.41    0.60
   5  10   3    2.46    0.72
  -5 -10  -4    7.09    0.85
  -5 -10  -4    5.76    0.81
   5  10   4    8.22    0.85
   5  10   4    6.09    0.81
  -5 -10  -5    4.12    0.67
  -5 -10  -5    2.75    0.72
   5  10   5    3.85    0.75
   5  10   5    3.63    0.77
   5  10   5    3.52    0.35
   5  10   5    3.34    0.33
  -6   7   1   14.79    1.19
  -6   7   1   12.31    1.35
  -6   7   1   12.57    1.02
   6  -7  -1   15.24    1.20
   6  -7  -1   13.89    1.17
  -6   7   0    0.47    0.64
  -6   7   0   -1.33    0.65
  -6   7   0    0.56    0.54
   6  -7   0    0.09    0.56
   6  -7   0    0.30    0.58
  -6   7  -1    5.05    0.78
  -6   7  -1    2.77    0.71
  -6   7  -1    3.90    0.66
   6  -7   1    4.35    0.79
  -6   7  -2   15.25    1.16
  -6   7  -2   13.45    1.37
  -6   7  -2   12.01    1.06
   6  -7   2   16.06    1.26
  -6   7  -3    1.77    0.77
  -6   7  -3    1.81    0.56
   6  -7   3    0.88    0.71
  -6   6   4    3.00    0.65
  -6   6   4    2.32    0.68
  -6   6   4    3.39    0.64
   6  -6  -4    1.84    0.73
   6  -6  -4    2.34    0.69
  -6   6   3    1.11    0.53
  -6   6   3    0.45    0.63
  -6   6   3    0.54    0.54
   6  -6  -3   -0.53    0.52
   6  -6  -3    0.78    0.61
  -6   6   2    5.95    0.74
  -6   6   2    9.21    1.09
  -6   6   2    6.77    0.69
   6  -6  -2    5.73    0.71
   6  -6  -2    5.55    0.71
  -6   6   1   11.29    0.97
  -6   6   1    9.34    1.12
  -6   6   1   10.54    0.94
   6  -6  -1   12.87    1.05
   6  -6  -1    9.83    0.95
  -6   6   0    1.71    0.54
  -6   6   0    2.19    0.60
  -6   6   0    2.18    0.53
   6  -6   0    2.31    0.56
   6  -6   0    2.64    0.55
  -6   6  -1    7.09    0.88
  -6   6  -1    8.01    0.88
  -6   6  -1    4.95    0.64
   6  -6   1    5.56    0.68
   6  -6   1    6.77    0.80
  -6   6  -2   -0.07    0.49
  -6   6  -2   -0.03    0.56
  -6   6  -2    1.06    0.51
   6  -6   2   -0.21    0.50
   6  -6   2   -0.03    0.43
  -6   6  -3    8.20    0.95
  -6   6  -3    7.55    0.85
  -6   6  -3    8.35    0.93
   6  -6   3    7.94    0.93
  -6   6  -4   -0.02    0.50
  -6   6  -4   -0.66    0.56
  -6   6  -4    0.17    0.44
   6  -6   4    1.47    0.54
  -6   6  -5    1.52    0.55
  -6   6  -5    2.10    0.69
  -6   6  -5    1.24    0.52
   6  -6   5    1.00    0.61
  -6   6  -6    2.11    0.70
  -6   6  -6    2.49    0.74
  -6   6  -6    1.35    0.60
   6  -6   6    3.03    0.71
  -6   5   6    2.89    0.68
  -6   5   6    3.51    0.79
  -6   5   6    2.26    0.60
   6  -5  -6    2.73    0.71
   6  -5  -6    4.43    0.79
  -6   5   5    0.32    0.51
  -6   5   5   -0.16    0.55
  -6   5   5    0.09    0.47
   6  -5  -5   -0.57    0.55
   6  -5  -5    0.36    0.57
  -6   5   4    9.31    0.86
  -6   5   4   11.10    1.07
  -6   5   4   10.39    0.96
   6  -5  -4   10.69    1.03
   6  -5  -4    9.23    0.99
  -6   5   3    0.43    0.47
  -6   5   3   -0.54    0.45
  -6   5   3   -0.34    0.46
   6  -5  -3    0.98    0.49
   6  -5  -3   -0.61    0.44
  -6   5   2    2.85    0.53
  -6   5   2    3.63    0.63
  -6   5   2    2.71    0.49
   6  -5  -2    3.53    0.57
   6  -5  -2    2.71    0.51
  -6   5   1    1.86    0.48
  -6   5   1    1.88    0.58
  -6   5   1    2.64    0.52
   6  -5  -1    2.42    0.51
   6  -5  -1    2.09    0.46
  -6   5   0    0.19    0.44
  -6   5   0    0.51    0.56
  -6   5   0    0.11    0.45
  -6   5   0    0.21    0.41
   6  -5   0    0.05    0.43
   6  -5   0   -0.25    0.37
  -6   5  -1    0.11    0.45
  -6   5  -1   -0.05    0.45
  -6   5  -1   -0.08    0.41
  -6   5  -1   -0.05    0.35
   6  -5   1   -0.15    0.44
   6  -5   1    0.33    0.36
   6  -5   1   -0.57    0.58
  -6   5  -2    0.15    0.41
  -6   5  -2    0.08    0.48
  -6   5  -2   -0.14    0.46
  -6   5  -2    0.93    0.46
   6  -5   2    0.43    0.42
   6  -5   2    0.31    0.33
  -6   5  -3    4.63    0.61
  -6   5  -3    5.52    0.65
  -6   5  -3    4.35    0.63
   6  -5   3    3.74    0.58
   6  -5   3    4.88    0.57
  -6   5  -4    7.68    0.84
  -6   5  -4    7.26    0.91
  -6   5  -4    7.61    0.83
   6  -5   4    8.40    0.93
   6  -5   4    8.01    0.52
  -6   5  -5    2.30    0.56
  -6   5  -5    2.61    0.60
  -6   5  -5    1.18    0.50
   6  -5   5    2.89    0.57
  -6   5  -6    0.21    0.48
  -6   5  -6   -0.72    0.55
  -6   5  -6    0.78    0.53
   6  -5   6    0.70    0.58
  -6   5  -7    1.03    0.55
  -6   5  -7    2.84    0.69
  -6   5  -7    1.95    0.66
   6  -5   7    2.16    0.63
  -6   5  -8   -0.09    0.67
  -6   5  -8   -0.18    0.64
   6  -5   8    0.17    0.57
  -6   4   8    0.05    0.62
  -6   4   8   -0.19    0.75
   6  -4  -8    0.32    0.71
  -6   4   7   16.26    1.17
  -6   4   7   12.87    1.24
  -6   4   7   15.58    1.25
  -6   4   7   14.48    1.21
   6  -4  -7   12.05    1.10
   6  -4  -7   11.45    1.16
  -6   4   6    0.27    0.53
  -6   4   6    0.71    0.56
  -6   4   6    0.12    0.49
   6  -4  -6    0.31    0.55
   6  -4  -6    0.48    0.52
  -6   4   5    1.39    0.49
  -6   4   5    1.46    0.54
  -6   4   5    0.53    0.51
   6  -4  -5    1.40    0.50
   6  -4  -5    1.42    0.56
  -6   4   4   15.90    0.87
  -6   4   4   15.26    1.03
  -6   4   4   14.09    0.99
   6  -4  -4   16.63    0.97
   6  -4  -4   12.93    0.96
   6  -4  -4   16.90    1.10
  -6   4   3    4.70    0.57
  -6   4   3    4.72    0.63
  -6   4   3    6.24    0.97
  -6   4   3    4.05    0.60
   6  -4  -3    5.56    0.64
   6  -4  -3    5.10    0.62
   6  -4  -3    3.82    0.52
  -6   4   2   16.17    0.87
  -6   4   2   15.89    0.99
  -6   4   2   17.90    1.08
  -6   4   2   16.91    0.92
   6  -4  -2   16.78    0.92
   6  -4  -2   15.76    0.93
   6  -4  -2   16.07    0.97
  -6   4   1    0.59    0.40
  -6   4   1   -0.26    0.47
  -6   4   1   -0.10    0.39
  -6   4   1    0.26    0.47
  -6   4   1    0.10    0.39
   6  -4  -1    0.02    0.38
   6  -4  -1    0.14    0.38
   6  -4  -1   -0.25    0.43
  -6   4   0    4.81    0.57
  -6   4   0    6.49    0.78
  -6   4   0    6.60    0.78
  -6   4   0    6.86    0.82
  -6   4   0    6.01    0.63
   6  -4   0    6.80    0.74
   6  -4   0    4.36    0.48
   6  -4   0    6.24    0.67
  -6   4  -1    3.63    0.56
  -6   4  -1    3.81    0.49
  -6   4  -1    3.55    0.54
  -6   4  -1    3.80    0.57
  -6   4  -1    3.83    0.55
   6  -4   1    3.59    0.55
   6  -4   1    2.55    0.39
   6  -4   1    3.73    0.56
  -6   4  -2    6.37    0.72
  -6   4  -2    6.85    0.65
  -6   4  -2    6.04    0.63
  -6   4  -2    5.84    0.62
  -6   4  -2    5.39    0.59
   6  -4   2    6.46    0.72
   6  -4   2    6.87    0.58
   6  -4   2    6.70    0.69
  -6   4  -3   13.54    0.88
  -6   4  -3   12.62    0.45
  -6   4  -3   16.07    0.72
  -6   4  -3   13.91    0.88
  -6   4  -3   16.23    1.00
  -6   4  -3   11.82    0.83
   6  -4   3   15.23    0.87
   6  -4   3   15.35    0.45
   6  -4   3   11.71    0.60
   6  -4   3   15.84    0.99
  -6   4  -4    5.72    0.69
  -6   4  -4    6.03    0.48
  -6   4  -4    6.98    0.55
  -6   4  -4    5.95    0.63
  -6   4  -4    5.97    0.68
  -6   4  -4    7.82    0.78
   6  -4   4    6.33    0.72
   6  -4   4    6.33    0.54
   6  -4   4    5.99    0.50
   6  -4   4    7.40    0.73
  -6   4  -5    1.67    0.52
  -6   4  -5    1.21    0.34
  -6   4  -5    1.26    0.49
  -6   4  -5    1.09    0.47
   6  -4   5    1.25    0.43
   6  -4   5    1.30    0.37
   6  -4   5    1.50    0.25
   6  -4   5    1.79    0.58
  -6   4  -6   -0.46    0.39
  -6   4  -6   -0.08    0.38
  -6   4  -6    0.04    0.47
  -6   4  -6   -0.16    0.45
   6  -4   6   -0.07    0.45
   6  -4   6    0.55    0.42
  -6   4  -7    4.45    0.67
  -6   4  -7    5.05    0.55
  -6   4  -7    4.31    0.67
  -6   4  -7    4.72    0.67
   6  -4   7    5.82    0.70
  -6   4  -8    0.64    0.50
  -6   4  -8    1.36    0.55
  -6   4  -8    0.59    0.59
  -6   4  -8    0.28    0.51
   6  -4   8    1.76    0.56
  -6   4  -9    6.71    0.80
  -6   4  -9    7.15    0.78
  -6   4  -9    6.50    0.88
  -6   4  -9    5.83    0.79
   6  -4   9    7.22    0.82
  -6   3   9    0.46    0.69
  -6   3   8   13.22    1.03
  -6   3   8   10.62    1.14
  -6   3   8   14.09    1.34
   6  -3  -8   13.82    1.20
  -6   3   7    7.91    0.92
  -6   3   7    5.23    0.62
  -6   3   7    4.53    0.69
  -6   3   7    5.65    0.79
   6  -3  -7    4.10    0.61
   6  -3  -7    6.11    0.82
  -6   3   6    8.87    0.78
  -6   3   6    6.32    0.72
  -6   3   6    8.04    0.96
   6  -3  -6    7.69    0.85
   6  -3  -6    5.26    0.48
   6  -3  -6    8.36    0.99
   6  -3  -6    5.69    0.67
  -6   3   5    0.97    0.42
  -6   3   5    0.58    0.47
  -6   3   5    0.65    0.54
  -6   3   5    1.54    0.51
   6  -3  -5    0.67    0.44
   6  -3  -5    0.95    0.21
   6  -3  -5    1.04    0.24
   6  -3  -5    0.96    0.49
   6  -3  -5    0.44    0.52
  -6   3   4    9.14    0.74
  -6   3   4    9.29    0.85
  -6   3   4    9.69    0.96
  -6   3   4    9.01    1.08
   6  -3  -4   10.08    0.78
   6  -3  -4   10.29    0.85
   6  -3  -4    9.25    0.89
  -6   3   3   42.81    1.10
  -6   3   3   45.78    1.27
  -6   3   3   47.23    1.35
  -6   3   3   45.47    1.26
   6  -3  -3   49.52    1.30
  -6   3   2    8.12    0.70
  -6   3   2    8.56    0.79
  -6   3   2    9.36    0.87
  -6   3   2    9.15    0.78
   6  -3  -2    8.43    0.92
   6  -3  -2    7.58    0.77
   6  -3  -2    7.02    0.76
  -6   3   1   26.67    0.95
  -6   3   1   32.10    1.01
  -6   3   1   30.17    1.06
  -6   3   1   30.02    1.09
  -6   3   1   27.59    1.00
   6  -3  -1   25.09    1.22
   6  -3  -1   26.95    0.92
   6  -3  -1   26.33    1.22
   6  -3  -1   23.45    0.95
  -6   3   0    7.88    0.69
  -6   3   0    8.60    0.67
  -6   3   0    8.64    0.72
  -6   3   0    7.53    0.73
  -6   3   0    8.51    0.77
  -6   3   0    8.40    0.71
   6  -3   0    6.79    0.63
   6  -3   0    5.69    0.56
   6  -3   0    8.90    0.80
   6  -3   0    7.15    0.77
  -6   3  -1    0.79    0.37
  -6   3  -1    1.02    0.37
  -6   3  -1    0.53    0.35
  -6   3  -1    1.26    0.43
  -6   3  -1    0.67    0.43
  -6   3  -1    0.87    0.40
   6  -3   1    0.36    0.43
   6  -3   1    1.11    0.35
   6  -3   1    0.19    0.40
   6  -3   1    0.82    0.38
  -6   3  -2   60.96    1.36
  -6   3  -2   56.51    0.84
  -6   3  -2   76.89    1.19
  -6   3  -2   63.85    1.31
  -6   3  -2   63.50    1.34
  -6   3  -2   68.62    1.43
  -6   3  -2   58.99    1.31
   6  -3   2   64.00    1.38
   6  -3   2   57.75    0.65
   6  -3   2   49.98    0.99
   6  -3   2   74.93    1.98
   6  -3   2   60.77    1.34
  -6   3  -3    5.55    0.64
  -6   3  -3    4.53    0.41
  -6   3  -3    5.54    0.55
  -6   3  -3    5.46    0.54
  -6   3  -3    5.08    0.56
  -6   3  -3    4.61    0.57
  -6   3  -3    4.84    0.58
   6  -3   3    5.79    0.60
   6  -3   3    4.37    0.42
   6  -3   3    4.02    0.39
   6  -3   3    4.02    0.56
  -6   3  -4   43.58    1.23
  -6   3  -4   42.82    0.81
  -6   3  -4   54.70    0.92
  -6   3  -4   44.30    1.14
  -6   3  -4   46.98    1.21
  -6   3  -4   54.98    1.38
  -6   3  -4   45.18    1.24
   6  -3   4   47.89    1.25
   6  -3   4   19.00    0.66
   6  -3   4   21.06    0.63
   6  -3   4   49.88    1.33
  -6   3  -5    0.75    0.42
  -6   3  -5   -0.06    0.30
  -6   3  -5    0.44    0.28
  -6   3  -5   -0.15    0.37
  -6   3  -5    0.21    0.45
  -6   3  -5    0.78    0.51
  -6   3  -5   -0.46    0.37
   6  -3   5    0.83    0.39
   6  -3   5    0.07    0.32
   6  -3   5    0.16    0.24
   6  -3   5    0.31    0.44
  -6   3  -6   18.79    0.98
  -6   3  -6   18.75    0.83
  -6   3  -6   22.98    1.20
  -6   3  -6   19.55    1.04
   6  -3   6   21.16    1.00
   6  -3   6   16.14    0.82
   6  -3   6   18.24    0.49
   6  -3   6   20.06    0.53
   6  -3   6   20.46    1.10
  -6   3  -7    1.49    0.48
  -6   3  -7    2.30    0.47
  -6   3  -7    1.73    0.48
  -6   3  -7    2.01    0.50
   6  -3   7    1.62    0.47
   6  -3   7    1.76    0.50
   6  -3   7    2.49    0.62
  -6   3  -8    1.42    0.50
  -6   3  -8    1.36    0.48
  -6   3  -8    0.92    0.55
  -6   3  -8   -0.62    0.52
   6  -3   8    1.03    0.56
  -6   3  -9   61.66    1.65
  -6   3  -9   61.05    1.53
  -6   3  -9   59.96    1.58
  -6   3  -9   58.22    1.78
   6  -3   9   59.69    1.65
  -6   3 -10    9.49    1.00
  -6   3 -10    7.83    0.85
  -6   3 -10    8.80    1.02
   6  -3  10   10.37    1.12
   6  -3  10   11.51    1.21
  -6   2   9    0.80    0.55
  -6   2   9    0.86    0.59
  -6   2   9    1.66    0.69
   6  -2  -9    0.97    0.53
   6  -2  -9    0.80    0.60
  -6   2   8   28.36    1.36
  -6   2   8   27.58    1.06
  -6   2   8   24.78    1.23
  -6   2   8   31.03    1.47
   6  -2  -8   22.50    0.94
   6  -2  -8   28.43    1.30
  -6   2   7   16.84    0.90
  -6   2   7   14.14    0.83
  -6   2   7   11.08    0.98
  -6   2   7   14.63    1.11
   6  -2  -7   12.60    0.85
   6  -2  -7   11.01    0.69
   6  -2  -7   15.33    1.04
   6  -2  -7   14.03    1.21
  -6   2   6   11.22    0.76
  -6   2   6   10.42    0.97
  -6   2   6   12.87    1.06
  -6   2   6   11.46    0.97
   6  -2  -6   12.18    0.81
   6  -2  -6   10.14    0.59
   6  -2  -6   11.78    0.71
   6  -2  -6   12.83    0.90
   6  -2  -6   13.17    1.05
  -6   2   5    2.35    0.51
  -6   2   5    3.12    0.49
  -6   2   5    2.48    0.50
  -6   2   5    3.66    0.57
  -6   2   5    2.86    0.53
   6  -2  -5    3.24    0.48
   6  -2  -5    2.51    0.31
   6  -2  -5    3.32    0.51
   6  -2  -5    2.64    0.56
   6  -2  -5    3.44    0.62
  -6   2   4   49.13    1.20
  -6   2   4   47.89    1.13
  -6   2   4   50.15    1.30
  -6   2   4   51.00    1.31
   6  -2  -4   49.41    1.16
   6  -2  -4   44.06    0.69
   6  -2  -4   43.30    0.71
   6  -2  -4   55.45    1.32
   6  -2  -4   51.03    1.30
   6  -2  -4   43.88    1.26
  -6   2   3    6.62    0.73
  -6   2   3    6.98    0.62
  -6   2   3    7.33    0.71
  -6   2   3    8.10    0.81
  -6   2   3    7.21    0.72
   6  -2  -3    7.47    0.64
   6  -2  -3    5.62    0.34
   6  -2  -3    5.75    0.35
   6  -2  -3    7.52    0.71
   6  -2  -3    5.21    0.57
   6  -2  -3    7.68    0.73
   6  -2  -3    6.43    0.73
  -6   2   2   10.47    0.78
  -6   2   2   10.55    0.69
  -6   2   2   11.38    0.77
  -6   2   2    9.12    0.69
  -6   2   2   11.15    0.82
  -6   2   2   10.36    0.76
   6  -2  -2   10.86    0.69
   6  -2  -2    9.03    0.32
   6  -2  -2   11.53    0.71
   6  -2  -2    8.14    0.68
   6  -2  -2   10.79    0.78
   6  -2  -2    9.88    0.74
  -6   2   1   70.04    1.35
  -6   2   1   61.74    1.26
  -6   2   1   80.69    1.36
  -6   2   1   65.72    1.29
  -6   2   1   67.56    1.37
  -6   2   1   61.49    1.31
   6  -2  -1   62.37    1.26
   6  -2  -1   72.23    0.62
   6  -2  -1   56.94    0.56
   6  -2  -1   71.05    1.30
   6  -2  -1   57.24    1.18
   6  -2  -1   70.99    1.40
   6  -2  -1   60.26    1.27
  -6   2   0  327.27    2.72
  -6   2   0  284.69    2.57
  -6   2   0  350.00    2.57
  -6   2   0  291.40    2.44
  -6   2   0  310.85    2.71
  -6   2   0  290.57    2.63
   6  -2   0  300.22    2.63
   6  -2   0  257.39    1.21
   6  -2   0  313.16    2.45
   6  -2   0  274.92    2.35
   6  -2   0  312.43    2.71
   6  -2   0  283.00    2.54
  -6   2  -1   50.37    1.16
  -6   2  -1   42.83    1.10
  -6   2  -1   53.98    1.05
  -6   2  -1   44.93    1.04
  -6   2  -1   47.06    1.05
  -6   2  -1   49.11    1.22
  -6   2  -1   45.12    1.17
   6  -2   1   46.89    1.13
   6  -2   1   45.59    0.63
   6  -2   1   39.30    0.59
   6  -2   1   49.85    1.02
   6  -2   1   49.47    1.22
   6  -2   1   43.99    1.12
  -6   2  -2    0.87    0.36
  -6   2  -2    1.15    0.22
  -6   2  -2    1.69    0.35
  -6   2  -2    1.69    0.36
  -6   2  -2    1.22    0.36
  -6   2  -2    0.69    0.36
  -6   2  -2    0.97    0.37
   6  -2   2    1.29    0.34
   6  -2   2    1.14    0.23
   6  -2   2    0.90    0.31
   6  -2   2    1.06    0.42
   6  -2   2    0.47    0.32
  -6   2  -3   76.90    1.46
  -6   2  -3   76.85    0.99
  -6   2  -3  101.30    1.25
  -6   2  -3   80.31    1.30
  -6   2  -3   88.90    1.36
  -6   2  -3   98.15    1.64
  -6   2  -3   80.61    1.48
   6  -2   3   90.64    1.55
   6  -2   3   68.27    1.00
   6  -2   3   88.75    1.18
   6  -2   3   88.67    1.57
   6  -2   3   81.34    1.47
  -6   2  -4    4.03    0.55
  -6   2  -4    3.42    0.36
  -6   2  -4    4.70    0.42
  -6   2  -4    3.70    0.43
  -6   2  -4    3.86    0.47
  -6   2  -4    4.23    0.53
  -6   2  -4    3.68    0.51
   6  -2   4    3.27    0.66
   6  -2   4    3.46    0.37
   6  -2   4    3.79    0.44
   6  -2   4    4.14    0.58
   6  -2   4    4.14    0.54
  -6   2  -5   60.65    1.39
  -6   2  -5   59.57    1.08
  -6   2  -5   74.28    1.01
  -6   2  -5   56.94    1.16
  -6   2  -5   70.13    1.30
  -6   2  -5   77.20    1.61
  -6   2  -5   58.96    1.38
   6  -2   5   62.03    1.38
   6  -2   5   53.86    1.05
   6  -2   5   61.42    0.91
   6  -2   5   63.46    1.43
   6  -2   5   63.98    1.41
  -6   2  -6   15.62    0.89
  -6   2  -6   16.29    0.77
  -6   2  -6   14.62    0.79
  -6   2  -6   17.24    0.90
  -6   2  -6   18.50    1.06
  -6   2  -6   16.41    0.95
   6  -2   6   17.39    0.86
   6  -2   6   16.27    0.82
   6  -2   6   15.70    0.55
   6  -2   6   14.51    0.86
   6  -2   6   17.81    0.99
   6  -2   6   15.48    1.00
  -6   2  -7   39.17    1.22
  -6   2  -7   37.60    1.07
  -6   2  -7   36.76    1.06
  -6   2  -7   42.93    1.23
  -6   2  -7   50.44    1.48
  -6   2  -7   38.56    1.29
   6  -2   7   39.24    1.21
   6  -2   7   37.83    1.18
   6  -2   7   38.03    0.70
   6  -2   7   39.43    0.72
   6  -2   7   42.71    1.36
   6  -2   7   43.25    1.56
  -6   2  -8   24.37    1.08
  -6   2  -8   25.85    1.04
  -6   2  -8   24.60    1.01
  -6   2  -8   26.48    1.19
  -6   2  -8   24.49    2.03
   6  -2   8   25.82    1.09
   6  -2   8   23.65    0.58
   6  -2   8   28.46    1.29
  -6   2  -9    0.82    0.54
  -6   2  -9    1.86    0.56
  -6   2  -9    2.46    0.67
   6  -2   9    2.02    0.55
   6  -2   9    2.40    0.54
   6  -2   9    1.84    0.74
  -6   2 -10   14.98    1.03
  -6   2 -10   15.09    1.18
  -6   2 -10   16.64    1.38
   6  -2  10   16.41    1.17
   6  -2  10   16.27    1.11
  -6   2 -11    1.11    0.58
  -6   2 -11    0.15    0.64
  -6   2 -11    0.67    0.75
   6  -2  11    2.32    0.72
   6  -2  11    0.70    0.71
  -6   1  10   11.18    1.34
  -6   1  10    7.28    0.83
  -6   1  10    9.64    1.06
   6  -1 -10    9.11    1.11
   6  -1 -10   11.71    1.24
  -6   1   9    4.79    0.61
  -6   1   9    3.72    0.58
  -6   1   9    3.12    0.65
  -6   1   9    4.41    0.84
   6  -1  -9    3.20    0.58
   6  -1  -9    3.87    0.71
   6  -1  -9    4.84    0.94
  -6   1   8   -0.52    0.40
  -6   1   8   -0.37    0.50
  -6   1   8    0.02    0.44
  -6   1   8   -0.30    0.46
  -6   1   8   -0.06    0.49
  -6   1   8   -0.20    0.63
   6  -1  -8    0.17    0.41
   6  -1  -8    0.83    0.43
   6  -1  -8   -0.65    0.67
  -6   1   7   25.94    0.91
  -6   1   7   20.04    0.93
  -6   1   7   23.01    0.93
  -6   1   7   21.96    0.91
  -6   1   7   21.90    1.08
  -6   1   7   20.99    1.20
  -6   1   7   24.19    1.19
   6  -1  -7   22.57    0.86
   6  -1  -7   26.02    1.12
   6  -1  -7   25.22    1.23
   6  -1  -7   19.49    1.24
  -6   1   6    1.59    0.45
  -6   1   6    1.37    0.43
  -6   1   6    2.32    0.40
  -6   1   6    0.65    0.42
  -6   1   6    0.45    0.40
  -6   1   6    1.31    0.45
   6  -1  -6    1.64    0.40
   6  -1  -6    1.08    0.34
   6  -1  -6    2.08    0.52
   6  -1  -6    2.41    0.59
   6  -1  -6    1.06    0.50
  -6   1   5   28.49    0.91
  -6   1   5   28.25    0.93
  -6   1   5   26.80    1.02
  -6   1   5   28.91    1.11
  -6   1   5   29.31    1.08
   6  -1  -5   28.30    0.87
   6  -1  -5   31.59    0.78
   6  -1  -5   24.91    0.78
   6  -1  -5   31.87    1.10
   6  -1  -5   31.41    1.17
   6  -1  -5   26.32    1.08
  -6   1   4    4.28    0.49
  -6   1   4    4.30    0.51
  -6   1   4    3.33    0.47
  -6   1   4    3.68    0.52
  -6   1   4    3.01    0.47
   6  -1  -4    3.54    0.42
   6  -1  -4    3.77    0.42
   6  -1  -4    4.00    0.37
   6  -1  -4    4.24    0.55
   6  -1  -4    3.54    0.48
   6  -1  -4    5.13    0.62
   6  -1  -4    4.23    0.55
  -6   1   3   33.75    0.94
  -6   1   3   28.98    0.92
  -6   1   3   36.52    1.22
  -6   1   3   31.36    0.98
  -6   1   3   32.94    1.07
  -6   1   3   30.29    1.01
   6  -1  -3   30.97    0.88
   6  -1  -3   36.94    0.69
   6  -1  -3   27.00    0.63
   6  -1  -3   36.35    1.05
   6  -1  -3   27.59    0.91
   6  -1  -3   33.01    1.06
   6  -1  -3   29.31    1.01
  -6   1   2   39.77    0.97
  -6   1   2   35.55    0.96
  -6   1   2   40.17    1.04
  -6   1   2   37.08    0.98
  -6   1   2   38.19    1.14
  -6   1   2   36.59    1.04
   6  -1  -2   36.19    0.93
   6  -1  -2   40.71    0.68
   6  -1  -2   32.46    0.62
   6  -1  -2   43.89    1.07
   6  -1  -2   32.03    0.90
   6  -1  -2   61.14    1.68
   6  -1  -2   34.25    1.01
  -6   1   1    4.54    0.57
  -6   1   1    2.81    0.40
  -6   1   1    4.92    0.59
  -6   1   1    3.77    0.42
  -6   1   1    2.89    0.76
  -6   1   1    2.83    0.40
   6  -1  -1    3.56    0.43
   6  -1  -1    3.72    0.35
   6  -1  -1    2.89    0.33
   6  -1  -1    4.56    0.55
   6  -1  -1    3.67    0.40
   6  -1  -1    4.82    0.53
   6  -1  -1    4.08    0.48
  -6   1   0  177.29    1.92
  -6   1   0  148.76    1.82
  -6   1   0  183.49    1.86
  -6   1   0  156.08    1.67
  -6   1   0  161.14    1.95
  -6   1   0  147.40    1.86
   6  -1   0  158.37    1.81
   6  -1   0  156.01    1.21
   6  -1   0  147.34    1.17
   6  -1   0  176.00    1.84
   6  -1   0  143.46    1.58
   6  -1   0  159.35    1.92
   6  -1   0  146.35    1.82
  -6   1  -1    4.95    0.55
  -6   1  -1    3.80    0.45
  -6   1  -1    3.72    0.36
  -6   1  -1    4.65    0.52
  -6   1  -1    3.45    0.37
  -6   1  -1    4.51    0.50
  -6   1  -1    5.07    0.55
  -6   1  -1    3.57    0.47
   6  -1   1    3.74    0.43
   6  -1   1    3.77    0.35
   6  -1   1    4.79    0.52
   6  -1   1    5.03    0.52
   6  -1   1    3.19    0.45
  -6   1  -2   58.04    1.17
  -6   1  -2   49.74    1.15
  -6   1  -2   47.80    0.80
  -6   1  -2   64.69    1.08
  -6   1  -2   53.37    0.98
  -6   1  -2   57.51    1.02
  -6   1  -2   59.04    1.51
  -6   1  -2   50.72    1.15
   6  -1   2   57.58    1.19
   6  -1   2   43.77    0.97
   6  -1   2   62.39    1.07
   6  -1   2   56.93    1.24
   6  -1   2   54.78    1.19
  -6   1  -3    6.66    0.60
  -6   1  -3    6.62    0.61
  -6   1  -3    6.16    0.46
  -6   1  -3    8.36    0.54
  -6   1  -3    7.07    0.50
  -6   1  -3    6.42    0.52
  -6   1  -3    6.68    0.69
  -6   1  -3    5.18    0.59
   6  -1   3    6.83    0.59
   6  -1   3    7.09    0.49
   6  -1   3    8.26    0.54
   6  -1   3    5.81    0.66
   6  -1   3    6.96    0.63
  -6   1  -4   71.89    1.39
  -6   1  -4   72.58    1.11
  -6   1  -4   92.10    1.21
  -6   1  -4   75.21    1.14
  -6   1  -4   85.48    1.21
  -6   1  -4   92.44    1.58
  -6   1  -4   74.94    1.43
   6  -1   4   82.02    1.45
   6  -1   4   73.34    1.12
   6  -1   4   91.23    1.19
   6  -1   4   80.94    1.48
   6  -1   4   81.10    1.47
  -6   1  -5   79.93    1.51
  -6   1  -5   81.83    1.26
  -6   1  -5  104.56    1.24
  -6   1  -5   81.52    1.21
  -6   1  -5  103.81    1.36
  -6   1  -5  104.71    1.72
  -6   1  -5   86.28    1.57
   6  -1   5   83.61    1.83
   6  -1   5   81.56    1.27
   6  -1   5  102.03    1.22
   6  -1   5   90.18    1.15
   6  -1   5   95.52    1.65
   6  -1   5   90.69    1.60
  -6   1  -6   69.09    1.45
  -6   1  -6   73.15    1.29
  -6   1  -6   71.33    1.19
  -6   1  -6   88.98    1.34
  -6   1  -6   89.97    1.69
  -6   1  -6   71.54    1.51
   6  -1   6   76.30    1.50
   6  -1   6   67.86    1.27
   6  -1   6   86.94    1.12
   6  -1   6   77.00    1.07
   6  -1   6   77.66    1.57
   6  -1   6   78.51    1.57
  -6   1  -7   33.73    1.11
  -6   1  -7   34.28    1.06
  -6   1  -7   33.54    0.94
  -6   1  -7   41.82    1.09
  -6   1  -7   46.20    1.38
  -6   1  -7   34.97    1.24
   6  -1   7   39.58    1.16
   6  -1   7   33.67    1.11
   6  -1   7   43.50    0.84
   6  -1   7   38.06    0.82
   6  -1   7   39.17    1.27
   6  -1   7   38.18    1.30
  -6   1  -8    2.35    0.48
  -6   1  -8    2.43    0.47
  -6   1  -8    2.51    0.53
  -6   1  -8    1.93    0.50
  -6   1  -8    3.22    0.64
   6  -1   8    2.53    0.46
   6  -1   8    2.47    0.36
   6  -1   8    2.10    0.37
   6  -1   8    2.68    0.45
   6  -1   8    2.98    0.63
   6  -1   8    1.51    0.59
  -6   1  -9   21.16    1.01
  -6   1  -9   21.54    1.07
  -6   1  -9   22.94    1.14
  -6   1  -9   24.94    1.27
   6  -1   9   23.30    1.06
   6  -1   9   26.77    0.78
   6  -1   9   21.92    0.98
   6  -1   9   25.50    1.28
   6  -1   9   24.97    1.39
  -6   1 -10    0.22    0.47
  -6   1 -10    0.78    0.55
  -6   1 -10   -0.11    0.64
   6  -1  10   -0.79    0.52
   6  -1  10    0.35    0.51
   6  -1  10    0.24    0.61
  -6   1 -11   37.40    1.39
  -6   1 -11   38.85    1.54
  -6   1 -11   38.80    1.71
   6  -1  11   40.98    1.52
   6  -1  11   39.45    1.39
  -6   0  10   14.40    1.06
  -6   0  10   15.09    1.24
  -6   0  10   16.58    1.40
   6   0 -10   14.98    1.17
   6   0 -10   13.94    1.24
   6   0 -10   14.93    1.56
  -6   0   9    0.14    0.42
  -6   0   9   -0.03    0.45
  -6   0   9    0.42    0.51
  -6   0   9    0.38    0.66
   6   0  -9    0.06    0.47
   6   0  -9    0.08    0.50
   6   0  -9   -0.15    0.68
  -6   0   8   33.65    0.90
  -6   0   8   29.59    0.95
  -6   0   8   29.76    1.04
  -6   0   8   27.47    1.13
  -6   0   8   27.38    1.17
  -6   0   8   27.46    1.37
  -6   0   8   31.20    1.40
   6   0  -8   28.87    1.05
   6   0  -8   31.64    1.25
   6   0  -8   35.47    1.48
   6   0  -8   29.17    1.47
  -6   0   7   17.76    0.72
  -6   0   7   17.17    0.77
  -6   0   7   16.65    0.85
  -6   0   7   16.19    0.86
  -6   0   7   16.93    0.94
  -6   0   7   15.33    1.04
  -6   0   7   16.96    1.09
   6   0  -7   17.13    0.83
   6   0  -7   17.40    0.99
   6   0  -7   16.87    1.08
   6   0  -7   14.28    1.12
  -6   0   6    5.93    0.63
  -6   0   6    5.73    0.62
  -6   0   6    6.20    0.64
  -6   0   6    4.31    0.52
  -6   0   6    4.56    0.55
  -6   0   6    4.51    0.53
   6   0  -6    6.12    0.54
   6   0  -6    7.39    0.64
   6   0  -6    7.38    0.72
   6   0  -6    7.79    0.84
   6   0  -6    4.36    0.57
  -6   0   5   27.97    0.81
  -6   0   5   25.28    0.89
  -6   0   5   23.57    0.92
  -6   0   5   27.77    1.05
  -6   0   5   27.72    1.06
   6   0  -5   26.79    0.76
   6   0  -5   31.71    0.84
   6   0  -5   25.06    0.83
   6   0  -5   31.28    1.05
   6   0  -5   22.13    0.94
   6   0  -5   31.19    1.13
   6   0  -5   23.79    1.04
  -6   0   4   60.09    1.05
  -6   0   4   53.75    1.15
  -6   0   4   50.36    1.16
  -6   0   4   54.58    1.27
  -6   0   4   55.03    1.30
   6   0  -4   53.40    0.99
   6   0  -4   64.87    1.04
   6   0  -4   50.08    0.95
   6   0  -4   66.02    1.35
   6   0  -4   49.78    1.13
   6   0  -4   60.11    1.34
   6   0  -4   50.79    1.23
  -6   0   3   16.35    0.66
  -6   0   3   15.60    0.74
  -6   0   3   16.19    0.74
  -6   0   3   14.88    0.73
  -6   0   3   16.13    0.83
  -6   0   3   14.30    0.79
   6   0  -3   14.81    0.63
   6   0  -3   17.81    0.59
   6   0  -3   12.51    0.56
   6   0  -3   18.01    0.79
   6   0  -3   13.35    0.64
   6   0  -3   16.03    0.82
   6   0  -3   13.57    0.78
  -6   0   2    6.81    0.53
  -6   0   2    5.95    0.57
  -6   0   2    7.90    0.59
  -6   0   2    5.76    0.54
  -6   0   2    9.65    0.89
  -6   0   2    5.99    0.62
   6   0  -2    6.32    0.52
   6   0  -2    7.10    0.44
   6   0  -2    5.46    0.42
   6   0  -2    8.18    0.62
   6   0  -2    5.97    0.52
   6   0  -2    6.60    0.64
   6   0  -2    5.87    0.61
  -6   0   1   43.40    0.93
  -6   0   1   38.02    0.97
  -6   0   1   48.47    1.04
  -6   0   1   41.00    0.88
  -6   0   1   41.91    1.05
  -6   0   1   38.47    1.01
   6   0  -1   40.48    0.90
   6   0  -1   42.38    0.76
   6   0  -1   36.50    0.71
   6   0  -1   47.33    1.05
   6   0  -1   37.54    0.83
   6   0  -1   41.66    1.05
   6   0  -1   40.11    1.02
  -6   0   0    0.20    0.28
  -6   0   0    0.27    0.26
  -6   0   0    1.02    0.30
  -6   0   0    0.40    0.23
  -6   0   0    0.23    0.32
  -6   0   0    0.83    0.31
   6   0   0    0.48    0.26
   6   0   0    0.91    0.21
   6   0   0    0.42    0.22
   6   0   0    0.31    0.28
   6   0   0    0.44    0.23
   6   0   0    0.80    0.33
   6   0   0    0.73    0.31
  -6   0  -1  101.62    1.42
  -6   0  -1   84.27    1.37
  -6   0  -1   82.96    1.05
  -6   0  -1  104.27    1.37
  -6   0  -1   91.26    1.13
  -6   0  -1   98.38    1.50
  -6   0  -1   87.80    1.41
   6   0   1   95.44    1.38
   6   0   1   84.47    1.05
   6   0   1  111.26    1.44
   6   0   1   83.90    1.07
   6   0   1  100.81    1.51
   6   0   1   87.48    1.41
  -6   0  -2    5.14    0.50
  -6   0  -2    3.04    0.44
  -6   0  -2    2.69    0.30
  -6   0  -2    3.87    0.46
  -6   0  -2    3.31    0.33
  -6   0  -2    3.37    0.33
  -6   0  -2    4.65    0.50
  -6   0  -2    2.18    0.36
   6   0   2    2.87    0.37
   6   0   2    3.45    0.40
   6   0   2    3.80    0.40
   6   0   2    3.80    0.59
   6   0   2    2.95    0.39
  -6   0  -3   47.61    1.09
  -6   0  -3   44.43    0.88
  -6   0  -3   57.57    1.03
  -6   0  -3   48.88    0.81
  -6   0  -3   52.14    0.84
  -6   0  -3   54.84    1.19
  -6   0  -3   44.41    1.08
   6   0   3   53.41    1.11
   6   0   3   48.25    0.91
   6   0   3   59.23    1.04
   6   0   3   50.26    1.15
   6   0   3   52.02    1.14
  -6   0  -4    5.27    0.56
  -6   0  -4    4.68    0.56
  -6   0  -4    5.42    0.49
  -6   0  -4    7.06    0.57
  -6   0  -4    5.58    0.41
  -6   0  -4    6.21    0.47
  -6   0  -4    7.45    0.68
  -6   0  -4    5.27    0.62
   6   0   4    6.15    0.54
   6   0   4    6.14    0.54
   6   0   4    6.67    0.52
   6   0   4    5.97    0.65
   6   0   4    6.66    0.65
  -6   0  -5   -0.04    0.30
  -6   0  -5    0.08    0.27
  -6   0  -5    0.00    0.23
  -6   0  -5    0.08    0.26
  -6   0  -5   -0.06    0.36
  -6   0  -5    0.75    0.38
   6   0   5   -0.30    0.23
   6   0   5    0.60    0.33
   6   0   5    0.17    0.26
   6   0   5   -0.16    0.27
   6   0   5   -0.21    0.33
   6   0   5    0.06    0.34
  -6   0  -6   36.47    1.06
  -6   0  -6   35.86    1.00
  -6   0  -6   37.13    0.81
  -6   0  -6   44.60    0.90
  -6   0  -6   47.75    1.28
  -6   0  -6   37.42    1.13
   6   0   6   35.91    1.70
   6   0   6   36.66    1.01
   6   0   6   44.77    0.93
   6   0   6   39.04    0.88
   6   0   6   40.28    1.17
   6   0   6   41.35    1.20
  -6   0  -7    4.85    0.54
  -6   0  -7    6.48    0.68
  -6   0  -7    5.96    0.54
  -6   0  -7    7.27    0.63
  -6   0  -7    7.11    0.81
  -6   0  -7    5.29    0.63
   6   0   7    6.74    0.65
   6   0   7    4.51    0.53
   6   0   7    6.81    0.57
   6   0   7    7.70    0.59
   6   0   7    9.65    1.20
   6   0   7    6.06    0.69
  -6   0  -8   37.06    1.16
  -6   0  -8   39.85    1.20
  -6   0  -8   44.39    1.06
  -6   0  -8   49.32    1.46
  -6   0  -8   40.73    1.33
   6   0   8   43.95    1.26
   6   0   8   45.66    0.99
   6   0   8   43.88    0.99
   6   0   8   40.54    0.95
   6   0   8   42.66    1.33
   6   0   8   44.41    1.42
  -6   0  -9    1.62    0.49
  -6   0  -9    0.90    0.47
  -6   0  -9    0.88    0.47
  -6   0  -9    0.95    0.69
  -6   0  -9    0.16    0.45
   6   0   9    1.30    0.47
   6   0   9    1.18    0.37
   6   0   9    0.87    0.42
   6   0   9    1.13    0.40
   6   0   9    1.27    0.56
   6   0   9    1.34    0.58
  -6   0 -10   26.86    1.17
  -6   0 -10   28.08    1.24
  -6   0 -10   25.83    1.23
  -6   0 -10   33.94    2.00
  -6   0 -10   29.96    1.40
   6   0  10   33.37    1.29
   6   0  10   32.79    1.12
   6   0  10   27.48    1.01
   6   0  10   30.68    1.42
  -6   0 -11    2.40    0.62
  -6   0 -11    1.91    0.63
  -6   0 -11    3.42    0.77
   6   0  11    3.08    0.66
   6   0  11    4.62    0.87
  -6  -1  10    3.11    0.64
  -6  -1  10    4.27    0.72
   6   1 -10    4.15    0.69
   6   1 -10    4.98    0.76
   6   1 -10    3.44    0.83
  -6  -1   9    9.18    0.86
  -6  -1   9    8.18    0.88
  -6  -1   9    8.84    1.02
  -6  -1   9    9.71    1.01
   6   1  -9    8.83    0.95
   6   1  -9    8.60    1.00
   6   1  -9    9.45    0.98
  -6  -1   8   27.34    0.71
  -6  -1   8   23.93    0.98
  -6  -1   8   23.70    0.95
  -6  -1   8   23.98    1.11
  -6  -1   8   21.48    1.30
  -6  -1   8   24.54    1.30
   6   1  -8   27.79    1.07
   6   1  -8   28.95    1.20
   6   1  -8   29.47    1.38
   6   1  -8   21.22    1.35
  -6  -1   7   -0.21    0.26
  -6  -1   7    0.44    0.30
  -6  -1   7    0.08    0.34
  -6  -1   7    0.74    0.44
  -6  -1   7    0.27    0.40
  -6  -1   7   -0.02    0.36
  -6  -1   7   -0.37    0.48
   6   1  -7   -0.25    0.34
   6   1  -7    0.31    0.41
   6   1  -7   -0.32    0.48
   6   1  -7   -0.12    0.54
  -6  -1   6   16.84    0.61
  -6  -1   6   14.19    0.77
  -6  -1   6   16.12    0.78
  -6  -1   6   12.76    0.98
  -6  -1   6   12.79    0.89
  -6  -1   6   14.30    1.00
   6   1  -6   15.25    0.56
   6   1  -6   20.19    0.82
   6   1  -6   17.26    0.89
   6   1  -6   16.28    0.96
   6   1  -6   12.87    0.95
  -6  -1   5    6.04    0.49
  -6  -1   5    6.75    0.60
  -6  -1   5    5.68    0.64
  -6  -1   5    5.17    0.54
  -6  -1   5    5.99    0.74
   6   1  -5    6.22    0.44
   6   1  -5    7.49    0.59
   6   1  -5    5.72    0.66
   6   1  -5    5.80    0.56
   6   1  -5    7.01    0.77
   6   1  -5    6.16    0.75
  -6  -1   4  113.19    1.23
  -6  -1   4  105.99    1.56
  -6  -1   4   99.82    1.47
  -6  -1   4  111.69    1.69
  -6  -1   4  111.24    1.70
   6   1  -4  110.47    1.21
   6   1  -4  127.18    1.51
   6   1  -4   98.66    1.35
   6   1  -4  133.03    1.83
   6   1  -4  100.13    1.46
   6   1  -4  121.08    1.76
   6   1  -4   86.98    1.73
  -6  -1   3   11.85    0.54
  -6  -1   3   11.78    0.65
  -6  -1   3   12.29    0.70
  -6  -1   3   10.83    0.61
  -6  -1   3   13.38    0.76
  -6  -1   3   12.11    0.73
   6   1  -3   11.97    0.53
   6   1  -3   13.07    0.60
   6   1  -3    9.97    0.60
   6   1  -3   13.91    0.72
   6   1  -3   11.58    0.63
   6   1  -3   13.32    0.75
   6   1  -3    9.48    0.67
  -6  -1   2   20.06    0.63
  -6  -1   2   17.32    0.75
  -6  -1   2   21.86    0.77
  -6  -1   2   18.89    0.68
  -6  -1   2   20.79    0.81
  -6  -1   2   20.48    0.81
   6   1  -2   19.97    0.63
   6   1  -2   21.28    0.67
   6   1  -2   17.69    0.62
   6   1  -2   24.01    0.84
   6   1  -2   19.24    0.63
   6   1  -2   19.03    0.79
   6   1  -2   17.77    0.76
  -6  -1   1    8.85    0.52
  -6  -1   1    8.57    0.59
  -6  -1   1    9.30    0.56
  -6  -1   1    8.17    0.49
  -6  -1   1    8.94    0.62
  -6  -1   1    7.58    0.60
   6   1  -1    8.61    0.49
   6   1  -1    9.21    0.49
   6   1  -1    7.88    0.47
   6   1  -1    9.24    0.60
   6   1  -1    8.22    0.46
   6   1  -1    8.03    0.60
   6   1  -1    8.32    0.59
  -6  -1   0   10.48    0.56
  -6  -1   0    8.47    0.58
  -6  -1   0   10.39    0.57
  -6  -1   0    8.39    0.46
  -6  -1   0    9.79    0.61
  -6  -1   0    8.00    0.61
   6   1   0    9.58    0.52
   6   1   0    8.43    0.49
   6   1   0    9.50    0.49
   6   1   0   11.07    0.61
   6   1   0    8.76    0.62
   6   1   0   10.70    0.81
  -6  -1  -1   17.73    0.66
  -6  -1  -1   16.19    0.69
  -6  -1  -1   16.15    0.58
  -6  -1  -1   20.57    0.70
  -6  -1  -1   17.37    0.50
  -6  -1  -1   19.70    0.75
  -6  -1  -1   15.55    0.70
   6   1   1   19.13    0.66
   6   1   1   16.73    0.59
   6   1   1   21.79    0.75
   6   1   1   16.60    0.48
   6   1   1   18.33    0.73
   6   1   1   16.93    0.71
  -6  -1  -2    1.45    0.31
  -6  -1  -2    1.69    0.38
  -6  -1  -2    1.27    0.26
  -6  -1  -2    1.65    0.31
  -6  -1  -2    2.01    0.24
  -6  -1  -2    1.71    0.23
  -6  -1  -2    2.10    0.39
  -6  -1  -2    1.00    0.28
   6   1   2    1.30    0.29
   6   1   2    1.32    0.26
   6   1   2    2.24    0.34
   6   1   2    1.43    0.33
   6   1   2    1.47    0.34
  -6  -1  -3   22.01    0.74
  -6  -1  -3   20.18    0.76
  -6  -1  -3   18.59    0.68
  -6  -1  -3   25.11    0.78
  -6  -1  -3   20.01    0.48
  -6  -1  -3   22.87    0.50
  -6  -1  -3   23.77    0.84
  -6  -1  -3   18.63    0.74
   6   1   3   22.21    0.75
   6   1   3   19.82    0.66
   6   1   3   26.02    0.78
   6   1   3   21.23    0.80
   6   1   3   21.52    0.77
  -6  -1  -4    7.56    0.58
  -6  -1  -4    8.69    0.58
  -6  -1  -4   12.39    0.63
  -6  -1  -4    9.37    0.38
  -6  -1  -4   11.17    0.42
  -6  -1  -4   11.03    0.69
  -6  -1  -4    8.61    0.64
   6   1   4   10.33    0.62
   6   1   4    9.13    0.56
   6   1   4   12.14    0.62
   6   1   4    9.21    0.65
   6   1   4   10.62    0.68
  -6  -1  -5   23.64    0.88
  -6  -1  -5   22.00    0.82
  -6  -1  -5   21.61    0.78
  -6  -1  -5   22.72    0.52
  -6  -1  -5   26.63    0.58
  -6  -1  -5   27.75    0.93
  -6  -1  -5   23.50    0.90
   6   1   5   24.65    0.86
   6   1   5   24.62    0.85
   6   1   5   28.39    0.81
   6   1   5   23.38    0.76
   6   1   5   24.99    0.92
  -6  -1  -6    2.20    0.39
  -6  -1  -6    1.98    0.37
  -6  -1  -6    2.03    0.28
  -6  -1  -6    2.52    0.30
  -6  -1  -6    3.26    0.50
  -6  -1  -6    2.18    0.46
   6   1   6    2.89    0.44
   6   1   6    2.34    0.45
   6   1   6    3.00    0.40
   6   1   6    2.58    0.39
   6   1   6    2.04    0.42
   6   1   6    2.51    0.50
  -6  -1  -7   28.31    0.96
  -6  -1  -7   24.35    1.21
  -6  -1  -7   32.48    0.75
  -6  -1  -7   32.28    1.14
   6   1   7   35.07    1.08
   6   1   7   37.28    0.96
   6   1   7   33.57    0.92
   6   1   7   34.27    1.13
   6   1   7   34.29    1.17
  -6  -1  -8    0.63    0.39
  -6  -1  -8    1.70    0.43
  -6  -1  -8    1.42    0.37
  -6  -1  -8    1.00    0.47
  -6  -1  -8    1.45    0.51
   6   1   8    1.73    0.44
   6   1   8    1.61    0.39
   6   1   8    0.99    0.43
   6   1   8    1.17    0.32
   6   1   8    0.96    0.41
   6   1   8    0.74    0.52
  -6  -1  -9    9.60    0.76
  -6  -1  -9   10.46    0.88
  -6  -1  -9   11.26    0.76
  -6  -1  -9   12.08    1.15
  -6  -1  -9    8.34    0.95
   6   1   9   12.95    0.86
   6   1   9   11.70    0.79
   6   1   9    8.63    0.83
   6   1   9    9.71    0.66
   6   1   9   11.00    0.99
   6   1   9   10.95    1.11
  -6  -1 -10    6.18    0.66
  -6  -1 -10    6.82    0.74
  -6  -1 -10    8.48    1.06
   6   1  10    8.30    0.89
   6   1  10    8.52    0.83
   6   1  10    8.23    0.75
   6   1  10    7.66    0.73
   6   1  10    7.27    0.78
  -6  -1 -11    2.37    0.56
  -6  -1 -11    2.30    0.61
  -6  -1 -11    2.53    0.86
   6   1  11    4.91    0.73
   6   1  11    3.37    0.61
   6   1  11    3.44    0.56
   6   1  11    2.81    0.71
  -6  -1 -12    5.85    0.77
  -6  -1 -12    3.66    0.78
   6   1  12   10.06    1.17
   6   1  12    4.18    0.84
  -6  -2  10    4.05    0.64
  -6  -2  10    4.17    0.70
   6   2 -10    4.42    0.78
   6   2 -10    4.41    0.77
   6   2 -10    3.55    0.82
  -6  -2   9   24.29    1.06
  -6  -2   9   22.60    1.21
  -6  -2   9   26.05    1.38
   6   2  -9   27.77    1.21
   6   2  -9   27.05    1.25
   6   2  -9   26.73    1.38
  -6  -2   8    0.43    0.41
  -6  -2   8   -0.25    0.45
  -6  -2   8    0.94    0.60
   6   2  -8    0.18    0.42
   6   2  -8    0.36    0.48
   6   2  -8    0.71    0.89
  -6  -2   7   17.39    0.46
  -6  -2   7   19.89    0.90
  -6  -2   7   20.47    1.01
  -6  -2   7   16.98    0.99
  -6  -2   7   21.15    1.11
   6   2  -7   23.93    1.00
   6   2  -7   25.50    1.07
   6   2  -7   25.91    1.13
   6   2  -7   18.69    1.14
  -6  -2   6    2.57    0.32
  -6  -2   6    2.27    0.26
  -6  -2   6    2.15    0.42
  -6  -2   6    2.64    0.45
  -6  -2   6    2.42    0.46
  -6  -2   6    0.82    0.36
  -6  -2   6    2.46    0.53
   6   2  -6    2.73    0.42
   6   2  -6    2.57    0.48
   6   2  -6    1.40    0.45
   6   2  -6    2.88    0.50
   6   2  -6    1.88    0.45
  -6  -2   5   24.45    0.55
  -6  -2   5   23.89    0.89
  -6  -2   5   24.29    0.89
  -6  -2   5   23.50    0.90
  -6  -2   5   25.08    0.98
   6   2  -5   25.67    0.54
   6   2  -5   30.25    0.91
   6   2  -5   22.74    0.88
   6   2  -5   29.65    1.18
   6   2  -5   23.55    0.86
   6   2  -5   27.65    1.01
   6   2  -5   22.50    0.95
  -6  -2   4   18.47    0.52
  -6  -2   4   18.15    0.77
  -6  -2   4   16.20    0.72
  -6  -2   4   19.71    0.82
  -6  -2   4   19.99    0.85
   6   2  -4   19.47    0.51
   6   2  -4   22.94    0.80
   6   2  -4   16.38    0.74
   6   2  -4   23.97    0.90
   6   2  -4   17.63    0.72
   6   2  -4   21.93    0.87
   6   2  -4   15.43    0.81
  -6  -2   3    3.36    0.37
  -6  -2   3    4.66    0.53
  -6  -2   3    4.71    0.58
  -6  -2   3    3.24    0.37
  -6  -2   3    3.50    0.41
  -6  -2   3    3.95    0.48
   6   2  -3    3.44    0.36
   6   2  -3    4.18    0.48
   6   2  -3    3.33    0.42
   6   2  -3    4.62    0.57
   6   2  -3    4.15    0.40
   6   2  -3    5.14    0.53
   6   2  -3    2.61    0.36
  -6  -2   2   23.42    0.62
  -6  -2   2   22.28    0.80
  -6  -2   2   25.71    0.84
  -6  -2   2   19.18    0.61
  -6  -2   2   25.74    0.82
   6   2  -2   25.38    0.62
   6   2  -2   26.05    0.76
   6   2  -2   21.49    0.72
   6   2  -2   29.19    0.90
   6   2  -2   23.14    0.66
   6   2  -2   24.15    0.83
   6   2  -2   22.73    0.81
  -6  -2   1    0.37    0.22
  -6  -2   1    0.13    0.30
  -6  -2   1    0.14    0.27
  -6  -2   1   -0.13    0.19
  -6  -2   1   -0.11    0.27
  -6  -2   1    0.21    0.28
   6   2  -1    0.12    0.21
   6   2  -1   -0.16    0.22
   6   2  -1    0.15    0.22
   6   2  -1    0.10    0.26
   6   2  -1    0.39    0.24
   6   2  -1   -0.02    0.23
  -6  -2   0   45.17    0.86
  -6  -2   0   45.60    1.03
  -6  -2   0   52.40    1.05
  -6  -2   0   36.09    0.63
  -6  -2   0   49.71    1.03
  -6  -2   0   45.73    1.00
   6   2   0   51.58    0.91
   6   2   0   47.35    0.94
   6   2   0   44.36    0.91
   6   2   0   57.17    1.12
   6   2   0   45.41    0.68
   6   2   0   49.64    1.05
   6   2   0   44.51    0.98
  -6  -2  -1   14.65    0.61
  -6  -2  -1   13.45    0.66
  -6  -2  -1   12.20    0.58
  -6  -2  -1   15.16    0.66
  -6  -2  -1   10.41    0.36
  -6  -2  -1   14.46    0.63
  -6  -2  -1   12.35    0.62
   6   2   1   15.19    0.59
   6   2   1   11.84    0.57
   6   2   1   16.90    0.68
   6   2   1   12.83    0.38
   6   2   1   13.42    0.63
   6   2   1   13.93    0.65
  -6  -2  -2   54.71    1.03
  -6  -2  -2   52.42    1.08
  -6  -2  -2   49.43    0.99
  -6  -2  -2   63.42    1.14
  -6  -2  -2   44.75    0.51
  -6  -2  -2   58.30    0.57
  -6  -2  -2   65.74    1.17
  -6  -2  -2   51.40    1.06
   6   2   2   60.30    1.08
   6   2   2   53.70    1.02
   6   2   2   66.39    1.18
   6   2   2   56.03    1.11
   6   2   2   52.32    1.06
  -6  -2  -3   22.80    0.76
  -6  -2  -3   20.49    0.75
  -6  -2  -3   19.38    0.72
  -6  -2  -3   28.03    0.84
  -6  -2  -3   26.63    0.82
   6   2   3   24.21    0.78
   6   2   3   22.65    0.73
   6   2   3   26.68    0.80
   6   2   3   22.87    0.80
   6   2   3   23.87    0.80
  -6  -2  -4    4.70    0.52
  -6  -2  -4    4.81    0.54
  -6  -2  -4    4.95    0.53
  -6  -2  -4    6.71    0.58
  -6  -2  -4    6.97    0.58
  -6  -2  -4    5.33    0.57
   6   2   4    6.31    0.53
   6   2   4    5.76    0.51
   6   2   4    6.31    0.55
   6   2   4    5.25    0.54
   6   2   4    6.72    0.57
   6   2   4    6.33    0.59
  -6  -2  -5    4.82    0.56
  -6  -2  -5    4.97    0.54
  -6  -2  -5    3.51    0.42
  -6  -2  -5    5.03    0.25
  -6  -2  -5    5.08    0.24
  -6  -2  -5    6.81    0.59
  -6  -2  -5    3.45    0.41
   6   2   5    5.73    0.54
   6   2   5    5.65    0.60
   6   2   5    5.44    0.58
   6   2   5    4.55    0.56
   6   2   5    5.84    0.58
   6   2   5    4.98    0.50
  -6  -2  -6    2.05    0.41
  -6  -2  -6    1.50    0.40
  -6  -2  -6    1.83    0.24
  -6  -2  -6    1.96    0.22
  -6  -2  -6    2.56    0.46
  -6  -2  -6    1.59    0.39
   6   2   6    1.90    0.41
   6   2   6    1.02    0.37
   6   2   6    2.58    0.40
   6   2   6    2.54    0.41
   6   2   6    2.31    0.44
   6   2   6    2.41    0.40
  -6  -2  -7   10.42    0.70
  -6  -2  -7   13.84    0.79
  -6  -2  -7   11.42    0.47
  -6  -2  -7   14.91    0.85
  -6  -2  -7   13.08    0.86
   6   2   7   14.24    0.78
   6   2   7   14.27    0.76
   6   2   7   12.64    0.75
   6   2   7   14.70    0.84
   6   2   7   12.26    0.90
  -6  -2  -8    0.14    0.37
  -6  -2  -8   -0.10    0.37
  -6  -2  -8    0.95    0.33
  -6  -2  -8    0.64    0.46
  -6  -2  -8    0.06    0.42
   6   2   8   -0.07    0.33
   6   2   8    0.62    0.37
   6   2   8   -0.58    0.38
   6   2   8    0.37    0.25
   6   2   8    0.04    0.36
   6   2   8    0.01    0.44
  -6  -2  -9    0.99    0.47
  -6  -2  -9    1.04    0.45
  -6  -2  -9    1.31    0.38
  -6  -2  -9    0.86    0.43
   6   2   9    0.88    0.39
   6   2   9    0.80    0.44
   6   2   9    0.84    0.52
   6   2   9    1.08    0.33
   6   2   9    1.01    0.57
   6   2   9    0.35    0.56
  -6  -2 -10    2.07    0.54
  -6  -2 -10    3.39    0.55
  -6  -2 -10    3.00    0.71
   6   2  10    2.74    0.58
   6   2  10    3.00    0.58
   6   2  10    3.17    0.44
   6   2  10    3.19    0.63
  -6  -2 -11    0.52    0.55
  -6  -2 -11    0.77    0.49
   6   2  11    0.82    0.52
   6   2  11    0.67    0.59
   6   2  11   -0.24    0.60
  -6  -2 -12    0.21    0.62
  -6  -2 -12    0.49    0.62
   6   2  12    1.21    0.65
   6   2  12    0.96    0.67
   6   2  12    1.75    0.80
  -6  -3  10   10.11    0.96
  -6  -3  10   10.61    1.17
   6   3 -10   12.74    1.22
   6   3 -10   12.19    1.20
   6   3 -10   12.42    1.36
  -6  -3   9    0.57    0.48
  -6  -3   9    0.39    0.52
   6   3  -9   -0.54    0.44
   6   3  -9   -0.38    0.51
   6   3  -9    0.56    0.54
  -6  -3   8    4.99    0.61
  -6  -3   8    5.14    0.63
  -6  -3   8    6.43    0.81
   6   3  -8    5.74    0.65
   6   3  -8    5.19    0.66
   6   3  -8    6.82    0.78
  -6  -3   7    2.98    0.49
  -6  -3   7    2.33    0.46
  -6  -3   7    3.50    0.62
   6   3  -7    2.96    0.50
   6   3  -7    3.99    0.61
   6   3  -7    2.52    0.50
   6   3  -7    2.13    0.61
  -6  -3   6   17.88    0.84
  -6  -3   6   14.43    0.82
   6   3  -6   17.79    1.04
   6   3  -6   23.09    0.97
   6   3  -6   12.79    0.83
   6   3  -6   19.10    0.94
   6   3  -6   16.83    0.94
  -6  -3   5   18.28    0.83
  -6  -3   5   13.66    0.73
  -6  -3   5   17.14    0.81
  -6  -3   5   21.24    0.92
   6   3  -5   20.88    0.85
   6   3  -5   16.82    0.88
   6   3  -5   22.89    1.07
   6   3  -5   15.36    0.76
   6   3  -5   20.40    0.88
   6   3  -5   16.31    0.87
  -6  -3   4    4.37    0.31
  -6  -3   4    4.82    0.57
  -6  -3   4    2.94    0.38
  -6  -3   4    4.57    0.54
  -6  -3   4    4.73    0.49
   6   3  -4    5.50    0.58
   6   3  -4    4.06    0.47
   6   3  -4    6.47    0.65
   6   3  -4    4.24    0.52
   6   3  -4    4.70    0.58
   6   3  -4    4.67    0.51
  -6  -3   3   39.83    0.63
  -6  -3   3   51.29    1.14
  -6  -3   3   59.95    1.24
  -6  -3   3   39.17    0.85
  -6  -3   3   57.25    1.15
  -6  -3   3   54.78    1.12
   6   3  -3   58.52    0.74
   6   3  -3   62.58    1.19
   6   3  -3   50.92    1.12
   6   3  -3   71.13    1.34
   6   3  -3   55.31    0.99
   6   3  -3   59.57    1.17
   6   3  -3   51.25    1.10
  -6  -3   2    0.17    0.22
  -6  -3   2    0.36    0.30
  -6  -3   2    0.63    0.34
  -6  -3   2    0.02    0.21
  -6  -3   2    0.64    0.27
  -6  -3   2    0.60    0.29
   6   3  -2    0.82    0.22
   6   3  -2    0.46    0.26
   6   3  -2    1.01    0.32
   6   3  -2    0.49    0.31
   6   3  -2    0.45    0.23
   6   3  -2    0.38    0.26
   6   3  -2    0.33    0.26
  -6  -3   1   25.98    0.63
  -6  -3   1   32.77    0.92
  -6  -3   1   39.12    1.00
  -6  -3   1   25.66    0.57
  -6  -3   1   37.09    0.88
  -6  -3   1   33.63    0.87
   6   3  -1   38.83    0.73
   6   3  -1   36.34    0.90
   6   3  -1   30.42    0.85
   6   3  -1   42.37    1.02
   6   3  -1   34.49    0.65
   6   3  -1   36.78    0.90
   6   3  -1   32.36    0.86
  -6  -3   0   40.98    0.80
  -6  -3   0   47.67    1.06
  -6  -3   0   56.23    1.14
  -6  -3   0   44.91    0.61
  -6  -3   0   52.79    1.00
  -6  -3   0   48.69    1.00
   6   3   0   56.77    0.93
   6   3   0   50.26    1.02
   6   3   0   47.07    1.00
   6   3   0   59.25    1.16
   6   3   0   49.04    0.63
   6   3   0   52.51    1.04
   6   3   0   47.20    0.98
  -6  -3  -1   73.61    1.10
  -6  -3  -1   78.02    1.31
  -6  -3  -1   73.93    1.23
  -6  -3  -1   97.09    1.42
  -6  -3  -1   83.91    0.61
  -6  -3  -1   90.51    1.28
  -6  -3  -1   78.43    1.22
   6   3   1   94.17    1.24
   6   3   1   80.31    1.26
   6   3   1  101.10    1.48
   6   3   1   77.86    0.58
   6   3   1   87.44    1.29
   6   3   1   81.38    1.26
  -6  -3  -2  103.30    1.36
  -6  -3  -2  109.97    1.53
  -6  -3  -2  106.64    1.48
  -6  -3  -2  138.48    1.69
  -6  -3  -2  128.72    1.53
  -6  -3  -2  104.31    1.40
   6   3   2  131.02    1.53
   6   3   2  114.51    1.51
   6   3   2  141.60    1.72
   6   3   2  119.65    1.52
   6   3   2  114.64    1.49
  -6  -3  -3    8.50    0.57
  -6  -3  -3    8.62    0.59
  -6  -3  -3    7.66    0.59
  -6  -3  -3   10.99    0.65
  -6  -3  -3    9.44    0.57
  -6  -3  -3    7.95    0.52
   6   3   3   10.15    0.58
   6   3   3    9.19    0.58
   6   3   3   11.20    0.64
   6   3   3    9.27    0.57
   6   3   3    8.39    0.57
  -6  -3  -4   17.10    0.73
  -6  -3  -4   16.77    0.73
  -6  -3  -4   16.03    0.73
  -6  -3  -4   21.20    0.75
  -6  -3  -4   16.80    0.69
   6   3   4   19.27    0.77
   6   3   4   20.69    0.80
   6   3   4   18.73    0.79
   6   3   4   18.48    0.73
   6   3   4   18.33    0.75
  -6  -3  -5   -0.12    0.28
  -6  -3  -5    0.06    0.28
  -6  -3  -5   -0.25    0.27
  -6  -3  -5   -0.01    0.25
  -6  -3  -5   -0.10    0.29
   6   3   5   -0.11    0.29
   6   3   5   -0.35    0.25
   6   3   5   -0.08    0.30
   6   3   5    0.19    0.30
   6   3   5    0.29    0.30
   6   3   5    0.18    0.28
  -6  -3  -6   78.27    1.34
  -6  -3  -6  104.92    1.60
  -6  -3  -6   89.31    1.50
   6   3   6  100.20    1.68
   6   3   6  105.19    1.59
   6   3   6   90.41    1.48
   6   3   6   97.08    1.58
   6   3   6   99.80    1.60
  -6  -3  -7   34.42    0.98
  -6  -3  -7   34.37    1.10
  -6  -3  -7   45.98    1.47
  -6  -3  -7   39.00    1.16
   6   3   7   44.91    1.23
   6   3   7   43.82    1.13
   6   3   7   37.27    1.09
   6   3   7   42.62    1.17
   6   3   7   45.05    1.24
  -6  -3  -8    4.87    0.53
  -6  -3  -8    4.46    0.56
  -6  -3  -8    5.02    0.41
  -6  -3  -8    5.39    0.64
   6   3   8    7.49    0.73
   6   3   8    6.32    0.76
   6   3   8    5.34    0.37
   6   3   8    5.25    0.59
   6   3   8    6.19    0.66
  -6  -3  -9    5.45    0.60
  -6  -3  -9    7.36    0.81
  -6  -3  -9    4.77    0.57
  -6  -3  -9    6.75    0.77
   6   3   9    7.73    0.81
   6   3   9    7.30    0.86
   6   3   9    6.55    0.49
   6   3   9    8.09    0.77
  -6  -3 -10    0.27    0.49
  -6  -3 -10    0.31    0.50
   6   3  10   -0.07    0.49
   6   3  10   -0.29    0.49
   6   3  10    0.04    0.48
  -6  -3 -11    4.24    0.66
  -6  -3 -11    5.40    0.75
   6   3  11    7.24    0.85
   6   3  11    8.40    0.82
   6   3  11    9.39    1.17
  -6  -4  10    0.44    0.50
  -6  -4  10    0.82    0.64
   6   4 -10    1.32    0.65
   6   4 -10   -0.01    0.65
   6   4 -10    0.79    0.75
  -6  -4   9   14.00    0.96
  -6  -4   9   13.97    1.12
   6   4  -9   16.00    1.09
   6   4  -9   17.57    1.18
   6   4  -9   17.25    1.19
  -6  -4   8    1.18    0.45
  -6  -4   8    0.03    0.48
   6   4  -8    2.76    0.55
   6   4  -8    1.53    0.55
   6   4  -8    1.46    0.55
  -6  -4   7    1.01    0.44
  -6  -4   7   -0.22    0.38
  -6  -4   7    0.96    0.48
   6   4  -7    0.79    0.43
   6   4  -7    0.52    0.43
   6   4  -7    0.12    0.43
   6   4  -7    0.96    0.52
  -6  -4   6   14.05    0.83
  -6  -4   6   12.08    0.78
  -6  -4   6   15.74    0.94
   6   4  -6   15.67    0.86
   6   4  -6   19.23    0.96
   6   4  -6   12.37    0.85
   6   4  -6   16.30    0.87
   6   4  -6   15.03    0.89
  -6  -4   5    0.44    0.37
  -6  -4   5    0.15    0.33
  -6  -4   5    0.29    0.34
   6   4  -5    0.71    0.36
   6   4  -5    0.25    0.35
   6   4  -5    0.64    0.36
  -6  -4   4   39.12    1.08
  -6  -4   4   31.60    0.87
  -6  -4   4   35.47    0.93
   6   4  -4   47.04    1.15
   6   4  -4   33.24    1.03
   6   4  -4   51.70    1.24
   6   4  -4   37.15    0.93
   6   4  -4   43.61    1.06
   6   4  -4   36.43    0.99
  -6  -4   3    2.06    0.21
  -6  -4   3    1.78    0.39
  -6  -4   3    1.63    0.40
  -6  -4   3    1.60    0.31
  -6  -4   3    2.51    0.36
  -6  -4   3    1.46    0.32
   6   4  -3    2.24    0.40
   6   4  -3    2.04    0.40
   6   4  -3    2.48    0.43
   6   4  -3    1.55    0.32
   6   4  -3    2.11    0.36
   6   4  -3    2.20    0.36
  -6  -4   2   24.93    0.56
  -6  -4   2   23.99    0.86
  -6  -4   2   26.39    0.90
  -6  -4   2   24.93    0.65
  -6  -4   2   25.71    0.74
  -6  -4   2   24.42    0.77
   6   4  -2   28.06    0.57
   6   4  -2   25.74    0.85
   6   4  -2   23.37    0.85
   6   4  -2   30.57    0.94
   6   4  -2   24.13    0.65
   6   4  -2   26.61    0.80
   6   4  -2   22.56    0.76
  -6  -4   1   15.21    0.53
  -6  -4   1   15.89    0.73
  -6  -4   1   18.00    0.79
  -6  -4   1   16.31    0.49
  -6  -4   1   16.20    0.61
  -6  -4   1   15.40    0.63
   6   4  -1   18.26    0.54
   6   4  -1   16.70    0.72
   6   4  -1   13.64    0.69
   6   4  -1   18.59    0.78
   6   4  -1   16.33    0.49
   6   4  -1   16.76    0.66
   6   4  -1   15.48    0.63
  -6  -4   0    1.90    0.31
  -6  -4   0    1.37    0.32
  -6  -4   0    2.52    0.43
  -6  -4   0    2.10    0.26
  -6  -4   0    1.37    0.24
  -6  -4   0    1.66    0.32
   6   4   0    2.37    0.30
   6   4   0    1.26    0.34
   6   4   0    1.44    0.29
   6   4   0    2.00    0.36
   6   4   0    1.82    0.20
   6   4   0    2.17    0.30
   6   4   0    1.79    0.32
  -6  -4  -1   60.07    1.02
  -6  -4  -1   64.36    1.22
  -6  -4  -1   61.42    1.19
  -6  -4  -1   76.32    1.34
  -6  -4  -1   72.17    1.11
  -6  -4  -1   64.75    1.08
   6   4   1   77.48    1.14
   6   4   1   63.64    1.19
   6   4   1   81.44    1.38
   6   4   1   67.44    1.12
   6   4   1   64.34    1.10
  -6  -4  -2   11.14    0.60
  -6  -4  -2   11.85    0.65
  -6  -4  -2   10.93    0.65
  -6  -4  -2   14.08    0.71
  -6  -4  -2   12.95    0.55
  -6  -4  -2   11.59    0.57
   6   4   2   13.45    0.62
   6   4   2   10.16    0.61
   6   4   2   14.89    0.72
   6   4   2   13.21    0.60
   6   4   2   11.72    0.58
  -6  -4  -3   38.90    0.96
  -6  -4  -3   38.77    0.97
  -6  -4  -3   36.66    0.99
  -6  -4  -3   47.40    1.10
  -6  -4  -3   46.86    0.95
  -6  -4  -3   40.26    0.91
   6   4   3   47.87    1.05
   6   4   3   41.08    1.02
   6   4   3   48.91    1.14
   6   4   3   41.25    1.03
   6   4   3   44.24    0.97
   6   4   3   42.11    0.96
  -6  -4  -4   11.43    0.69
  -6  -4  -4   11.89    0.69
  -6  -4  -4   11.68    0.71
  -6  -4  -4   14.07    0.61
  -6  -4  -4   12.20    0.62
   6   4   4   13.54    0.71
   6   4   4   11.26    0.67
   6   4   4   14.17    0.76
   6   4   4   11.32    0.68
   6   4   4   13.34    0.65
   6   4   4   13.71    0.67
  -6  -4  -5   33.04    0.93
  -6  -4  -5   40.28    0.98
   6   4   5   43.33    1.12
   6   4   5   43.53    1.13
   6   4   5   39.82    1.23
   6   4   5   39.99    1.00
   6   4   5   40.14    1.03
  -6  -4  -6   99.45    1.47
  -6  -4  -6  105.39    1.74
   6   4   6  108.94    2.25
   6   4   6  133.59    1.87
   6   4   6  111.58    2.35
   6   4   6  125.46    1.77
  -6  -4  -7    8.17    0.65
  -6  -4  -7   10.83    0.78
  -6  -4  -7   11.71    0.81
   6   4   7   10.65    0.79
   6   4   7   12.38    0.75
   6   4   7   11.42    0.80
  -6  -4  -8   14.00    0.78
  -6  -4  -8   19.31    0.99
  -6  -4  -8   21.43    1.04
   6   4   8   24.34    1.02
   6   4   8   25.15    1.07
   6   4   8   22.68    1.00
   6   4   8   23.76    1.11
  -6  -4  -9   -0.43    0.41
  -6  -4  -9   -0.29    0.42
   6   4   9   -0.42    0.43
   6   4   9    0.55    0.50
   6   4   9   -0.25    0.44
  -6  -4 -10   16.68    0.95
  -6  -4 -10   25.38    1.24
   6   4  10   34.17    1.29
   6   4  10   34.99    1.34
   6   4  10   30.00    1.30
  -6  -4 -11   10.62    0.99
  -6  -4 -11   13.09    1.12
   6   4  11   16.38    1.10
   6   4  11   15.05    1.22
   6   4  11   14.57    1.23
  -6  -5  10   -0.20    0.52
  -6  -5  10    0.36    0.67
   6   5 -10    0.04    0.63
   6   5 -10    0.65    0.71
   6   5 -10    0.43    0.66
  -6  -5   9    4.75    0.67
  -6  -5   9    3.91    0.70
   6   5  -9    3.71    0.71
   6   5  -9    5.30    0.76
   6   5  -9    4.93    0.70
  -6  -5   8    3.95    0.63
  -6  -5   8    3.06    0.60
   6   5  -8    3.55    0.61
   6   5  -8    4.43    0.70
   6   5  -8    3.86    0.63
  -6  -5   7    3.48    0.53
  -6  -5   7    3.55    0.58
   6   5  -7    4.40    0.61
   6   5  -7    5.35    0.65
   6   5  -7    4.49    0.56
  -6  -5   6    1.62    0.48
  -6  -5   6    2.39    0.49
   6   5  -6    1.95    0.49
   6   5  -6    2.26    0.51
   6   5  -6    2.17    0.44
   6   5  -6    1.58    0.47
  -6  -5   5    3.73    0.51
  -6  -5   5    3.96    0.47
  -6  -5   5    5.31    0.55
   6   5  -5    4.64    0.56
   6   5  -5    5.61    0.69
   6   5  -5    4.25    0.54
   6   5  -5    5.28    0.54
   6   5  -5    3.69    0.47
  -6  -5   4   46.92    1.21
  -6  -5   4   47.61    1.03
  -6  -5   4   52.17    1.12
   6   5  -4   56.44    1.30
   6   5  -4   63.28    1.65
   6   5  -4   46.62    1.07
   6   5  -4   57.22    1.18
   6   5  -4   46.43    1.08
  -6  -5   3    8.34    0.33
  -6  -5   3    7.26    0.65
  -6  -5   3    7.55    0.55
  -6  -5   3    7.75    0.60
   6   5  -3    7.22    0.32
   6   5  -3    8.79    0.71
   6   5  -3    6.82    0.58
   6   5  -3    6.68    0.57
  -6  -5   2   44.93    0.69
  -6  -5   2   38.48    1.07
  -6  -5   2   43.77    0.83
  -6  -5   2   40.92    0.89
  -6  -5   2   41.82    0.91
   6   5  -2   49.52    0.71
   6   5  -2   46.50    1.15
   6   5  -2   36.74    1.07
   6   5  -2   53.24    1.22
   6   5  -2   40.11    0.82
   6   5  -2   45.79    0.97
   6   5  -2   40.36    0.93
  -6  -5   1    2.04    0.29
  -6  -5   1    2.12    0.37
  -6  -5   1    2.59    0.50
  -6  -5   1    2.70    0.28
  -6  -5   1    1.88    0.30
  -6  -5   1    1.63    0.31
   6   5  -1    3.23    0.37
   6   5  -1    3.08    0.44
   6   5  -1    1.68    0.38
   6   5  -1    3.00    0.45
   6   5  -1    2.33    0.28
   6   5  -1    2.48    0.34
   6   5  -1    2.53    0.36
  -6  -5   0   64.47    1.00
  -6  -5   0   61.18    1.24
  -6  -5   0   69.12    1.38
  -6  -5   0   66.81    0.72
  -6  -5   0   62.77    1.00
  -6  -5   0   63.44    1.04
   6   5   0   74.60    1.06
   6   5   0   65.93    1.29
   6   5   0   57.87    1.23
   6   5   0   74.26    1.38
   6   5   0   64.20    0.71
   6   5   0   68.62    1.10
   6   5   0   60.47    1.04
  -6  -5  -1    8.57    0.53
  -6  -5  -1    8.01    0.58
  -6  -5  -1    8.23    0.64
  -6  -5  -1    9.00    0.75
  -6  -5  -1    9.00    0.48
  -6  -5  -1    8.87    0.54
   6   5   1   11.14    0.59
   6   5   1    7.15    0.63
   6   5   1   10.17    0.67
   6   5   1    9.44    0.52
   6   5   1    9.08    0.53
  -6  -5  -2   48.10    1.01
  -6  -5  -2   48.73    1.09
  -6  -5  -2   46.12    1.12
  -6  -5  -2   55.39    0.97
  -6  -5  -2   49.85    0.95
   6   5   2   58.81    1.12
   6   5   2   47.50    1.13
   6   5   2   61.71    1.29
   6   5   2   52.72    1.00
   6   5   2   51.59    0.99
  -6  -5  -3   16.69    0.74
  -6  -5  -3   18.10    0.75
  -6  -5  -3   17.58    0.81
  -6  -5  -3   20.44    0.66
  -6  -5  -3   18.17    0.67
   6   5   3   21.78    0.81
   6   5   3   17.79    0.83
   6   5   3   22.80    0.90
   6   5   3   20.25    0.69
   6   5   3   20.31    0.72
  -6  -5  -4    9.46    0.69
  -6  -5  -4    9.87    0.64
  -6  -5  -4    9.83    0.73
  -6  -5  -4   11.33    0.61
   6   5   4   12.66    0.73
   6   5   4   12.17    0.78
   6   5   4   12.23    0.66
  -6  -5  -5   20.18    0.80
  -6  -5  -5   22.22    0.93
  -6  -5  -5   21.27    0.78
   6   5   5   27.13    0.96
   6   5   5   23.30    0.80
   6   5   5   26.02    0.86
  -6  -5  -6    1.74    0.40
  -6  -5  -6    1.91    0.38
  -6  -5  -6    1.40    0.39
   6   5   6    1.84    0.45
   6   5   6    1.92    0.45
   6   5   6    1.02    0.33
   6   5   6    1.51    0.40
  -6  -5  -7   18.65    0.80
  -6  -5  -7   22.70    1.04
  -6  -5  -7   23.44    0.96
   6   5   7   26.27    1.06
   6   5   7   26.89    1.09
   6   5   7   25.58    0.94
   6   5   7   27.25    1.02
  -6  -5  -8    1.40    0.42
  -6  -5  -8    1.31    0.44
  -6  -5  -8    0.09    0.56
   6   5   8    1.14    0.48
   6   5   8    1.23    0.48
   6   5   8    0.83    0.39
  -6  -5  -9   31.40    1.01
  -6  -5  -9   39.97    1.37
   6   5   9   46.95    1.45
   6   5   9   47.13    1.44
   6   5   9   42.76    1.31
  -6  -5 -10    8.20    0.98
   6   5  10    9.53    1.00
   6   5  10    9.98    1.09
   6   5  10    9.05    1.03
  -6  -5 -11    2.43    0.77
   6   5  11    3.13    0.73
   6   5  11    5.37    0.85
   6   5  11    3.46    0.68
  -6  -6   9    2.63    0.60
  -6  -6   9    2.17    0.70
   6   6  -9    4.19    0.79
   6   6  -9    5.33    0.81
   6   6  -9    4.96    0.71
  -6  -6   8   -0.27    0.40
  -6  -6   8   -0.01    0.57
   6   6  -8    0.29    0.55
   6   6  -8    0.79    0.57
   6   6  -8    0.16    0.47
  -6  -6   7   11.54    0.88
  -6  -6   7   10.88    0.96
   6   6  -7   14.64    1.04
   6   6  -7   16.60    1.06
   6   6  -7   12.44    0.86
  -6  -6   6    1.12    0.43
  -6  -6   6    1.66    0.46
  -6  -6   6    2.13    0.56
   6   6  -6    1.39    0.49
   6   6  -6    2.23    0.56
   6   6  -6    1.30    0.41
   6   6  -6    2.36    0.54
  -6  -6   5   14.17    0.84
  -6  -6   5   15.29    0.84
  -6  -6   5   17.23    0.85
   6   6  -5   17.60    0.96
   6   6  -5   20.76    1.01
   6   6  -5   13.36    0.88
   6   6  -5   18.02    0.78
   6   6  -5   13.53    0.79
  -6  -6   4   27.19    1.07
  -6  -6   4   28.44    0.90
  -6  -6   4   31.34    0.93
   6   6  -4   33.20    1.13
   6   6  -4   37.78    1.15
   6   6  -4   26.06    0.93
   6   6  -4   31.04    0.90
  -6  -6   3   19.11    0.89
  -6  -6   3   20.64    0.75
  -6  -6   3   20.28    0.75
   6   6  -3   21.56    0.45
   6   6  -3   19.95    0.41
   6   6  -3   21.37    0.94
   6   6  -3   24.02    1.59
   6   6  -3   17.38    0.77
   6   6  -3   20.78    0.74
   6   6  -3   17.51    0.73
  -6  -6   2   17.33    0.82
  -6  -6   2   19.54    0.66
  -6  -6   2   17.58    0.65
   6   6  -2   22.33    0.56
   6   6  -2   18.15    0.53
   6   6  -2   19.39    0.89
   6   6  -2   19.75    1.07
   6   6  -2   16.75    0.67
   6   6  -2   20.36    0.69
   6   6  -2   16.19    0.67
  -6  -6   1    6.37    0.49
  -6  -6   1    5.53    0.64
  -6  -6   1    6.15    0.45
  -6  -6   1    4.60    0.46
   6   6  -1    6.99    0.47
   6   6  -1    6.41    0.63
   6   6  -1    5.93    0.68
   6   6  -1    4.85    0.47
   6   6  -1    5.34    0.46
   6   6  -1    5.23    0.49
  -6  -6   0   16.17    0.66
  -6  -6   0   14.02    0.76
  -6  -6   0   16.77    0.49
  -6  -6   0   16.23    0.60
   6   6   0   17.37    0.65
   6   6   0   17.32    0.82
   6   6   0   18.84    0.87
   6   6   0   15.57    0.49
   6   6   0   16.17    0.60
   6   6   0   15.88    0.62
  -6  -6  -1    1.71    0.32
  -6  -6  -1    1.37    0.35
  -6  -6  -1    0.80    0.32
  -6  -6  -1    1.42    0.29
   6   6   1    2.09    0.36
   6   6   1    2.00    0.44
   6   6   1    1.94    0.20
   6   6   1    1.55    0.29
   6   6   1    1.58    0.30
  -6  -6  -2   50.80    1.09
  -6  -6  -2   49.21    1.13
  -6  -6  -2   47.42    1.21
  -6  -6  -2   51.49    0.92
   6   6   2   58.92    1.15
   6   6   2   54.31    0.98
   6   6   2   54.19    1.00
  -6  -6  -3    0.20    0.33
  -6  -6  -3    0.33    0.33
  -6  -6  -3    1.06    0.39
  -6  -6  -3    0.48    0.25
   6   6   3    0.32    0.33
   6   6   3    0.31    0.36
   6   6   3    0.52    0.24
   6   6   3    0.45    0.28
  -6  -6  -4   52.99    1.15
  -6  -6  -4   53.60    1.31
  -6  -6  -4   57.42    1.05
   6   6   4   66.03    1.35
   6   6   4   65.35    1.44
   6   6   4   60.94    1.10
   6   6   4   63.77    1.15
  -6  -6  -5    1.39    0.37
  -6  -6  -5    1.90    0.47
  -6  -6  -5    1.87    0.37
   6   6   5    1.57    0.43
   6   6   5    1.81    0.43
   6   6   5    1.38    0.33
   6   6   5    1.99    0.45
  -6  -6  -6   50.32    1.11
  -6  -6  -6   54.38    1.43
  -6  -6  -6   55.42    1.17
   6   6   6   69.17    1.52
   6   6   6   68.03    1.58
   6   6   6   62.03    1.24
   6   6   6   66.47    1.35
  -6  -6  -7    8.07    0.70
  -6  -6  -7    7.88    0.82
  -6  -6  -7    6.83    0.79
   6   6   7   10.30    0.85
   6   6   7   10.68    0.96
   6   6   7    9.54    0.69
   6   6   7    8.88    0.85
  -6  -6  -8   20.77    0.89
  -6  -6  -8   20.09    1.13
   6   6   8   25.79    1.16
   6   6   8   26.58    1.23
   6   6   8   24.33    1.00
  -6  -6  -9   10.04    1.10
   6   6   9   12.78    1.04
   6   6   9   12.10    1.08
   6   6   9   11.30    0.87
  -6  -6 -10   10.36    1.17
   6   6  10   11.54    1.10
   6   6  10   14.71    1.25
   6   6  10    9.83    1.02
  -6  -7   8   27.63    1.27
  -6  -7   8   22.57    1.35
   6   7  -8   30.52    1.41
   6   7  -8   35.85    1.46
  -6  -7   7    1.74    0.54
  -6  -7   7    1.29    0.60
   6   7  -7    1.45    0.58
   6   7  -7    1.56    0.61
   6   7  -7    2.17    0.48
  -6  -7   6   16.07    0.98
  -6  -7   6   15.08    1.00
   6   7  -6   17.77    1.06
   6   7  -6   23.26    1.17
   6   7  -6   16.96    0.84
  -6  -7   5    3.99    0.57
  -6  -7   5    5.48    0.70
  -6  -7   5    6.38    0.74
   6   7  -5    5.94    0.65
   6   7  -5    7.60    0.73
   6   7  -5    6.57    0.62
   6   7  -5    6.56    0.71
  -6  -7   4   11.85    0.80
  -6  -7   4   12.00    0.77
  -6  -7   4   15.21    0.74
   6   7  -4   13.94    0.90
   6   7  -4   18.26    0.99
   6   7  -4   11.56    0.87
   6   7  -4   14.27    0.67
   6   7  -4   11.14    0.72
  -6  -7   3   14.74    0.84
  -6  -7   3   17.50    0.76
  -6  -7   3   18.98    0.72
   6   7  -3   20.33    0.49
   6   7  -3   17.36    0.47
   6   7  -3   18.46    0.94
   6   7  -3   22.15    0.98
   6   7  -3   16.80    0.83
   6   7  -3   17.39    0.67
   6   7  -3   15.63    0.70
  -6  -7   2    3.02    0.51
  -6  -7   2    2.97    0.39
  -6  -7   2    3.69    0.38
   6   7  -2    3.17    0.35
   6   7  -2    2.96    0.35
   6   7  -2    3.04    0.52
   6   7  -2    4.27    0.58
   6   7  -2    3.10    0.43
   6   7  -2    3.98    0.44
   6   7  -2    3.00    0.38
  -6  -7   1   30.34    1.06
  -6  -7   1   33.88    0.80
  -6  -7   1   35.12    0.74
   6   7  -1   37.79    0.84
   6   7  -1   34.51    0.81
   6   7  -1   34.00    1.10
   6   7  -1   40.12    1.18
   6   7  -1   31.43    0.82
   6   7  -1   35.90    0.80
   6   7  -1   31.36    0.78
  -6  -7   0    3.72    0.45
  -6  -7   0    2.17    0.44
  -6  -7   0    2.08    0.31
   6   7   0    2.88    0.40
   6   7   0    3.19    0.41
   6   7   0    1.99    0.40
   6   7   0    2.82    0.52
   6   7   0    2.28    0.30
   6   7   0    2.93    0.32
   6   7   0    2.18    0.32
  -6  -7  -1   39.58    1.01
  -6  -7  -1   33.29    1.02
  -6  -7  -1   36.75    0.73
   6   7   1   40.69    1.00
   6   7   1   35.93    1.13
   6   7   1   46.26    1.28
   6   7   1   35.46    0.61
   6   7   1   34.39    0.63
   6   7   1   37.62    0.79
   6   7   1   35.63    0.80
  -6  -7  -2    2.64    0.47
  -6  -7  -2    2.05    0.46
  -6  -7  -2    1.42    0.38
  -6  -7  -2    2.44    0.31
   6   7   2    2.45    0.43
   6   7   2    2.49    0.50
   6   7   2    1.96    0.21
   6   7   2    1.72    0.28
   6   7   2    2.03    0.33
  -6  -7  -3   11.56    0.73
  -6  -7  -3   11.32    0.83
  -6  -7  -3   12.23    0.57
   6   7   3   14.37    0.81
   6   7   3   13.19    0.87
   6   7   3   12.08    0.56
   6   7   3   11.88    0.61
  -6  -7  -4    7.89    0.69
  -6  -7  -4    8.98    0.84
  -6  -7  -4    8.14    0.59
   6   7   4    8.40    0.76
   6   7   4    8.27    0.81
   6   7   4    7.96    0.52
   6   7   4    8.33    0.61
  -6  -7  -5   14.95    0.78
  -6  -7  -5   15.28    0.91
  -6  -7  -5   15.38    0.72
   6   7   5   20.01    0.99
   6   7   5   18.24    1.01
   6   7   5   16.83    0.69
   6   7   5   17.17    0.78
  -6  -7  -6   10.54    0.74
  -6  -7  -6   11.36    0.95
  -6  -7  -6   10.20    0.78
   6   7   6   12.79    0.96
   6   7   6   12.41    0.97
   6   7   6   11.57    0.66
   6   7   6   12.66    0.83
  -6  -7  -7    6.16    0.73
  -6  -7  -7    5.51    0.66
   6   7   7    7.24    0.90
   6   7   7    9.66    1.01
   6   7   7    5.62    0.65
  -6  -7  -8   11.46    1.23
  -6  -7  -8    9.77    1.10
   6   7   8   12.66    1.04
   6   7   8   15.01    1.13
   6   7   8   11.47    0.81
  -6  -7  -9    1.48    0.69
   6   7   9    1.89    0.66
   6   7   9    2.12    0.64
   6   7   9    0.68    0.46
  -6  -8   7   13.52    1.04
  -6  -8   7    8.95    0.86
   6   8  -7   10.37    1.15
   6   8  -7   13.72    1.27
  -6  -8   6   14.67    0.97
  -6  -8   6   15.14    1.07
   6   8  -6   15.27    1.13
   6   8  -6   18.18    1.21
   6   8  -6   12.91    0.78
  -6  -8   5   10.00    0.85
  -6  -8   5   11.06    0.92
   6   8  -5   11.49    1.04
   6   8  -5   13.90    1.08
   6   8  -5   12.15    0.70
  -6  -8   4   34.28    1.23
  -6  -8   4   38.43    0.89
   6   8  -4   44.61    1.43
   6   8  -4   48.48    1.39
   6   8  -4   40.28    0.94
   6   8  -4   35.41    0.97
  -6  -8   3    0.88    0.43
  -6  -8   3    0.93    0.45
  -6  -8   3    1.64    0.32
   6   8  -3    1.07    0.29
   6   8  -3    0.26    0.42
   6   8  -3    0.84    0.48
   6   8  -3    0.73    0.49
   6   8  -3    0.83    0.30
   6   8  -3    0.72    0.32
  -6  -8   2   36.78    1.22
  -6  -8   2   41.78    1.04
  -6  -8   2   40.81    0.72
   6   8  -2   47.32    0.90
   6   8  -2   43.87    1.32
   6   8  -2   45.31    1.34
   6   8  -2   49.78    1.39
   6   8  -2   38.55    1.08
   6   8  -2   44.26    0.87
   6   8  -2   39.40    0.86
  -6  -8   1    0.61    0.37
  -6  -8   1    0.85    0.34
  -6  -8   1    0.43    0.24
   6   8  -1    0.41    0.34
   6   8  -1   -0.12    0.38
   6   8  -1    0.34    0.39
   6   8  -1    0.58    0.45
   6   8  -1    0.10    0.37
   6   8  -1    0.16    0.23
   6   8  -1   -0.01    0.25
  -6  -8   0   41.34    1.22
  -6  -8   0   43.25    0.59
   6   8   0   49.83    1.10
   6   8   0   43.04    1.05
   6   8   0   48.01    1.35
   6   8   0   52.64    1.44
   6   8   0   41.55    0.87
   6   8   0   43.81    0.94
   6   8   0   47.08    0.83
   6   8   0   43.10    0.83
  -6  -8  -1   11.45    0.81
  -6  -8  -1   12.19    0.42
   6   8   1   13.88    0.78
   6   8   1   11.50    0.83
   6   8   1   12.23    0.87
   6   8   1   12.81    0.96
   6   8   1   12.11    0.55
   6   8   1   12.23    0.79
   6   8   1   11.60    0.52
   6   8   1   11.14    0.54
  -6  -8  -2   23.62    0.96
  -6  -8  -2   25.31    1.09
  -6  -8  -2   26.16    0.54
   6   8   2   30.68    1.05
   6   8   2   27.41    1.11
   6   8   2   31.75    1.21
   6   8   2   27.23    0.62
   6   8   2   27.69    0.70
   6   8   2   27.87    0.68
   6   8   2   27.92    0.72
  -6  -8  -3   12.31    0.79
  -6  -8  -3   11.72    0.93
  -6  -8  -3   11.88    0.50
   6   8   3   14.36    0.89
   6   8   3   14.19    1.01
   6   8   3   12.67    0.44
   6   8   3   13.01    0.56
   6   8   3   13.02    0.63
  -6  -8  -4    6.86    0.71
  -6  -8  -4    7.00    0.86
  -6  -8  -4    7.43    0.54
   6   8   4    7.03    0.71
   6   8   4    7.63    0.76
   6   8   4    6.17    0.50
   6   8   4    8.16    0.62
  -6  -8  -5   22.11    0.92
  -6  -8  -5   22.81    1.20
  -6  -8  -5   22.99    0.76
   6   8   5   25.94    1.16
   6   8   5   27.33    1.22
   6   8   5   24.55    0.76
   6   8   5   26.72    0.90
  -6  -8  -6   -0.05    0.43
  -6  -8  -6    0.52    0.52
   6   8   6    1.05    0.56
   6   8   6    0.17    0.47
   6   8   6    0.36    0.31
  -6  -8  -7   18.71    0.93
  -6  -8  -7   14.86    1.21
   6   8   7   24.59    1.29
   6   8   7   22.56    1.30
   6   8   7   20.34    0.84
  -6  -8  -8    4.72    0.85
   6   8   8    6.59    0.86
   6   8   8    5.29    0.78
   6   8   8    4.94    0.53
  -6  -9   6    6.08    0.85
   6   9  -6    6.12    1.17
   6   9  -6    7.86    0.92
  -6  -9   5   17.83    1.09
  -6  -9   5   20.50    1.24
   6   9  -5   22.51    1.33
   6   9  -5   27.69    1.39
   6   9  -5   20.44    0.80
  -6  -9   4    1.10    0.47
  -6  -9   4    0.95    0.58
   6   9  -4    1.95    0.66
   6   9  -4    1.79    0.60
   6   9  -4    0.93    0.39
  -6  -9   3   24.04    1.11
  -6  -9   3   18.80    1.76
   6   9  -3   25.60    1.29
   6   9  -3   30.14    1.31
   6   9  -3   24.83    0.70
   6   9  -3   23.79    0.74
  -6  -9   2    2.52    0.51
  -6  -9   2    2.54    0.50
   6   9  -2    1.98    0.43
   6   9  -2    2.42    0.59
   6   9  -2    2.15    0.60
   6   9  -2    1.98    0.30
   6   9  -2    1.68    0.32
  -6  -9   1   28.91    1.13
   6   9  -1   34.47    1.01
   6   9  -1   32.22    1.31
   6   9  -1   36.65    1.37
   6   9  -1   27.60    0.94
   6   9  -1   32.52    0.66
   6   9  -1   30.64    0.69
  -6  -9   0    8.72    0.82
   6   9   0   11.36    0.84
   6   9   0   12.60    0.95
   6   9   0   13.04    1.05
   6   9   0   10.38    0.70
   6   9   0   12.03    0.47
   6   9   0   11.54    0.49
  -6  -9  -1    3.25    0.54
   6   9   1    4.92    0.62
   6   9   1    3.81    0.61
   6   9   1    4.43    0.65
   6   9   1    3.52    0.44
   6   9   1    3.51    0.40
   6   9   1    4.27    0.42
  -6  -9  -2   25.79    1.06
   6   9   2   30.52    1.16
   6   9   2   26.66    1.18
   6   9   2   31.66    1.30
   6   9   2   28.11    0.64
   6   9   2   28.55    0.67
  -6  -9  -3    0.19    0.42
  -6  -9  -3   -0.03    0.50
   6   9   3   -0.17    0.49
   6   9   3   -0.28    0.49
   6   9   3    0.12    0.25
   6   9   3    0.18    0.28
  -6  -9  -4   17.55    0.96
  -6  -9  -4   15.03    1.15
   6   9   4   19.36    1.14
   6   9   4   17.16    1.20
   6   9   4   17.77    0.64
   6   9   4   18.98    0.71
  -6  -9  -5    3.09    0.58
  -6  -9  -5    1.84    0.60
   6   9   5    3.28    0.68
   6   9   5    2.73    0.63
   6   9   5    3.48    0.40
   6   9   5    3.53    0.46
  -6  -9  -6    9.27    0.89
  -6  -9  -6   11.30    1.24
   6   9   6   10.75    1.14
   6   9   6    9.43    0.96
   6   9   6    8.03    0.63
  -6 -10   3    1.81    0.55
  -6 -10   3    1.22    0.64
   6  10  -3    0.14    0.63
   6  10  -3    1.86    0.73
   6  10  -3    0.77    0.30
   6  10  -3    0.26    0.25
  -6 -10   2    0.40    0.51
   6  10  -2    0.42    0.55
   6  10  -2   -0.91    0.62
   6  10  -2   -0.04    0.52
  -6 -10   1   11.48    0.97
   6  10  -1   13.58    1.34
   6  10  -1   14.20    1.22
   6  10  -1   14.35    1.28
   6  10  -1   11.60    0.95
  -6 -10   0    1.22    0.52
   6  10   0    0.66    0.95
   6  10   0    2.63    0.67
   6  10   0    0.90    0.70
  -6 -10  -1   12.99    0.96
   6  10   1   13.00    1.06
   6  10   1   12.08    1.13
   6  10   1   17.27    1.29
  -6 -10  -2    0.59    0.47
   6  10   2    0.29    0.57
   6  10   2    0.35    0.61
   6  10   2    0.58    0.64
  -6 -10  -3    9.04    0.89
   6  10   3    9.29    1.12
   6  10   3    6.88    0.83
   6  10   3   10.74    1.24
  -6 -10  -4    0.34    0.54
  -6 -10  -4    0.77    0.65
   6  10   4    0.25    0.68
   6  10   4   -0.36    0.64
   6  10   4    0.11    0.31
   6  10   4    0.37    0.26
  -7   6   0   10.59    1.08
  -7   6   0    7.27    0.96
  -7   6   0    9.22    1.11
   7  -6   0   10.59    1.17
   7  -6   0    6.82    0.77
  -7   6  -1    0.36    0.58
  -7   6  -1    0.09    0.70
  -7   6  -1    0.17    0.57
   7  -6   1   -0.66    0.57
  -7   6  -2   14.76    1.19
  -7   6  -2   12.83    1.33
  -7   6  -2   11.95    1.14
   7  -6   2   14.00    1.17
  -7   5   4    0.36    0.57
  -7   5   4    0.53    0.70
  -7   5   4    0.41    0.57
   7  -5  -4    0.85    0.67
   7  -5  -4   -0.54    0.63
  -7   5   3    2.99    0.67
  -7   5   3    2.24    0.72
  -7   5   3    1.68    0.56
   7  -5  -3    4.00    0.75
   7  -5  -3    1.22    0.64
  -7   5   2    0.25    0.50
  -7   5   2    0.99    0.66
  -7   5   2    0.05    0.52
   7  -5  -2    0.62    0.59
   7  -5  -2    0.58    0.54
  -7   5   1    2.70    0.62
  -7   5   1    3.65    0.71
  -7   5   1    3.63    0.67
   7  -5  -1    3.30    0.68
   7  -5  -1    1.81    0.54
  -7   5   0    0.18    0.50
  -7   5   0   -0.45    0.53
  -7   5   0    1.44    0.54
   7  -5   0    1.30    0.58
   7  -5   0    0.47    0.54
  -7   5  -1    3.07    0.62
  -7   5  -1    3.47    0.71
  -7   5  -1    2.82    0.61
   7  -5   1    3.47    0.61
   7  -5   1    2.62    0.52
  -7   5  -2   -0.73    0.50
  -7   5  -2   -0.58    0.55
  -7   5  -2    0.40    0.60
   7  -5   2    1.06    0.52
   7  -5   2    0.05    0.43
  -7   5  -3    4.01    0.69
  -7   5  -3    4.56    0.76
  -7   5  -3    4.80    0.71
   7  -5   3    3.23    0.62
  -7   5  -4    1.29    0.55
  -7   5  -4    3.02    0.71
  -7   5  -4    0.96    0.58
   7  -5   4    1.57    0.64
  -7   5  -5    9.14    0.93
  -7   5  -5    8.84    0.94
  -7   5  -5   11.58    1.14
   7  -5   5   11.51    1.15
  -7   5  -6    4.16    0.81
  -7   5  -6    4.98    0.79
   7  -5   6    3.45    0.72
  -7   4   6    0.07    0.60
  -7   4   6   -0.91    0.72
  -7   4   6   -0.15    0.70
   7  -4  -6    0.91    0.73
   7  -4  -6    0.98    0.69
  -7   4   5    1.31    0.54
  -7   4   5   -0.06    0.65
  -7   4   5    1.12    0.67
   7  -4  -5    0.70    0.61
   7  -4  -5   -0.66    0.60
  -7   4   4    0.77    0.52
  -7   4   4    0.82    0.56
  -7   4   4    0.25    0.58
   7  -4  -4    1.71    0.57
   7  -4  -4    0.50    0.57
  -7   4   3    0.02    0.43
  -7   4   3   -0.71    0.53
  -7   4   3    0.13    0.51
   7  -4  -3    0.21    0.53
   7  -4  -3    0.28    0.55
  -7   4   2   -0.07    0.43
  -7   4   2   -0.79    0.49
  -7   4   2    0.52    0.52
   7  -4  -2    0.26    0.47
   7  -4  -2    0.96    0.52
  -7   4   1    1.65    0.51
  -7   4   1    1.70    0.57
  -7   4   1    0.63    0.45
   7  -4  -1    1.13    0.51
   7  -4  -1    1.08    0.48
  -7   4   0    0.66    0.47
  -7   4   0    0.41    0.49
  -7   4   0    0.76    0.48
   7  -4   0    1.35    0.49
   7  -4   0    0.79    0.45
  -7   4  -1    0.08    0.44
  -7   4  -1    0.44    0.53
  -7   4  -1    0.37    0.51
  -7   4  -1    0.14    0.47
   7  -4   1    0.48    0.49
   7  -4   1    0.31    0.40
  -7   4  -2    0.05    0.42
  -7   4  -2   -0.16    0.48
  -7   4  -2    0.81    0.53
   7  -4   2   -0.30    0.45
   7  -4   2    0.06    0.36
  -7   4  -3    1.12    0.51
  -7   4  -3    1.60    0.55
  -7   4  -3    1.71    0.54
   7  -4   3    2.41    0.55
   7  -4   3    1.52    0.40
  -7   4  -4   -0.03    0.46
  -7   4  -4    0.13    0.51
  -7   4  -4    0.22    0.52
   7  -4   4    0.71    0.46
   7  -4   4    1.10    0.38
  -7   4  -5    1.82    0.55
  -7   4  -5    2.36    0.61
  -7   4  -5    2.93    0.66
   7  -4   5    2.11    0.53
  -7   4  -6    0.31    0.47
  -7   4  -6    0.13    0.59
  -7   4  -6   -0.29    0.57
   7  -4   6    0.97    0.59
  -7   4  -7    2.79    0.63
  -7   4  -7    2.75    0.71
  -7   4  -7    2.85    0.75
   7  -4   7    3.48    0.72
  -7   3   7    7.90    0.85
  -7   3   7    6.25    0.75
  -7   3   7    3.64    0.70
  -7   3   7    4.11    0.78
   7  -3  -7    5.16    0.78
   7  -3  -7    5.46    0.80
  -7   3   6    6.82    0.73
  -7   3   6    7.52    0.83
  -7   3   6    9.00    0.99
   7  -3  -6    6.74    0.77
   7  -3  -6    6.82    0.88
  -7   3   5    0.14    0.49
  -7   3   5    0.19    0.55
  -7   3   5    0.71    0.64
   7  -3  -5    0.71    0.51
   7  -3  -5    1.24    0.58
  -7   3   4    7.29    0.84
  -7   3   4    6.88    0.75
  -7   3   4    6.12    0.69
   7  -3  -4    8.31    0.89
   7  -3  -4   10.44    0.98
   7  -3  -4    9.16    1.21
  -7   3   3   -0.26    0.41
  -7   3   3    0.30    0.48
  -7   3   3   -0.04    0.49
   7  -3  -3   -0.21    0.43
   7  -3  -3    0.00    0.43
   7  -3  -3    0.15    0.41
  -7   3   2   12.24    0.88
  -7   3   2   13.52    0.97
  -7   3   2   12.75    0.96
   7  -3  -2   11.35    0.86
   7  -3  -2   12.01    0.90
   7  -3  -2   14.03    1.02
  -7   3   1    6.72    0.74
  -7   3   1    7.00    0.85
  -7   3   1    8.78    1.02
  -7   3   1    6.19    0.68
   7  -3  -1    6.42    0.78
   7  -3  -1    6.05    1.04
   7  -3  -1    7.63    0.95
  -7   3   0    3.22    0.52
  -7   3   0    3.96    0.58
  -7   3   0    3.59    0.68
  -7   3   0    2.68    0.55
   7  -3   0    3.06    0.51
   7  -3   0    2.79    0.48
   7  -3   0    2.69    0.51
  -7   3  -1    0.89    0.42
  -7   3  -1    0.34    0.44
  -7   3  -1    0.96    0.45
  -7   3  -1    0.09    0.47
  -7   3  -1    0.59    0.48
   7  -3   1    0.48    0.44
   7  -3   1    0.69    0.40
   7  -3   1    0.82    0.52
  -7   3  -2    0.53    0.42
  -7   3  -2    0.04    0.44
  -7   3  -2   -0.18    0.39
  -7   3  -2   -0.06    0.54
  -7   3  -2    0.81    0.47
   7  -3   2   -0.20    0.39
   7  -3   2    0.19    0.19
   7  -3   2   -0.60    0.33
   7  -3   2    0.58    0.54
  -7   3  -3   17.06    0.97
  -7   3  -3   15.94    0.57
  -7   3  -3   20.18    0.88
  -7   3  -3   15.76    0.93
  -7   3  -3   19.56    1.22
  -7   3  -3   17.44    1.00
   7  -3   3   17.18    0.93
   7  -3   3   13.61    0.56
   7  -3   3   11.45    0.69
   7  -3   3   18.12    1.14
  -7   3  -4    0.31    0.44
  -7   3  -4    0.41    0.32
  -7   3  -4   -0.16    0.43
  -7   3  -4    0.52    0.43
  -7   3  -4   -0.50    0.46
   7  -3   4   -0.33    0.36
   7  -3   4    0.18    0.33
   7  -3   4   -0.61    0.53
  -7   3  -5    3.56    0.57
  -7   3  -5    4.41    0.47
  -7   3  -5    4.64    0.61
  -7   3  -5    3.81    0.64
   7  -3   5    4.13    0.60
   7  -3   5    2.36    0.48
   7  -3   5    2.36    0.37
   7  -3   5    4.45    0.75
  -7   3  -6    1.72    0.56
  -7   3  -6    1.16    0.44
  -7   3  -6    1.73    0.53
  -7   3  -6    1.09    0.60
   7  -3   6    2.08    0.51
   7  -3   6    0.77    0.40
  -7   3  -7    6.24    0.74
  -7   3  -7    9.00    0.89
  -7   3  -7    6.11    0.72
  -7   3  -7    6.44    0.79
   7  -3   7    8.81    0.97
  -7   3  -8    0.56    0.50
  -7   3  -8    1.36    0.60
  -7   3  -8    1.49    0.64
  -7   3  -8    1.13    0.72
   7  -3   8    0.47    0.55
  -7   3  -9    0.60    0.55
  -7   3  -9   -0.28    0.69
  -7   3  -9   -0.22    0.71
  -7   3  -9    0.39    0.78
   7  -3   9    1.47    0.66
  -7   2   8    1.06    0.64
  -7   2   8    1.31    0.61
  -7   2   8    0.47    0.67
  -7   2   8    1.37    0.86
   7  -2  -8    2.33    0.73
  -7   2   7   34.06    1.23
  -7   2   7   25.86    1.14
  -7   2   7   22.67    1.32
  -7   2   7   26.19    1.55
   7  -2  -7   26.27    1.15
   7  -2  -7   29.24    1.37
  -7   2   6    0.22    0.46
  -7   2   6   -0.23    0.54
  -7   2   6    0.83    0.61
   7  -2  -6    0.82    0.51
   7  -2  -6    0.48    0.36
   7  -2  -6    1.08    0.53
   7  -2  -6    1.01    0.70
  -7   2   5   30.58    1.15
  -7   2   5   34.63    1.31
  -7   2   5   33.68    1.40
   7  -2  -5   31.59    1.14
   7  -2  -5   24.06    0.67
   7  -2  -5   34.02    1.26
   7  -2  -5   34.85    1.44
  -7   2   4    1.16    0.46
  -7   2   4    0.47    0.47
  -7   2   4    0.72    0.63
  -7   2   4    0.76    0.52
   7  -2  -4    0.58    0.41
   7  -2  -4    0.68    0.24
   7  -2  -4    0.52    0.27
   7  -2  -4    0.85    0.50
   7  -2  -4    0.15    0.46
  -7   2   3   49.16    1.28
  -7   2   3   51.67    1.37
  -7   2   3   54.16    1.57
  -7   2   3   49.84    1.41
   7  -2  -3   43.68    1.33
   7  -2  -3   44.85    0.63
   7  -2  -3   44.31    0.64
   7  -2  -3   56.45    1.43
   7  -2  -3   51.12    2.02
  -7   2   2   19.29    0.91
  -7   2   2   21.43    0.98
  -7   2   2   23.76    1.21
  -7   2   2   20.61    1.03
   7  -2  -2   16.92    1.04
   7  -2  -2   18.20    0.43
   7  -2  -2   20.61    0.96
   7  -2  -2   20.54    1.07
   7  -2  -2   19.01    1.06
  -7   2   1   25.03    1.00
  -7   2   1   25.30    1.01
  -7   2   1   25.92    1.15
  -7   2   1   24.35    1.05
   7  -2  -1   25.23    0.99
   7  -2  -1   21.70    0.45
   7  -2  -1   27.85    1.02
   7  -2  -1   24.98    1.28
   7  -2  -1   27.50    1.14
   7  -2  -1   22.44    1.06
  -7   2   0   69.29    1.46
  -7   2   0   81.23    1.49
  -7   2   0   72.54    1.43
  -7   2   0   76.68    1.63
  -7   2   0   71.12    1.55
   7  -2   0   73.39    1.49
   7  -2   0   78.39    0.75
   7  -2   0   59.75    0.70
   7  -2   0   79.25    1.45
   7  -2   0   63.70    1.36
   7  -2   0   79.05    1.64
   7  -2   0   68.10    1.55
  -7   2  -1   49.56    1.28
  -7   2  -1   61.14    1.28
  -7   2  -1   54.21    1.23
  -7   2  -1   54.64    1.27
  -7   2  -1   59.02    1.51
  -7   2  -1   53.98    1.40
   7  -2   1   53.13    1.31
   7  -2   1   55.93    0.74
   7  -2   1   45.25    0.70
   7  -2   1   60.22    1.24
   7  -2   1   60.82    1.49
   7  -2   1   52.84    1.40
  -7   2  -2   65.63    1.46
  -7   2  -2   61.55    0.87
  -7   2  -2   81.88    1.38
  -7   2  -2   68.71    1.32
  -7   2  -2   71.28    1.39
  -7   2  -2   75.86    1.63
  -7   2  -2   66.97    1.53
   7  -2   2   69.85    1.47
   7  -2   2   54.49    0.84
   7  -2   2   74.14    1.30
   7  -2   2   73.63    1.61
   7  -2   2   64.89    1.50
  -7   2  -3    2.21    0.42
  -7   2  -3    2.51    0.34
  -7   2  -3    2.59    0.45
  -7   2  -3    2.26    0.44
  -7   2  -3    1.92    0.47
  -7   2  -3    2.78    0.65
  -7   2  -3    1.43    0.41
   7  -2   3    2.19    0.42
   7  -2   3    1.66    0.34
   7  -2   3    2.61    0.42
   7  -2   3    2.59    0.61
   7  -2   3    2.63    0.60
  -7   2  -4   31.87    1.13
  -7   2  -4   31.96    0.84
  -7   2  -4   40.98    1.03
  -7   2  -4   34.17    1.03
  -7   2  -4   35.60    1.09
  -7   2  -4   42.00    1.40
  -7   2  -4   33.18    1.18
   7  -2   4   36.67    1.17
   7  -2   4   30.47    0.88
   7  -2   4   36.62    0.91
   7  -2   4   35.44    1.31
   7  -2   4   35.72    1.31
  -7   2  -5    8.50    0.79
  -7   2  -5    8.14    0.68
  -7   2  -5    9.87    0.70
  -7   2  -5    8.08    0.75
  -7   2  -5   10.09    0.92
  -7   2  -5    9.33    1.08
  -7   2  -5    6.69    0.69
   7  -2   5    9.24    0.82
   7  -2   5    7.32    0.73
   7  -2   5    8.20    0.62
   7  -2   5    9.15    1.01
  -7   2  -6   25.70    1.14
  -7   2  -6   25.16    0.95
  -7   2  -6   26.78    1.02
  -7   2  -6   27.49    1.15
  -7   2  -6   32.77    1.94
  -7   2  -6   28.16    1.52
   7  -2   6   26.72    1.11
   7  -2   6   25.36    1.04
   7  -2   6   25.28    0.75
   7  -2   6   26.50    0.82
   7  -2   6   31.55    1.34
  -7   2  -7    6.28    0.73
  -7   2  -7    6.85    0.81
  -7   2  -7    5.25    0.61
  -7   2  -7    6.10    0.85
  -7   2  -7    5.97    0.77
   7  -2   7    5.16    0.62
   7  -2   7    4.69    0.68
   7  -2   7    5.79    0.56
   7  -2   7    6.57    0.86
  -7   2  -8    4.10    0.65
  -7   2  -8    4.88    0.68
  -7   2  -8    4.19    0.64
  -7   2  -8    4.57    0.68
   7  -2   8    4.43    0.62
  -7   2  -9    3.24    0.68
  -7   2  -9    5.33    0.76
  -7   2  -9    3.97    0.69
  -7   2  -9    4.42    0.86
   7  -2   9    3.52    0.69
  -7   1   8   12.64    0.95
  -7   1   8   12.73    1.02
  -7   1   8   11.24    1.08
  -7   1   8   12.69    1.47
   7  -1  -8   11.30    0.93
   7  -1  -8   14.98    1.17
  -7   1   7    3.79    0.57
  -7   1   7    2.61    0.57
  -7   1   7    1.97    0.63
  -7   1   7    2.00    0.78
   7  -1  -7    2.52    0.55
   7  -1  -7    3.06    0.49
   7  -1  -7    2.93    0.56
   7  -1  -7    3.64    0.84
  -7   1   6   37.15    1.25
  -7   1   6   35.65    1.17
  -7   1   6   32.60    1.27
  -7   1   6   38.11    1.44
   7  -1  -6   37.41    1.13
   7  -1  -6   36.26    0.97
   7  -1  -6   31.28    1.12
   7  -1  -6   40.99    1.37
   7  -1  -6   43.16    1.51
  -7   1   5    0.77    0.53
  -7   1   5    0.97    0.46
  -7   1   5    0.77    0.48
  -7   1   5    0.29    0.59
  -7   1   5    1.24    0.51
   7  -1  -5    1.21    0.41
   7  -1  -5    0.60    0.34
   7  -1  -5    0.58    0.39
   7  -1  -5    0.68    0.48
   7  -1  -5    1.13    0.59
   7  -1  -5    0.45    0.62
  -7   1   4   68.30    1.41
  -7   1   4   65.77    1.42
  -7   1   4   70.05    1.52
  -7   1   4   70.51    1.72
  -7   1   4   71.37    1.63
   7  -1  -4   68.55    1.34
   7  -1  -4   74.48    1.06
   7  -1  -4   52.45    1.35
   7  -1  -4   77.93    1.63
   7  -1  -4   75.65    1.67
   7  -1  -4   65.42    1.64
  -7   1   3   14.39    0.88
  -7   1   3   12.80    0.78
  -7   1   3   12.89    1.24
  -7   1   3   15.42    1.07
  -7   1   3   11.98    0.93
   7  -1  -3   12.46    0.77
   7  -1  -3   15.41    0.56
   7  -1  -3   12.05    0.58
   7  -1  -3   15.87    0.90
   7  -1  -3   13.56    0.96
   7  -1  -3   12.16    0.94
  -7   1   2   29.68    1.02
  -7   1   2   27.18    0.97
  -7   1   2   28.74    1.00
  -7   1   2   31.49    1.19
  -7   1   2   28.76    1.10
   7  -1  -2   29.44    0.96
   7  -1  -2   33.91    0.70
   7  -1  -2   23.48    0.75
   7  -1  -2   32.94    1.68
   7  -1  -2   23.54    0.94
   7  -1  -2   30.89    1.14
   7  -1  -2   27.73    1.13
  -7   1   1   73.68    1.44
  -7   1   1   61.90    1.36
  -7   1   1   67.49    1.31
  -7   1   1   72.50    1.57
  -7   1   1   67.76    1.49
   7  -1  -1   69.95    1.36
   7  -1  -1   76.09    0.95
   7  -1  -1   62.02    0.87
   7  -1  -1   81.03    1.49
   7  -1  -1   58.66    1.23
   7  -1  -1   74.57    1.56
   7  -1  -1   62.05    1.40
  -7   1   0    1.97    0.46
  -7   1   0    1.23    0.40
  -7   1   0    1.58    0.39
  -7   1   0    1.61    0.53
  -7   1   0    1.49    0.48
   7  -1   0    1.76    0.41
   7  -1   0    1.90    0.29
   7  -1   0    1.37    0.32
   7  -1   0    2.30    0.43
   7  -1   0    1.47    0.41
   7  -1   0    1.44    0.45
   7  -1   0    1.50    0.44
  -7   1  -1   89.34    1.60
  -7   1  -1  115.17    1.62
  -7   1  -1  101.39    1.45
  -7   1  -1   97.74    1.42
  -7   1  -1  106.03    1.79
  -7   1  -1   95.23    1.71
   7  -1   1  101.11    1.63
   7  -1   1   99.74    1.12
   7  -1   1   91.60    1.08
   7  -1   1  112.41    1.60
   7  -1   1  105.57    1.78
   7  -1   1   94.33    1.68
  -7   1  -2    5.31    0.62
  -7   1  -2    4.22    0.48
  -7   1  -2    5.18    0.52
  -7   1  -2    5.12    0.48
  -7   1  -2    5.12    0.64
  -7   1  -2    6.68    0.71
  -7   1  -2    4.41    0.60
   7  -1   2    6.82    0.83
   7  -1   2    5.40    0.52
   7  -1   2    5.71    0.62
   7  -1   2    4.49    0.58
   7  -1   2    5.36    0.65
  -7   1  -3   76.52    1.54
  -7   1  -3   75.82    1.14
  -7   1  -3   94.96    1.40
  -7   1  -3   83.62    1.29
  -7   1  -3   86.48    1.32
  -7   1  -3   95.32    1.76
  -7   1  -3   77.06    1.56
   7  -1   3   87.72    1.59
   7  -1   3   78.01    1.17
   7  -1   3   96.24    1.41
   7  -1   3   88.11    1.69
   7  -1   3   84.99    1.63
  -7   1  -4    6.88    0.68
  -7   1  -4    7.30    0.62
  -7   1  -4    9.28    0.74
  -7   1  -4    7.42    0.61
  -7   1  -4    8.94    0.68
  -7   1  -4    8.93    0.92
  -7   1  -4    6.52    0.78
   7  -1   4    8.31    0.70
   7  -1   4    6.69    0.63
   7  -1   4    9.19    0.66
   7  -1   4    8.05    0.77
   7  -1   4    8.72    0.92
  -7   1  -5   18.94    0.93
  -7   1  -5   20.30    0.82
  -7   1  -5   24.97    0.87
  -7   1  -5   18.72    0.78
  -7   1  -5   25.93    0.92
  -7   1  -5   25.33    1.19
  -7   1  -5   21.45    1.05
   7  -1   5   22.68    0.96
   7  -1   5   19.37    0.86
   7  -1   5   25.63    0.83
   7  -1   5   21.16    1.08
   7  -1   5   23.44    1.17
  -7   1  -6   60.70    1.48
  -7   1  -6   55.43    1.23
  -7   1  -6   58.84    1.18
  -7   1  -6   70.42    1.33
  -7   1  -6   72.40    1.69
  -7   1  -6   60.14    1.55
   7  -1   6   63.85    1.51
   7  -1   6   55.44    1.30
   7  -1   6   70.45    1.16
   7  -1   6   61.23    1.12
   7  -1   6   68.51    1.65
   7  -1   6   67.18    1.69
  -7   1  -7   14.99    0.97
  -7   1  -7   14.75    0.82
  -7   1  -7   17.26    0.97
  -7   1  -7   17.04    1.20
  -7   1  -7   14.11    1.09
   7  -1   7   16.35    0.94
   7  -1   7   18.18    0.76
   7  -1   7   15.21    0.78
   7  -1   7   17.29    1.17
   7  -1   7   16.29    1.25
  -7   1  -8   30.20    1.22
  -7   1  -8   26.47    1.17
  -7   1  -8   27.50    1.03
  -7   1  -8   31.17    1.21
  -7   1  -8   31.37    1.39
   7  -1   8   33.35    1.26
   7  -1   8   34.46    0.92
   7  -1   8   33.19    1.46
  -7   1  -9    0.07    0.54
  -7   1  -9    0.73    0.56
  -7   1  -9   -0.70    0.48
  -7   1  -9    0.01    0.82
   7  -1   9   -0.02    0.49
   7  -1   9    2.07    0.76
  -7   1 -10    8.97    0.99
  -7   1 -10    8.39    0.90
  -7   1 -10    8.48    1.04
  -7   1 -10    7.87    0.99
   7  -1  10    9.33    1.05
  -7   0   9   27.04    1.18
  -7   0   9   26.40    1.45
  -7   0   9   30.81    2.13
   7   0  -9   28.45    1.30
   7   0  -9   30.68    1.49
   7   0  -9   31.83    2.77
  -7   0   8   -0.19    0.43
  -7   0   8    0.26    0.48
  -7   0   8   -0.57    0.49
  -7   0   8   -0.01    0.72
   7   0  -8   -0.42    0.47
   7   0  -8    0.66    0.52
   7   0  -8   -0.74    0.69
  -7   0   7   30.32    0.96
  -7   0   7   26.33    1.10
  -7   0   7   24.82    1.19
  -7   0   7   24.89    1.45
  -7   0   7   29.43    1.45
   7   0  -7   27.84    1.05
   7   0  -7   23.15    1.19
   7   0  -7   30.24    1.26
   7   0  -7   28.12    1.41
   7   0  -7   20.51    1.54
  -7   0   6    0.16    0.46
  -7   0   6   -0.36    0.39
  -7   0   6    0.33    0.42
  -7   0   6    0.44    0.63
  -7   0   6    0.26    0.48
   7   0  -6   -0.16    0.35
   7   0  -6    0.20    0.37
   7   0  -6    0.56    0.47
   7   0  -6   -0.46    0.42
   7   0  -6    0.18    0.52
   7   0  -6    0.50    0.62
  -7   0   5   38.55    1.06
  -7   0   5   36.16    1.12
  -7   0   5   36.46    1.19
  -7   0   5   37.00    1.37
  -7   0   5   39.56    1.35
   7   0  -5   39.54    1.00
   7   0  -5   45.89    1.03
   7   0  -5   33.06    1.01
   7   0  -5   45.10    1.32
   7   0  -5   43.02    1.40
   7   0  -5   35.31    1.33
  -7   0   4   22.25    0.88
  -7   0   4   20.68    0.91
  -7   0   4   19.70    0.95
  -7   0   4   22.14    1.13
  -7   0   4   21.05    1.05
   7   0  -4   22.39    0.79
   7   0  -4   25.30    0.79
   7   0  -4   19.47    0.79
   7   0  -4   26.60    1.05
   7   0  -4   25.49    1.56
   7   0  -4   19.81    1.07
  -7   0   3   74.60    1.32
  -7   0   3   65.21    1.39
  -7   0   3   67.62    1.34
  -7   0   3   75.45    1.61
  -7   0   3   70.65    1.54
   7   0  -3   69.71    1.24
   7   0  -3   82.43    1.18
   7   0  -3   60.25    1.05
   7   0  -3   83.24    1.58
   7   0  -3   61.65    1.29
   7   0  -3   77.70    1.60
   7   0  -3   63.95    1.49
  -7   0   2   40.51    1.03
  -7   0   2   36.77    1.11
  -7   0   2   37.65    1.02
  -7   0   2   40.05    1.22
  -7   0   2   36.83    1.16
   7   0  -2   37.21    0.97
   7   0  -2   42.96    0.87
   7   0  -2   33.60    0.80
   7   0  -2   45.70    1.19
   7   0  -2   32.83    0.96
   7   0  -2   41.36    1.22
   7   0  -2   36.36    1.18
  -7   0   1    7.00    0.68
  -7   0   1    5.98    0.64
  -7   0   1   10.56    1.17
  -7   0   1    7.34    0.65
  -7   0   1    7.15    0.81
  -7   0   1    6.61    0.75
   7   0  -1    7.58    0.61
   7   0  -1    7.64    0.52
   7   0  -1    5.74    0.49
   7   0  -1    8.42    0.68
   7   0  -1    5.53    0.57
   7   0  -1    6.72    0.74
   7   0  -1    5.71    0.71
  -7   0   0   74.00    1.34
  -7   0   0   65.88    1.36
  -7   0   0   79.01    1.40
  -7   0   0   72.57    1.19
  -7   0   0   77.87    1.52
  -7   0   0   98.42    2.10
   7   0   0   75.90    1.34
   7   0   0   75.52    1.08
   7   0   0   65.93    1.02
   7   0   0   83.44    1.44
   7   0   0   65.02    1.13
   7   0   0   75.95    1.49
   7   0   0   69.23    1.42
  -7   0  -1    4.39    0.52
  -7   0  -1    4.20    0.54
  -7   0  -1    3.23    0.36
  -7   0  -1    4.87    0.52
  -7   0  -1    3.39    0.40
  -7   0  -1    4.15    0.41
  -7   0  -1    5.34    0.62
  -7   0  -1    3.85    0.53
   7   0   1    3.67    0.44
   7   0   1    3.23    0.36
   7   0   1    3.79    0.48
   7   0   1    4.37    0.57
   7   0   1    3.18    0.46
  -7   0  -2   84.40    1.54
  -7   0  -2   81.50    1.19
  -7   0  -2  102.57    1.50
  -7   0  -2   90.66    1.21
  -7   0  -2   94.39    1.23
  -7   0  -2  103.10    1.71
  -7   0  -2   85.95    1.58
   7   0   2   98.00    1.58
   7   0   2   85.79    1.19
   7   0   2  108.13    1.55
   7   0   2   96.16    1.66
   7   0   2   92.72    1.63
  -7   0  -3   11.99    0.74
  -7   0  -3   11.07    0.64
  -7   0  -3   14.76    0.77
  -7   0  -3   11.76    0.58
  -7   0  -3   12.94    0.59
  -7   0  -3   14.03    0.93
  -7   0  -3   10.59    0.80
   7   0   3   12.01    0.72
   7   0   3   12.56    0.66
   7   0   3   14.95    0.73
   7   0   3   11.37    0.86
   7   0   3   12.13    0.83
  -7   0  -4   35.77    1.09
  -7   0  -4   35.59    0.94
  -7   0  -4   46.74    1.10
  -7   0  -4   39.98    0.83
  -7   0  -4   43.12    0.89
  -7   0  -4   45.95    1.30
  -7   0  -4   37.57    1.17
   7   0   4   41.67    1.19
   7   0   4   40.73    1.02
   7   0   4   47.96    1.07
   7   0   4   43.37    1.26
   7   0   4   57.02    1.69
  -7   0  -5    8.93    0.73
  -7   0  -5    9.76    0.71
  -7   0  -5   10.66    0.72
  -7   0  -5    9.81    0.55
  -7   0  -5   10.74    0.65
  -7   0  -5   12.88    0.96
  -7   0  -5    9.10    0.84
   7   0   5   10.17    0.70
   7   0   5   10.87    0.80
   7   0   5   11.58    0.68
   7   0   5   10.97    0.89
   7   0   5   12.19    0.95
  -7   0  -6    8.47    0.78
  -7   0  -6    8.04    0.73
  -7   0  -6    7.58    0.58
  -7   0  -6   10.84    0.69
  -7   0  -6   13.86    1.00
  -7   0  -6    9.88    0.91
   7   0   6   10.00    0.75
   7   0   6    8.69    0.81
   7   0   6   10.54    0.69
   7   0   6    8.52    0.69
   7   0   6    9.21    0.92
   7   0   6   11.23    0.99
  -7   0  -7   37.12    1.20
  -7   0  -7   37.86    1.16
  -7   0  -7   36.99    0.91
  -7   0  -7   44.60    1.05
  -7   0  -7   49.48    1.52
  -7   0  -7   39.94    1.36
   7   0   7   42.07    1.27
   7   0   7   47.40    1.07
   7   0   7   41.10    1.06
   7   0   7   42.67    1.40
   7   0   7   43.08    1.49
  -7   0  -8    0.34    0.44
  -7   0  -8    2.43    0.49
  -7   0  -8    0.91    0.41
  -7   0  -8    1.45    0.50
  -7   0  -8   -0.26    0.67
  -7   0  -8    1.17    0.54
   7   0   8    0.41    0.42
   7   0   8    0.91    0.43
   7   0   8    0.30    0.44
   7   0   8    1.78    0.63
   7   0   8    1.51    0.74
  -7   0  -9   20.68    1.11
  -7   0  -9   17.90    1.14
  -7   0  -9   17.97    0.92
  -7   0  -9   20.89    1.40
   7   0   9   23.23    1.15
   7   0   9   25.33    0.98
   7   0   9   24.62    1.39
  -7   0 -10    0.25    0.52
  -7   0 -10    1.03    0.63
  -7   0 -10    0.95    0.49
  -7   0 -10    1.37    0.83
   7   0  10    0.66    0.62
   7   0  10   -0.48    0.68
  -7  -1   9    0.38    0.52
  -7  -1   9    0.54    0.63
   7   1  -9    0.12    0.62
   7   1  -9    0.86    0.61
   7   1  -9   -0.29    0.81
  -7  -1   8    2.34    0.54
  -7  -1   8    2.39    0.63
  -7  -1   8    1.56    0.77
   7   1  -8    2.44    0.55
   7   1  -8    2.26    0.63
   7   1  -8    1.64    0.78
  -7  -1   7    0.14    0.34
  -7  -1   7    0.00    0.42
  -7  -1   7    0.44    0.47
  -7  -1   7   -0.06    0.60
   7   1  -7    0.65    0.46
   7   1  -7    0.16    0.45
   7   1  -7    0.51    0.59
  -7  -1   6   13.07    0.71
  -7  -1   6   11.87    0.85
  -7  -1   6   10.42    0.85
  -7  -1   6   10.99    1.06
  -7  -1   6   12.59    1.05
   7   1  -6   12.49    0.64
   7   1  -6   16.71    0.87
   7   1  -6   10.29    0.96
   7   1  -6   15.34    0.96
   7   1  -6   15.40    1.10
   7   1  -6    9.99    1.13
  -7  -1   5    6.79    0.61
  -7  -1   5    5.78    0.67
  -7  -1   5    5.37    0.65
  -7  -1   5    5.38    0.64
  -7  -1   5    7.17    0.87
   7   1  -5    6.90    0.56
   7   1  -5    7.90    0.67
   7   1  -5    5.93    0.59
   7   1  -5    8.39    0.79
   7   1  -5    6.15    0.69
   7   1  -5    5.68    0.69
  -7  -1   4    1.86    0.38
  -7  -1   4    0.88    0.38
  -7  -1   4    1.31    0.42
  -7  -1   4    1.16    0.48
  -7  -1   4    1.49    0.50
   7   1  -4    1.87    0.33
   7   1  -4    2.15    0.38
   7   1  -4    1.31    0.41
   7   1  -4    1.37    0.38
   7   1  -4    0.92    0.43
   7   1  -4    1.76    0.44
   7   1  -4    1.71    0.47
  -7  -1   3   17.68    0.72
  -7  -1   3   17.72    0.87
  -7  -1   3   16.16    0.78
  -7  -1   3   17.79    1.00
  -7  -1   3   17.75    0.93
   7   1  -3   18.95    0.70
   7   1  -3   20.23    0.75
   7   1  -3   17.01    0.76
   7   1  -3   20.61    0.91
   7   1  -3   14.65    0.74
   7   1  -3   18.84    0.93
   7   1  -3   16.83    0.95
  -7  -1   2    6.28    0.59
  -7  -1   2    5.89    0.61
  -7  -1   2    4.86    0.48
  -7  -1   2    7.28    0.75
  -7  -1   2    7.09    0.73
   7   1  -2    6.87    0.55
   7   1  -2    6.01    0.55
   7   1  -2    4.74    0.54
   7   1  -2    6.76    0.69
   7   1  -2    4.64    0.58
   7   1  -2    6.38    0.72
   7   1  -2    5.80    0.62
  -7  -1   1   12.68    0.70
  -7  -1   1   10.47    0.71
  -7  -1   1   10.60    0.62
  -7  -1   1   12.18    0.81
  -7  -1   1   11.25    0.78
   7   1  -1   11.79    0.64
   7   1  -1   12.55    0.62
   7   1  -1    9.82    0.59
   7   1  -1   13.86    0.78
   7   1  -1   10.00    0.57
   7   1  -1   12.15    0.78
   7   1  -1   11.32    0.77
  -7  -1   0    7.56    0.63
  -7  -1   0    5.66    0.63
  -7  -1   0    5.36    0.65
  -7  -1   0    6.03    0.52
  -7  -1   0    5.14    0.53
  -7  -1   0    4.78    0.51
   7   1   0    6.50    0.57
   7   1   0    6.35    0.52
   7   1   0    4.57    0.52
   7   1   0    7.46    0.65
   7   1   0    5.47    0.48
   7   1   0    6.15    0.69
   7   1   0    5.05    0.63
  -7  -1  -1   44.74    1.07
  -7  -1  -1   37.37    1.07
  -7  -1  -1   36.48    0.89
  -7  -1  -1   47.09    1.12
  -7  -1  -1   40.20    0.79
  -7  -1  -1   43.89    1.16
  -7  -1  -1   39.68    1.11
   7   1   1   44.06    1.03
   7   1   1   38.74    0.90
   7   1   1   50.40    1.14
   7   1   1   37.81    0.76
   7   1   1   42.53    1.15
   7   1   1   40.39    1.16
  -7  -1  -2    3.46    0.47
  -7  -1  -2    0.70    0.35
  -7  -1  -2    1.15    0.33
  -7  -1  -2    1.49    0.39
  -7  -1  -2    1.24    0.26
  -7  -1  -2    1.33    0.29
  -7  -1  -2    1.27    0.39
  -7  -1  -2    1.20    0.36
   7   1   2    1.26    0.33
   7   1   2    1.57    0.32
   7   1   2    1.87    0.39
   7   1   2    1.50    0.43
   7   1   2    1.30    0.40
  -7  -1  -3   24.25    0.95
  -7  -1  -3   20.94    0.87
  -7  -1  -3   19.32    0.76
  -7  -1  -3   25.67    0.92
  -7  -1  -3   22.17    0.58
  -7  -1  -3   22.99    0.59
  -7  -1  -3   25.36    1.00
  -7  -1  -3   21.83    0.92
   7   1   3   23.61    0.85
   7   1   3   22.72    0.78
   7   1   3   27.06    0.89
   7   1   3   24.03    0.98
   7   1   3   21.92    0.92
  -7  -1  -4    8.70    0.69
  -7  -1  -4    8.32    0.66
  -7  -1  -4   11.60    0.78
  -7  -1  -4    8.93    0.44
  -7  -1  -4   10.08    0.48
  -7  -1  -4   10.47    0.81
  -7  -1  -4    8.53    0.74
   7   1   4   10.28    0.67
   7   1   4   10.24    0.69
   7   1   4   11.10    0.69
   7   1   4    9.09    0.78
   7   1   4   10.56    0.84
  -7  -1  -5   26.86    0.98
  -7  -1  -5   26.52    0.94
  -7  -1  -5   35.68    1.02
  -7  -1  -5   28.10    0.62
  -7  -1  -5   33.68    0.68
  -7  -1  -5   36.13    1.19
  -7  -1  -5   27.09    1.05
   7   1   5   34.04    1.06
   7   1   5   29.00    1.00
   7   1   5   35.53    0.99
   7   1   5   28.72    0.94
   7   1   5   32.21    1.12
   7   1   5   32.49    1.15
  -7  -1  -6   32.75    1.08
  -7  -1  -6   32.75    1.25
  -7  -1  -6   34.23    0.69
  -7  -1  -6   40.92    0.79
  -7  -1  -6   40.48    1.31
  -7  -1  -6   35.22    1.20
   7   1   6   42.28    1.20
   7   1   6   44.28    1.98
   7   1   6   42.33    1.08
   7   1   6   35.26    1.01
   7   1   6   40.26    1.25
   7   1   6   40.09    1.30
  -7  -1  -7   -0.08    0.37
  -7  -1  -7   -0.51    0.39
  -7  -1  -7   -0.25    0.26
  -7  -1  -7    0.30    0.32
  -7  -1  -7   -0.20    0.50
  -7  -1  -7    0.40    0.40
   7   1   7    0.71    0.40
   7   1   7    0.11    0.36
   7   1   7   -0.53    0.41
   7   1   7    0.06    0.47
   7   1   7   -0.05    0.53
  -7  -1  -8   21.96    1.04
  -7  -1  -8   22.49    1.08
  -7  -1  -8   21.40    0.73
  -7  -1  -8   22.81    0.82
  -7  -1  -8   27.62    1.39
  -7  -1  -8   22.65    1.22
   7   1   8   25.92    1.08
   7   1   8   27.17    0.99
   7   1   8   21.53    1.00
   7   1   8   25.24    1.21
   7   1   8   27.39    1.36
  -7  -1  -9    0.32    0.48
  -7  -1  -9    0.64    0.53
  -7  -1  -9   -0.49    0.36
  -7  -1  -9   -1.48    0.65
   7   1   9    0.13    0.43
   7   1   9    0.18    0.47
   7   1   9   -0.21    0.57
  -7  -1 -10    2.69    0.65
  -7  -1 -10    2.01    0.64
   7   1  10    3.05    0.64
   7   1  10    3.19    0.60
   7   1  10    2.93    0.75
  -7  -1 -11   18.29    1.20
  -7  -1 -11   16.81    1.36
   7   1  11   20.43    1.27
   7   1  11   23.19    1.67
  -7  -2   9    0.39    0.53
  -7  -2   9    0.16    0.62
   7   2  -9   -0.06    0.61
   7   2  -9   -0.18    0.60
   7   2  -9    0.76    0.83
  -7  -2   8    0.81    0.46
  -7  -2   8   -0.23    0.52
   7   2  -8    0.23    0.51
   7   2  -8    0.24    0.57
   7   2  -8    0.40    0.68
  -7  -2   7    0.74    0.27
  -7  -2   7    1.09    0.43
  -7  -2   7    0.68    0.49
  -7  -2   7    0.91    0.56
   7   2  -7    0.49    0.46
   7   2  -7    1.34    0.50
   7   2  -7    0.49    0.52
  -7  -2   6    0.50    0.39
  -7  -2   6    0.94    0.43
  -7  -2   6   -0.15    0.49
   7   2  -6    0.36    0.43
   7   2  -6    0.48    0.45
   7   2  -6    0.87    0.51
   7   2  -6   -0.34    0.51
  -7  -2   5    0.23    0.29
  -7  -2   5   -0.07    0.34
  -7  -2   5    0.00    0.37
  -7  -2   5   -0.32    0.43
  -7  -2   5   -0.22    0.47
   7   2  -5    0.29    0.25
   7   2  -5   -0.07    0.33
   7   2  -5   -0.29    0.43
   7   2  -5    0.07    0.33
   7   2  -5   -0.96    0.42
   7   2  -5    0.17    0.44
   7   2  -5    0.36    0.48
  -7  -2   4    1.05    0.33
  -7  -2   4    0.60    0.35
  -7  -2   4    0.66    0.36
  -7  -2   4    1.29    0.45
  -7  -2   4    0.98    0.38
   7   2  -4    0.65    0.26
   7   2  -4    1.18    0.38
   7   2  -4    0.35    0.41
   7   2  -4    0.51    0.34
   7   2  -4    0.97    0.41
   7   2  -4    0.19    0.32
   7   2  -4    0.64    0.42
  -7  -2   3    2.76    0.35
  -7  -2   3    1.42    0.38
  -7  -2   3    1.75    0.36
  -7  -2   3    1.82    0.48
  -7  -2   3    1.37    0.38
   7   2  -3    1.75    0.33
   7   2  -3    2.06    0.36
   7   2  -3    2.19    0.39
   7   2  -3    1.76    0.46
   7   2  -3    1.40    0.38
   7   2  -3    2.74    0.53
   7   2  -3    1.81    0.47
  -7  -2   2    1.08    0.32
  -7  -2   2    0.79    0.37
  -7  -2   2    0.78    0.29
  -7  -2   2    0.74    0.40
  -7  -2   2    0.79    0.39
   7   2  -2    0.58    0.26
   7   2  -2    0.78    0.33
   7   2  -2    0.23    0.32
   7   2  -2    0.25    0.36
   7   2  -2    0.63    0.29
   7   2  -2    0.51    0.31
   7   2  -2    0.70    0.32
  -7  -2   1    1.72    0.35
  -7  -2   1    1.42    0.44
  -7  -2   1    1.21    0.29
  -7  -2   1    1.72    0.42
  -7  -2   1    2.12    0.46
   7   2  -1    2.65    0.35
   7   2  -1    1.90    0.36
   7   2  -1    2.21    0.37
   7   2  -1    2.06    0.44
   7   2  -1    1.91    0.31
   7   2  -1    2.08    0.41
   7   2  -1    1.47    0.39
  -7  -2   0   -0.09    0.28
  -7  -2   0   -0.15    0.33
  -7  -2   0   -0.09    0.31
  -7  -2   0    0.11    0.22
  -7  -2   0   -0.28    0.29
  -7  -2   0   -0.26    0.32
   7   2   0    0.10    0.27
   7   2   0   -0.04    0.25
   7   2   0    0.38    0.29
   7   2   0    0.19    0.34
   7   2   0    0.75    0.34
   7   2   0    0.00    0.31
  -7  -2  -1   24.73    0.82
  -7  -2  -1   23.25    0.90
  -7  -2  -1   24.42    0.83
  -7  -2  -1   28.97    0.95
  -7  -2  -1   19.74    0.52
  -7  -2  -1   25.21    0.88
  -7  -2  -1   23.99    0.92
   7   2   1   28.23    0.84
   7   2   1   24.88    0.84
   7   2   1   30.77    0.96
   7   2   1   23.56    0.55
   7   2   1   27.27    0.94
   7   2   1   25.11    0.92
  -7  -2  -2   18.76    0.79
  -7  -2  -2   15.14    0.77
  -7  -2  -2   16.00    0.75
  -7  -2  -2   19.58    0.85
  -7  -2  -2   13.01    0.42
  -7  -2  -2   17.50    0.45
  -7  -2  -2   20.41    0.86
  -7  -2  -2   15.30    0.81
   7   2   2   18.68    0.74
   7   2   2   17.05    0.73
   7   2   2   19.54    0.81
   7   2   2   17.88    0.84
   7   2   2   16.50    0.81
  -7  -2  -3    0.79    0.36
  -7  -2  -3    0.54    0.36
  -7  -2  -3    0.19    0.29
  -7  -2  -3    0.55    0.41
  -7  -2  -3    0.30    0.25
  -7  -2  -3    0.81    0.17
  -7  -2  -3    1.03    0.42
  -7  -2  -3    0.60    0.37
   7   2   3    0.48    0.32
   7   2   3    0.50    0.31
   7   2   3    0.16    0.30
   7   2   3    0.30    0.35
   7   2   3    0.39    0.31
  -7  -2  -4    0.13    0.33
  -7  -2  -4    0.74    0.35
  -7  -2  -4    0.36    0.38
  -7  -2  -4    0.61    0.41
  -7  -2  -4    0.15    0.34
   7   2   4    0.33    0.33
   7   2   4    0.24    0.30
   7   2   4    0.46    0.34
   7   2   4    0.19    0.36
   7   2   4    0.51    0.40
  -7  -2  -5    1.96    0.44
  -7  -2  -5    2.09    0.40
  -7  -2  -5    3.41    0.53
  -7  -2  -5    2.07    0.39
   7   2   5    3.12    0.48
   7   2   5    2.15    0.44
   7   2   5    2.94    0.45
   7   2   5    2.87    0.47
   7   2   5    2.52    0.45
   7   2   5    3.12    0.54
  -7  -2  -6    0.03    0.36
  -7  -2  -6    0.51    0.36
  -7  -2  -6    0.20    0.20
  -7  -2  -6    0.40    0.18
  -7  -2  -6    0.44    0.43
  -7  -2  -6    0.18    0.42
   7   2   6   -0.05    0.31
   7   2   6    0.18    0.35
   7   2   6   -0.04    0.39
   7   2   6    0.19    0.39
  -7  -2  -7   -0.10    0.37
  -7  -2  -7    0.42    0.40
  -7  -2  -7    0.18    0.20
  -7  -2  -7    0.52    0.24
  -7  -2  -7    0.70    0.48
   7   2   7   -0.19    0.35
   7   2   7   -0.34    0.35
   7   2   7   -0.01    0.45
   7   2   7    0.60    0.44
   7   2   7   -0.15    0.50
  -7  -2  -8    5.70    0.64
  -7  -2  -8    4.33    0.63
  -7  -2  -8    6.01    0.44
  -7  -2  -8    6.15    0.78
   7   2   8    7.40    0.76
   7   2   8    7.29    0.83
   7   2   8    4.60    0.75
  -7  -2  -9    7.42    0.84
  -7  -2  -9    7.64    0.91
  -7  -2  -9    5.85    0.70
  -7  -2  -9    8.30    0.89
   7   2   9   10.10    0.88
   7   2   9    9.59    1.08
   7   2   9    7.75    0.81
  -7  -2 -10    0.22    0.51
  -7  -2 -10    1.16    0.56
   7   2  10    0.50    0.50
   7   2  10    0.30    0.57
   7   2  10    1.52    0.71
  -7  -2 -11    0.94    0.60
  -7  -2 -11    1.52    0.67
   7   2  11    2.11    0.65
   7   2  11    0.61    0.67
   7   2  11    1.70    0.81
  -7  -3   9    4.41    0.66
  -7  -3   9    4.23    0.77
   7   3  -9    6.25    0.81
   7   3  -9    5.92    0.90
   7   3  -9    4.66    0.87
  -7  -3   8    0.90    0.49
  -7  -3   8    1.43    0.53
   7   3  -8    0.52    0.53
   7   3  -8    0.21    0.57
   7   3  -8    1.27    0.63
  -7  -3   7    2.11    0.48
  -7  -3   7    3.33    0.58
  -7  -3   7    2.66    0.64
   7   3  -7    3.34    0.57
   7   3  -7    4.39    0.66
   7   3  -7    4.09    0.72
  -7  -3   6    8.49    0.76
  -7  -3   6    7.04    0.80
  -7  -3   6    8.48    0.94
   7   3  -6    9.62    0.84
   7   3  -6    9.45    0.84
   7   3  -6    8.90    0.92
   7   3  -6    7.65    0.95
  -7  -3   5    2.32    0.28
  -7  -3   5    2.06    0.47
  -7  -3   5    1.82    0.42
  -7  -3   5    2.78    0.56
   7   3  -5    2.49    0.26
   7   3  -5    2.53    0.47
   7   3  -5    3.47    0.56
   7   3  -5    2.45    0.49
   7   3  -5    2.78    0.69
   7   3  -5    1.81    0.54
  -7  -3   4   12.70    0.52
  -7  -3   4   18.90    0.89
  -7  -3   4   13.49    0.73
  -7  -3   4   16.26    1.01
   7   3  -4   18.81    0.53
   7   3  -4   21.02    0.91
   7   3  -4   15.02    0.94
   7   3  -4   23.76    0.98
   7   3  -4   19.15    0.83
   7   3  -4   21.51    0.96
   7   3  -4   19.17    0.96
  -7  -3   3    3.52    0.36
  -7  -3   3    9.29    0.67
  -7  -3   3    5.00    0.56
  -7  -3   3   10.57    0.80
  -7  -3   3    9.99    0.77
   7   3  -3   10.73    0.50
   7   3  -3   11.13    0.74
   7   3  -3    8.58    0.77
   7   3  -3   12.20    0.80
   7   3  -3    9.54    0.66
   7   3  -3   10.38    0.77
   7   3  -3    8.49    0.77
  -7  -3   2   11.21    0.55
  -7  -3   2   14.42    0.78
  -7  -3   2    5.10    0.49
  -7  -3   2   14.65    0.80
  -7  -3   2   15.87    0.81
   7   3  -2   17.40    0.60
   7   3  -2   17.45    0.79
   7   3  -2   13.89    0.79
   7   3  -2   19.14    1.09
   7   3  -2   16.21    0.65
   7   3  -2   17.17    0.82
   7   3  -2   15.65    0.80
  -7  -3   1    7.06    0.52
  -7  -3   1    8.79    0.67
  -7  -3   1    4.94    0.42
  -7  -3   1   10.49    0.72
  -7  -3   1    9.43    0.68
   7   3  -1   10.71    0.54
   7   3  -1   10.99    0.67
   7   3  -1    8.81    0.67
   7   3  -1   11.25    0.76
   7   3  -1    9.14    0.48
   7   3  -1    9.60    0.68
   7   3  -1    9.25    0.70
  -7  -3   0    4.87    0.52
  -7  -3   0    6.68    0.66
  -7  -3   0    5.13    0.36
  -7  -3   0    8.07    0.67
  -7  -3   0    7.12    0.66
   7   3   0    7.37    0.51
   7   3   0    6.82    0.59
   7   3   0    6.42    0.61
   7   3   0    8.99    0.68
   7   3   0    6.95    0.40
   7   3   0    7.69    0.64
   7   3   0    6.10    0.62
  -7  -3  -1   78.84    1.26
  -7  -3  -1   84.93    1.51
  -7  -3  -1   81.61    1.39
  -7  -3  -1  105.66    1.94
  -7  -3  -1   96.13    1.48
  -7  -3  -1   84.78    1.42
   7   3   1   98.95    1.39
   7   3   1   80.38    1.36
   7   3   1  112.09    1.68
   7   3   1   83.36    0.72
   7   3   1   96.54    1.53
   7   3   1   87.47    1.46
  -7  -3  -2    0.43    0.34
  -7  -3  -2    0.39    0.35
  -7  -3  -2    0.59    0.34
  -7  -3  -2    0.20    0.37
  -7  -3  -2    0.35    0.34
  -7  -3  -2    0.41    0.34
   7   3   2    0.44    0.30
   7   3   2    0.94    0.35
   7   3   2    0.43    0.36
   7   3   2    0.66    0.36
   7   3   2    0.50    0.37
  -7  -3  -3   29.47    0.97
  -7  -3  -3   31.71    1.01
  -7  -3  -3   29.90    0.97
  -7  -3  -3   36.52    1.13
  -7  -3  -3   36.66    1.03
  -7  -3  -3   32.05    0.98
   7   3   3   38.21    1.01
   7   3   3   31.10    0.96
   7   3   3   40.12    1.10
   7   3   3   33.25    1.01
   7   3   3   34.02    1.02
  -7  -3  -4    8.68    0.67
  -7  -3  -4    8.71    0.74
  -7  -3  -4   11.91    1.07
  -7  -3  -4   10.86    0.76
  -7  -3  -4    8.38    0.67
   7   3   4   10.88    0.70
   7   3   4   10.19    0.72
   7   3   4   11.27    0.74
   7   3   4    9.26    0.94
   7   3   4    9.96    0.72
   7   3   4    9.51    0.75
  -7  -3  -5   10.99    0.76
  -7  -3  -5    9.73    0.75
  -7  -3  -5   11.13    0.77
  -7  -3  -5    9.40    0.75
   7   3   5   12.61    0.82
   7   3   5   13.47    0.79
   7   3   5   12.20    0.80
   7   3   5   11.47    0.82
  -7  -3  -6   15.19    0.82
  -7  -3  -6   16.03    0.90
   7   3   6   21.09    0.92
   7   3   6   20.71    0.95
   7   3   6   17.35    1.06
   7   3   6   19.19    1.00
  -7  -3  -7   18.62    0.90
  -7  -3  -7   20.05    1.03
  -7  -3  -7   24.10    1.09
   7   3   7   26.00    1.05
   7   3   7   25.94    1.09
   7   3   7   24.07    1.18
  -7  -3  -8    6.69    0.76
  -7  -3  -8    9.40    0.89
  -7  -3  -8    6.34    0.67
   7   3   8   11.84    0.88
   7   3   8   11.53    0.92
   7   3   8    8.70    0.98
  -7  -3  -9    0.47    0.44
  -7  -3  -9   -0.66    0.51
   7   3   9   -0.14    0.43
   7   3   9    0.01    0.51
   7   3   9   -0.19    0.51
  -7  -3 -10    2.61    0.60
  -7  -3 -10    2.37    0.66
   7   3  10    3.42    0.65
   7   3  10    2.69    0.65
   7   3  10    3.20    0.74
  -7  -3 -11   -0.02    0.59
  -7  -3 -11    0.78    0.67
   7   3  11   -0.45    0.60
   7   3  11    0.64    0.67
   7   3  11   -0.41    0.69
  -7  -4   9   18.83    1.15
  -7  -4   9   14.33    1.30
   7   4  -9   20.23    1.28
   7   4  -9   20.32    1.36
   7   4  -9   20.05    1.45
  -7  -4   8    3.28    0.63
  -7  -4   8    1.90    0.60
   7   4  -8    4.49    0.69
   7   4  -8    3.62    0.71
   7   4  -8    3.95    0.71
  -7  -4   7   31.20    1.19
  -7  -4   7   27.92    1.17
   7   4  -7   38.58    1.33
   7   4  -7   42.21    1.40
   7   4  -7   36.12    1.33
  -7  -4   6    1.75    0.47
  -7  -4   6    1.42    0.46
  -7  -4   6    2.03    0.59
   7   4  -6    2.99    0.56
   7   4  -6    2.69    0.56
   7   4  -6    2.02    0.55
  -7  -4   5   23.30    0.99
  -7  -4   5   14.16    0.82
  -7  -4   5   26.76    1.10
   7   4  -5   28.59    1.12
   7   4  -5   28.87    1.15
   7   4  -5   19.23    0.95
   7   4  -5   25.75    1.05
   7   4  -5   22.80    1.04
  -7  -4   4   29.48    0.52
  -7  -4   4   28.22    1.03
  -7  -4   4   16.58    0.76
  -7  -4   4   26.97    1.02
   7   4  -4   25.55    0.66
   7   4  -4   31.85    1.07
   7   4  -4   36.30    1.20
   7   4  -4   27.78    0.92
   7   4  -4   30.10    1.03
   7   4  -4   26.95    1.03
  -7  -4   3   53.97    0.80
  -7  -4   3   50.91    1.28
  -7  -4   3   42.71    0.94
  -7  -4   3   53.81    1.23
   7   4  -3   56.08    0.77
   7   4  -3   61.42    2.07
   7   4  -3   70.95    1.49
   7   4  -3   53.37    1.05
   7   4  -3   49.66    1.44
   7   4  -3   49.44    1.22
  -7  -4   2   26.40    0.68
  -7  -4   2   28.08    0.98
  -7  -4   2   27.32    0.72
   7   4  -2   32.81    0.70
   7   4  -2   31.63    1.00
   7   4  -2   24.97    1.00
   7   4  -2   35.88    1.13
   7   4  -2   30.73    0.77
   7   4  -2   31.88    0.98
   7   4  -2   29.03    0.96
  -7  -4   1   -0.03    0.27
  -7  -4   1    0.14    0.30
  -7  -4   1    0.35    0.21
  -7  -4   1   -0.17    0.31
   7   4  -1   -0.08    0.24
   7   4  -1    0.34    0.30
   7   4  -1    0.46    0.36
   7   4  -1    0.32    0.26
   7   4  -1   -0.12    0.29
   7   4  -1    0.13    0.30
  -7  -4   0   82.81    1.21
  -7  -4   0  102.40    1.67
  -7  -4   0  111.76    0.93
  -7  -4   0  101.97    1.47
   7   4   0  124.88    1.45
   7   4   0  106.92    1.63
   7   4   0   93.12    1.54
   7   4   0  126.82    1.85
   7   4   0  105.41    0.90
   7   4   0  112.24    1.59
   7   4   0  101.62    1.52
  -7  -4  -1    4.83    0.56
  -7  -4  -1    5.64    0.63
  -7  -4  -1    4.02    0.48
  -7  -4  -1    5.62    0.54
   7   4   1    6.76    0.55
   7   4   1    5.71    0.64
   7   4   1    6.79    0.67
   7   4   1    5.89    0.59
   7   4   1    4.96    0.59
  -7  -4  -2   72.00    1.27
  -7  -4  -2   82.07    1.50
  -7  -4  -2   81.48    1.48
  -7  -4  -2   92.31    1.45
   7   4   2  103.09    1.49
   7   4   2   84.14    1.49
   7   4   2  103.32    1.67
   7   4   2   93.77    1.49
   7   4   2   85.13    1.42
  -7  -4  -3   33.82    1.01
  -7  -4  -3   36.22    1.06
   7   4   3   43.79    1.08
   7   4   3   45.51    1.19
   7   4   3   41.29    1.07
   7   4   3   37.74    1.05
  -7  -4  -4   41.68    1.14
  -7  -4  -4   42.49    1.19
  -7  -4  -4   35.64    1.36
   7   4   4   51.35    1.21
   7   4   4   53.04    1.53
   7   4   4   49.55    1.20
  -7  -4  -5   11.80    0.78
  -7  -4  -5   11.99    0.84
  -7  -4  -5   14.49    0.79
   7   4   5   15.37    0.81
   7   4   5   16.19    0.95
   7   4   5   13.82    0.78
   7   4   5   14.13    0.87
  -7  -4  -6   24.18    0.95
  -7  -4  -6   29.54    1.12
  -7  -4  -6   28.28    1.04
   7   4   6   33.14    1.14
   7   4   6   35.11    1.19
   7   4   6   32.69    1.10
   7   4   6   33.45    1.15
  -7  -4  -7  110.25    1.72
  -7  -4  -7  130.66    2.10
  -7  -4  -7  131.82    2.00
   7   4   7  171.02    2.36
   7   4   7  164.70    2.23
   7   4   7  147.91    2.12
  -7  -4  -8   -0.48    0.43
  -7  -4  -8    0.77    0.49
   7   4   8   -0.40    0.41
   7   4   8    0.59    0.51
   7   4   8   -0.06    0.51
  -7  -4  -9    8.55    0.89
  -7  -4  -9   15.68    1.09
   7   4   9   17.15    1.10
   7   4   9   16.81    1.10
   7   4   9   17.38    1.13
  -7  -4 -10   -0.29    0.52
  -7  -4 -10    0.81    0.60
   7   4  10    0.37    0.60
   7   4  10   -0.77    0.60
   7   4  10    0.32    0.60
  -7  -5   9    0.08    0.52
  -7  -5   9   -0.03    0.68
   7   5  -9   -0.19    0.62
   7   5  -9    0.72    0.73
   7   5  -9    0.41    0.71
  -7  -5   8   27.64    1.26
  -7  -5   8   21.08    1.24
   7   5  -8   35.46    1.43
   7   5  -8   36.42    1.50
   7   5  -8   33.73    1.44
  -7  -5   7    7.58    0.83
  -7  -5   7    4.57    0.64
   7   5  -7    7.81    0.95
   7   5  -7    8.26    1.03
   7   5  -7    8.09    1.00
  -7  -5   6   27.02    1.11
  -7  -5   6   15.72    0.95
   7   5  -6   32.17    1.26
   7   5  -6   34.03    1.30
   7   5  -6   27.61    1.15
  -7  -5   5    7.43    0.76
  -7  -5   5    5.55    0.57
  -7  -5   5    7.28    0.84
   7   5  -5    7.55    0.85
   7   5  -5    7.93    0.88
   7   5  -5    5.11    0.63
   7   5  -5    7.66    0.80
   7   5  -5    5.73    0.73
  -7  -5   4    7.17    0.75
  -7  -5   4    6.66    0.64
  -7  -5   4    8.12    0.83
   7   5  -4    6.47    0.76
   7   5  -4    8.44    0.88
   7   5  -4    6.18    0.74
   7   5  -4    7.90    0.74
   7   5  -4    6.06    0.60
  -7  -5   3  338.06    1.61
  -7  -5   3  310.00    3.04
  -7  -5   3  309.90    2.29
  -7  -5   3  323.98    2.67
   7   5  -3  352.40    1.61
   7   5  -3  368.01    3.19
   7   5  -3  412.77    3.45
   7   5  -3  314.16    2.31
   7   5  -3  356.30    2.87
   7   5  -3  297.50    2.64
  -7  -5   2   32.32    0.70
  -7  -5   2   27.11    1.00
  -7  -5   2   31.47    0.76
  -7  -5   2   28.95    0.94
   7   5  -2   34.81    0.70
   7   5  -2   32.85    1.08
   7   5  -2   38.33    1.18
   7   5  -2   30.09    0.78
   7   5  -2   31.64    0.97
   7   5  -2   28.32    0.93
  -7  -5   1   78.67    1.09
  -7  -5   1   74.01    1.49
  -7  -5   1   81.07    0.97
  -7  -5   1   76.85    1.32
   7   5  -1   91.07    1.16
   7   5  -1   83.75    1.55
   7   5  -1   92.13    1.64
   7   5  -1   77.60    0.96
   7   5  -1   83.35    1.39
   7   5  -1   72.48    1.30
  -7  -5   0    0.79    0.35
  -7  -5   0    0.21    0.30
  -7  -5   0    1.00    0.19
  -7  -5   0    0.61    0.33
   7   5   0    0.95    0.30
   7   5   0    0.56    0.35
   7   5   0    0.72    0.40
   7   5   0    1.05    0.21
   7   5   0    0.41    0.30
   7   5   0    0.56    0.28
  -7  -5  -1   86.80    1.34
  -7  -5  -1   89.31    1.57
  -7  -5  -1   90.32    1.61
  -7  -5  -1   92.80    1.41
   7   5   1  108.66    1.45
   7   5   1  117.94    1.84
   7   5   1   98.12    1.47
   7   5   1   96.02    1.46
  -7  -5  -2   45.37    1.10
  -7  -5  -2   49.62    1.21
  -7  -5  -2   48.69    1.24
  -7  -5  -2   50.12    1.09
   7   5   2   61.00    1.20
   7   5   2   64.36    1.42
   7   5   2   54.14    1.14
   7   5   2   49.90    1.11
  -7  -5  -3   36.05    1.08
  -7  -5  -3   39.64    1.10
  -7  -5  -3   38.03    1.17
  -7  -5  -3   40.97    1.04
   7   5   3   49.23    1.17
   7   5   3   50.75    1.30
   7   5   3   44.70    1.09
   7   5   3   43.90    1.09
  -7  -5  -4  113.58    1.72
  -7  -5  -4  114.19    1.86
  -7  -5  -4  118.77    1.65
   7   5   4  146.50    1.97
   7   5   4  151.68    2.12
   7   5   4  132.58    1.77
   7   5   4  131.05    1.77
  -7  -5  -5   66.06    1.37
  -7  -5  -5   70.38    1.57
  -7  -5  -5   71.87    1.38
   7   5   5   85.84    1.60
   7   5   5   87.37    1.71
   7   5   5   78.28    1.45
   7   5   5   79.29    1.49
  -7  -5  -6   12.60    0.81
  -7  -5  -6   15.64    0.98
  -7  -5  -6   15.07    0.87
   7   5   6   18.23    0.96
   7   5   6   17.67    1.01
   7   5   6   16.68    0.86
   7   5   6   15.90    0.93
  -7  -5  -7    0.40    0.43
  -7  -5  -7    1.02    0.46
   7   5   7    0.73    0.48
   7   5   7    0.92    0.47
   7   5   7    1.16    0.43
  -7  -5  -8   29.11    1.08
  -7  -5  -8   45.29    1.47
   7   5   8   60.23    1.59
   7   5   8   56.19    1.54
   7   5   8   53.63    1.46
  -7  -5  -9    2.52    0.59
  -7  -5  -9    2.91    0.66
   7   5   9    5.16    0.69
   7   5   9    5.55    0.76
   7   5   9    4.59    0.64
  -7  -5 -10   15.23    1.09
  -7  -5 -10   22.07    1.37
   7   5  10   30.42    1.38
   7   5  10   27.67    1.48
   7   5  10   25.29    1.37
  -7  -6   8    3.78    0.71
  -7  -6   8    3.13    0.73
   7   6  -8    7.44    0.87
   7   6  -8    6.82    0.83
   7   6  -8    6.16    0.78
  -7  -6   7   17.80    1.05
  -7  -6   7   12.04    1.06
   7   6  -7   19.78    1.23
   7   6  -7   22.35    1.28
   7   6  -7   20.70    1.16
  -7  -6   6   16.21    0.97
  -7  -6   6   13.15    0.96
   7   6  -6   16.85    1.11
   7   6  -6   19.02    1.17
   7   6  -6   17.12    1.01
  -7  -6   5   38.04    1.30
  -7  -6   5   37.58    1.16
   7   6  -5   49.86    1.44
   7   6  -5   54.10    1.51
   7   6  -5   40.01    1.51
   7   6  -5   45.30    1.25
  -7  -6   4   13.01    0.92
  -7  -6   4   13.52    0.80
  -7  -6   4   14.78    0.92
   7   6  -4   14.31    0.92
   7   6  -4   17.55    1.03
   7   6  -4   10.10    0.88
   7   6  -4   16.01    0.81
   7   6  -4   13.19    0.86
  -7  -6   3    5.08    0.61
  -7  -6   3    5.08    0.61
  -7  -6   3    6.85    0.75
   7   6  -3    6.24    0.38
   7   6  -3    6.53    0.69
   7   6  -3    7.24    0.81
   7   6  -3    4.91    0.53
   7   6  -3    6.07    0.63
   7   6  -3    4.34    0.51
  -7  -6   2   29.52    0.70
  -7  -6   2   24.85    1.03
  -7  -6   2   26.96    0.76
  -7  -6   2   26.33    0.89
   7   6  -2   30.28    0.67
   7   6  -2   27.18    1.08
   7   6  -2   33.50    1.15
   7   6  -2   26.36    0.80
   7   6  -2   28.94    0.89
  -7  -6   1   -0.08    0.32
  -7  -6   1    0.48    0.41
  -7  -6   1    0.22    0.24
  -7  -6   1    0.20    0.31
   7   6  -1   -0.13    0.27
   7   6  -1   -0.75    0.34
   7   6  -1    0.06    0.38
   7   6  -1    0.17    0.29
   7   6  -1   -0.04    0.41
  -7  -6   0  128.41    1.51
  -7  -6   0  114.28    1.84
  -7  -6   0  130.20    1.00
  -7  -6   0  121.73    1.52
   7   6   0  144.37    1.58
   7   6   0  129.87    1.98
   7   6   0  151.76    2.14
   7   6   0  125.66    0.98
   7   6   0  126.49    1.61
   7   6   0  115.77    1.59
  -7  -6  -1   20.39    0.83
  -7  -6  -1   19.01    0.88
  -7  -6  -1   21.53    0.81
   7   6   1   24.87    0.84
   7   6   1   19.98    0.93
   7   6   1   25.05    1.03
   7   6   1   21.87    0.79
   7   6   1   20.89    0.80
  -7  -6  -2   25.91    0.95
  -7  -6  -2   25.49    0.98
  -7  -6  -2   25.52    1.03
  -7  -6  -2   28.92    0.88
   7   6   2   33.85    1.00
   7   6   2   33.90    1.15
   7   6   2   30.31    0.89
   7   6   2   28.47    0.99
  -7  -6  -3   58.16    1.32
  -7  -6  -3   61.43    1.46
  -7  -6  -3   63.58    1.19
   7   6   3   76.63    1.46
   7   6   3   80.23    1.65
   7   6   3   67.78    1.25
  -7  -6  -4   27.22    0.97
  -7  -6  -4   29.40    1.14
  -7  -6  -4   28.61    0.93
   7   6   4   36.14    1.15
   7   6   4   36.73    1.26
   7   6   4   30.55    0.93
   7   6   4   32.12    1.06
  -7  -6  -5   61.02    1.33
  -7  -6  -5   64.16    1.53
  -7  -6  -5   68.21    1.34
   7   6   5   83.88    1.67
   7   6   5   85.42    1.77
   7   6   5   73.80    1.38
   7   6   5   77.07    1.45
  -7  -6  -6    0.52    0.41
  -7  -6  -6    0.66    0.48
   7   6   6    1.30    0.50
   7   6   6    1.99    0.56
   7   6   6    1.80    0.44
  -7  -6  -7   49.08    1.25
  -7  -6  -7   55.69    1.59
   7   6   7   73.44    1.72
   7   6   7   70.27    1.72
   7   6   7   63.97    1.43
  -7  -6  -8    9.23    0.87
  -7  -6  -8   11.37    1.08
   7   6   8   14.16    1.08
   7   6   8   14.73    1.16
   7   6   8   13.20    0.99
  -7  -6  -9   18.47    1.04
  -7  -6  -9   18.24    1.27
   7   6   9   27.24    1.34
   7   6   9   26.15    1.44
   7   6   9   23.80    1.16
  -7  -7   7   11.47    0.96
  -7  -7   7   10.76    0.91
   7   7  -7   13.39    1.17
   7   7  -7   16.59    1.32
   7   7  -7   13.34    0.99
  -7  -7   6    7.98    0.87
  -7  -7   6    8.26    1.00
   7   7  -6    9.16    1.08
   7   7  -6    9.83    1.12
   7   7  -6    9.51    0.87
  -7  -7   5    4.70    0.63
  -7  -7   5    8.25    0.88
   7   7  -5    4.81    0.63
   7   7  -5    8.16    1.01
   7   7  -5    7.39    0.74
  -7  -7   4    1.26    0.47
  -7  -7   4    0.98    0.44
   7   7  -4    0.57    0.46
   7   7  -4    1.30    0.53
   7   7  -4    1.28    0.58
   7   7  -4    0.98    0.40
  -7  -7   3   24.49    1.10
  -7  -7   3   27.46    0.91
  -7  -7   3   26.94    1.02
   7   7  -3   30.02    1.19
   7   7  -3   31.41    1.20
   7   7  -3   24.66    0.99
   7   7  -3   29.06    0.91
   7   7  -3   22.50    0.90
  -7  -7   2    0.22    0.38
  -7  -7   2    0.80    0.33
  -7  -7   2    0.44    0.38
   7   7  -2    0.82    0.29
   7   7  -2    0.49    0.42
   7   7  -2    0.61    0.48
   7   7  -2    0.43    0.41
   7   7  -2    0.08    0.28
   7   7  -2    0.42    0.35
  -7  -7   1   64.40    1.10
  -7  -7   1   50.98    1.34
  -7  -7   1   59.22    0.95
  -7  -7   1   57.12    1.08
   7   7  -1   66.46    1.08
   7   7  -1   57.02    1.04
   7   7  -1   61.22    1.49
   7   7  -1   68.72    1.61
   7   7  -1   55.94    0.98
   7   7  -1   61.41    1.15
   7   7  -1   53.45    1.11
  -7  -7   0   11.07    0.77
  -7  -7   0    9.98    0.81
  -7  -7   0   11.01    0.66
   7   7   0   13.47    0.72
   7   7   0   10.25    0.81
   7   7   0   13.09    0.91
   7   7   0    9.85    0.46
   7   7   0   10.48    0.51
   7   7   0   10.86    0.60
   7   7   0    9.30    0.67
  -7  -7  -1   39.75    1.10
  -7  -7  -1   35.84    1.16
  -7  -7  -1   39.46    0.92
   7   7   1   45.49    1.11
   7   7   1   37.17    1.23
   7   7   1   47.81    1.38
   7   7   1   40.18    0.93
   7   7   1   37.80    0.98
  -7  -7  -2    0.34    0.48
  -7  -7  -2    0.02    0.38
  -7  -7  -2   -0.38    0.44
  -7  -7  -2    0.03    0.33
   7   7   2    0.59    0.42
   7   7   2    1.19    0.46
   7   7   2   -0.01    0.27
   7   7   2   -0.42    0.33
  -7  -7  -3    6.21    0.70
  -7  -7  -3    4.10    0.56
  -7  -7  -3    6.88    0.67
   7   7   3    8.17    0.86
   7   7   3    7.57    0.59
   7   7   3    6.03    0.66
  -7  -7  -4   33.54    1.09
  -7  -7  -4   36.85    1.33
  -7  -7  -4   37.05    1.01
   7   7   4   47.63    1.30
   7   7   4   48.44    1.45
   7   7   4   41.57    1.02
   7   7   4   43.87    1.11
  -7  -7  -5    0.73    0.41
  -7  -7  -5    0.52    0.45
   7   7   5    1.19    0.51
   7   7   5    0.62    0.50
   7   7   5    1.32    0.34
  -7  -7  -6   45.30    1.22
  -7  -7  -6   45.81    1.47
   7   7   6   61.35    1.59
   7   7   6   58.14    1.64
   7   7   6   53.18    1.24
  -7  -7  -7    0.45    0.46
  -7  -7  -7    0.08    0.57
   7   7   7    0.16    0.53
   7   7   7    0.02    0.55
   7   7   7    0.92    0.41
  -7  -7  -8   12.75    0.96
  -7  -7  -8   15.05    1.29
   7   7   8   16.62    1.22
   7   7   8   18.09    1.30
   7   7   8   14.46    0.93
  -7  -8   6    5.30    1.17
  -7  -8   6    4.75    0.72
   7   8  -6    4.08    0.72
   7   8  -6    6.92    0.85
   7   8  -6    4.60    0.59
  -7  -8   5    0.07    0.46
  -7  -8   5    0.59    0.53
   7   8  -5   -0.44    0.54
   7   8  -5   -0.12    0.58
   7   8  -5   -0.02    0.37
  -7  -8   4    5.55    0.73
  -7  -8   4    6.92    1.11
   7   8  -4    5.99    0.73
   7   8  -4    7.81    0.83
   7   8  -4    6.97    0.66
  -7  -8   3    0.36    0.41
  -7  -8   3    0.13    0.43
   7   8  -3   -0.17    0.45
   7   8  -3   -0.44    0.50
   7   8  -3    0.23    0.33
  -7  -8   2    0.62    0.41
  -7  -8   2   -0.32    0.39
   7   8  -2   -0.54    0.34
   7   8  -2    0.13    0.44
   7   8  -2    0.07    0.50
   7   8  -2   -0.26    0.28
   7   8  -2    0.59    0.36
  -7  -8   1    1.03    0.52
  -7  -8   1    1.54    0.38
  -7  -8   1    0.93    0.35
   7   8  -1    0.96    0.38
   7   8  -1    0.99    0.46
   7   8  -1    1.32    0.58
   7   8  -1    0.98    0.31
   7   8  -1    0.99    0.36
  -7  -8   0    0.98    0.43
  -7  -8   0    2.17    0.38
   7   8   0    1.65    0.47
   7   8   0    2.02    0.72
   7   8   0    1.51    0.46
   7   8   0    1.92    0.56
   7   8   0    1.56    0.32
   7   8   0    1.69    0.33
   7   8   0    1.59    0.39
  -7  -8  -1    7.88    0.89
  -7  -8  -1    9.18    0.81
  -7  -8  -1    8.79    0.59
   7   8   1   12.32    0.83
   7   8   1    9.16    0.89
   7   8   1   11.92    0.95
   7   8   1   13.12    1.02
   7   8   1    9.65    0.57
   7   8   1    8.46    0.68
  -7  -8  -2    1.22    0.46
  -7  -8  -2    2.39    0.38
   7   8   2    3.08    0.61
   7   8   2    1.03    0.46
   7   8   2    3.26    0.62
   7   8   2    2.14    0.35
   7   8   2    2.53    0.43
  -7  -8  -3    7.24    0.74
  -7  -8  -3    9.16    0.96
  -7  -8  -3    8.09    0.72
   7   8   3    8.64    0.89
   7   8   3   10.12    1.00
   7   8   3    7.90    0.59
   7   8   3    8.66    0.70
  -7  -8  -4    0.06    0.37
  -7  -8  -4    0.69    0.55
   7   8   4    0.41    0.50
   7   8   4    0.50    0.56
   7   8   4   -0.15    0.30
   7   8   4   -0.07    0.58
  -7  -8  -5    1.45    0.50
  -7  -8  -5    2.03    0.63
   7   8   5    2.29    0.59
   7   8   5    1.78    0.61
   7   8   5    1.96    0.39
  -7  -8  -6    1.09    0.52
  -7  -8  -6    0.86    0.61
   7   8   6    1.72    0.66
   7   8   6    1.20    0.59
   7   8   6    1.12    0.37
  -7  -8  -7   -0.85    0.46
  -7  -8  -7    1.65    0.60
   7   8   7   -0.23    0.61
   7   8   7   -0.39    0.67
   7   8   7    0.06    0.40
  -7  -9   4    1.44    0.61
  -7  -9   4    2.66    0.66
   7   9  -4    2.45    0.73
   7   9  -4    3.92    0.76
   7   9  -4    2.10    0.43
  -7  -9   3    3.11    0.61
  -7  -9   3    3.17    0.63
   7   9  -3    2.97    0.66
   7   9  -3    2.88    0.67
   7   9  -3    3.20    0.43
  -7  -9   2    2.38    0.54
  -7  -9   2    4.31    0.57
   7   9  -2    2.86    0.65
   7   9  -2    3.48    0.75
   7   9  -2    3.27    0.41
   7   9  -2    3.24    0.53
  -7  -9   1    2.27    0.53
   7   9  -1    2.27    0.85
   7   9  -1    1.18    0.57
   7   9  -1    2.03    0.67
   7   9  -1    2.59    0.35
   7   9  -1    2.62    0.41
  -7  -9   0   -0.55    0.42
   7   9   0    0.95    0.49
   7   9   0   -0.61    0.42
   7   9   0   -0.04    0.56
   7   9   0   -0.06    0.29
   7   9   0    0.05    0.33
  -7  -9  -1    6.39    0.70
   7   9   1    8.47    0.83
   7   9   1    8.37    0.92
   7   9   1    7.47    0.82
   7   9   1    6.73    0.55
   7   9   1    6.33    0.60
  -7  -9  -2    2.02    0.51
   7   9   2    2.87    0.62
   7   9   2    2.23    0.56
   7   9   2    3.28    0.65
   7   9   2    2.11    0.33
   7   9   2    2.61    0.42
  -7  -9  -3    0.37    0.45
  -7  -9  -3    0.70    0.55
   7   9   3   -0.14    0.54
   7   9   3   -0.26    0.49
   7   9   3   -0.33    0.59
   7   9   3    0.29    0.30
   7   9   3    0.62    0.40
  -7  -9  -4    3.43    0.59
  -7  -9  -4    3.66    0.75
   7   9   4    6.61    0.80
   7   9   4    4.22    0.74
   7   9   4    4.94    0.60
  -7  -9  -5    1.33    0.53
  -7  -9  -5    1.71    0.66
   7   9   5    0.20    0.66
   7   9   5    0.24    0.60
   7   9   5    0.06    0.36
  -7 -10   0    4.58    0.73
   7  10   0    4.24    0.79
   7  10   0    4.50    0.87
   7  10   0    4.39    0.49
   7  10   0    4.58    0.39
  -7 -10  -1    6.38    0.73
   7  10   1    8.82    0.86
   7  10   1    5.13    0.77
   7  10   1    7.00    0.95
   7  10   1    6.73    0.51
   7  10   1    7.52    0.57
   7  10   2    6.82    0.89
  -8   4   3    5.65    0.76
  -8   4   3    6.59    0.92
  -8   4   3    6.17    0.86
   8  -4  -3    6.04    0.84
   8  -4  -3    5.29    0.86
  -8   4   2    1.68    0.60
  -8   4   2    0.45    0.68
  -8   4   2    1.57    0.73
   8  -4  -2    1.13    0.62
   8  -4  -2    1.61    0.69
  -8   4   1    5.88    0.76
  -8   4   1    6.58    0.89
  -8   4   1    5.00    0.73
   8  -4  -1    6.03    0.84
   8  -4  -1    4.47    0.74
  -8   4   0    0.02    0.50
  -8   4   0    0.77    0.67
  -8   4   0   -0.65    0.56
   8  -4   0    0.32    0.58
   8  -4   0   -0.05    0.57
  -8   4  -1   -0.21    0.49
  -8   4  -1    0.39    0.64
  -8   4  -1    0.50    0.64
   8  -4   1    0.75    0.59
   8  -4   1    0.13    0.51
  -8   4  -2   15.62    1.10
  -8   4  -2   13.07    1.24
  -8   4  -2   13.33    1.29
   8  -4   2   12.61    1.07
   8  -4   2    5.34    0.63
  -8   4  -3    1.53    0.59
  -8   4  -3    1.34    0.67
  -8   4  -3    1.79    0.78
   8  -4   3    2.92    0.69
   8  -4   3    3.38    0.90
  -8   4  -4   14.72    1.06
  -8   4  -4   16.25    1.30
  -8   4  -4   13.80    1.38
   8  -4   4   16.45    1.20
  -8   4  -5    0.25    0.72
  -8   4  -5   -0.21    0.70
   8  -4   5   -0.25    0.59
  -8   3   5    0.52    0.62
  -8   3   5   -0.52    0.68
  -8   3   5   -0.51    0.79
   8  -3  -5    0.85    0.63
   8  -3  -5    0.45    0.70
  -8   3   4    5.54    0.72
  -8   3   4    5.92    0.84
  -8   3   4    4.54    0.72
   8  -3  -4    6.54    0.80
   8  -3  -4    6.80    0.89
  -8   3   3    2.81    0.58
  -8   3   3    2.98    0.71
  -8   3   3    1.90    0.69
   8  -3  -3    2.04    0.63
   8  -3  -3    2.85    0.68
  -8   3   2   -0.40    0.49
  -8   3   2    0.19    0.58
  -8   3   2   -0.14    0.59
   8  -3  -2   -0.47    0.51
   8  -3  -2   -0.78    0.51
  -8   3   1   10.84    0.94
  -8   3   1   10.56    1.08
  -8   3   1    8.55    1.07
   8  -3  -1    9.23    0.98
   8  -3  -1    9.52    1.00
  -8   3   0   41.64    1.36
  -8   3   0   44.07    1.44
  -8   3   0   42.92    1.51
   8  -3   0   42.69    1.42
   8  -3   0   41.32    1.31
  -8   3  -1    0.52    0.46
  -8   3  -1    0.41    0.52
   8  -3   1   -0.31    0.51
   8  -3   1    1.05    1.02
  -8   3  -2    0.30    0.45
  -8   3  -2   -0.59    0.50
  -8   3  -2   -0.23    0.60
   8  -3   2   -0.05    0.48
   8  -3   2   -0.07    0.45
  -8   3  -3   11.45    0.94
  -8   3  -3   11.71    1.05
  -8   3  -3   13.06    1.18
   8  -3   3   12.75    1.00
   8  -3   3    8.06    0.84
  -8   3  -4    0.38    0.46
  -8   3  -4    1.67    0.56
  -8   3  -4    1.08    0.59
   8  -3   4    1.68    0.55
   8  -3   4   -0.29    0.44
  -8   3  -5    7.53    0.88
  -8   3  -5    6.99    0.77
  -8   3  -5    7.09    0.90
   8  -3   5    8.17    1.02
  -8   3  -6    1.26    0.53
  -8   3  -6    1.79    0.64
  -8   3  -6    2.08    0.77
   8  -3   6    2.35    0.62
  -8   3  -7    8.49    0.90
  -8   3  -7    8.12    1.04
   8  -3   7   10.72    1.13
  -8   2   6    4.95    0.72
  -8   2   6    3.41    0.76
  -8   2   6    5.87    0.87
   8  -2  -6    4.67    0.75
   8  -2  -6    4.66    0.75
  -8   2   5    0.62    0.53
  -8   2   5    0.30    0.66
  -8   2   5    1.07    0.73
   8  -2  -5   -0.02    0.55
   8  -2  -5    0.02    0.58
  -8   2   4    4.60    0.69
  -8   2   4    4.40    0.74
  -8   2   4    6.00    0.84
   8  -2  -4    5.46    0.70
   8  -2  -4    6.44    0.75
  -8   2   3   -0.11    0.48
  -8   2   3    0.36    0.54
  -8   2   3    0.49    0.61
   8  -2  -3   -0.09    0.50
   8  -2  -3   -0.16    0.50
   8  -2  -3    0.52    0.65
  -8   2   2    3.64    0.59
  -8   2   2    4.72    0.66
  -8   2   2    3.53    0.63
   8  -2  -2    3.58    0.58
   8  -2  -2    3.61    0.64
   8  -2  -2    4.45    0.68
  -8   2   1    3.04    0.55
  -8   2   1    3.95    0.63
  -8   2   1    2.30    0.56
   8  -2  -1    4.10    0.60
   8  -2  -1    4.22    0.63
   8  -2  -1    3.06    0.61
  -8   2   0   28.54    1.13
  -8   2   0   30.85    1.17
  -8   2   0   21.16    1.90
   8  -2   0   28.56    1.17
   8  -2   0   33.01    0.58
   8  -2   0   32.14    1.16
   8  -2   0   31.88    1.37
  -8   2  -1    8.44    0.78
  -8   2  -1    8.95    0.92
   8  -2   1   10.12    0.88
   8  -2   1    9.31    0.48
   8  -2   1    8.48    0.89
   8  -2   1    8.99    1.08
  -8   2  -2    1.27    0.45
  -8   2  -2    1.88    0.88
   8  -2   2    1.96    0.48
   8  -2   2    1.83    0.32
   8  -2   2    1.94    0.47
   8  -2   2    0.96    0.62
  -8   2  -3    3.94    0.58
  -8   2  -3    4.36    0.45
  -8   2  -3    5.23    0.64
  -8   2  -3    4.25    0.72
   8  -2   3    4.40    0.62
   8  -2   3    5.22    0.59
   8  -2   3    5.07    0.81
  -8   2  -4    1.89    0.54
  -8   2  -4    2.42    0.42
  -8   2  -4    2.01    0.86
  -8   2  -4    2.39    0.65
   8  -2   4    2.37    0.52
   8  -2   4    2.46    0.50
   8  -2   4    2.55    0.76
  -8   2  -5    9.77    0.88
  -8   2  -5    8.87    0.83
  -8   2  -5    9.79    1.12
   8  -2   5   10.66    0.94
   8  -2   5    8.60    0.80
   8  -2   5    9.48    0.97
  -8   2  -6    4.30    0.67
  -8   2  -6    4.31    0.61
  -8   2  -6    5.80    0.66
  -8   2  -6    6.04    0.86
   8  -2   6    8.36    0.96
   8  -2   6    7.45    0.76
  -8   2  -7    3.43    0.64
  -8   2  -7    4.33    0.64
  -8   2  -7    2.64    0.63
  -8   2  -7    2.00    0.76
   8  -2   7    4.75    0.68
  -8   2  -8    0.01    0.52
  -8   2  -8   -0.93    0.62
  -8   2  -8    0.22    0.65
  -8   2  -8   -1.30    0.80
  -8   1   7   13.21    1.11
  -8   1   7   12.86    1.33
  -8   1   7    8.57    1.05
   8  -1  -7   12.82    1.07
   8  -1  -7   12.91    1.22
  -8   1   6    0.17    0.51
  -8   1   6    0.28    0.60
  -8   1   6    0.70    0.74
   8  -1  -6   -0.61    0.53
   8  -1  -6    1.01    0.61
  -8   1   5   13.89    1.01
  -8   1   5   13.25    1.17
  -8   1   5   11.28    1.34
   8  -1  -5   15.14    1.01
   8  -1  -5   14.58    0.82
   8  -1  -5   15.71    1.18
   8  -1  -5   15.58    1.37
  -8   1   4    0.28    0.49
  -8   1   4    0.45    0.56
  -8   1   4   -0.19    0.54
   8  -1  -4    1.03    0.50
   8  -1  -4    0.61    0.35
   8  -1  -4    0.24    0.51
   8  -1  -4    0.78    0.66
  -8   1   3    3.73    0.62
  -8   1   3    3.17    0.60
  -8   1   3    3.87    0.91
  -8   1   3    4.76    0.72
   8  -1  -3    4.72    0.60
   8  -1  -3    5.98    0.56
   8  -1  -3    4.42    0.62
   8  -1  -3    4.96    0.78
   8  -1  -3    3.66    0.74
  -8   1   2   17.76    0.99
  -8   1   2   17.84    1.02
  -8   1   2   19.51    1.34
  -8   1   2   16.10    1.11
   8  -1  -2   19.54    0.99
   8  -1  -2   19.38    0.66
   8  -1  -2   16.11    0.66
   8  -1  -2   21.43    1.07
   8  -1  -2   17.08    1.15
   8  -1  -2   16.24    1.17
  -8   1   1    1.53    0.45
  -8   1   1    2.23    0.56
  -8   1   1    2.40    0.68
  -8   1   1    2.15    0.63
   8  -1  -1    1.79    0.50
   8  -1  -1    1.64    0.32
   8  -1  -1    1.40    0.34
   8  -1  -1    2.65    0.53
   8  -1  -1    2.02    0.64
   8  -1  -1    0.92    0.61
  -8   1   0   13.07    0.86
  -8   1   0   13.89    0.87
  -8   1   0   17.64    1.25
  -8   1   0   13.20    1.09
   8  -1   0   15.73    0.92
   8  -1   0   15.12    0.61
   8  -1   0   10.71    0.59
   8  -1   0   14.82    0.93
   8  -1   0   12.04    0.94
   8  -1   0   15.07    1.10
   8  -1   0   12.60    1.15
  -8   1  -1    0.30    0.39
  -8   1  -1   -0.16    0.39
  -8   1  -1    0.29    0.49
  -8   1  -1   -0.91    0.53
  -8   1  -1    0.04    0.52
   8  -1   1   -0.25    0.36
   8  -1   1    0.22    0.29
   8  -1   1   -0.06    0.33
   8  -1   1    0.47    0.43
   8  -1   1   -0.07    0.47
   8  -1   1   -0.25    0.62
  -8   1  -2    2.23    0.49
  -8   1  -2    2.42    0.38
  -8   1  -2    3.52    0.52
  -8   1  -2    2.84    0.55
  -8   1  -2    2.73    0.63
  -8   1  -2    2.77    0.65
   8  -1   2    2.67    0.49
   8  -1   2    2.34    0.43
   8  -1   2    3.84    0.53
   8  -1   2    2.65    0.62
   8  -1   2    2.14    0.61
  -8   1  -3   -0.39    0.36
  -8   1  -3    0.00    0.36
  -8   1  -3   -0.31    0.48
  -8   1  -3   -0.74    0.36
  -8   1  -3   -0.60    0.42
  -8   1  -3    0.85    0.67
  -8   1  -3   -0.81    0.53
   8  -1   3    0.13    0.38
   8  -1   3    0.30    0.42
   8  -1   3   -0.44    0.39
   8  -1   3   -0.06    0.58
   8  -1   3    0.65    0.62
  -8   1  -4    1.32    0.46
  -8   1  -4    1.06    0.41
  -8   1  -4    1.52    0.59
  -8   1  -4    1.27    0.42
  -8   1  -4    1.80    0.51
  -8   1  -4    1.34    0.68
  -8   1  -4    2.06    0.62
   8  -1   4    1.63    0.52
   8  -1   4    0.85    0.44
   8  -1   4    1.90    0.48
   8  -1   4    1.32    0.66
   8  -1   4    1.36    0.69
  -8   1  -5   14.64    0.95
  -8   1  -5   16.09    0.91
  -8   1  -5   19.95    1.06
  -8   1  -5   17.23    0.86
  -8   1  -5   20.58    1.02
  -8   1  -5   25.35    2.13
  -8   1  -5   18.33    1.17
   8  -1   5   19.05    1.04
   8  -1   5   14.54    0.99
   8  -1   5   18.30    0.90
   8  -1   5   17.99    1.24
   8  -1   5   17.15    1.57
  -8   1  -6    2.10    0.52
  -8   1  -6    2.38    0.54
  -8   1  -6    3.42    0.53
  -8   1  -6    2.65    0.71
   8  -1   6    3.57    0.56
   8  -1   6    0.98    0.63
   8  -1   6    2.40    0.51
   8  -1   6    2.59    0.77
  -8   1  -7    0.91    0.51
  -8   1  -7    1.87    0.55
  -8   1  -7    1.13    0.50
   8  -1   7    2.22    0.62
   8  -1   7    1.40    0.48
   8  -1   7    1.58    0.74
  -8   1  -8    0.74    0.52
  -8   1  -8    0.10    0.58
  -8   1  -8    1.20    0.56
  -8   1  -8   -0.01    0.77
   8  -1   8    1.00    0.55
  -8   0   7    1.79    0.53
  -8   0   7    1.16    0.60
  -8   0   7    1.56    0.66
  -8   0   7    0.41    0.79
   8   0  -7    1.06    0.58
   8   0  -7   -0.06    0.76
  -8   0   6    5.29    0.67
  -8   0   6    4.88    0.70
  -8   0   6    7.85    0.97
   8   0  -6    6.78    0.67
   8   0  -6    8.75    0.86
   8   0  -6    5.68    0.73
   8   0  -6    7.16    0.94
  -8   0   5    8.80    0.97
  -8   0   5    8.85    0.89
  -8   0   5    7.87    0.79
  -8   0   5    9.22    1.24
  -8   0   5   10.15    1.17
   8   0  -5    8.26    0.84
   8   0  -5    9.62    0.75
   8   0  -5    9.34    0.96
   8   0  -5    9.57    0.97
  -8   0   4   33.51    1.18
  -8   0   4   32.59    1.19
  -8   0   4   31.23    1.22
  -8   0   4   32.83    1.57
  -8   0   4   33.35    1.39
   8   0  -4   34.56    1.08
   8   0  -4   38.13    0.98
   8   0  -4   27.32    0.95
   8   0  -4   38.97    1.37
   8   0  -4   37.35    1.43
   8   0  -4   29.39    1.45
  -8   0   3   14.80    1.10
  -8   0   3   13.32    0.92
  -8   0   3   12.37    0.93
  -8   0   3   14.68    1.21
  -8   0   3   13.76    1.09
   8   0  -3   14.24    0.83
   8   0  -3   15.22    0.72
   8   0  -3   10.97    0.75
   8   0  -3   16.88    1.01
   8   0  -3   15.11    1.12
   8   0  -3   12.84    1.17
  -8   0   2    1.56    0.49
  -8   0   2    2.85    0.50
  -8   0   2    1.60    0.59
  -8   0   2    1.03    0.44
   8   0  -2    2.12    0.47
   8   0  -2    1.83    0.37
   8   0  -2    1.76    0.39
   8   0  -2    2.26    0.51
   8   0  -2    1.21    0.49
   8   0  -2    1.96    0.51
   8   0  -2    1.10    0.61
  -8   0   1   16.34    0.94
  -8   0   1   17.45    0.90
  -8   0   1   18.34    1.15
  -8   0   1   15.10    1.04
   8   0  -1   17.79    0.89
   8   0  -1   18.54    0.72
   8   0  -1   13.97    0.71
   8   0  -1   20.68    0.99
   8   0  -1   13.49    0.85
   8   0  -1   18.50    1.09
   8   0  -1   14.54    1.06
  -8   0   0    1.35    0.43
  -8   0   0    1.30    0.41
  -8   0   0    2.06    0.53
  -8   0   0    1.11    0.57
   8   0   0    1.24    0.45
   8   0   0    1.38    0.32
   8   0   0    0.94    0.33
   8   0   0    1.33    0.45
   8   0   0    1.72    0.46
   8   0   0    1.81    0.51
   8   0   0    2.10    0.61
  -8   0  -1   15.76    0.87
  -8   0  -1   17.16    0.79
  -8   0  -1   17.82    0.82
  -8   0  -1   18.25    1.08
  -8   0  -1   17.39    1.08
   8   0   1   18.76    0.89
   8   0   1   17.69    0.72
   8   0   1   15.97    0.74
   8   0   1   20.06    0.96
   8   0   1   19.24    1.10
   8   0   1   16.58    1.07
  -8   0  -2    9.02    0.76
  -8   0  -2    7.83    0.65
  -8   0  -2    9.66    0.67
  -8   0  -2    9.14    0.74
  -8   0  -2   11.93    1.44
  -8   0  -2   10.56    0.97
   8   0   2   10.12    0.77
   8   0   2    8.00    0.67
   8   0   2    9.62    0.80
   8   0   2   10.91    0.97
   8   0   2    8.90    0.96
  -8   0  -3   10.75    0.80
  -8   0  -3   10.84    0.76
  -8   0  -3   10.83    0.99
  -8   0  -3   11.34    0.68
  -8   0  -3   11.22    0.71
  -8   0  -3   13.08    1.14
  -8   0  -3    9.69    0.93
   8   0   3   11.90    0.84
   8   0   3   10.04    0.79
   8   0   3   12.41    0.82
   8   0   3   12.62    1.05
   8   0   3   12.36    1.01
  -8   0  -4    7.39    0.74
  -8   0  -4    5.91    0.74
  -8   0  -4    8.73    0.96
  -8   0  -4    5.14    0.59
  -8   0  -4    7.24    0.70
  -8   0  -4    7.98    0.86
  -8   0  -4    7.13    0.75
   8   0   4    7.62    0.78
   8   0   4    6.40    0.61
   8   0   4    8.87    0.78
   8   0   4    7.81    0.82
   8   0   4    7.54    0.83
  -8   0  -5   -0.64    0.36
  -8   0  -5    0.03    0.42
  -8   0  -5   -0.34    0.51
  -8   0  -5    0.12    0.33
  -8   0  -5   -0.22    0.40
  -8   0  -5    1.20    0.65
  -8   0  -5   -0.37    0.52
   8   0   5    0.85    0.45
   8   0   5   -0.26    0.50
   8   0   5   -0.12    0.39
   8   0   5   -0.25    0.54
   8   0   5   -0.21    0.58
  -8   0  -6    2.25    0.54
  -8   0  -6    2.53    0.54
  -8   0  -6    2.76    0.42
  -8   0  -6    3.07    0.61
  -8   0  -6    1.87    0.57
   8   0   6    4.06    0.63
   8   0   6    3.10    0.55
   8   0   6    2.50    0.57
   8   0   6    2.42    0.65
   8   0   6    3.34    0.79
  -8   0  -7   -0.02    0.44
  -8   0  -7    0.79    0.52
  -8   0  -7    0.11    0.40
  -8   0  -7    0.46    0.65
   8   0   7    0.08    0.44
   8   0   7    0.16    0.44
   8   0   7   -0.38    0.65
  -8   0  -8    5.15    0.73
  -8   0  -8    3.84    0.65
  -8   0  -8    4.56    0.68
  -8   0  -8    5.35    0.81
   8   0   8    5.24    0.74
   8   0   8    7.27    0.88
   8   0   8    4.71    0.84
  -8   0  -9    2.04    0.62
  -8   0  -9    0.98    0.68
  -8   0  -9    2.29    0.94
   8   0   9    1.96    0.56
  -8  -1   8    0.48    0.59
  -8  -1   8    1.82    0.72
   8   1  -8    0.23    0.65
   8   1  -8    1.10    0.65
   8   1  -8    1.65    0.90
  -8  -1   7    3.91    0.68
  -8  -1   7    4.28    0.72
   8   1  -7    4.57    0.65
   8   1  -7    4.27    0.70
   8   1  -7    3.42    0.76
  -8  -1   6    1.27    0.51
  -8  -1   6    1.94    0.57
  -8  -1   6    1.29    0.72
   8   1  -6    1.49    0.45
   8   1  -6    2.32    0.62
   8   1  -6    1.47    0.58
  -8  -1   5    2.07    0.75
  -8  -1   5    4.01    0.61
  -8  -1   5    2.96    0.57
  -8  -1   5    3.34    0.70
   8   1  -5    4.51    0.49
   8   1  -5    3.97    0.53
   8   1  -5    2.68    0.59
   8   1  -5    4.52    0.67
   8   1  -5    3.91    0.68
  -8  -1   4   11.37    0.84
  -8  -1   4    9.99    0.86
  -8  -1   4    8.82    0.84
  -8  -1   4   11.93    1.26
  -8  -1   4   11.08    1.12
   8   1  -4   10.63    0.72
   8   1  -4   12.57    0.77
   8   1  -4    7.70    0.88
   8   1  -4   11.49    0.91
   8   1  -4   11.39    1.06
   8   1  -4    9.54    1.15
  -8  -1   3    1.10    0.47
  -8  -1   3   -0.15    0.37
  -8  -1   3   -0.40    0.38
  -8  -1   3    0.39    0.64
  -8  -1   3    0.33    0.56
   8   1  -3    0.37    0.38
   8   1  -3   -0.18    0.35
   8   1  -3    0.21    0.41
   8   1  -3    0.28    0.42
   8   1  -3    0.57    0.47
   8   1  -3    0.35    0.48
   8   1  -3    1.35    0.60
  -8  -1   2   13.97    0.87
  -8  -1   2   12.74    0.87
  -8  -1   2   10.96    0.78
  -8  -1   2   11.80    1.03
  -8  -1   2   14.05    0.98
   8   1  -2   14.80    0.79
   8   1  -2   14.87    0.76
   8   1  -2   11.86    0.77
   8   1  -2   15.15    0.89
   8   1  -2   12.28    0.79
   8   1  -2   14.66    0.98
   8   1  -2   14.03    1.09
  -8  -1   1    4.18    0.57
  -8  -1   1    4.85    0.61
  -8  -1   1    3.69    0.48
  -8  -1   1    3.36    0.55
  -8  -1   1    2.74    0.49
   8   1  -1    3.71    0.47
   8   1  -1    4.59    0.47
   8   1  -1    3.74    0.46
   8   1  -1    4.79    0.60
   8   1  -1    3.60    0.48
   8   1  -1    4.62    0.66
   8   1  -1    3.21    0.59
  -8  -1   0   16.79    0.91
  -8  -1   0   16.75    0.92
  -8  -1   0   16.34    0.73
  -8  -1   0   20.31    1.11
  -8  -1   0   15.80    1.02
   8   1   0   19.68    0.84
   8   1   0   18.54    0.76
   8   1   0   14.40    0.76
   8   1   0   20.99    0.97
   8   1   0   14.59    0.76
   8   1   0   18.52    1.00
   8   1   0   17.12    1.00
  -8  -1  -1    0.12    0.37
  -8  -1  -1    0.60    0.33
  -8  -1  -1    0.66    0.34
  -8  -1  -1    0.90    0.46
  -8  -1  -1    0.41    0.48
   8   1   1    0.61    0.38
   8   1   1   -0.17    0.31
   8   1   1    0.23    0.33
   8   1   1    1.05    0.70
   8   1   1    0.92    0.47
   8   1   1   -0.19    0.43
  -8  -1  -2   12.17    0.81
  -8  -1  -2   11.92    0.75
  -8  -1  -2   13.44    0.62
  -8  -1  -2   13.77    0.65
  -8  -1  -2   14.09    1.04
  -8  -1  -2   14.54    0.97
   8   1   2   12.97    0.75
   8   1   2   16.87    0.88
   8   1   2   13.95    0.98
   8   1   2   12.16    0.97
  -8  -1  -3   22.04    0.98
  -8  -1  -3   21.58    0.91
  -8  -1  -3   22.06    0.67
  -8  -1  -3   24.80    0.72
  -8  -1  -3   24.67    1.20
  -8  -1  -3   22.87    1.06
   8   1   3   24.51    0.95
   8   1   3   19.18    0.87
   8   1   3   27.76    1.04
   8   1   3   24.09    1.12
   8   1   3   23.29    1.12
  -8  -1  -4    0.23    0.37
  -8  -1  -4   -0.22    0.37
  -8  -1  -4   -0.10    0.27
  -8  -1  -4   -0.45    0.55
  -8  -1  -4    0.01    0.43
   8   1   4    0.54    0.39
   8   1   4    0.47    0.45
   8   1   4    0.05    0.40
   8   1   4   -0.32    0.47
   8   1   4    0.08    0.52
  -8  -1  -5   17.16    0.95
  -8  -1  -5   18.98    0.62
  -8  -1  -5   17.41    0.86
  -8  -1  -5   22.62    1.26
  -8  -1  -5   18.42    1.09
   8   1   5   19.59    0.95
   8   1   5   24.24    0.98
   8   1   5   19.79    1.14
   8   1   5   19.66    1.20
  -8  -1  -6    1.56    0.47
  -8  -1  -6    1.11    0.50
  -8  -1  -6    1.95    0.33
  -8  -1  -6    2.04    0.63
  -8  -1  -6    1.58    0.57
   8   1   6    2.10    0.49
   8   1   6    2.69    0.52
   8   1   6    1.96    0.64
   8   1   6    2.27    0.69
  -8  -1  -7   18.08    1.02
  -8  -1  -7   18.43    1.12
  -8  -1  -7   18.28    0.67
  -8  -1  -7   19.89    1.25
   8   1   7   20.88    1.08
   8   1   7   23.03    1.05
   8   1   7   21.45    1.31
  -8  -1  -8    8.37    0.88
  -8  -1  -8   10.53    1.08
  -8  -1  -8   10.97    1.23
   8   1   8   12.21    1.00
   8   1   8   13.75    1.00
   8   1   8    9.78    1.20
  -8  -1  -9    0.96    0.55
  -8  -1  -9    0.34    0.61
   8   1   9    1.06    0.49
   8   1   9    1.96    0.65
   8   1   9    2.08    0.82
  -8  -2   8    0.06    0.53
  -8  -2   8   -1.12    0.65
   8   2  -8   -0.28    0.61
   8   2  -8    1.07    0.68
   8   2  -8    0.51    0.79
  -8  -2   7    1.30    0.54
  -8  -2   7    0.46    0.56
   8   2  -7    1.53    0.58
   8   2  -7    0.16    0.57
   8   2  -7    0.62    0.72
  -8  -2   6   -0.21    0.43
  -8  -2   6    0.43    0.49
  -8  -2   6    0.19    0.74
   8   2  -6   -0.22    0.41
   8   2  -6   -0.05    0.49
   8   2  -6   -0.01    0.61
  -8  -2   5    2.31    0.52
  -8  -2   5    2.30    0.53
  -8  -2   5    2.43    0.66
   8   2  -5    2.58    0.40
   8   2  -5    2.13    0.48
   8   2  -5    2.43    0.51
   8   2  -5    3.25    0.62
  -8  -2   4    0.59    0.44
  -8  -2   4    0.22    0.40
  -8  -2   4    0.62    0.41
  -8  -2   4    0.21    0.51
   8   2  -4   -0.25    0.33
   8   2  -4    0.35    0.41
   8   2  -4    0.38    0.50
   8   2  -4   -0.35    0.38
   8   2  -4    0.12    0.48
   8   2  -4    0.43    0.54
   8   2  -4   -0.02    0.58
  -8  -2   3    8.84    0.74
  -8  -2   3    8.61    0.78
  -8  -2   3    7.39    0.70
  -8  -2   3   10.36    1.00
   8   2  -3    9.18    0.65
   8   2  -3   10.32    0.76
   8   2  -3    8.40    0.83
   8   2  -3   11.86    0.88
   8   2  -3    6.96    0.75
   8   2  -3    9.93    0.92
   8   2  -3    9.95    0.99
  -8  -2   2    1.36    0.45
  -8  -2   2    1.61    0.46
  -8  -2   2    0.74    0.35
  -8  -2   2    1.23    0.54
  -8  -2   2    1.71    0.52
   8   2  -2    0.97    0.36
   8   2  -2    1.26    0.38
   8   2  -2    0.85    0.43
   8   2  -2    0.58    0.43
   8   2  -2    0.61    0.37
   8   2  -2    0.75    0.39
   8   2  -2    0.76    0.55
  -8  -2   1    3.74    0.51
  -8  -2   1    3.53    0.57
  -8  -2   1    2.61    0.38
  -8  -2   1    3.39    0.58
  -8  -2   1    2.98    0.56
   8   2  -1    3.90    0.45
   8   2  -1    4.15    0.48
   8   2  -1    2.88    0.46
   8   2  -1    4.81    0.59
   8   2  -1    5.01    0.58
   8   2  -1    4.21    0.58
  -8  -2   0   15.03    0.83
  -8  -2   0   15.00    0.87
  -8  -2   0   12.00    0.60
  -8  -2   0   16.35    1.03
  -8  -2   0   15.56    0.98
   8   2   0   16.81    0.76
   8   2   0   16.33    0.77
   8   2   0   13.27    0.80
   8   2   0   19.54    0.95
   8   2   0   13.95    0.63
   8   2   0   16.69    0.92
   8   2   0   15.07    1.02
  -8  -2  -1   12.66    0.83
  -8  -2  -1   14.32    0.86
  -8  -2  -1   10.66    0.53
  -8  -2  -1   14.33    0.95
  -8  -2  -1   15.03    0.97
   8   2   1   14.39    0.75
   8   2   1   12.92    0.75
   8   2   1   13.61    0.82
   8   2   1   19.21    0.92
   8   2   1   16.04    0.97
   8   2   1   13.36    0.95
  -8  -2  -2   49.99    1.33
  -8  -2  -2   49.04    1.20
  -8  -2  -2   41.39    0.70
  -8  -2  -2   56.15    0.79
  -8  -2  -2   58.06    1.44
  -8  -2  -2   53.38    1.39
   8   2   2   60.17    1.31
   8   2   2   47.35    1.15
   8   2   2   60.39    1.45
   8   2   2   48.08    1.65
  -8  -2  -3    6.60    0.73
  -8  -2  -3    7.25    0.79
  -8  -2  -3    4.36    0.39
  -8  -2  -3    8.02    0.41
  -8  -2  -3    6.61    0.66
  -8  -2  -3    3.59    0.46
   8   2   3    7.45    0.68
   8   2   3    7.22    0.73
   8   2   3    7.76    0.89
   8   2   3    5.89    0.65
  -8  -2  -4   13.55    0.89
  -8  -2  -4   16.85    1.17
  -8  -2  -4   13.77    0.97
   8   2   4   15.26    0.87
   8   2   4   16.92    0.96
   8   2   4   14.91    0.97
   8   2   4   15.09    1.06
  -8  -2  -5    1.33    0.42
  -8  -2  -5    1.51    0.49
  -8  -2  -5    1.11    0.55
   8   2   5    2.29    0.46
   8   2   5    1.75    0.54
   8   2   5    1.60    0.52
   8   2   5    1.63    0.62
  -8  -2  -6   27.86    1.11
  -8  -2  -6   27.80    1.15
  -8  -2  -6   29.52    1.26
   8   2   6   36.58    1.24
   8   2   6   26.07    1.69
  -8  -2  -7   18.95    1.05
  -8  -2  -7   18.46    1.09
  -8  -2  -7   18.48    1.19
   8   2   7   23.75    1.10
   8   2   7   24.88    1.10
   8   2   7   21.13    1.21
  -8  -2  -8    2.35    0.58
  -8  -2  -8    2.30    0.58
   8   2   8    3.40    0.60
   8   2   8    2.88    0.57
   8   2   8    1.41    0.59
  -8  -2  -9   11.46    1.01
  -8  -2  -9   14.98    1.21
   8   2   9   14.27    1.11
   8   2   9   14.88    1.16
   8   2   9   12.25    1.31
  -8  -3   8   -0.15    0.55
  -8  -3   8    0.33    0.65
   8   3  -8   -0.14    0.61
   8   3  -8   -1.04    0.69
   8   3  -8    0.34    0.82
  -8  -3   7    3.02    0.63
  -8  -3   7    3.92    0.69
   8   3  -7    4.42    0.67
   8   3  -7    4.45    0.75
   8   3  -7    4.25    0.83
  -8  -3   6    1.31    0.54
  -8  -3   6    1.58    0.54
   8   3  -6    1.20    0.51
   8   3  -6    1.78    0.57
   8   3  -6    2.62    0.66
  -8  -3   5    2.70    0.57
  -8  -3   5    1.97    0.50
  -8  -3   5    3.15    0.62
   8   3  -5    3.26    0.36
   8   3  -5    2.75    0.59
   8   3  -5    3.02    0.57
   8   3  -5    2.71    0.64
  -8  -3   4    0.43    0.36
  -8  -3   4    0.36    0.40
  -8  -3   4    0.05    0.41
  -8  -3   4    0.80    0.47
   8   3  -4   -0.01    0.29
   8   3  -4    0.35    0.43
   8   3  -4    0.67    0.44
   8   3  -4    1.19    0.52
   8   3  -4    0.65    0.44
  -8  -3   3    2.30    0.42
  -8  -3   3    6.08    0.73
  -8  -3   3    3.86    0.49
  -8  -3   3    4.79    0.62
   8   3  -3    5.60    0.57
   8   3  -3    6.48    0.64
   8   3  -3    6.89    0.80
   8   3  -3    6.17    0.59
   8   3  -3    7.36    0.84
   8   3  -3    5.76    0.67
  -8  -3   2    0.65    0.39
  -8  -3   2    0.39    0.40
  -8  -3   2    0.00    0.31
  -8  -3   2    0.36    0.49
   8   3  -2    0.71    0.33
   8   3  -2    0.83    0.43
   8   3  -2    0.09    0.68
   8   3  -2    1.05    0.49
   8   3  -2    0.01    0.33
   8   3  -2    0.79    0.43
   8   3  -2    0.07    0.47
  -8  -3   1    5.75    0.66
  -8  -3   1    7.45    0.73
  -8  -3   1    2.92    0.38
   8   3  -1    8.60    0.64
   8   3  -1    7.41    0.69
   8   3  -1    5.75    0.59
   8   3  -1    8.20    0.78
   8   3  -1    7.98    0.57
   8   3  -1    8.38    0.92
   8   3  -1    6.98    0.81
  -8  -3   0    5.65    0.57
  -8  -3   0    4.59    0.57
  -8  -3   0    3.38    0.42
   8   3   0    7.15    0.63
   8   3   0    6.32    0.58
   8   3   0    6.14    0.74
   8   3   0    7.87    0.79
   8   3   0    6.09    0.47
   8   3   0    7.49    0.75
   8   3   0    6.25    0.65
  -8  -3  -1   15.35    0.83
  -8  -3  -1   16.03    0.91
  -8  -3  -1   15.33    0.84
  -8  -3  -1   14.57    0.44
  -8  -3  -1   16.08    0.48
   8   3   1   18.10    0.78
   8   3   1   17.70    0.86
   8   3   1   16.53    0.91
   8   3   1   20.51    0.97
   8   3   1   18.40    0.95
   8   3   1   15.17    0.93
  -8  -3  -2   14.58    0.86
  -8  -3  -2   12.92    1.43
   8   3   2   17.53    0.81
   8   3   2   18.81    0.93
   8   3   2   17.44    0.96
   8   3   2   15.56    0.93
  -8  -3  -3    2.28    0.51
  -8  -3  -3    2.28    0.48
   8   3   3    3.22    0.58
   8   3   3    2.24    0.48
   8   3   3    3.02    0.56
  -8  -3  -4    6.55    0.76
  -8  -3  -4    6.85    0.78
  -8  -3  -4    7.13    0.83
   8   3   4    8.84    0.76
   8   3   4    8.73    0.83
   8   3   4    8.78    0.81
   8   3   4    8.73    0.95
  -8  -3  -5    5.44    0.63
  -8  -3  -5    6.41    0.67
  -8  -3  -5    5.00    0.57
   8   3   5    8.07    0.79
   8   3   5    8.16    0.83
   8   3   5    7.85    0.86
   8   3   5    5.56    0.66
  -8  -3  -6   49.20    1.38
  -8  -3  -6   51.95    1.46
  -8  -3  -6   50.52    1.46
   8   3   6   65.54    1.53
   8   3   6   67.42    1.52
   8   3   6   58.32    1.55
  -8  -3  -7    5.77    0.69
  -8  -3  -7    5.27    0.71
   8   3   7    8.73    0.90
   8   3   7    7.14    0.73
   8   3   7    5.98    0.67
  -8  -3  -8   13.01    0.99
  -8  -3  -8   14.88    1.16
   8   3   8   18.29    1.10
   8   3   8   19.55    1.17
   8   3   8   17.68    1.23
  -8  -3  -9   -0.44    0.53
  -8  -3  -9    1.41    0.63
   8   3   9    1.07    0.55
   8   3   9    0.94    0.66
   8   3   9    1.57    0.68
  -8  -4   8   12.45    1.11
  -8  -4   8   10.91    1.29
   8   4  -8   16.77    1.35
   8   4  -8   19.01    1.39
   8   4  -8   15.35    1.58
  -8  -4   7    0.98    0.55
  -8  -4   7    0.32    0.60
   8   4  -7   -0.13    0.60
   8   4  -7   -0.25    0.56
   8   4  -7   -0.04    0.69
  -8  -4   6   13.09    0.99
  -8  -4   6    8.79    0.97
   8   4  -6   17.04    1.07
   8   4  -6   18.00    1.16
   8   4  -6   15.47    1.17
  -8  -4   5    2.81    0.58
  -8  -4   5   -0.07    0.48
   8   4  -5    2.87    0.61
   8   4  -5    2.02    0.57
   8   4  -5    2.67    0.63
  -8  -4   4   33.05    1.22
  -8  -4   4   17.27    0.87
  -8  -4   4   33.94    1.25
   8   4  -4   34.97    0.67
   8   4  -4   39.56    1.30
   8   4  -4   40.86    1.35
   8   4  -4   31.92    1.13
   8   4  -4   37.09    1.26
  -8  -4   3    2.75    0.40
  -8  -4   3    3.61    0.58
  -8  -4   3    2.68    0.45
  -8  -4   3    3.70    0.61
   8   4  -3    4.15    0.39
   8   4  -3    4.59    0.59
   8   4  -3    3.74    0.56
   8   4  -3    2.30    0.51
   8   4  -3    2.96    0.46
   8   4  -3    3.17    0.56
  -8  -4   2   16.36    0.72
  -8  -4   2   18.80    0.95
  -8  -4   2   17.04    0.68
  -8  -4   2   19.62    1.02
   8   4  -2   21.94    0.72
   8   4  -2   23.43    1.01
   8   4  -2   24.31    1.08
   8   4  -2   19.78    0.77
   8   4  -2   19.76    0.95
   8   4  -2   19.64    1.04
  -8  -4   1    9.89    0.69
  -8  -4   1   15.69    0.91
  -8  -4   1   15.68    0.57
  -8  -4   1   16.69    0.93
   8   4  -1   20.78    0.74
   8   4  -1   17.01    0.90
   8   4  -1   21.81    1.03
   8   4  -1   15.63    0.61
   8   4  -1   17.33    0.89
   8   4  -1   15.59    0.90
  -8  -4   0    2.14    0.45
  -8  -4   0    4.21    0.57
  -8  -4   0    5.29    0.37
  -8  -4   0    4.09    0.53
   8   4   0    4.95    0.57
   8   4   0    4.61    0.53
   8   4   0    6.06    0.75
   8   4   0    4.25    0.41
   8   4   0    5.59    0.60
   8   4   0    3.89    0.49
  -8  -4  -1   14.44    0.82
  -8  -4  -1   20.14    0.97
  -8  -4  -1   19.28    0.94
  -8  -4  -1   20.16    1.00
   8   4   1   23.54    0.85
   8   4   1   19.81    0.94
   8   4   1   26.10    1.05
   8   4   1   22.63    0.98
   8   4   1   19.36    0.95
  -8  -4  -2    0.82    0.48
  -8  -4  -2    1.22    0.46
  -8  -4  -2    1.31    0.45
  -8  -4  -2    0.76    0.41
   8   4   2    1.30    0.40
   8   4   2    1.59    0.44
   8   4   2    0.91    0.43
   8   4   2    1.44    0.45
  -8  -4  -3   14.99    0.87
  -8  -4  -3   15.40    0.96
  -8  -4  -3   15.76    0.93
   8   4   3   20.00    0.90
   8   4   3   20.37    1.02
   8   4   3   15.94    0.93
   8   4   3   17.22    0.95
  -8  -4  -4    1.81    0.50
  -8  -4  -4    1.52    0.49
  -8  -4  -4    0.88    0.48
   8   4   4    1.61    0.47
   8   4   4    1.58    0.45
   8   4   4    1.38    0.44
   8   4   4    1.68    0.49
  -8  -4  -5    7.79    0.82
  -8  -4  -5    7.48    0.91
  -8  -4  -5    8.05    0.85
   8   4   5    9.80    0.84
   8   4   5   10.84    0.92
   8   4   5    9.58    0.85
  -8  -4  -6    3.13    0.56
  -8  -4  -6    3.11    0.62
   8   4   6    6.46    0.79
   8   4   6    4.70    0.64
   8   4   6    4.11    0.63
  -8  -4  -7    0.40    0.48
  -8  -4  -7    0.07    0.54
   8   4   7    1.00    0.47
   8   4   7    0.32    0.53
   8   4   7   -0.05    0.52
  -8  -4  -8   -0.08    0.51
  -8  -4  -8    0.17    0.56
   8   4   8    0.95    0.51
   8   4   8    1.10    0.61
   8   4   8    0.78    0.60
  -8  -4  -9    7.09    0.76
  -8  -4  -9    5.73    0.83
   8   4   9   10.25    1.05
   8   4   9   11.44    1.26
   8   4   9   11.23    1.24
  -8  -5   7   20.49    1.21
  -8  -5   7    9.31    0.88
   8   5  -7   25.79    1.39
   8   5  -7   26.73    1.45
   8   5  -7   22.37    1.34
  -8  -5   6    4.38    0.66
  -8  -5   6    2.27    0.60
   8   5  -6    5.24    0.74
   8   5  -6    5.55    0.78
   8   5  -6    4.17    0.72
  -8  -5   5   19.73    1.07
  -8  -5   5   12.81    0.99
   8   5  -5   21.40    1.18
   8   5  -5   21.99    1.17
   8   5  -5   20.25    1.11
  -8  -5   4   31.74    1.01
   8   5  -4   41.84    1.35
   8   5  -4   44.95    1.43
   8   5  -4   33.23    1.13
   8   5  -4   39.55    1.30
  -8  -5   3   13.20    0.88
  -8  -5   3   12.95    0.74
  -8  -5   3   11.15    1.10
   8   5  -3   14.06    0.54
   8   5  -3   14.40    0.98
   8   5  -3   14.95    1.00
   8   5  -3   13.41    0.83
   8   5  -3   13.65    0.89
  -8  -5   2   57.25    0.99
  -8  -5   2   54.25    1.44
  -8  -5   2   58.13    1.03
  -8  -5   2   57.12    1.37
   8   5  -2   65.74    1.01
   8   5  -2   64.97    1.51
   8   5  -2   73.75    1.67
   8   5  -2   56.78    1.06
   8   5  -2   61.54    1.39
   8   5  -2   53.29    1.40
  -8  -5   1    0.02    0.39
  -8  -5   1   -0.01    0.36
  -8  -5   1    0.27    0.27
  -8  -5   1   -0.42    0.39
   8   5  -1   -0.20    0.30
   8   5  -1    0.05    0.38
   8   5  -1    0.52    0.42
   8   5  -1   -0.13    0.51
   8   5  -1   -0.57    0.32
   8   5  -1   -0.06    0.38
  -8  -5   0   30.47    0.97
  -8  -5   0   32.32    1.13
  -8  -5   0   37.88    0.62
  -8  -5   0   34.40    1.12
   8   5   0   42.08    1.00
   8   5   0   36.36    1.17
   8   5   0   42.73    1.30
   8   5   0   34.74    0.55
   8   5   0   37.72    1.11
   8   5   0   32.22    1.08
  -8  -5  -1    1.82    0.50
  -8  -5  -1    2.16    0.48
  -8  -5  -1    2.30    0.51
   8   5   1    2.85    0.46
   8   5   1    1.54    0.45
   8   5   1    2.04    0.48
   8   5   1    2.96    0.48
   8   5   1    1.88    0.42
  -8  -5  -2   37.80    1.39
  -8  -5  -2   40.86    1.24
  -8  -5  -2   41.00    1.30
  -8  -5  -2   43.89    1.23
   8   5   2   54.01    1.24
   8   5   2   54.23    1.43
   8   5   2   47.98    1.24
   8   5   2   44.92    1.21
  -8  -5  -3    9.86    0.79
  -8  -5  -3    9.13    0.88
  -8  -5  -3    6.78    0.80
   8   5   3   13.85    0.93
   8   5   3   10.37    0.80
   8   5   3    9.67    0.82
  -8  -5  -4   15.13    0.91
  -8  -5  -4   16.16    1.04
  -8  -5  -4   18.04    0.94
   8   5   4   19.31    0.97
   8   5   4   20.36    1.08
   8   5   4   16.91    0.93
  -8  -5  -5    3.79    0.58
  -8  -5  -5    4.54    0.59
   8   5   5    4.85    0.63
   8   5   5    4.27    0.61
   8   5   5    3.16    0.54
  -8  -5  -6   11.00    0.90
  -8  -5  -6   13.25    1.10
   8   5   6   15.05    1.02
   8   5   6   17.71    1.15
   8   5   6   14.44    0.97
  -8  -5  -7    7.00    0.85
  -8  -5  -7    8.91    1.08
   8   5   7    7.06    0.76
   8   5   7   10.90    1.09
   8   5   7    9.15    0.94
  -8  -5  -8    1.15    0.58
  -8  -5  -8    2.67    0.74
   8   5   8    2.55    0.69
   8   5   8    3.14    0.76
   8   5   8    2.27    0.56
  -8  -5  -9    2.76    0.70
  -8  -5  -9    6.02    0.82
   8   5   9    9.85    0.97
   8   5   9    9.17    1.00
   8   5   9   10.40    1.21
  -8  -6   7    1.40    0.72
   8   6  -7    1.46    0.70
   8   6  -7    1.42    0.73
   8   6  -7    2.63    0.74
  -8  -6   6   11.19    1.03
  -8  -6   6   10.34    1.04
   8   6  -6   16.29    1.21
   8   6  -6   16.31    1.32
   8   6  -6   12.80    1.06
  -8  -6   5    5.23    0.68
  -8  -6   5    6.04    0.66
   8   6  -5    9.26    1.07
   8   6  -5    9.06    1.05
   8   6  -5    7.90    0.77
  -8  -6   4    7.08    0.81
  -8  -6   4    8.38    0.79
   8   6  -4    6.70    0.76
   8   6  -4    8.79    0.98
   8   6  -4    7.46    0.71
  -8  -6   3   16.41    1.00
  -8  -6   3   16.69    0.82
   8   6  -3   20.76    1.11
   8   6  -3   22.66    1.18
   8   6  -3   19.78    0.97
  -8  -6   2   -0.18    0.38
  -8  -6   2    0.05    0.32
   8   6  -2    0.40    0.30
   8   6  -2    0.40    0.46
   8   6  -2    0.28    0.46
   8   6  -2    0.89    0.40
  -8  -6   1   25.60    0.85
  -8  -6   1   25.96    1.09
  -8  -6   1   26.73    0.67
  -8  -6   1   23.98    1.58
   8   6  -1   30.01    0.83
   8   6  -1   26.62    1.11
   8   6  -1   31.61    1.22
   8   6  -1   26.51    0.97
   8   6  -1   21.92    1.33
  -8  -6   0    0.15    0.41
  -8  -6   0    0.82    0.45
  -8  -6   0   -0.50    0.42
   8   6   0    0.18    0.36
   8   6   0    0.64    0.38
   8   6   0   -0.20    0.42
   8   6   0   -0.17    0.31
   8   6   0   -0.07    0.37
  -8  -6  -1   27.60    1.01
  -8  -6  -1   30.02    1.14
  -8  -6  -1   32.42    1.08
   8   6   1   41.00    1.09
   8   6   1   31.53    1.18
   8   6   1   38.35    1.32
   8   6   1   34.66    1.03
   8   6   1   31.49    1.07
  -8  -6  -2   10.35    0.81
  -8  -6  -2   10.38    0.95
  -8  -6  -2   12.70    0.99
   8   6   2   14.41    0.83
   8   6   2   16.28    0.97
   8   6   2   13.52    0.78
   8   6   2   12.21    0.84
  -8  -6  -3    3.61    0.56
  -8  -6  -3    2.78    0.55
   8   6   3    4.89    0.61
   8   6   3    4.41    0.66
   8   6   3    4.30    0.52
  -8  -6  -4   20.24    0.96
  -8  -6  -4   19.96    1.11
   8   6   4   26.75    1.13
   8   6   4   28.15    1.22
   8   6   4   22.53    0.97
  -8  -6  -5    1.78    0.51
  -8  -6  -5    2.05    0.58
   8   6   5    2.87    0.58
   8   6   5    2.48    0.61
   8   6   5    1.55    0.45
  -8  -6  -6   14.70    0.93
  -8  -6  -6   16.26    1.16
   8   6   6   23.68    1.20
   8   6   6   23.80    1.32
   8   6   6   21.24    1.01
  -8  -6  -7    0.54    0.50
  -8  -6  -7    0.85    0.62
   8   6   7    0.12    0.58
   8   6   7    1.89    0.67
   8   6   7    1.44    0.51
  -8  -6  -8    6.40    0.75
  -8  -6  -8    7.32    0.91
   8   6   8   11.56    1.18
   8   6   8    9.94    1.02
   8   6   8    9.84    1.05
  -8  -7   6    3.92    0.73
   8   7  -6    3.76    0.76
   8   7  -6    3.35    0.79
   8   7  -6    4.55    0.68
  -8  -7   5    6.49    0.78
  -8  -7   5    8.43    1.01
   8   7  -5    6.66    0.83
   8   7  -5   11.13    1.21
   8   7  -5    7.09    0.69
  -8  -7   4   17.39    1.07
  -8  -7   4   18.67    0.97
   8   7  -4   13.97    1.13
   8   7  -4   18.52    1.24
   8   7  -4   18.02    0.96
  -8  -7   3    0.61    0.47
  -8  -7   3    1.63    0.46
   8   7  -3    0.86    0.50
   8   7  -3    1.47    0.56
   8   7  -3    1.23    0.48
  -8  -7   2   20.75    1.06
  -8  -7   2   23.21    0.80
   8   7  -2   23.27    1.20
   8   7  -2   27.54    1.23
   8   7  -2   23.41    0.95
  -8  -7   1    0.12    0.47
  -8  -7   1    0.22    0.31
   8   7  -1    0.20    0.38
   8   7  -1   -0.11    0.45
   8   7  -1    0.12    0.46
   8   7  -1    0.06    0.34
  -8  -7   0   23.48    1.08
  -8  -7   0   21.32    1.05
   8   7   0   29.39    0.94
   8   7   0   23.65    1.12
   8   7   0   28.08    1.26
   8   7   0   22.62    0.89
  -8  -7  -1    7.07    0.85
  -8  -7  -1    7.22    0.83
   8   7   1    9.35    0.77
   8   7   1    7.97    0.86
   8   7   1    9.25    0.94
   8   7   1    7.99    0.67
  -8  -7  -2   10.38    0.84
  -8  -7  -2   11.90    1.01
   8   7   2   12.16    1.03
   8   7   2    9.76    0.94
   8   7   2   14.63    1.06
   8   7   2   13.02    0.79
  -8  -7  -3    7.99    0.81
  -8  -7  -3    6.89    0.76
   8   7   3   11.01    0.95
   8   7   3   10.75    1.00
   8   7   3    8.64    0.73
  -8  -7  -4    0.59    0.48
  -8  -7  -4    0.60    0.49
   8   7   4    0.75    0.52
   8   7   4    1.04    0.57
   8   7   4    0.03    0.39
  -8  -7  -5   15.80    0.99
  -8  -7  -5   17.90    1.21
   8   7   5   19.43    1.17
   8   7   5   22.22    1.30
   8   7   5   17.59    0.92
  -8  -7  -6    1.96    0.54
  -8  -7  -6    1.25    0.60
   8   7   6    0.91    0.63
   8   7   6    2.85    0.77
   8   7   6    1.38    0.46
  -8  -7  -7    9.99    1.01
  -8  -7  -7   11.01    1.19
   8   7   7   14.65    1.27
   8   7   7   17.20    1.37
   8   7   7   14.17    0.97
  -8  -8   4    0.50    0.54
   8   8  -4   -0.03    0.62
   8   8  -4    1.71    0.73
   8   8  -4    0.42    0.44
  -8  -8   3    1.94    0.57
   8   8  -3    2.46    0.66
   8   8  -3    3.67    0.73
   8   8  -3    2.79    0.47
  -8  -8   2    0.84    0.50
   8   8  -2   -0.29    0.52
   8   8  -2    0.41    0.60
   8   8  -2    0.18    0.35
  -8  -8   1    3.94    0.63
   8   8  -1    3.86    0.71
   8   8  -1    4.03    0.72
   8   8  -1    3.67    0.45
  -8  -8   0    2.43    0.58
   8   8   0    3.15    0.54
   8   8   0    2.56    0.63
   8   8   0    2.94    0.68
   8   8   0    2.81    0.41
  -8  -8  -1    0.25    0.44
   8   8   1    0.68    0.54
   8   8   1    0.55    0.52
   8   8   1    0.18    0.51
   8   8   1    0.14    0.31
  -8  -8  -2    9.84    0.92
   8   8   2   13.37    0.99
   8   8   2    9.92    1.01
   8   8   2   12.78    1.14
   8   8   2   12.98    0.73
  -8  -8  -3    0.53    0.48
  -8  -8  -3   -0.80    0.45
   8   8   3    0.02    0.53
   8   8   3    0.29    0.55
   8   8   3    1.20    0.37
  -8  -8  -4    5.16    0.66
  -8  -8  -4    4.73    0.77
   8   8   4    6.37    0.84
   8   8   4    4.60    0.73
   8   8   4    6.16    0.68
  -8  -8  -5    2.55    0.58
  -8  -8  -5    3.06    0.69
   8   8   5    3.81    0.75
   8   8   5    3.38    0.74
   8   8   5    2.58    0.50
   8   8   6    1.60    0.73
   8   8   6    1.61    0.74
   8   9  -2    5.72    0.80
  -8  -9   1    1.51    0.51
   8   9  -1    1.26    0.66
   8   9  -1    2.77    0.79
   8   9  -1    2.37    0.46
  -8  -9   0    0.43    0.53
   8   9   0    1.10    0.64
   8   9   0    0.93    0.65
   8   9   0    1.30    0.38
  -8  -9  -1   -0.10    0.49
   8   9   1   -0.86    0.59
   8   9   1    0.19    0.51
   8   9   1    0.14    0.59
   8   9   1   -0.26    0.34
  -8  -9  -2    1.80    0.58
   8   9   2    2.20    0.71
   8   9   2    2.41    0.67
   8   9   2    2.02    0.70
   8   9   2    1.55    0.40
  -8  -9  -3   -0.16    0.51
   8   9   3    0.60    0.67
   8   9   3   -0.53    0.74
   8   9   3    1.28    0.66
   8   9   3    0.91    0.44
  -9   3   0   12.70    1.15
  -9   3   0   12.11    1.39
  -9   3   0   13.07    1.47
   9  -3   0   15.55    1.33
   9  -3   0   14.17    1.30
  -9   3  -1   22.73    1.30
  -9   3  -1   20.66    1.47
  -9   3  -1   21.89    1.64
   9  -3   1   21.32    1.35
   9  -3   1   22.58    1.32
  -9   3  -2   10.96    1.11
  -9   3  -2   16.13    1.40
  -9   3  -2   13.85    1.52
   9  -3   2   12.95    1.25
   9  -3   2   10.52    1.17
  -9   2   3    0.07    0.55
  -9   2   3    0.89    0.75
  -9   2   3    0.54    0.69
   9  -2  -3    1.45    0.68
   9  -2  -3    0.97    0.68
  -9   2   2    3.15    0.66
  -9   2   2    2.25    0.78
  -9   2   2    3.85    0.87
   9  -2  -2    2.94    0.74
   9  -2  -2    3.54    0.77
  -9   2   1    4.73    0.74
  -9   2   1    6.23    0.80
  -9   2   1    5.94    0.88
   9  -2  -1    6.47    0.85
   9  -2  -1    4.05    0.74
  -9   2   0    0.19    0.49
  -9   2   0    0.20    0.65
  -9   2   0    0.35    0.68
   9  -2   0    0.71    0.63
   9  -2   0    0.64    0.60
  -9   2  -1   14.51    1.10
  -9   2  -1   15.59    1.22
  -9   2  -1   13.79    1.45
   9  -2   1   15.94    1.15
   9  -2   1   15.36    1.12
  -9   2  -2    0.80    0.54
  -9   2  -2    0.43    0.62
  -9   2  -2    0.02    0.73
   9  -2   2    0.36    0.56
   9  -2   2   -0.16    0.58
  -9   2  -3    9.84    0.92
  -9   2  -3   15.83    1.19
  -9   2  -3    9.78    1.03
   9  -2   3   10.63    1.03
   9  -2   3   11.11    1.05
  -9   2  -4    0.62    0.58
  -9   2  -4   -1.10    0.57
  -9   2  -4    1.01    0.80
   9  -2   4    0.62    0.56
   9  -2   4    0.74    0.58
  -9   2  -5    1.82    0.66
  -9   2  -5    2.58    0.88
   9  -2   5    3.05    0.62
  -9   1   4    0.52    0.58
  -9   1   4    1.29    0.75
  -9   1   4    1.81    0.87
   9  -1  -4    1.83    0.64
   9  -1  -4    0.92    0.66
  -9   1   3    2.99    0.64
  -9   1   3    2.91    0.72
  -9   1   3    2.34    0.72
   9  -1  -3    2.93    0.66
   9  -1  -3    3.58    0.76
  -9   1   2    0.17    0.49
  -9   1   2    0.50    0.64
  -9   1   2   -0.38    0.68
   9  -1  -2    0.34    0.58
   9  -1  -2    0.64    0.58
   9  -1  -2    0.15    0.61
  -9   1   1   -0.25    0.48
  -9   1   1    0.61    0.57
   9  -1  -1   -0.20    0.54
   9  -1  -1    0.32    0.56
   9  -1  -1   -0.69    0.67
  -9   1   0    0.01    0.46
  -9   1   0    0.82    0.56
  -9   1   0   -0.41    0.73
   9  -1   0    0.84    0.55
   9  -1   0    0.65    0.58
   9  -1   0    0.36    0.68
  -9   1  -1    1.26    0.50
  -9   1  -1    0.74    0.57
  -9   1  -1    0.30    0.69
   9  -1   1    0.86    0.53
   9  -1   1    0.86    0.45
   9  -1   1    1.21    0.59
   9  -1   1    2.18    0.70
  -9   1  -2    1.21    0.50
  -9   1  -2    0.94    0.53
  -9   1  -2    1.23    0.77
   9  -1   2    1.46    0.58
   9  -1   2    1.19    0.39
   9  -1   2    2.08    0.59
   9  -1   2    3.05    0.81
  -9   1  -3    0.66    0.52
  -9   1  -3    0.06    0.48
  -9   1  -3    0.36    0.51
   9  -1   3    0.86    0.52
   9  -1   3    1.09    0.51
   9  -1   3    0.22    0.77
  -9   1  -4    0.91    0.50
  -9   1  -4    0.91    0.52
  -9   1  -4    1.95    0.56
  -9   1  -4    0.37    0.75
   9  -1   4    1.69    0.57
   9  -1   4    1.10    0.65
   9  -1   4    1.49    0.83
  -9   1  -5    0.11    0.47
  -9   1  -5    1.26    0.55
  -9   1  -5   -0.13    0.50
  -9   1  -5   -0.20    0.77
   9  -1   5    0.92    0.56
   9  -1   5    0.48    0.54
  -9   1  -6   -0.24    0.47
  -9   1  -6    1.23    0.66
  -9   1  -6   -0.32    0.75
   9  -1   6    0.65    0.61
   9  -1   6    0.90    0.59
  -9   0   5    0.15    0.52
  -9   0   5    1.07    0.67
  -9   0   5    2.78    1.29
   9   0  -5    1.35    0.59
   9   0  -5    0.58    0.64
  -9   0   4    5.88    0.75
  -9   0   4    4.93    0.76
  -9   0   4    8.86    1.05
   9   0  -4    6.95    0.76
   9   0  -4    6.79    0.87
   9   0  -4    8.41    1.05
  -9   0   3    0.89    0.53
  -9   0   3    0.16    0.60
  -9   0   3   -0.06    0.63
   9   0  -3   -0.27    0.52
   9   0  -3    0.32    0.42
   9   0  -3   -0.02    0.55
   9   0  -3    1.26    0.68
  -9   0   2    1.95    0.58
  -9   0   2    1.60    0.59
  -9   0   2    1.83    0.66
   9   0  -2    2.95    0.60
   9   0  -2    2.91    0.49
   9   0  -2    2.13    0.65
   9   0  -2    1.75    0.55
  -9   0   1    3.79    0.63
  -9   0   1    6.84    1.26
  -9   0   1    5.16    0.82
   9   0  -1    4.91    0.67
   9   0  -1    5.45    0.54
   9   0  -1    5.93    0.70
   9   0  -1    4.86    0.78
  -9   0   0    0.42    0.43
  -9   0   0    0.58    0.49
  -9   0   0   -0.29    0.83
  -9   0   0   -0.51    0.61
   9   0   0    0.35    0.49
   9   0   0    0.75    0.42
   9   0   0    0.09    0.49
   9   0   0   -0.99    0.57
   9   0   0    0.93    0.64
   9   0   0    0.33    0.78
  -9   0  -1    2.05    0.53
  -9   0  -1    2.63    0.54
  -9   0  -1    2.67    0.63
  -9   0  -1    3.47    0.90
  -9   0  -1    1.81    0.69
   9   0   1    2.66    0.57
   9   0   1    2.49    0.46
   9   0   1    2.50    0.58
   9   0   1    1.97    0.59
   9   0   1    2.01    0.69
  -9   0  -2    0.63    0.46
  -9   0  -2    0.60    0.45
  -9   0  -2    0.46    0.82
  -9   0  -2    0.24    0.65
   9   0   2    1.09    0.49
   9   0   2   -0.62    0.38
   9   0   2    0.20    0.50
   9   0   2    0.47    0.67
   9   0   2    0.37    0.82
  -9   0  -3    2.29    0.58
  -9   0  -3    2.44    0.50
  -9   0  -3    2.41    0.47
  -9   0  -3    2.47    1.24
  -9   0  -3    2.90    0.70
   9   0   3    3.36    0.62
   9   0   3    2.60    0.83
   9   0   3    2.89    0.61
   9   0   3    3.45    0.81
  -9   0  -4    0.44    0.46
  -9   0  -4    1.16    0.55
  -9   0  -4    0.47    0.46
  -9   0  -4   -0.41    0.62
   9   0   4    0.02    0.51
   9   0   4    0.46    0.54
   9   0   4    0.64    0.74
  -9   0  -5    0.61    0.48
  -9   0  -5   -0.07    0.52
  -9   0  -5    1.21    0.48
  -9   0  -5    0.79    0.72
   9   0   5    0.22    0.51
   9   0   5   -0.06    0.54
   9   0   5   -0.47    0.72
  -9   0  -6    0.53    0.49
  -9   0  -6    0.81    0.61
  -9   0  -6    0.98    0.71
   9   0   6   -0.73    0.52
   9   0   6    0.63    1.05
   9   0   6    0.99    0.80
  -9   0  -7    0.54    0.49
  -9   0  -7    1.26    0.67
   9   0   7    0.41    0.61
   9   0   7    1.68    0.96
  -9  -1   6    0.54    0.57
  -9  -1   6    0.88    0.69
   9   1  -6    0.04    0.57
   9   1  -6    0.10    0.65
   9   1  -6   -0.47    0.86
  -9  -1   5    9.65    1.01
  -9  -1   5    6.52    0.77
   9   1  -5   11.03    1.22
   9   1  -5   12.57    1.00
   9   1  -5   12.47    1.15
   9   1  -5   11.63    1.45
  -9  -1   4    4.33    0.66
  -9  -1   4    4.22    0.66
  -9  -1   4    4.54    0.85
   9   1  -4    5.75    0.64
   9   1  -4    6.53    0.66
   9   1  -4    5.38    0.71
   9   1  -4    6.24    0.88
  -9  -1   3    7.64    0.93
  -9  -1   3    8.08    0.93
  -9  -1   3    6.66    0.79
   9   1  -3    8.30    0.90
   9   1  -3    9.58    0.87
   9   1  -3   11.69    1.06
  -9  -1   2    7.41    0.90
  -9  -1   2    6.69    0.69
  -9  -1   2    9.99    1.18
   9   1  -2    7.10    0.82
   9   1  -2    7.40    0.82
   9   1  -2    5.57    0.62
   9   1  -2    8.90    0.93
   9   1  -2    6.19    0.72
   9   1  -2    6.20    0.76
  -9  -1   1    2.88    0.54
  -9  -1   1    2.33    0.53
  -9  -1   1    2.42    0.56
   9   1  -1    3.12    0.56
   9   1  -1    3.84    0.53
   9   1  -1    2.83    0.55
   9   1  -1    3.13    0.60
   9   1  -1    2.11    0.58
   9   1  -1    2.49    0.64
  -9  -1   0   17.54    1.01
  -9  -1   0   15.58    0.88
  -9  -1   0   16.29    1.26
   9   1   0   16.18    0.96
   9   1   0   18.49    0.89
   9   1   0   15.32    0.94
   9   1   0   19.31    1.12
   9   1   0   18.01    1.12
   9   1   0   16.44    1.17
  -9  -1  -1    5.23    0.63
  -9  -1  -1    5.77    0.55
  -9  -1  -1    6.05    0.61
  -9  -1  -1    5.31    0.79
   9   1   1    8.46    0.86
   9   1   1    6.36    0.73
   9   1   1    5.26    0.58
   9   1   1    7.93    0.95
   9   1   1    5.77    0.75
  -9  -1  -2    6.34    0.76
  -9  -1  -2    5.86    0.61
  -9  -1  -2    5.71    0.52
  -9  -1  -2    4.47    0.76
   9   1   2    7.04    0.85
   9   1   2    5.90    0.61
   9   1   2    5.22    0.60
   9   1   2    7.06    0.75
   9   1   2    7.37    0.83
  -9  -1  -3    1.64    0.53
  -9  -1  -3    1.84    0.51
  -9  -1  -3    1.95    0.41
  -9  -1  -3    2.31    0.70
   9   1   3    2.45    0.55
   9   1   3    1.36    0.53
   9   1   3    1.27    0.55
   9   1   3    2.16    0.68
  -9  -1  -4   15.45    1.01
  -9  -1  -4   16.50    1.05
  -9  -1  -4   15.99    0.71
  -9  -1  -4   15.15    1.20
   9   1   4   16.88    1.04
   9   1   4   18.55    1.09
   9   1   4   18.88    1.31
  -9  -1  -5    2.86    0.63
  -9  -1  -5    3.09    0.59
  -9  -1  -5    3.19    0.72
   9   1   5    3.50    0.64
   9   1   5    4.14    0.66
  -9  -1  -6    4.73    0.70
  -9  -1  -6    6.16    0.76
  -9  -1  -6    6.19    0.95
   9   1   6    6.74    0.79
   9   1   6    7.53    0.77
   9   1   6    5.90    0.87
  -9  -1  -7    9.74    0.99
  -9  -1  -7    9.81    0.91
   9   1   7   11.45    1.04
   9   1   7   13.87    1.16
   9   1   7    9.41    1.08
   9   1   8    4.00    0.66
   9   1   8    2.15    0.93
  -9  -2   6   15.08    1.13
  -9  -2   6   15.70    1.25
   9   2  -6   15.64    1.16
   9   2  -6   16.08    1.22
   9   2  -6   16.95    1.56
  -9  -2   5    1.34    0.52
  -9  -2   5    1.75    0.63
   9   2  -5    1.25    0.57
   9   2  -5    1.20    0.62
   9   2  -5    0.89    0.73
  -9  -2   4   16.96    1.08
  -9  -2   4   15.79    1.06
   9   2  -4   18.03    0.89
   9   2  -4   19.19    1.10
   9   2  -4   21.65    1.21
   9   2  -4   18.86    1.31
  -9  -2   3    5.27    0.66
  -9  -2   3    5.55    0.64
  -9  -2   3    6.67    0.86
   9   2  -3    7.91    0.77
   9   2  -3    6.34    0.67
   9   2  -3    8.11    0.97
   9   2  -3    5.24    0.75
   9   2  -3    5.33    0.71
  -9  -2   2   17.48    1.07
  -9  -2   2   21.42    1.09
  -9  -2   2   16.37    0.89
  -9  -2   2   21.13    1.30
   9   2  -2   21.91    0.96
   9   2  -2   25.74    1.23
   9   2  -2   18.21    1.13
   9   2  -2   20.02    1.20
  -9  -2   1   21.28    1.07
  -9  -2   1   17.34    0.81
  -9  -2   1   22.97    1.25
   9   2  -1   22.35    0.96
   9   2  -1   24.36    1.04
   9   2  -1   19.46    1.19
   9   2  -1   26.48    1.21
   9   2  -1   23.28    1.36
   9   2  -1   23.72    1.22
  -9  -2   0    0.71    0.48
  -9  -2   0   -0.05    0.35
  -9  -2   0   -0.22    0.62
   9   2   0   -0.18    0.60
   9   2   0   -0.63    0.40
   9   2   0    0.16    0.54
   9   2   0    0.60    0.50
   9   2   0    0.36    0.51
  -9  -2  -1   84.37    1.83
  -9  -2  -1   67.57    1.05
  -9  -2  -1   90.48    1.66
  -9  -2  -1   86.30    1.91
   9   2   1   96.55    1.70
   9   2   1  110.16    1.97
   9   2   1   94.00    1.97
  -9  -2  -2    0.03    0.46
  -9  -2  -2   -0.25    0.44
  -9  -2  -2    0.19    0.30
  -9  -2  -2    0.73    0.64
   9   2   2    0.79    0.45
   9   2   2   -0.11    0.45
   9   2   2   -0.32    0.57
  -9  -2  -3   43.34    1.39
  -9  -2  -3   44.10    1.33
  -9  -2  -3   34.44    0.66
  -9  -2  -3   45.10    1.54
   9   2   3   55.67    1.44
   9   2   3   59.81    1.54
   9   2   3   51.91    1.60
  -9  -2  -4   12.92    0.99
  -9  -2  -4   12.14    1.05
  -9  -2  -4   12.54    1.11
   9   2   4   13.44    0.98
   9   2   4   15.86    1.05
   9   2   4   13.50    1.19
  -9  -2  -5   17.29    1.08
  -9  -2  -5   17.19    1.13
  -9  -2  -5   16.48    1.36
   9   2   5   20.05    1.08
   9   2   5   22.59    1.17
   9   2   5   18.51    1.26
  -9  -2  -6   21.40    1.18
  -9  -2  -6   20.33    1.26
   9   2   6   24.11    1.20
   9   2   6   28.12    1.26
   9   2   6   21.83    1.35
  -9  -2  -7   12.03    1.05
  -9  -2  -7   12.24    1.24
   9   2   7   15.16    1.12
   9   2   7   15.76    1.21
   9   2   7   14.01    1.40
  -9  -2  -8   22.37    1.27
  -9  -2  -8   21.40    1.43
   9   2   8   24.05    1.31
   9   2   8   26.72    1.41
   9   2   8   22.84    1.62
  -9  -3   6    0.19    0.52
  -9  -3   6    0.52    0.64
   9   3  -6    0.20    0.64
   9   3  -6    0.72    0.63
   9   3  -6    0.69    0.81
  -9  -3   5   11.22    1.03
  -9  -3   5    8.42    0.80
   9   3  -5   12.75    1.14
   9   3  -5   12.79    1.10
   9   3  -5   11.73    1.29
  -9  -3   4   10.57    0.93
  -9  -3   4    7.68    0.73
   9   3  -4   12.32    1.05
   9   3  -4   12.00    1.06
   9   3  -4   12.53    1.21
  -9  -3   3   22.45    1.13
  -9  -3   3   15.33    0.92
   9   3  -3   25.13    0.90
   9   3  -3   26.80    1.16
   9   3  -3   29.76    1.31
   9   3  -3   26.15    1.28
  -9  -3   2   11.76    0.92
  -9  -3   2   16.34    1.06
  -9  -3   2   10.02    0.78
  -9  -3   2   17.14    1.64
   9   3  -2   20.13    0.88
   9   3  -2   19.80    1.05
   9   3  -2   22.40    1.18
   9   3  -2   17.17    1.12
  -9  -3   1    1.77    0.56
  -9  -3   1    2.29    0.55
  -9  -3   1    0.21    0.37
  -9  -3   1    1.26    0.54
   9   3  -1    3.35    0.49
   9   3  -1    1.64    0.50
   9   3  -1    1.51    0.50
   9   3  -1    1.21    0.46
  -9  -3   0   36.27    1.32
  -9  -3   0   25.76    0.73
  -9  -3   0   38.87    1.41
   9   3   0   42.11    1.15
   9   3   0   42.77    1.26
   9   3   0   48.39    1.46
   9   3   0   42.31    1.40
  -9  -3  -1    1.10    0.49
  -9  -3  -1    0.41    0.26
  -9  -3  -1    0.46    0.60
   9   3   1    0.56    0.43
   9   3   1    0.46    0.51
   9   3   1    0.98    0.54
  -9  -3  -2   45.75    1.42
  -9  -3  -2   45.55    1.35
  -9  -3  -2   49.22    1.58
   9   3   2   55.13    1.37
   9   3   2   60.55    1.56
   9   3   2   52.02    1.56
  -9  -3  -3   12.17    0.94
  -9  -3  -3   13.74    1.01
  -9  -3  -3   15.52    1.16
   9   3   3   16.30    0.95
   9   3   3   19.20    1.10
   9   3   3   15.95    1.11
  -9  -3  -4   29.74    1.21
  -9  -3  -4   29.69    1.27
   9   3   4   35.61    1.25
   9   3   4   39.97    1.38
   9   3   4   34.75    1.40
  -9  -3  -5   11.80    0.99
  -9  -3  -5   11.24    1.09
   9   3   5   12.60    0.99
   9   3   5   13.42    1.10
   9   3   5   12.78    1.11
  -9  -3  -6    1.24    0.55
  -9  -3  -6    1.73    0.66
   9   3   6    1.99    0.57
   9   3   6    1.48    0.61
   9   3   6    1.12    0.70
  -9  -3  -7   77.72    1.83
  -9  -3  -7   78.08    1.96
   9   3   7  101.48    2.09
   9   3   7  104.74    2.06
   9   3   7   91.68    2.12
  -9  -3  -8   -0.29    0.57
  -9  -3  -8    0.28    0.69
   9   3   8    0.29    0.60
   9   3   8    0.42    0.68
   9   3   8    0.24    0.73
  -9  -4   6    4.59    0.71
  -9  -4   6    4.08    0.75
   9   4  -6    5.40    0.81
   9   4  -6    5.67    0.82
   9   4  -6    5.79    0.86
  -9  -4   5    0.20    0.52
  -9  -4   5    0.43    0.60
   9   4  -5    0.32    0.63
   9   4  -5    1.05    0.58
   9   4  -5    1.07    0.71
  -9  -4   4    0.38    0.49
  -9  -4   4    0.10    0.51
   9   4  -4    0.44    0.57
   9   4  -4    0.46    0.54
   9   4  -4    1.05    0.58
  -9  -4   3   74.50    1.78
  -9  -4   3   53.52    1.22
   9   4  -3   82.12    1.36
   9   4  -3   90.61    1.86
   9   4  -3   98.91    2.03
   9   4  -3   87.38    1.87
  -9  -4   2   16.10    0.98
  -9  -4   2   14.18    0.82
   9   4  -2   19.42    0.80
   9   4  -2   18.95    1.11
   9   4  -2   22.23    1.21
   9   4  -2   17.70    1.11
  -9  -4   1    5.10    0.64
  -9  -4   1   11.44    0.91
  -9  -4   1   10.59    0.63
   9   4  -1   15.33    0.81
   9   4  -1   16.25    1.03
   9   4  -1   16.43    1.06
   9   4  -1   12.44    1.01
  -9  -4   0   -0.27    0.51
  -9  -4   0   -0.33    0.46
  -9  -4   0    0.13    0.25
   9   4   0   -0.09    0.39
   9   4   0    0.80    0.46
   9   4   0    0.34    0.49
   9   4   0   -0.10    0.44
  -9  -4  -1   24.14    1.11
   9   4   1   29.05    1.04
   9   4   1   28.19    1.13
   9   4   1   31.70    1.28
   9   4   1   29.35    1.23
  -9  -4  -2    5.27    0.68
  -9  -4  -2    5.39    0.68
   9   4   2    7.67    0.77
   9   4   2    7.52    0.94
   9   4   2    6.66    0.72
  -9  -4  -3   14.66    0.99
  -9  -4  -3   13.99    1.08
   9   4   3   18.70    1.03
   9   4   3   20.72    1.17
   9   4   3   17.68    1.11
  -9  -4  -4   28.35    1.24
  -9  -4  -4   31.42    1.35
   9   4   4   38.36    1.29
   9   4   4   40.13    1.42
   9   4   4   32.67    1.35
  -9  -4  -5   32.79    1.30
  -9  -4  -5   32.57    1.40
   9   4   5   40.47    1.37
   9   4   5   42.96    1.48
   9   4   5   37.96    1.42
  -9  -4  -6   -0.21    0.46
  -9  -4  -6    0.13    0.59
   9   4   6    0.34    0.55
   9   4   6   -0.04    0.57
   9   4   6   -0.53    0.59
  -9  -4  -7   -0.14    0.54
  -9  -4  -7    1.08    0.70
   9   4   7   -0.22    0.57
   9   4   7    0.53    0.61
   9   4   7    1.21    0.68
  -9  -5   5    4.80    0.74
  -9  -5   5    4.40    0.67
   9   5  -5   10.47    1.25
   9   5  -5    4.82    0.84
   9   5  -5    5.82    0.84
  -9  -5   4    0.15    0.50
  -9  -5   4   -0.26    0.48
   9   5  -4    0.47    0.61
   9   5  -4    0.53    0.59
   9   5  -4    0.67    0.59
  -9  -5   3   15.86    1.04
  -9  -5   3   17.15    0.88
   9   5  -3   19.51    1.21
   9   5  -3   22.83    1.24
   9   5  -3   18.15    1.11
  -9  -5   2    1.69    0.57
  -9  -5   2    1.84    0.41
   9   5  -2    3.43    0.44
   9   5  -2    2.35    0.60
   9   5  -2    2.27    0.63
   9   5  -2    2.16    0.57
  -9  -5   1    0.15    0.41
  -9  -5   1    0.69    0.37
   9   5  -1    0.05    0.39
   9   5  -1    0.21    0.46
   9   5  -1    0.06    0.50
   9   5  -1    0.29    0.46
  -9  -5   0    8.41    0.96
  -9  -5   0   10.55    0.88
   9   5   0   12.53    0.82
   9   5   0   13.51    1.01
   9   5   0   14.82    1.03
   9   5   0   12.51    0.95
  -9  -5  -1    0.85    0.50
   9   5   1    0.32    0.44
   9   5   1    1.45    0.50
   9   5   1    1.51    0.55
   9   5   1    1.19    0.42
  -9  -5  -2    1.23    0.48
  -9  -5  -2    1.31    0.55
   9   5   2    1.33    0.52
   9   5   2    0.88    0.51
   9   5   2    2.62    0.62
   9   5   2    2.74    0.57
  -9  -5  -3    5.46    0.68
  -9  -5  -3    6.62    0.77
   9   5   3    7.61    0.87
   9   5   3    7.12    0.79
   9   5   3    5.58    0.66
  -9  -5  -4    2.38    0.62
  -9  -5  -4    2.44    0.62
   9   5   4    3.34    0.60
   9   5   4    4.22    0.73
   9   5   4    2.58    0.59
  -9  -5  -5    8.51    0.89
  -9  -5  -5    8.07    0.88
   9   5   5   10.70    1.00
   9   5   5   13.12    1.11
   9   5   5    8.24    0.79
  -9  -5  -6    2.18    0.60
  -9  -5  -6    3.32    0.72
   9   5   6    3.69    0.74
   9   5   6    3.56    0.77
   9   5   6    2.61    0.66
  -9  -5  -7   10.55    1.02
  -9  -5  -7    7.92    0.94
   9   5   7   16.16    1.23
   9   5   7   11.40    1.25
   9   5   7   12.11    1.22
  -9  -6   5    0.46    0.59
   9   6  -5    0.93    0.68
   9   6  -5    1.48    0.66
  -9  -6   4    0.95    0.53
  -9  -6   4    0.42    0.52
   9   6  -4    1.75    0.68
   9   6  -4    0.19    0.68
   9   6  -4    0.17    0.60
  -9  -6   3   -0.17    0.45
   9   6  -3   -0.47    0.56
   9   6  -3   -0.29    0.55
   9   6  -3    0.76    0.55
  -9  -6   2    0.30    0.45
   9   6  -2    0.51    0.55
   9   6  -2   -0.84    0.57
   9   6  -2    0.47    0.48
  -9  -6   1    1.41    0.50
   9   6  -1    1.35    0.42
   9   6  -1    2.10    0.60
   9   6  -1    1.97    0.60
   9   6  -1    0.11    0.40
  -9  -6   0    1.09    0.48
   9   6   0    1.88    0.48
   9   6   0    1.45    0.54
   9   6   0    1.66    0.57
   9   6   0    1.18    0.43
  -9  -6  -1    0.42    0.44
   9   6   1    0.80    0.49
   9   6   1    0.57    0.51
   9   6   1   -0.24    0.46
   9   6   1    0.57    0.43
  -9  -6  -2    6.06    0.72
   9   6   2    8.51    0.86
   9   6   2    7.51    0.82
   9   6   2    8.81    0.90
   9   6   2    9.82    0.90
  -9  -6  -3    2.56    0.55
  -9  -6  -3    2.73    0.66
   9   6   3    3.83    0.63
   9   6   3    2.95    0.65
   9   6   3    2.99    0.55
  -9  -6  -4    0.35    0.49
  -9  -6  -4    0.41    0.54
   9   6   4    1.56    0.58
   9   6   4    0.75    0.59
   9   6   4    0.26    0.50
  -9  -6  -5    0.21    0.49
  -9  -6  -5    0.44    0.65
   9   6   5   -0.08    0.56
   9   6   5    0.14    0.64
   9   6   5   -0.47    0.48
  -9  -6  -6    0.93    0.54
  -9  -6  -6    0.96    0.67
   9   6   6    0.79    0.64
   9   6   6    1.66    0.67
   9   6   6    1.58    0.61
  -9  -7   3    2.09    0.66
   9   7  -3    0.97    0.62
   9   7  -3    2.09    0.74
   9   7  -3    1.70    0.56
  -9  -7   2    7.61    0.92
   9   7  -2    9.55    1.11
   9   7  -2   10.50    1.16
   9   7  -2    8.60    0.88
  -9  -7   1    0.91    0.51
   9   7  -1    1.64    0.62
   9   7  -1    1.21    0.60
   9   7  -1    1.20    0.45
  -9  -7   0   10.14    0.93
   9   7   0   12.93    0.90
   9   7   0   11.51    1.09
   9   7   0   12.31    1.11
   9   7   0   11.50    0.89
  -9  -7  -1    0.34    0.46
   9   7   1    0.08    0.50
   9   7   1    0.74    0.52
   9   7   1    0.49    0.62
   9   7   1    0.65    0.43
  -9  -7  -2    1.69    0.54
   9   7   2    3.51    0.66
   9   7   2    1.13    0.53
   9   7   2    2.33    0.66
   9   7   2    2.52    0.49
  -9  -7  -3    0.76    0.51
  -9  -7  -3   -0.53    0.59
   9   7   3    1.21    0.58
   9   7   3    2.30    0.63
   9   7   3    0.73    0.43
  -9  -7  -4    2.57    0.59
  -9  -7  -4    3.39    0.75
   9   7   4    4.30    0.74
   9   7   4    2.63    0.73
   9   7   4    3.78    0.60
  -9  -7  -5    5.03    0.70
  -9  -7  -5    6.37    0.88
   9   7   5    8.27    0.93
   9   7   5    9.98    1.21
   9   7   5    5.72    0.71
  -9  -8   1   10.41    1.06
   9   8  -1    8.97    1.10
   9   8  -1   11.75    1.26
  -9  -8   0    0.72    0.51
   9   8   0    0.76    0.66
   9   8   0    0.23    0.65
   9   8   0    0.38    0.43
  -9  -8  -1   15.94    1.10
   9   8   1   23.10    1.18
   9   8   1   17.78    1.22
   9   8   1   19.62    1.43
   9   8   1   16.75    0.95
  -9  -8  -2    7.82    0.96
   9   8   2    9.84    1.06
   9   8   2   11.20    1.23
   9   8   2   11.37    1.24
   9   8   2    9.04    0.93
 -10   0   1    1.00    0.59
 -10   0   1    1.09    0.70
  10   0  -1    0.87    0.67
  10   0  -1    2.51    0.81
 -10   0   0    0.17    0.62
 -10   0   0    1.06    0.63
  10   0   0   -0.11    0.64
  10   0   0    1.24    0.73
 -10   0  -1    0.09    0.56
 -10   0  -1   -0.10    0.66
 -10   0  -1    0.59    1.19
  10   0   1   -0.06    0.62
  10   0   1    0.68    0.68
 -10   0  -2   -0.37    0.50
  10   0   2   -0.30    0.64
  10   0   2    0.65    0.67
  10   0   3    4.32    0.75
  10   0   3    3.37    0.79
  10   0   3    4.60    1.41
 -10  -1   2    1.37    0.66
 -10  -1   2    1.21    0.64
  10   1  -2    1.44    0.66
  10   1  -2    2.13    0.70
  10   1  -2    1.49    0.80
 -10  -1   1    1.54    0.62
  10   1  -1    2.53    0.70
  10   1  -1    2.19    0.61
  10   1  -1    3.55    0.77
  10   1  -1    2.97    0.85
 -10  -1   0    1.73    0.59
 -10  -1   0    1.73    0.63
  10   1   0    3.57    0.69
  10   1   0    2.08    0.59
  10   1   0    2.29    0.70
  10   1   0    2.10    0.84
 -10  -1  -1    0.47    0.53
  10   1   1   -0.01    0.57
  10   1   1   -0.52    1.03
  10   1   1    0.26    0.62
  10   1   1    0.18    0.79
 -10  -1  -2    5.17    0.73
  10   1   2    6.20    0.76
  10   1   2    6.34    0.72
  10   1   2    6.68    0.85
  10   1   2    8.29    1.06
 -10  -1  -3    4.17    0.70
 -10  -1  -3    4.30    0.73
  10   1   3    6.02    0.77
  10   1   3    4.82    0.82
  10   1   3    4.34    0.94
 -10  -1  -4    0.87    0.58
 -10  -1  -4    0.01    0.65
  10   1   4    1.10    0.61
  10   1   4   -0.14    0.66
  10   1   4   -1.54    0.78
  10   1   5    0.55    0.62
 -10  -2   3    5.22    0.77
 -10  -2   3    5.30    0.73
  10   2  -3    8.63    0.83
  10   2  -3    9.70    1.20
  10   2  -3    7.15    1.04
 -10  -2   2    6.16    0.78
 -10  -2   2    5.55    0.71
  10   2  -2    5.54    0.75
  10   2  -2    5.82    0.73
  10   2  -2    6.93    0.82
  10   2  -2    5.37    0.74
 -10  -2   1    3.15    0.70
 -10  -2   1    3.13    0.70
  10   2  -1    3.86    0.66
  10   2  -1    2.92    0.62
  10   2  -1    2.66    0.69
  10   2  -1    3.29    0.81
 -10  -2   0   12.12    1.03
  10   2   0   13.59    1.06
  10   2   0   14.58    1.09
  10   2   0   16.17    1.25
  10   2   0   14.37    1.35
 -10  -2  -1    1.61    0.58
  10   2   1    1.88    0.62
  10   2   1    1.43    0.58
  10   2   1    1.30    0.70
  10   2   1    2.90    0.80
 -10  -2  -2   18.01    1.13
  10   2   2   20.84    1.19
  10   2   2   18.77    1.11
  10   2   2   25.41    1.38
  10   2   2   24.93    1.57
 -10  -2  -3    1.36    0.55
 -10  -2  -3    1.17    0.64
  10   2   3    3.42    0.69
  10   2   3    1.96    0.67
  10   2   3    2.26    0.84
 -10  -2  -4    3.92    0.67
 -10  -2  -4    4.38    0.78
  10   2   4    5.84    0.78
  10   2   4    5.17    0.83
  10   2   4    5.56    0.97
 -10  -2  -5    0.85    0.56
 -10  -2  -5    1.36    0.78
  10   2   5    0.95    0.65
  10   2   5    0.13    0.73
  10   2   5    0.69    0.87
 -10  -3   3    3.08    0.71
  10   3  -3    4.30    0.79
  10   3  -3    4.97    0.81
  10   3  -3    4.15    0.85
 -10  -3   2    8.06    0.98
  10   3  -2    7.31    0.74
  10   3  -2    9.79    1.18
  10   3  -2    7.51    0.84
  10   3  -2    7.97    0.92
 -10  -3   1   14.82    1.10
  10   3  -1   13.98    0.97
  10   3  -1   16.75    1.19
  10   3  -1   17.47    1.29
  10   3  -1   14.27    1.31
 -10  -3   0    0.65    0.53
  10   3   0    0.13    0.49
  10   3   0   -0.57    0.54
  10   3   0   -0.50    0.61
  10   3   0   -0.34    0.63
 -10  -3  -1   17.32    1.14
  10   3   1   19.75    1.10
  10   3   1   19.89    1.17
  10   3   1   19.81    1.28
  10   3   1   20.29    1.37
 -10  -3  -2    0.83    0.51
  10   3   2    2.04    0.59
  10   3   2    0.50    0.55
  10   3   2    1.80    0.67
  10   3   2    2.79    0.75
 -10  -3  -3    8.90    1.02
 -10  -3  -3    8.90    0.90
  10   3   3    9.91    1.02
  10   3   3   10.30    0.95
  10   3   3    9.29    0.98
 -10  -3  -4    5.15    0.74
 -10  -3  -4    6.10    0.87
  10   3   4    7.99    0.85
  10   3   4    7.70    0.90
  10   3   4    7.60    0.90
 -10  -3  -5    3.13    0.69
 -10  -3  -5    4.06    0.85
  10   3   5    2.41    0.66
  10   3   5    3.82    0.79
  10   3   5    2.51    0.87
 -10  -4   3    4.42    1.04
  10   4  -3    6.04    0.82
  10   4  -3    5.73    0.84
  10   4  -3    4.79    0.81
 -10  -4   2   24.68    1.22
  10   4  -2   29.65    1.42
  10   4  -2   32.94    1.49
  10   4  -2   28.66    1.47
 -10  -4   1    0.37    0.51
  10   4  -1    0.58    0.50
  10   4  -1    0.56    0.63
  10   4  -1   -0.64    0.61
  10   4  -1    0.23    0.63
 -10  -4   0   13.54    1.06
  10   4   0   17.34    1.04
  10   4   0   14.88    1.16
  10   4   0   15.42    1.24
  10   4   0   13.82    1.25
 -10  -4  -1    1.60    0.58
  10   4   1    1.43    0.54
  10   4   1    1.93    0.61
  10   4   1    1.56    0.72
  10   4   1    1.26    0.70
 -10  -4  -2   14.46    1.11
  10   4   2   20.19    1.13
  10   4   2   13.61    1.11
  10   4   2   20.84    1.31
  10   4   2   20.69    1.38
 -10  -4  -3    6.15    0.75
 -10  -4  -3    6.65    0.89
  10   4   3    9.01    1.04
  10   4   3    8.12    0.91
  10   4   3    8.19    0.94
 -10  -4  -4    4.20    0.74
 -10  -4  -4    3.64    0.81
  10   4   4    5.34    0.75
  10   4   4    6.37    0.89
  10   4   4    5.45    0.80
 -10  -4  -5    4.70    0.81
 -10  -4  -5    4.44    0.90
  10   4   5    5.95    0.78
  10   4   5    7.12    0.93
  10   4   5    5.65    0.88
  10   5  -2   -0.30    0.66
  10   5  -2   -0.31    0.60
  10   5  -2    0.66    0.69
 -10  -5   1    2.03    0.57
  10   5  -1    1.80    0.67
  10   5  -1    1.40    0.66
  10   5  -1    2.02    0.68
 -10  -5   0    0.24    0.51
  10   5   0    0.06    0.61
  10   5   0   -1.06    0.64
  10   5   0   -0.69    0.53
 -10  -5  -1    5.50    0.75
  10   5   1    6.50    0.73
  10   5   1    6.50    0.82
  10   5   1    7.90    0.85
  10   5   1    6.93    0.79
 -10  -5  -2    2.12    0.65
  10   5   2    2.77    0.60
  10   5   2    1.56    0.63
  10   5   2    2.66    0.67
  10   5   2    3.99    0.70
 -10  -5  -3    0.03    0.53
 -10  -5  -3   -0.88    0.67
  10   5   3   -0.13    0.57
  10   5   3    0.94    0.65
  10   5   3    0.46    0.60
 -10  -5  -4    6.17    0.85
 -10  -5  -4    4.79    0.82
  10   5   4    8.79    0.92
  10   5   4   11.32    1.33
  10   5   4    5.63    0.86
  10   6  -1   -0.32    0.62
  10   6  -1   -0.23    0.58
  10   6  -1    0.28    0.53
 -10  -6   0    0.66    0.84
  10   6   0    0.42    0.61
  10   6   0    0.86    0.70
  10   6   0    1.17    0.61
 -10  -6  -1   -0.08    0.46
  10   6   1   -0.19    0.56
  10   6   1    0.55    0.61
  10   6   1    0.74    0.61
  10   6   1   -0.18    0.57
 -10  -6  -2    0.18    0.52
  10   6   2   -0.49    0.59
  10   6   2    0.39    0.58
  10   6   2    0.15    0.61
  10   6   2    1.04    0.60
  10   6   3   -0.23    0.65
  10   6   3   -0.48    0.61
  10   6   3   -0.57    0.67
  10   6   3    0.38    0.59
   0   0   0    0.00    0.00
;
_shelx_hkl_checksum              29343
loop_
_space_group_symop_operation_xyz
'x, y, z'
'-x, -y, -z'
loop_
_atom_site_label
_atom_site_type_symbol
_atom_site_fract_x
_atom_site_fract_y
_atom_site_fract_z
_atom_site_U_iso_or_equiv
_atom_site_adp_type
_atom_site_occupancy
_atom_site_site_symmetry_order
_atom_site_calc_flag
_atom_site_refinement_flags_posn
_atom_site_refinement_flags_adp
Cu1 Cu 0.21958(3) 0.34360(3) 0.78080(2) 0.03445(12) Uani 1 1 d . .
Cl1 Cl 0.04770(9) 0.19987(8) 0.77330(6) 0.04808(18) Uani 1 1 d . .
Cl2 Cl 0.48389(8) 0.17280(7) 0.79421(6) 0.04291(17) Uani 1 1 d . .
O1 O 0.1699(3) 0.3665(2) 0.98256(15) 0.0488(5) Uani 1 1 d . .
O2 O 0.1419(4) 0.2202(3) 0.36726(18) 0.0807(9) Uani 1 1 d . .
N1 N 0.2648(2) 0.5382(2) 0.82556(17) 0.0332(4) Uani 1 1 d . .
N2 N 0.2330(2) 0.4409(2) 0.60640(16) 0.0300(4) Uani 1 1 d . .
C1 C 0.2705(3) 0.5836(3) 0.9375(2) 0.0394(6) Uani 1 1 d . .
C2 C 0.3086(4) 0.7227(3) 0.9628(3) 0.0493(7) Uani 1 1 d . .
H2 H 0.3092 0.7544 1.0420 0.059 Uiso 1 1 calc R U
C3 C 0.3448(3) 0.8111(3) 0.8703(3) 0.0478(7) Uani 1 1 d . .
H3 H 0.3711 0.9030 0.8866 0.057 Uiso 1 1 calc R U
C4 C 0.3424(3) 0.7640(3) 0.7506(2) 0.0387(5) Uani 1 1 d . .
C5 C 0.3819(3) 0.8458(3) 0.6475(3) 0.0447(6) Uani 1 1 d . .
H5 H 0.4143 0.9360 0.6575 0.054 Uiso 1 1 calc R U
C6 C 0.3727(3) 0.7938(3) 0.5356(3) 0.0415(6) Uani 1 1 d . .
H6 H 0.4013 0.8476 0.4697 0.050 Uiso 1 1 calc R U
C7 C 0.3198(3) 0.6573(3) 0.5162(2) 0.0341(5) Uani 1 1 d . .
C8 C 0.3012(3) 0.6020(3) 0.4024(2) 0.0395(6) Uani 1 1 d . .
H8 H 0.3239 0.6539 0.3336 0.047 Uiso 1 1 calc R U
C9 C 0.2497(3) 0.4716(3) 0.3936(2) 0.0398(6) Uani 1 1 d . .
H9 H 0.2357 0.4351 0.3182 0.048 Uiso 1 1 calc R U
C10 C 0.2174(3) 0.3909(3) 0.4970(2) 0.0317(5) Uani 1 1 d . .
C11 C 0.2827(3) 0.5728(2) 0.6155(2) 0.0303(5) Uani 1 1 d . .
C12 C 0.2977(3) 0.6263(3) 0.7331(2) 0.0331(5) Uani 1 1 d . .
C13 C 0.2372(3) 0.4770(3) 1.0339(2) 0.0447(6) Uani 1 1 d . .
H13A H 0.3385 0.4251 1.0690 0.054 Uiso 1 1 calc R U
H13B H 0.1608 0.5358 1.0971 0.054 Uiso 1 1 calc R U
C14 C 0.1680(5) 0.2391(4) 1.0602(3) 0.0639(8) Uani 1 1 d . .
H14A H 0.1238 0.1662 1.0204 0.096 Uiso 1 1 calc R U
H14B H 0.1009 0.2769 1.1329 0.096 Uiso 1 1 calc R U
H14C H 0.2779 0.1889 1.0794 0.096 Uiso 1 1 calc R U
C15 C 0.1654(3) 0.2447(3) 0.4858(2) 0.0399(6) Uani 1 1 d . .
H15A H 0.2492 0.1577 0.5135 0.048 Uiso 1 1 calc R U
H15B H 0.0642 0.2532 0.5355 0.048 Uiso 1 1 calc R U
C16 C 0.0955(4) 0.0839(3) 0.3459(2) 0.0483(7) Uani 1 1 d . .
H16A H 0.1799 -0.0044 0.3684 0.072 Uiso 1 1 calc R U
H16B H 0.0803 0.0756 0.2620 0.072 Uiso 1 1 calc R U
H16C H -0.0054 0.0874 0.3927 0.072 Uiso 1 1 calc R U
loop_
_atom_site_aniso_label
_atom_site_aniso_U_11
_atom_site_aniso_U_22
_atom_site_aniso_U_33
_atom_site_aniso_U_23
_atom_site_aniso_U_13
_atom_site_aniso_U_12
Cu1 0.04199(19) 0.03261(18) 0.03109(18) -0.00192(12) -0.00379(12) -0.01377(13)
Cl1 0.0566(4) 0.0555(4) 0.0421(3) -0.0009(3) -0.0018(3) -0.0328(3)
Cl2 0.0410(3) 0.0383(3) 0.0505(4) -0.0003(3) -0.0078(3) -0.0115(3)
O1 0.0659(12) 0.0524(11) 0.0301(9) -0.0004(8) -0.0023(8) -0.0199(9)
O2 0.162(3) 0.0770(16) 0.0352(11) -0.0011(10) -0.0142(13) -0.0850(18)
N1 0.0364(10) 0.0315(10) 0.0311(10) -0.0059(8) -0.0042(8) -0.0076(8)
N2 0.0345(10) 0.0272(9) 0.0290(10) -0.0011(7) -0.0028(8) -0.0095(8)
C1 0.0380(13) 0.0433(14) 0.0341(13) -0.0100(11) -0.0056(10) -0.0053(11)
C2 0.0552(16) 0.0511(16) 0.0421(15) -0.0193(12) -0.0096(12) -0.0131(13)
C3 0.0503(16) 0.0388(14) 0.0563(17) -0.0164(12) -0.0109(13) -0.0137(12)
C4 0.0370(13) 0.0294(12) 0.0498(14) -0.0059(10) -0.0094(11) -0.0073(10)
C5 0.0470(15) 0.0280(12) 0.0625(17) -0.0007(11) -0.0100(13) -0.0144(11)
C6 0.0427(14) 0.0319(12) 0.0513(15) 0.0065(11) -0.0049(11) -0.0122(10)
C7 0.0329(12) 0.0281(11) 0.0407(13) 0.0034(10) -0.0059(10) -0.0066(9)
C8 0.0451(14) 0.0393(13) 0.0351(13) 0.0077(10) -0.0050(11) -0.0128(11)
C9 0.0505(15) 0.0430(14) 0.0284(12) 0.0009(10) -0.0067(10) -0.0158(12)
C10 0.0336(12) 0.0324(11) 0.0294(11) -0.0023(9) -0.0050(9) -0.0087(9)
C11 0.0300(11) 0.0262(11) 0.0338(12) -0.0019(9) -0.0047(9) -0.0054(9)
C12 0.0332(12) 0.0277(11) 0.0375(13) -0.0041(9) -0.0061(10) -0.0057(9)
C13 0.0483(15) 0.0542(16) 0.0299(12) -0.0084(11) -0.0053(11) -0.0102(12)
C14 0.082(2) 0.069(2) 0.0453(16) 0.0158(15) -0.0052(15) -0.0287(18)
C15 0.0541(15) 0.0389(13) 0.0313(12) -0.0038(10) -0.0038(11) -0.0201(11)
C16 0.0711(19) 0.0434(14) 0.0400(14) -0.0030(11) -0.0070(13) -0.0311(14)
loop_
_atom_type_symbol
_atom_type_description
_atom_type_scat_dispersion_real
_atom_type_scat_dispersion_imag
_atom_type_scat_source
C C 0.0033 0.0016 'International Tables Vol C Tables 4.2.6.8 and 6.1.1.4'
H H 0.0000 0.0000 'International Tables Vol C Tables 4.2.6.8 and 6.1.1.4'
N N 0.0061 0.0033 'International Tables Vol C Tables 4.2.6.8 and 6.1.1.4'
O O 0.0106 0.0060 'International Tables Vol C Tables 4.2.6.8 and 6.1.1.4'
Cl Cl 0.1484 0.1585 'International Tables Vol C Tables 4.2.6.8 and 6.1.1.4'
Cu Cu 0.3201 1.2651 'International Tables Vol C Tables 4.2.6.8 and 6.1.1.4'
loop_
_geom_angle_atom_site_label_1
_geom_angle_atom_site_label_2
_geom_angle_atom_site_label_3
_geom_angle
N1 Cu1 N2 80.79(7)
N1 Cu1 Cl1 150.07(6)
N2 Cu1 Cl1 105.81(5)
N1 Cu1 O1 74.14(7)
N2 Cu1 O1 151.86(7)
Cl1 Cu1 O1 90.38(5)
N1 Cu1 Cl2 99.26(6)
N2 Cu1 Cl2 103.90(5)
Cl1 Cu1 Cl2 107.07(3)
O1 Cu1 Cl2 92.69(6)
C13 O1 C14 112.8(2)
C13 O1 Cu1 113.29(15)
C14 O1 Cu1 124.10(18)
C15 O2 C16 114.4(2)
C1 N1 C12 119.8(2)
C1 N1 Cu1 124.39(18)
C12 N1 Cu1 115.82(15)
C10 N2 C11 117.87(19)
C10 N2 Cu1 132.91(15)
C11 N2 Cu1 108.89(14)
N1 C1 C2 121.3(2)
N1 C1 C13 116.2(2)
C2 C1 C13 122.6(2)
C3 C2 C1 119.5(2)
C3 C2 H2 120.2
C1 C2 H2 120.2
C2 C3 C4 120.3(2)
C2 C3 H3 119.9
C4 C3 H3 119.9
C12 C4 C3 116.6(2)
C12 C4 C5 118.6(2)
C3 C4 C5 124.8(2)
C6 C5 C4 120.7(2)
C6 C5 H5 119.6
C4 C5 H5 119.6
C5 C6 C7 121.4(2)
C5 C6 H6 119.3
C7 C6 H6 119.3
C8 C7 C11 116.9(2)
C8 C7 C6 123.8(2)
C11 C7 C6 119.3(2)
C9 C8 C7 119.3(2)
C9 C8 H8 120.4
C7 C8 H8 120.4
C8 C9 C10 120.8(2)
C8 C9 H9 119.6
C10 C9 H9 119.6
N2 C10 C9 121.4(2)
N2 C10 C15 118.3(2)
C9 C10 C15 120.3(2)
N2 C11 C7 123.7(2)
N2 C11 C12 117.5(2)
C7 C11 C12 118.8(2)
N1 C12 C4 122.5(2)
N1 C12 C11 116.4(2)
C4 C12 C11 121.1(2)
O1 C13 C1 108.6(2)
O1 C13 H13A 110.0
C1 C13 H13A 110.0
O1 C13 H13B 110.0
C1 C13 H13B 110.0
H13A C13 H13B 108.3
O1 C14 H14A 109.5
O1 C14 H14B 109.5
H14A C14 H14B 109.5
O1 C14 H14C 109.5
H14A C14 H14C 109.5
H14B C14 H14C 109.5
O2 C15 C10 109.5(2)
O2 C15 H15A 109.8
C10 C15 H15A 109.8
O2 C15 H15B 109.8
C10 C15 H15B 109.8
H15A C15 H15B 108.2
O2 C16 H16A 109.5
O2 C16 H16B 109.5
H16A C16 H16B 109.5
O2 C16 H16C 109.5
H16A C16 H16C 109.5
H16B C16 H16C 109.5
loop_
_geom_bond_atom_site_label_1
_geom_bond_atom_site_label_2
_geom_bond_distance
Cu1 N1 1.9553(19)
Cu1 N2 2.1351(18)
Cu1 Cl1 2.1941(7)
Cu1 O1 2.2559(18)
Cu1 Cl2 2.3633(7)
O1 C13 1.411(3)
O1 C14 1.431(4)
O2 C15 1.379(3)
O2 C16 1.405(3)
N1 C1 1.322(3)
N1 C12 1.352(3)
N2 C10 1.329(3)
N2 C11 1.362(3)
C1 C2 1.402(4)
C1 C13 1.495(4)
C2 C3 1.363(4)
C2 H2 0.9300
C3 C4 1.405(4)
C3 H3 0.9300
C4 C12 1.402(3)
C4 C5 1.427(4)
C5 C6 1.347(4)
C5 H5 0.9300
C6 C7 1.432(3)
C6 H6 0.9300
C7 C8 1.399(4)
C7 C11 1.402(3)
C8 C9 1.358(4)
C8 H8 0.9300
C9 C10 1.405(3)
C9 H9 0.9300
C10 C15 1.497(3)
C11 C12 1.424(3)
C13 H13A 0.9700
C13 H13B 0.9700
C14 H14A 0.9600
C14 H14B 0.9600
C14 H14C 0.9600
C15 H15A 0.9700
C15 H15B 0.9700
C16 H16A 0.9600
C16 H16B 0.9600
C16 H16C 0.9600
loop_
_geom_torsion_atom_site_label_1
_geom_torsion_atom_site_label_2
_geom_torsion_atom_site_label_3
_geom_torsion_atom_site_label_4
_geom_torsion
C12 N1 C1 C2 0.6(4)
Cu1 N1 C1 C2 178.05(19)
C12 N1 C1 C13 -178.3(2)
Cu1 N1 C1 C13 -0.9(3)
N1 C1 C2 C3 -1.8(4)
C13 C1 C2 C3 177.1(3)
C1 C2 C3 C4 0.6(4)
C2 C3 C4 C12 1.5(4)
C2 C3 C4 C5 -178.5(3)
C12 C4 C5 C6 1.5(4)
C3 C4 C5 C6 -178.5(3)
C4 C5 C6 C7 1.4(4)
C5 C6 C7 C8 177.1(2)
C5 C6 C7 C11 -2.4(4)
C11 C7 C8 C9 -0.2(4)
C6 C7 C8 C9 -179.7(2)
C7 C8 C9 C10 -0.9(4)
C11 N2 C10 C9 -0.5(3)
Cu1 N2 C10 C9 -172.97(17)
C11 N2 C10 C15 179.1(2)
Cu1 N2 C10 C15 6.6(3)
C8 C9 C10 N2 1.3(4)
C8 C9 C10 C15 -178.2(2)
C10 N2 C11 C7 -0.8(3)
Cu1 N2 C11 C7 173.45(18)
C10 N2 C11 C12 179.5(2)
Cu1 N2 C11 C12 -6.3(2)
C8 C7 C11 N2 1.1(3)
C6 C7 C11 N2 -179.4(2)
C8 C7 C11 C12 -179.1(2)
C6 C7 C11 C12 0.4(3)
C1 N1 C12 C4 1.7(3)
Cu1 N1 C12 C4 -175.93(17)
C1 N1 C12 C11 -177.6(2)
Cu1 N1 C12 C11 4.7(3)
C3 C4 C12 N1 -2.8(4)
C5 C4 C12 N1 177.3(2)
C3 C4 C12 C11 176.5(2)
C5 C4 C12 C11 -3.4(3)
N2 C11 C12 N1 1.6(3)
C7 C11 C12 N1 -178.2(2)
N2 C11 C12 C4 -177.7(2)
C7 C11 C12 C4 2.5(3)
C14 O1 C13 C1 166.8(2)
Cu1 O1 C13 C1 19.4(2)
N1 C1 C13 O1 -13.3(3)
C2 C1 C13 O1 167.8(2)
C16 O2 C15 C10 178.9(3)
N2 C10 C15 O2 174.6(2)
C9 C10 C15 O2 -5.9(4)
