#------------------------------------------------------------------------------
#$Date: 2019-11-23 20:46:47 +0200 (Sat, 23 Nov 2019) $
#$Revision: 234919 $
#$URL: file:///home/coder/svn-repositories/cod/cif/4/34/96/4349620.cif $
#------------------------------------------------------------------------------
#
# This file is available in the Crystallography Open Database (COD),
# http://www.crystallography.net/
#
# All data on this site have been placed in the public domain by the
# contributors.
#
data_4349620
loop_
_publ_author_name
'Lovitt, June I.'
'Hawes, Chris S.'
'Lynes, Amy D.'
'Haffner, Benjamin'
'M\"obius, Matthias E.'
'Gunnlaugsson, Thorfinnur'
_publ_section_title
;
 Coordination chemistry of N-picolyl-1,8-naphthalimides: colourful low
 molecular weight metallo-gelators and unique chelation behaviours
;
_journal_issue                   2
_journal_name_full               'Inorganic Chemistry Frontiers'
_journal_page_first              296
_journal_paper_doi               10.1039/C6QI00498A
_journal_volume                  4
_journal_year                    2017
_chemical_formula_moiety         'C18 H12 N2 O2'
_chemical_formula_sum            'C18 H12 N2 O2'
_chemical_formula_weight         288.30
_space_group_crystal_system      triclinic
_space_group_IT_number           2
_space_group_name_Hall           '-P 1'
_space_group_name_H-M_alt        'P -1'
_atom_sites_solution_hydrogens   geom
_atom_sites_solution_primary     direct
_audit_creation_date             2016-08-24
_audit_creation_method
;
Olex2 1.2
(compiled 2016.08.23 svn.r3337 for OlexSys, GUI svn.r5217)
;
_audit_update_record
;
2016-10-26 deposited with the CCDC.
2016-12-09 downloaded from the CCDC.
;
_cell_angle_alpha                80.777(2)
_cell_angle_beta                 79.653(2)
_cell_angle_gamma                71.835(2)
_cell_formula_units_Z            2
_cell_length_a                   8.2040(3)
_cell_length_b                   9.0699(3)
_cell_length_c                   9.5149(4)
_cell_measurement_reflns_used    3055
_cell_measurement_temperature    100(2)
_cell_measurement_theta_max      68.159
_cell_measurement_theta_min      4.754
_cell_volume                     657.64(4)
_computing_cell_refinement       'SAINT V8.35A (2016)'
_computing_data_reduction        'SAINT V8.35A (2016)'
_computing_molecular_graphics    'Olex2 (Dolomanov et al., 2009)'
_computing_publication_material  'Olex2 (Dolomanov et al., 2009)'
_computing_structure_refinement  'ShelXL (Sheldrick, 2015)'
_computing_structure_solution    'XT (Sheldrick, 2015)'
_diffrn_ambient_temperature      99.97
_diffrn_detector_area_resol_mean 8
_diffrn_measured_fraction_theta_full 0.994
_diffrn_measured_fraction_theta_max 0.989
_diffrn_measurement_device_type  'Bruker APEX-II CCD'
_diffrn_measurement_method       '\w and \f scans'
_diffrn_radiation_monochromator  graphite
_diffrn_radiation_type           CuK\a
_diffrn_radiation_wavelength     1.54178
_diffrn_reflns_av_R_equivalents  0.0357
_diffrn_reflns_av_unetI/netI     0.0339
_diffrn_reflns_Laue_measured_fraction_full 0.994
_diffrn_reflns_Laue_measured_fraction_max 0.989
_diffrn_reflns_limit_h_max       9
_diffrn_reflns_limit_h_min       -9
_diffrn_reflns_limit_k_max       10
_diffrn_reflns_limit_k_min       -10
_diffrn_reflns_limit_l_max       11
_diffrn_reflns_limit_l_min       -11
_diffrn_reflns_number            7989
_diffrn_reflns_point_group_measured_fraction_full 0.994
_diffrn_reflns_point_group_measured_fraction_max 0.989
_diffrn_reflns_theta_full        67.679
_diffrn_reflns_theta_max         68.352
_diffrn_reflns_theta_min         4.754
_diffrn_source                   'sealed tube'
_diffrn_standards_number         0
_exptl_absorpt_coefficient_mu    0.785
_exptl_absorpt_correction_T_max  0.7531
_exptl_absorpt_correction_T_min  0.6284
_exptl_absorpt_correction_type   multi-scan
_exptl_absorpt_process_details
;
SADABS-2014/5 (Bruker,2014/5) was used for absorption correction.
wR2(int) was 0.0677 before and 0.0542 after correction.
The Ratio of minimum to maximum transmission is 0.8344.
The \l/2 correction factor is Not present.
;
_exptl_crystal_colour            colourless
_exptl_crystal_colour_primary    colourless
_exptl_crystal_density_diffrn    1.456
_exptl_crystal_description       block
_exptl_crystal_F_000             300
_exptl_crystal_size_max          0.1
_exptl_crystal_size_mid          0.08
_exptl_crystal_size_min          0.06
_refine_diff_density_max         0.216
_refine_diff_density_min         -0.241
_refine_diff_density_rms         0.053
_refine_ls_extinction_method     none
_refine_ls_goodness_of_fit_ref   0.995
_refine_ls_hydrogen_treatment    constr
_refine_ls_matrix_type           full
_refine_ls_number_parameters     199
_refine_ls_number_reflns         2390
_refine_ls_number_restraints     0
_refine_ls_restrained_S_all      0.995
_refine_ls_R_factor_all          0.0525
_refine_ls_R_factor_gt           0.0447
_refine_ls_shift/su_max          0.000
_refine_ls_shift/su_mean         0.000
_refine_ls_structure_factor_coef Fsqd
_refine_ls_weighting_details
'w=1/[\s^2^(Fo^2^)+(0.1000P)^2^] where P=(Fo^2^+2Fc^2^)/3'
_refine_ls_weighting_scheme      calc
_refine_ls_wR_factor_gt          0.1268
_refine_ls_wR_factor_ref         0.1350
_reflns_Friedel_coverage         0.000
_reflns_number_gt                1956
_reflns_number_total             2390
_reflns_threshold_expression     'I > 2\s(I)'
_cod_data_source_file            c6qi00498a2.cif
_cod_data_source_block           L3
_cod_database_code               4349620
_shelx_space_group_comment
;
The symmetry employed for this shelxl refinement is uniquely defined
by the following loop, which should always be used as a source of
symmetry information in preference to the above space-group names.
They are only intended as comments.
;
_shelx_estimated_absorpt_t_max   0.954
_shelx_estimated_absorpt_t_min   0.926
_olex2_refinement_description
;
1. Fixed Uiso
 At 1.2 times of:
  All C(H) groups, All C(H,H) groups
2.a Secondary CH2 refined with riding coordinates:
 C6(H6A,H6B)
2.b Aromatic/amide H refined with riding coordinates:
 C1(H1), C2(H2), C3(H3), C5(H5), C9(H9), C10(H10), C11(H11), C13(H13),
 C14(H14), C15(H15)
;
_shelx_res_file
;
    cu_csh167a_0m.res created by SHELXL-2014/7

TITL cu_csh167a_0m_a.res in P-1
REM Old TITL cu_CSH167A_0m in P-1 #2
REM SHELXT solution in P-1
REM R1 0.108, Rweak 0.002, Alpha 0.030, Orientation as input
REM Formula found by SHELXT: C18 N2 O2
CELL 1.54178 8.204 9.0699 9.5149 80.777 79.653 71.835
ZERR 2 0.0003 0.0003 0.0004 0.002 0.002 0.002
LATT 1
SFAC C H N O
UNIT 36 24 4 4

L.S. 4
PLAN  20
SIZE 0.06 0.08 0.1
TEMP -173.18
BOND $H
LIST 6
MORE -1
CONF
fmap 2
acta
REM <olex2.extras>
REM <HklSrc "%.\\cu_CSH167A_0m.hkl">
REM </olex2.extras>

WGHT    0.100000
FVAR       0.64682
O1    4    0.986548    0.253911    0.479049    11.00000    0.03066    0.02816 =
         0.02755   -0.00634    0.00041   -0.00437
O2    4    0.766056    0.517229    0.871360    11.00000    0.03805    0.03139 =
         0.02406   -0.00656   -0.00652   -0.00462
N1    3    0.723935    0.038799    1.021021    11.00000    0.02929    0.03060 =
         0.02441   -0.00308   -0.00235   -0.00888
N2    3    0.875872    0.386313    0.674575    11.00000    0.02292    0.02354 =
         0.02465   -0.00360   -0.00251   -0.00775
C1    1    0.744797   -0.082701    0.948755    11.00000    0.02826    0.02708 =
         0.02654   -0.00114   -0.00444   -0.00904
AFIX  43
H1    2    0.686460   -0.158060    0.990463    11.00000   -1.20000
AFIX   0
C2    1    0.846643   -0.104152    0.816826    11.00000    0.02544    0.02422 =
         0.02790   -0.00530   -0.00572   -0.00469
AFIX  43
H2    2    0.858531   -0.192702    0.770076    11.00000   -1.20000
AFIX   0
C3    1    0.930906    0.005433    0.754068    11.00000    0.02056    0.02786 =
         0.02238   -0.00439   -0.00142   -0.00326
AFIX  43
H3    2    1.001606   -0.006796    0.663488    11.00000   -1.20000
AFIX   0
C4    1    0.910789    0.133968    0.825366    11.00000    0.02021    0.02387 =
         0.02424   -0.00160   -0.00628   -0.00277
C5    1    0.807058    0.142929    0.958898    11.00000    0.02747    0.02640 =
         0.02403   -0.00638   -0.00485   -0.00532
AFIX  43
H5    2    0.794684    0.229097    1.009140    11.00000   -1.20000
AFIX   0
C6    1    0.992755    0.261860    0.760774    11.00000    0.02264    0.02627 =
         0.02747   -0.00337   -0.00478   -0.00589
AFIX  23
H6A   2    1.020098    0.306850    0.838682    11.00000   -1.20000
H6B   2    1.102570    0.217143    0.698989    11.00000   -1.20000
AFIX   0
C7    1    0.882452    0.367360    0.530148    11.00000    0.02350    0.02506 =
         0.02422   -0.00456    0.00203   -0.01103
C8    1    0.759428    0.488971    0.446579    11.00000    0.02270    0.02557 =
         0.02361   -0.00341   -0.00026   -0.01130
C9    1    0.758240    0.476312    0.304114    11.00000    0.02684    0.02816 =
         0.02407   -0.00501    0.00068   -0.01177
AFIX  43
H9    2    0.837033    0.389509    0.260310    11.00000   -1.20000
AFIX   0
C10   1    0.641376    0.590833    0.223326    11.00000    0.03275    0.03425 =
         0.02097   -0.00380   -0.00170   -0.01648
AFIX  43
H10   2    0.641959    0.581261    0.125250    11.00000   -1.20000
AFIX   0
C11   1    0.526271    0.716608    0.285745    11.00000    0.02642    0.02976 =
         0.02701    0.00087   -0.00546   -0.01170
AFIX  43
H11   2    0.448823    0.793973    0.229870    11.00000   -1.20000
AFIX   0
C12   1    0.521577    0.732441    0.432518    11.00000    0.02285    0.02637 =
         0.02641   -0.00179   -0.00255   -0.01151
C13   1    0.401541    0.858061    0.502393    11.00000    0.02445    0.02478 =
         0.03204   -0.00074   -0.00537   -0.00880
AFIX  43
H13   2    0.320586    0.936196    0.450162    11.00000   -1.20000
AFIX   0
C14   1    0.401863    0.867184    0.644905    11.00000    0.02508    0.02351 =
         0.03166   -0.00507   -0.00034   -0.00738
AFIX  43
H14   2    0.320620    0.951442    0.690645    11.00000   -1.20000
AFIX   0
C15   1    0.520771    0.753522    0.723718    11.00000    0.02684    0.02711 =
         0.02416   -0.00576   -0.00071   -0.01159
AFIX  43
H15   2    0.519618    0.761506    0.822253    11.00000   -1.20000
AFIX   0
C16   1    0.638850    0.630781    0.659553    11.00000    0.02335    0.02403 =
         0.02423   -0.00300   -0.00089   -0.01034
C17   1    0.761320    0.511398    0.744735    11.00000    0.02464    0.02507 =
         0.02351   -0.00486   -0.00092   -0.01020
C18   1    0.641087    0.617127    0.512836    11.00000    0.02206    0.02336 =
         0.02373   -0.00262   -0.00018   -0.01165
HKLF 4

REM  cu_csh167a_0m_a.res in P-1
REM R1 =  0.0447 for    1956 Fo > 4sig(Fo)  and  0.0525 for all    2390 data
REM    199 parameters refined using      0 restraints

END

WGHT      0.0906      0.0000

REM Highest difference peak  0.216,  deepest hole -0.241,  1-sigma level  0.053
Q1    1   0.6365  0.0392  1.1111  11.00000  0.05    0.20
Q2    1   0.7491 -0.0790  0.8452  11.00000  0.05    0.20
Q3    1   0.8308  0.4562  0.4742  11.00000  0.05    0.19
Q4    1   0.9950  0.0605  1.0373  11.00000  0.05    0.18
Q5    1   0.8416  0.1499  0.8835  11.00000  0.05    0.17
Q6    1   0.6959  0.5167  0.4791  11.00000  0.05    0.17
Q7    1   0.7142  0.6009  0.6689  11.00000  0.05    0.17
Q8    1   0.7221  0.4810  0.3802  11.00000  0.05    0.17
Q9    1   0.5944  0.6394  0.5068  11.00000  0.05    0.17
Q10   1   0.7782  0.2466  1.0481  11.00000  0.05    0.16
Q11   1   1.0979  0.2314  0.7286  11.00000  0.05    0.16
Q12   1   0.5862  0.6218  0.2595  11.00000  0.05    0.16
Q13   1   0.4739  0.8310  0.4831  11.00000  0.05    0.16
Q14   1   0.7493  0.6017  0.4455  11.00000  0.05    0.15
Q15   1   0.1971  0.9389  0.8201  11.00000  0.05    0.15
Q16   1   0.9754  0.3261  0.8632  11.00000  0.05    0.15
Q17   1   0.6742  0.6296  0.9025  11.00000  0.05    0.15
Q18   1   0.4365  0.7751  0.4751  11.00000  0.05    0.15
Q19   1   1.1166  0.2352  0.4013  11.00000  0.05    0.15
Q20   1   0.5030  0.5038  0.5698  11.00000  0.05    0.15
;
_shelx_res_checksum              62688
_shelx_hkl_file
;
  -1   0   0    4.50    0.50
   1   0   0    4.70    0.50
   1   0   0    4.80    0.50
   1   0   0    4.60    0.50
  -2   0   0   32.10    1.80
  -2   0   0   32.10    1.70
   2   0   0   33.80    1.90
   2   0   0   34.30    1.80
   2   0   0   32.50    1.80
  -3   0   0    1.40    0.60
  -3   0   0    1.20    0.60
   3   0   0    1.70    0.60
   3   0   0    2.20    0.80
   3   0   0    2.30    0.70
   4   0   0  110.59    5.60
   4   0   0  116.99    5.70
   4   0   0  112.89    5.50
   5   0   0    8.10    1.50
   5   0   0    8.00    1.50
   5   0   0    5.80    1.10
  -6   0   0   11.20    1.70
   6   0   0   10.60    1.30
  -7   0   0   16.30    2.00
  -7   0   0   16.30    1.60
   7   0   0   16.60    1.60
   7   0   0   17.90    1.80
  -8   0   0  178.48    8.40
   8   0   0  180.68    8.40
   8   0   0  194.48    8.20
   9   0   0    1.30    0.50
   9   0   0    2.80    0.60
   9   0   0    2.40    0.50
   8  -1   0  208.98    9.00
   8  -1   0  218.88    9.30
  -8   1   0  205.38    9.50
   7  -1   0  120.59    6.10
   7  -1   0  122.19    5.70
  -7   1   0  121.89    5.80
  -7   1   0  128.99    6.30
   6  -1   0   12.90    1.30
  -6   1   0   12.90    1.60
  -6   1   0   12.10    1.50
   5  -1   0   18.20    2.20
   5  -1   0   14.70    1.90
   4  -1   0   34.80    2.40
   4  -1   0   32.70    2.30
   4  -1   0   33.20    2.30
   3  -1   0    9.60    1.20
   3  -1   0    9.80    1.20
   3  -1   0    9.20    1.10
   2  -1   0   14.00    1.10
   2  -1   0   11.90    1.00
  -2   1   0   10.00    0.90
   1  -1   0    7.50    0.60
   1  -1   0    7.70    0.60
   0  -1   0  151.98    6.30
   0  -1   0  161.18    6.20
   0  -1   0  148.49    6.20
  -1  -1   0  111.19    4.80
  -1  -1   0  108.19    4.70
  -1  -1   0  112.19    4.70
   1   1   0  109.99    4.70
   1   1   0  110.59    4.60
  -2  -1   0 1483.85   59.69
  -2  -1   0 1382.26   59.49
  -2  -1   0 1499.25   59.59
   2   1   0 1464.75   59.59
   2   1   0 1608.04   59.49
   2   1   0 1509.75   59.59
  -3  -1   0   53.79    3.00
  -3  -1   0   61.49    3.20
   3   1   0   59.29    3.20
   3   1   0   60.69    3.00
   3   1   0   60.09    3.20
  -4  -1   0    0.40    0.60
  -4  -1   0    0.20    0.70
   4   1   0    0.30    0.60
   4   1   0    0.80    0.70
   4   1   0    0.60    0.60
   5   1   0    3.60    1.10
   5   1   0    5.40    1.20
   6   1   0    4.00    1.20
  -7  -1   0    0.40    0.90
   7   1   0    1.30    1.00
   7   1   0    1.60    1.20
   7   1   0    0.50    0.70
  -8  -1   0    6.90    1.30
   8   1   0    7.40    1.10
   8   1   0    5.60    1.10
   8   1   0   11.80    1.50
   9   1   0  214.98    8.60
   9   1   0  185.48    8.70
   9   1   0  200.18    8.50
   8  -2   0    8.10    0.90
   8  -2   0    8.50    1.00
   7  -2   0   14.40    1.70
   7  -2   0   14.00    1.30
  -7   2   0   15.80    1.50
  -7   2   0   18.10    2.00
   6  -2   0  552.44   23.80
   6  -2   0  565.34   23.60
  -6   2   0  611.54   24.30
  -6   2   0  584.14   23.70
  -6   2   0  553.74   23.80
   5  -2   0    0.50    0.70
   5  -2   0    0.70    0.70
   4  -2   0   -0.70    0.60
   4  -2   0    0.00    0.60
   4  -2   0   -0.10    0.50
   3  -2   0   35.50    2.10
   3  -2   0   30.90    2.10
   3  -2   0   33.20    2.10
   2  -2   0  301.87   12.50
   2  -2   0  300.47   12.60
   2  -2   0  299.37   12.50
   1  -2   0   27.70    1.40
   1  -2   0   22.50    1.30
   1  -2   0   25.90    1.30
   1  -2   0   27.20    1.40
   0  -2   0   65.09    2.90
   0  -2   0   65.29    3.00
   0  -2   0   67.49    2.90
  -1  -2   0  564.34   22.10
  -1  -2   0  538.85   22.10
  -1  -2   0  551.34   22.30
   1   2   0  546.85   22.10
   1   2   0  532.95   22.10
  -2  -2   0 9422.46  373.56
  -2  -2   0 8779.92  372.76
  -2  -2   0 9305.17  373.06
   2   2   0 9999.00  374.26
   2   2   0 8885.31  372.76
   2   2   0 9771.12  371.86
  -3  -2   0  270.47   11.10
  -3  -2   0  259.67   10.80
  -3  -2   0  226.38   10.80
   3   2   0  227.98   10.80
   3   2   0  264.97   11.00
   3   2   0  265.27   10.70
  -4  -2   0    0.80    0.70
  -4  -2   0    1.10    1.00
   4   2   0    1.30    0.90
   4   2   0    0.40    0.80
  -5  -2   0   -0.40    1.20
   5   2   0    0.60    0.80
   5   2   0    0.80    0.80
   6   2   0   29.90    2.80
  -7  -2   0   10.70    1.80
   7   2   0   10.70    1.70
   7   2   0   12.00    1.40
   7   2   0   10.70    1.40
   8   2   0    8.40    1.40
   8   2   0    7.70    1.50
   8   2   0   10.70    1.30
   9   2   0   10.80    1.00
   9   2   0   10.30    1.10
   9   2   0    8.40    1.10
   8  -3   0    3.50    0.60
   7  -3   0    4.20    0.90
  -7   3   0    3.30    1.00
  -7   3   0    4.20    0.90
  -6   3   0  265.17   11.70
  -6   3   0  274.17   11.60
  -6   3   0  261.57   11.70
  -5   3   0  189.88    8.50
  -5   3   0  182.98    8.40
  -5   3   0  181.88    8.30
  -5   3   0  186.58    8.70
   4  -3   0    4.50    1.10
   4  -3   0    4.00    1.00
   3  -3   0    1.20    0.70
   3  -3   0    1.00    0.60
   2  -3   0  115.39    5.30
   2  -3   0  115.79    5.30
   1  -3   0    2.60    0.60
   1  -3   0    2.10    0.60
   0  -3   0  100.59    4.30
   0  -3   0   95.19    4.30
   0  -3   0   95.69    4.50
  -1  -3   0    8.70    1.00
  -1  -3   0    8.60    0.90
  -1  -3   0    9.20    1.30
   1   3   0    8.10    1.10
  -2  -3   0 1094.99   44.60
  -2  -3   0 1123.89   45.00
  -2  -3   0 1116.79   44.70
   2   3   0 1069.59   44.70
   2   3   0 1132.49   44.60
  -3  -3   0  445.46   19.70
  -3  -3   0  483.75   20.10
  -3  -3   0  490.35   19.80
   3   3   0  479.85   19.70
   3   3   0  475.95   19.90
  -4  -3   0  312.87   14.00
  -4  -3   0  313.57   13.70
   4   3   0  310.77   13.50
   4   3   0  317.07   13.90
  -5  -3   0   36.40    3.10
  -5  -3   0   35.30    2.80
   5   3   0   39.50    3.00
   6   3   0    2.10    1.10
   7   3   0    1.10    0.80
   7   3   0    1.20    1.20
   7   3   0    0.50    1.20
   8   3   0   13.40    1.60
   8   3   0   10.90    1.70
   8   3   0   12.80    1.40
   9   3   0   17.80    1.50
   9   3   0   21.40    1.60
   9   3   0   19.00    1.40
   7  -4   0    0.50    0.50
  -7   4   0    0.60    0.60
  -6   4   0    1.00    1.00
  -6   4   0    0.30    0.70
  -6   4   0    0.20    0.70
  -5   4   0    2.60    0.90
  -5   4   0    2.30    0.90
  -5   4   0    1.90    0.80
  -4   4   0  518.15   21.60
  -4   4   0  536.45   21.90
  -4   4   0  513.95   21.80
   3  -4   0    8.10    1.20
   2  -4   0   87.39    4.20
   2  -4   0   74.19    3.90
   1  -4   0   19.30    1.40
   1  -4   0   22.80    1.50
   0  -4   0   23.60    1.60
   0  -4   0   25.30    1.60
   0  -4   0   22.70    1.80
  -1  -4   0   14.40    1.20
  -1  -4   0   14.20    1.50
  -1  -4   0   14.50    1.30
  -2  -4   0    6.90    1.10
  -2  -4   0    7.00    1.10
  -2  -4   0    6.30    1.30
   2   4   0    5.30    1.00
  -3  -4   0   11.80    1.50
  -3  -4   0   12.40    1.90
  -3  -4   0   11.90    1.50
   3   4   0   12.50    1.60
   3   4   0   11.00    1.40
  -5  -4   0   16.20    2.40
  -5  -4   0   18.80    2.30
   5   4   0   11.60    1.80
  -6  -4   0    0.10    1.00
  -6  -4   0    1.60    1.20
  -6  -4   0    0.10    0.70
   6   4   0    1.00    1.00
   6   4   0    1.20    0.70
   6   4   0    1.10    0.90
   6   4   0    1.30    1.00
   7   4   0    1.70    0.80
   7   4   0    1.70    1.20
   8   4   0    6.10    1.40
   8   4   0    3.50    1.20
   8   4   0    4.50    1.00
   9   4   0    0.00    0.80
   9   4   0    1.10    0.50
   9   4   0    0.70    0.70
  -6   5   0   -0.20    0.70
  -6   5   0    0.10    0.90
  -6   5   0    0.40    0.40
  -5   5   0    8.80    1.50
  -5   5   0    7.40    1.20
  -5   5   0    9.50    1.10
  -4   5   0  407.66   17.20
  -4   5   0  391.56   16.90
  -4   5   0  405.66   17.20
  -3   5   0  156.88    7.30
  -3   5   0  153.88    7.20
  -3   5   0  155.18    7.10
   2  -5   0  108.39    5.40
   1  -5   0   35.00    2.20
   1  -5   0   36.40    2.30
   0  -5   0   60.09    3.30
   0  -5   0   65.69    3.40
  -1  -5   0   12.50    1.40
  -1  -5   0   12.40    1.40
  -1  -5   0   12.60    1.60
  -2  -5   0   13.60    1.60
  -2  -5   0   13.20    1.60
  -2  -5   0   14.40    2.00
  -3  -5   0    0.30    0.60
  -3  -5   0   -0.50    0.90
  -3  -5   0    1.70    0.80
   3   5   0    0.20    0.70
  -4  -5   0   98.89    5.30
  -4  -5   0   93.29    5.70
   4   5   0   90.59    5.10
  -5  -5   0   68.09    4.40
  -5  -5   0   66.89    4.90
  -6  -5   0  111.39    5.30
   6   5   0  112.79    5.60
   6   5   0  109.89    5.50
   6   5   0  105.99    5.40
  -7  -5   0    1.20    0.80
   7   5   0    0.40    0.80
   7   5   0    0.40    0.70
   7   5   0    0.60    0.80
   8   5   0    1.60    1.10
   8   5   0    1.30    0.80
   9   5   0    3.90    0.60
   9   5   0    3.10    0.70
  -6   6   0    1.40    0.60
  -6   6   0    1.60    0.50
  -5   6   0    0.30    0.60
  -5   6   0    0.40    1.00
  -5   6   0    0.50    0.50
  -4   6   0    1.40    0.80
  -4   6   0    0.90    0.70
  -4   6   0    1.10    0.80
  -3   6   0    2.80    0.90
  -3   6   0    3.20    0.80
  -3   6   0    3.20    1.10
  -2   6   0  285.17   12.60
  -2   6   0  291.67   12.90
  -2   6   0  313.17   13.10
  -2   6   0  310.87   12.80
   1  -6   0    2.90    0.90
  -1   6   0    3.50    0.90
   0  -6   0    3.80    0.80
  -1  -6   0    3.50    1.00
  -1  -6   0    3.00    0.90
  -2  -6   0    9.20    1.70
  -2  -6   0   12.70    1.70
  -2  -6   0   12.70    1.70
  -3  -6   0   48.80    3.30
  -3  -6   0   49.50    3.80
  -3  -6   0   47.30    3.30
  -4  -6   0    3.60    1.50
  -4  -6   0    3.30    1.10
  -5  -6   0   32.40    2.10
   5   6   0   30.50    2.00
   5   6   0   31.20    2.40
  -6  -6   0  709.23   28.80
   6   6   0  688.53   29.00
   6   6   0  706.23   29.10
  -7  -6   0    2.40    0.90
   7   6   0    1.80    1.00
   7   6   0    2.40    1.10
   8   6   0    9.60    1.10
   8   6   0   11.70    1.60
   9   6   0    4.30    0.80
  -5   7   0    0.80    0.80
  -5   7   0    1.60    0.50
  -5   7   0    0.60    0.70
  -4   7   0    3.50    0.80
  -4   7   0    5.00    1.00
  -4   7   0    2.30    1.00
  -3   7   0    6.60    1.20
  -3   7   0    4.90    1.20
  -2   7   0  288.27   12.30
  -2   7   0  304.57   12.80
  -2   7   0  276.67   12.60
  -2   7   0  289.87   12.50
  -1   7   0   29.40    2.40
  -1   7   0   26.70    2.00
  -1   7   0   28.80    2.10
  -1   7   0   27.90    2.20
   0   7   0    0.20    0.70
   0   7   0    0.60    1.00
   0   7   0    0.80    0.80
   0   7   0    0.80    0.80
   0   7   0    0.10    0.70
  -1  -7   0    5.00    1.10
   1   7   0    7.30    1.10
   1   7   0    7.10    1.30
   1   7   0    8.30    1.10
   1   7   0    6.30    1.10
   1   7   0    7.10    1.00
   1   7   0    7.00    1.10
  -2  -7   0   36.20    2.80
  -2  -7   0   36.10    2.60
   2   7   0   34.10    2.10
   2   7   0   33.80    2.10
   2   7   0   32.70    2.10
   2   7   0   33.00    2.10
   2   7   0   33.80    2.30
  -3  -7   0    2.70    1.10
  -3  -7   0    5.20    0.90
  -3  -7   0    1.80    1.20
   3   7   0    5.20    0.90
   3   7   0    5.40    1.00
   3   7   0    5.20    1.30
   3   7   0    5.20    1.00
   3   7   0    5.80    1.00
  -4  -7   0   13.30    1.40
   4   7   0   14.20    1.60
   4   7   0   13.30    1.40
   4   7   0   11.70    1.40
   4   7   0   12.80    1.70
   4   7   0   14.90    1.50
  -5  -7   0    2.80    0.90
   5   7   0    2.00    0.80
   5   7   0    2.70    0.80
  -6  -7   0   12.60    1.40
   6   7   0   11.50    1.50
   6   7   0    9.50    1.40
  -7  -7   0    3.50    0.90
   7   7   0    2.50    1.00
  -8  -7   0   75.59    3.60
   8   7   0   81.49    3.90
   8   7   0   67.89    3.70
  -4   8   0    0.10    0.40
  -4   8   0    0.50    0.50
  -3   8   0    0.20    0.50
  -3   8   0    0.70    0.70
  -3   8   0   -0.10    0.60
  -2   8   0   -0.40    0.50
  -2   8   0   -0.40    1.10
  -2   8   0    0.10    1.00
  -2   8   0    0.00    0.40
  -1   8   0    4.60    1.00
  -1   8   0    4.20    0.90
  -1   8   0    4.40    1.30
   0   8   0  456.75   19.00
   0   8   0  488.85   19.20
   0   8   0  443.86   19.30
   0   8   0  448.46   19.00
   0   8   0  463.35   19.30
   1   8   0   76.09    4.00
   1   8   0   72.39    4.20
   1   8   0   78.69    3.90
   1   8   0   72.49    3.90
   1   8   0   78.09    3.90
   1   8   0   78.99    3.90
  -2  -8   0   53.59    3.70
   2   8   0   59.89    3.20
   2   8   0   60.09    3.20
   2   8   0   61.59    3.20
   2   8   0   59.49    3.20
   2   8   0   56.29    3.50
  -3  -8   0    5.20    1.00
  -3  -8   0    4.10    1.50
   3   8   0    5.60    1.30
   3   8   0    5.50    1.10
   3   8   0    5.70    1.00
   3   8   0    4.40    0.90
   3   8   0    5.60    1.10
  -4  -8   0    2.30    0.80
   4   8   0    2.20    0.90
   4   8   0    1.30    0.90
   4   8   0    0.50    0.80
   4   8   0    2.50    0.90
  -5  -8   0   11.90    1.40
   5   8   0   10.70    1.30
   5   8   0   13.20    1.50
  -6  -8   0   -0.20    0.50
   6   8   0    0.90    0.70
   6   8   0   -0.30    0.60
  -7  -8   0   37.70    2.40
   7   8   0   44.30    2.70
  -8  -8   0  129.49    6.10
   8   8   0  155.48    6.40
  -2   9   0    0.50    0.40
  -2   9   0    0.20    0.50
  -2   9   0   -0.20    0.60
  -1   9   0   12.10    1.40
  -1   9   0   15.20    1.40
  -1   9   0   15.00    1.30
   0   9   0   81.49    4.20
   0   9   0   79.39    3.90
   0   9   0   83.49    4.10
   0   9   0   77.59    4.20
   0   9   0   78.69    3.90
  -1  -9   0   95.29    5.10
   1   9   0   99.59    4.90
   1   9   0   96.69    4.60
   1   9   0   99.29    4.60
   1   9   0   99.79    4.60
   1   9   0   89.59    4.80
  -2  -9   0   27.10    2.40
   2   9   0   29.20    1.90
   2   9   0   29.30    1.90
   2   9   0   27.70    1.90
   2   9   0   30.10    2.40
   2   9   0   28.80    1.90
  -3  -9   0    2.40    0.70
   3   9   0    3.20    1.10
   3   9   0    2.50    0.80
   3   9   0    3.50    0.70
   3   9   0    3.50    0.90
   3   9   0    2.00    0.80
   4   9   0    5.50    1.10
   4   9   0    7.30    1.10
   4   9   0    4.30    0.80
   4   9   0    7.10    1.00
  -5  -9   0    2.60    0.70
   5   9   0    2.30    0.50
   5   9   0    2.20    0.60
   5   9   0    3.00    0.80
  -6  -9   0   -0.20    0.60
   6   9   0    0.30    0.90
   6   9   0   -0.30    0.60
  -7  -9   0    8.60    0.80
   7   9   0    8.90    0.90
   7   9   0   10.60    1.10
   0 -10   0    0.70    0.70
   0  10   0    0.80    0.60
   0  10   0    0.80    0.40
   0  10   0    0.60    0.80
  -1 -10   0   16.90    1.60
   1  10   0   18.60    1.30
   1  10   0   18.90    1.50
   1  10   0   21.40    1.40
   1  10   0   18.90    1.40
   2  10   0  102.99    5.00
   2  10   0  113.79    5.20
   2  10   0  111.09    5.00
   2  10   0  118.29    5.00
   3  10   0    0.40    0.40
   3  10   0    0.40    0.50
   3  10   0    0.20    0.40
   3  10   0    1.20    0.50
  -4 -10   0    4.70    0.70
   4  10   0    4.40    0.70
   4  10   0    3.50    0.70
   4  10   0    3.10    0.60
  -5 -10   0    1.60    0.60
   5  10   0    0.50    0.50
   5  10   0    1.70    0.60
  -6 -10   0    0.30    0.30
   6  10   0    0.30    0.40
   5  10  -1   16.50    1.10
  -5 -10   1   13.70    1.10
   4  10  -1    0.00    0.30
   4  10  -1   -0.20    0.30
   4  10  -1    0.40    0.40
  -4 -10   1   -0.30    0.30
   3  10  -1   41.10    1.90
   3  10  -1   39.50    1.90
   3  10  -1   26.90    1.80
   3  10  -1   28.40    1.80
  -3 -10   1   35.50    2.20
  -3 -10   1   35.00    1.90
   2  10  -1  262.17   11.30
   2  10  -1  279.07   11.30
   2  10  -1  271.97   11.20
   2  10  -1  265.37   11.20
  -2 -10   1  272.67   11.60
   1  10  -1    9.40    0.80
   1  10  -1    9.00    1.00
   1  10  -1    9.30    0.90
   1  10  -1    9.10    1.00
  -1 -10   1    7.10    1.00
   0  10  -1   -0.20    0.60
   0  10  -1    1.10    0.70
   0  10  -1   -0.30    0.40
   0 -10   1    0.00    0.70
   7   9  -1    0.90    0.40
  -7  -9   1    1.30    0.40
   6   9  -1    1.90    0.60
   6   9  -1    1.20    0.60
  -6  -9   1    1.50    0.50
   5   9  -1    2.30    0.70
   5   9  -1    2.20    0.80
   5   9  -1    2.90    0.70
  -5  -9   1    2.60    0.80
   4   9  -1    1.60    0.60
   4   9  -1    1.00    0.60
   4   9  -1    1.50    0.60
  -4  -9   1    1.60    0.80
  -4  -9   1    2.00    0.80
   3   9  -1    2.30    0.70
   3   9  -1    0.90    0.80
   3   9  -1    0.90    0.80
   3   9  -1    0.80    0.60
   3   9  -1    1.90    0.70
  -3  -9   1    1.40    1.00
  -3  -9   1    0.70    0.60
   2   9  -1    2.30    0.70
   2   9  -1    2.10    0.70
   2   9  -1    1.30    0.70
   2   9  -1    1.80    1.10
   2   9  -1    1.50    0.80
  -2  -9   1    1.30    0.60
  -2  -9   1    1.10    0.80
   1   9  -1   44.40    2.70
   1   9  -1   45.90    3.00
   1   9  -1   45.90    2.60
   1   9  -1   42.90    2.50
   1   9  -1   44.90    2.50
  -1  -9   1   44.20    3.10
   0   9  -1   59.59    3.20
   0   9  -1   65.89    3.40
   0   9  -1   67.29    3.20
   0   9  -1   64.19    3.30
   0   9  -1   64.79    3.50
  -1   9  -1   42.60    2.30
  -1   9  -1   40.00    2.50
  -1   9  -1   39.90    2.50
  -2   9  -1    0.60    0.80
  -2   9  -1    1.80    0.70
  -2   9  -1    1.40    0.40
   7   8  -1    1.60    0.80
  -7  -8   1    3.00    0.60
   6   8  -1    5.10    0.80
   6   8  -1    4.90    1.10
  -6  -8   1    6.50    1.00
   5   8  -1   10.10    1.10
  -5  -8   1    8.30    1.20
  -5  -8   1   10.50    1.60
   4   8  -1    1.00    0.80
   4   8  -1    0.80    0.70
   4   8  -1   -0.10    0.80
   4   8  -1    0.50    0.60
  -4  -8   1    0.90    1.10
  -4  -8   1    1.00    0.50
   3   8  -1   13.10    1.40
   3   8  -1   11.50    1.50
   3   8  -1   11.90    1.20
   3   8  -1   10.80    1.10
   3   8  -1   11.40    1.30
  -3  -8   1   14.00    1.90
  -3  -8   1   11.40    1.40
   2   8  -1   35.90    2.30
   2   8  -1   36.30    2.30
   2   8  -1   31.70    2.20
   2   8  -1   39.00    2.80
   2   8  -1   32.50    2.60
   2   8  -1   36.60    2.30
  -2  -8   1   32.10    2.60
  -2  -8   1   34.10    2.30
   1   8  -1  155.88    7.30
   1   8  -1  155.78    7.00
   1   8  -1  148.29    6.80
   1   8  -1  157.38    6.90
   1   8  -1  152.88    7.10
   1   8  -1  157.68    6.90
  -1  -8   1  139.79    6.80
   0   8  -1  410.96   17.10
   0   8  -1  422.56   17.50
   0   8  -1  392.86   17.00
   0   8  -1  429.56   17.30
   0   8  -1  399.86   17.30
  -1   8  -1   84.19    4.10
  -1   8  -1   76.69    4.00
  -1   8  -1   82.19    4.30
  -1   8  -1   82.89    4.40
  -2   8  -1   35.20    2.20
  -2   8  -1   41.30    2.60
  -2   8  -1   35.40    2.20
  -2   8  -1   34.30    2.50
  -3   8  -1    1.30    0.70
  -3   8  -1    1.20    0.60
  -3   8  -1    1.30    0.70
  -4   8  -1    6.60    0.80
  -4   8  -1    6.50    1.00
   7   7  -1    9.80    1.30
  -7  -7   1    8.70    1.10
   6   7  -1   15.50    1.70
   6   7  -1   16.80    1.90
  -6  -7   1   13.60    1.90
  -6  -7   1   16.80    1.60
   5   7  -1   -0.30    0.50
   5   7  -1   -0.40    0.60
  -5  -7   1    0.30    1.10
  -5  -7   1   -0.60    0.70
   4   7  -1   15.60    1.90
   4   7  -1   15.90    1.50
   4   7  -1   16.70    1.60
  -4  -7   1   15.70    2.00
  -4  -7   1   16.00    1.50
   3   7  -1    3.30    0.70
   3   7  -1    3.70    0.90
   3   7  -1    3.60    1.10
   3   7  -1    3.50    1.20
   3   7  -1    3.10    0.90
  -3  -7   1    4.20    0.90
  -3  -7   1    3.70    1.40
   2   7  -1   13.40    1.40
   2   7  -1   10.40    1.60
   2   7  -1   10.80    1.30
   2   7  -1   10.40    1.60
   2   7  -1    6.90    1.00
  -2  -7   1   10.00    1.80
  -2  -7   1   10.90    1.30
   1   7  -1   23.70    2.00
   1   7  -1   22.60    1.70
   1   7  -1   21.30    1.70
   1   7  -1   22.40    1.70
   1   7  -1   23.00    2.20
  -1  -7   1   19.20    1.60
   0   7  -1   18.80    1.60
   0   7  -1   18.90    2.10
   0   7  -1   18.90    1.60
   0   7  -1   19.70    1.80
  -1   7  -1  105.99    5.30
  -1   7  -1   84.29    5.80
  -1   7  -1   99.99    4.80
  -1   7  -1  111.49    5.10
  -1   7  -1  104.59    5.00
  -2   7  -1  168.58    7.50
  -2   7  -1  165.28    7.60
  -2   7  -1  162.78    7.70
  -2   7  -1  175.38    8.00
  -3   7  -1   -0.30    1.10
  -3   7  -1    0.70    0.50
  -3   7  -1    1.00    1.10
  -4   7  -1   27.60    2.00
  -4   7  -1   25.20    2.00
  -4   7  -1   19.70    1.60
  -5   7  -1    0.70    0.70
  -5   7  -1    3.70    0.80
   8   6  -1   12.60    1.30
   8   6  -1   11.30    1.30
   7   6  -1   53.89    3.30
   7   6  -1   52.89    3.30
  -7  -6   1   53.29    3.00
   6   6  -1  440.96   18.40
  -6  -6   1  410.56   18.40
  -6  -6   1  434.56   18.00
   5   6  -1    0.10    0.70
   5   6  -1    1.00    1.00
  -5  -6   1    1.40    0.80
  -5  -6   1    1.70    1.20
   4   6  -1   65.19    3.90
   4   6  -1   71.89    3.60
  -4  -6   1   73.29    3.70
  -4  -6   1   73.69    4.60
  -3  -6   1    0.20    0.70
  -3  -6   1   -0.60    0.90
  -2  -6   1    3.00    1.40
  -2  -6   1    3.70    1.00
  -2  -6   1    3.20    0.90
  -1  -6   1   69.99    4.00
  -1  -6   1   61.79    3.80
   0  -6   1    0.00    0.60
   0  -6   1    0.40    0.60
  -1   6  -1   48.90    2.90
  -1   6  -1   49.40    3.10
   1  -6   1   50.69    3.30
  -2   6  -1  329.57   14.10
  -2   6  -1  327.87   14.20
  -2   6  -1  353.56   14.60
  -2   6  -1  332.47   14.40
  -3   6  -1   11.10    1.60
  -3   6  -1   14.00    1.50
  -3   6  -1   12.50    1.50
  -4   6  -1    0.40    0.70
  -4   6  -1    0.30    0.90
  -4   6  -1    1.30    1.20
  -5   6  -1   11.20    1.00
  -5   6  -1    9.20    1.20
  -5   6  -1   12.10    1.50
  -6   6  -1   -0.20    0.70
   9   5  -1    0.30    0.50
   9   5  -1    1.40    0.40
   8   5  -1    0.90    0.50
   8   5  -1   -1.00    0.90
   7   5  -1    5.60    1.10
   7   5  -1    6.70    1.40
   7   5  -1    5.10    1.00
  -7  -5   1    3.90    1.10
   6   5  -1  261.17   11.30
   6   5  -1  273.77   11.80
   6   5  -1  262.17   11.60
  -6  -5   1  260.07   11.40
  -6  -5   1  254.77   11.80
   5   5  -1    2.40    1.00
  -5  -5   1    0.80    1.10
  -5  -5   1    1.60    1.10
  -5  -5   1    1.40    1.20
  -4  -5   1   99.89    6.10
  -4  -5   1  100.69    5.60
   3   5  -1   50.89    3.30
  -3  -5   1   50.49    3.80
  -3  -5   1   53.39    3.40
  -2  -5   1   46.80    3.40
  -2  -5   1   48.90    3.10
  -2  -5   1   48.10    3.10
  -1  -5   1   34.80    2.40
  -1  -5   1   36.70    3.00
  -1  -5   1   33.30    2.40
   0  -5   1    0.80    0.60
   0  -5   1    1.60    0.70
   1  -5   1    6.20    1.10
   1  -5   1    4.30    0.90
   2  -5   1    0.90    0.70
  -3   5  -1  199.08    8.80
  -3   5  -1  186.08    8.50
  -3   5  -1  197.78    8.80
  -4   5  -1   44.00    2.70
  -4   5  -1   46.20    3.00
  -4   5  -1   46.60    3.10
  -5   5  -1   15.60    1.50
  -5   5  -1   18.50    1.70
  -5   5  -1   15.20    1.70
  -6   5  -1    3.50    1.10
  -6   5  -1    6.10    0.90
   9   4  -1    6.80    0.80
   8   4  -1    9.40    1.10
   8   4  -1    4.70    1.30
  -8  -4   1    7.10    1.30
  -8  -4   1    5.70    1.10
   7   4  -1    1.40    0.90
   7   4  -1    2.70    1.30
  -7  -4   1    1.20    0.90
   6   4  -1    2.30    1.00
   6   4  -1    1.10    0.70
   6   4  -1    1.70    1.10
  -6  -4   1    3.60    1.10
   5   4  -1   58.89    4.00
  -5  -4   1   49.70    4.00
  -5  -4   1   58.29    3.90
   4   4  -1  742.93   31.20
  -4  -4   1  746.53   31.60
  -4  -4   1  746.43   31.10
   3   4  -1   23.40    2.00
   3   4  -1   24.50    2.10
  -3  -4   1   25.50    2.40
  -3  -4   1   24.80    2.10
   2   4  -1  492.55   21.00
   2   4  -1  493.25   21.20
  -2  -4   1  487.75   21.10
  -2  -4   1  515.25   21.40
  -2  -4   1  530.85   21.10
  -1  -4   1   61.09    3.30
  -1  -4   1   61.79    3.40
  -1  -4   1   62.59    3.60
   0  -4   1    2.60    0.70
   0  -4   1    1.90    0.60
   1  -4   1   30.30    2.00
   1  -4   1   33.30    2.10
   2  -4   1   14.30    1.40
   2  -4   1   16.90    1.50
   3  -4   1   56.09    3.50
   3  -4   1   56.99    3.40
  -4   4  -1  236.08   10.40
  -4   4  -1  241.78   10.70
  -4   4  -1  249.18   10.70
  -5   4  -1   58.99    3.50
  -5   4  -1   54.89    3.00
  -5   4  -1   53.39    3.20
  -6   4  -1   35.00    2.30
   6  -4   1   29.50    2.20
  -7   4  -1    1.70    0.70
   7  -4   1    1.20    0.60
   9   3  -1   29.50    1.90
   9   3  -1   27.30    1.70
   9   3  -1   27.30    1.90
   8   3  -1   19.40    1.80
   8   3  -1   19.30    1.60
   8   3  -1   18.10    2.10
  -8  -3   1   18.70    1.80
  -8  -3   1   20.70    1.80
   7   3  -1   62.79    3.90
   7   3  -1   66.09    3.50
   7   3  -1   67.49    4.00
  -7  -3   1   62.39    3.90
   6   3  -1    3.50    1.20
   6   3  -1    0.90    0.70
   6   3  -1    1.80    1.10
  -6  -3   1    1.70    0.90
   5   3  -1   12.20    1.80
  -5  -3   1   10.50    1.70
  -5  -3   1    8.90    1.70
   4   3  -1  797.22   32.00
   4   3  -1  725.93   31.60
  -4  -3   1  779.72   31.90
  -4  -3   1  774.42   32.30
   3   3  -1  226.88   10.10
   3   3  -1  223.28    9.90
  -3  -3   1  226.28   10.30
  -3  -3   1  224.68   10.00
   2   3  -1  143.49    6.60
   2   3  -1  141.69    6.40
  -2  -3   1  144.99    6.50
  -2  -3   1  135.99    6.50
  -2  -3   1  143.49    6.80
   1   3  -1  313.47   13.20
   1   3  -1  307.07   13.20
  -1  -3   1  319.47   13.20
  -1  -3   1  312.87   13.40
  -1  -3   1  318.47   13.20
   0   3  -1    0.40    0.40
   0  -3   1    0.40    0.50
   0  -3   1    0.20    0.50
   0  -3   1    0.30    0.60
   1  -3   1    0.00    0.40
   1  -3   1    0.10    0.40
   2  -3   1    1.90    0.60
   2  -3   1    1.80    0.70
   3  -3   1    0.90    0.80
   3  -3   1    1.50    0.70
   3  -3   1    0.00    0.70
   4  -3   1    0.50    0.70
   4  -3   1    0.90    0.70
  -5   3  -1   98.39    4.80
  -5   3  -1   89.69    4.90
  -6   3  -1   86.99    4.50
   6  -3   1   87.69    4.30
  -7   3  -1   14.80    1.40
   7  -3   1   14.30    1.40
   7  -3   1   13.80    1.10
   8  -3   1    0.60    0.60
   9   2  -1   28.30    1.70
   9   2  -1   31.10    1.90
   9   2  -1   21.10    1.60
   8   2  -1    2.90    0.90
   8   2  -1    3.70    1.10
   8   2  -1    2.80    1.10
  -8  -2   1    3.90    1.00
  -8  -2   1    3.20    0.90
   7   2  -1   61.49    3.40
   7   2  -1   62.29    3.80
   7   2  -1   66.79    4.00
  -7  -2   1   61.69    3.50
  -7  -2   1   60.59    3.90
   6   2  -1    1.00    0.70
   6   2  -1    1.20    1.00
   6   2  -1   -0.50    0.90
  -6  -2   1    2.00    1.00
   5   2  -1   22.80    2.20
   5   2  -1   20.00    2.40
  -5  -2   1   19.70    2.20
   4   2  -1   24.80    2.10
   4   2  -1   22.60    1.90
  -4  -2   1   27.00    2.40
  -4  -2   1   19.80    1.90
   3   2  -1   27.10    1.80
   3   2  -1   24.80    2.00
   3   2  -1   23.00    1.90
  -3  -2   1   26.30    2.20
  -3  -2   1   24.90    1.90
   2   2  -1 2184.08   91.29
   2   2  -1 2353.66   91.19
   2   2  -1 2388.96   91.39
  -2  -2   1 2267.57   91.49
  -2  -2   1 2357.16   91.29
  -2  -2   1 2162.48   91.19
   1   2  -1    1.10    0.60
   1   2  -1    0.70    0.60
  -1  -2   1    0.50    0.50
  -1  -2   1    0.00    0.60
  -1  -2   1    0.70    0.60
   0   2  -1 1043.00   42.10
   0  -2   1 1040.10   42.10
   0  -2   1 1025.20   42.10
   0  -2   1 1088.69   42.10
  -1   2  -1   68.59    3.30
   1  -2   1   65.69    3.00
   1  -2   1   74.39    3.40
   1  -2   1   74.29    3.40
   2  -2   1  378.86   16.00
   2  -2   1  394.76   16.10
   3  -2   1    6.10    1.10
   3  -2   1    7.30    1.10
   3  -2   1    9.40    1.30
   4  -2   1    4.80    1.20
   4  -2   1    5.00    1.10
   4  -2   1    4.30    1.00
   5  -2   1   26.60    2.40
  -6   2  -1   51.49    3.60
  -6   2  -1   57.39    3.50
   6  -2   1   58.59    3.10
   7  -2   1   42.30    2.60
   7  -2   1   41.30    2.40
   8  -2   1   51.59    2.70
   8  -2   1   53.99    2.90
   9   1  -1    9.40    1.00
   9   1  -1    9.30    0.90
  -9  -1   1    8.30    1.10
   8   1  -1    7.70    1.40
   8   1  -1    8.50    1.20
   8   1  -1    7.20    1.00
  -8  -1   1   10.90    1.20
  -8  -1   1    5.30    1.20
   7   1  -1   47.50    3.10
   7   1  -1   48.10    2.80
  -7  -1   1   50.59    3.40
  -7  -1   1   48.30    3.00
   6   1  -1    0.40    0.80
   6   1  -1    1.60    0.70
   6   1  -1    0.20    0.90
  -6  -1   1    1.00    0.90
  -6  -1   1    0.20    1.00
   5   1  -1    6.40    1.30
   5   1  -1    7.70    1.50
   4   1  -1   13.90    1.50
   4   1  -1   11.60    1.60
   4   1  -1   11.80    1.50
  -4  -1   1   10.50    1.60
   3   1  -1   11.30    1.30
   3   1  -1    9.90    1.30
   3   1  -1    9.80    1.20
  -3  -1   1    9.60    1.20
  -3  -1   1   11.00    1.40
   2   1  -1  646.44   25.60
   2   1  -1  630.94   25.70
   2   1  -1  622.84   25.70
  -2  -1   1  634.74   25.90
  -2  -1   1  631.24   25.70
   1   1  -1   34.00    1.80
   1   1  -1   36.10    1.80
   1   1  -1   32.70    1.80
  -1  -1   1   32.10    1.80
  -1  -1   1   33.70    1.90
   0   1  -1  494.75   20.40
   0   1  -1  539.85   20.40
   0  -1   1  504.45   20.40
   0  -1   1  494.45   20.40
   0  -1   1  499.85   20.40
  -1   1  -1   10.00    0.90
   1  -1   1    8.80    0.80
   1  -1   1    8.70    0.90
  -2   1  -1  800.02   34.00
   2  -1   1  856.91   34.10
   2  -1   1  874.61   33.90
   3  -1   1   21.20    1.60
   3  -1   1   22.00    1.60
   3  -1   1   22.30    1.70
   4  -1   1    1.00    0.60
   4  -1   1    1.20    0.80
   4  -1   1    1.20    0.70
   5  -1   1    8.30    1.50
   5  -1   1    7.60    1.50
  -6   1  -1    5.10    1.20
   6  -1   1    3.40    1.10
   6  -1   1    4.20    0.90
  -7   1  -1   49.99    3.30
   7  -1   1   53.39    3.30
   7  -1   1   54.39    3.00
   8  -1   1   72.49    3.70
   8  -1   1   77.59    3.90
   8  -1   1   75.59    4.00
   9  -1   1    1.50    0.50
   9  -1   1    2.00    0.40
   9   0  -1    2.60    0.60
   9   0  -1    2.70    0.70
   9   0  -1    4.10    0.50
   8   0  -1   66.69    3.40
   8   0  -1   68.69    3.70
  -8   0   1   63.39    3.40
  -8   0   1   64.39    3.80
   7   0  -1    1.20    0.80
  -7   0   1    2.30    0.90
  -7   0   1    1.70    1.10
   6   0  -1   16.50    1.50
   6   0  -1   14.70    1.60
   6   0  -1   18.60    2.50
  -6   0   1   18.20    1.70
  -6   0   1   18.30    2.10
   5   0  -1    8.60    1.50
   5   0  -1   11.10    1.80
   4   0  -1  145.59    6.90
   4   0  -1  146.09    6.90
   4   0  -1  138.09    6.70
   3   0  -1    6.70    1.00
   3   0  -1    5.60    0.90
   3   0  -1    5.20    0.90
  -3   0   1    5.70    1.10
   2   0  -1    6.20    0.90
   2   0  -1    6.40    0.80
   2   0  -1    6.60    0.90
  -2   0   1    6.60    0.80
  -2   0   1    7.10    1.00
   1   0  -1  848.02   35.00
   1   0  -1  908.81   35.00
   1   0  -1  856.51   35.00
  -1   0   1  893.81   35.20
   0   0  -1  499.55   20.20
   0   0  -1  524.95   20.30
   0   0  -1  497.75   20.30
   0   0   1  504.95   20.40
   0   0   1  508.15   20.20
  -1   0  -1   55.29    2.50
   1   0   1   54.79    2.50
   1   0   1   51.79    2.50
   1   0   1   57.09    2.30
  -2   0  -1 3581.94  142.19
  -2   0  -1 3315.97  141.99
   2   0   1 3820.02  142.79
   2   0   1 3576.94  142.19
   2   0   1 3593.54  142.19
  -3   0  -1  161.08    7.20
   3   0   1  168.68    7.10
   3   0   1  161.88    7.30
   3   0   1  160.98    7.30
   4   0   1   42.50    2.70
   4   0   1   40.50    2.50
   4   0   1   38.90    2.60
   5   0   1   10.20    1.40
   5   0   1   12.30    1.80
   5   0   1   12.20    1.70
   6   0   1    6.70    1.10
   6   0   1    2.00    1.00
   6   0   1    6.40    1.30
   7   0   1    5.10    1.10
   7   0   1    3.80    0.90
   8   0   1   23.60    1.90
   8   0   1   24.20    2.10
   8   0   1   22.20    1.60
   9   0   1    7.80    1.00
   9   0   1    7.90    0.90
   9   0   1    8.60    0.90
   8  -1  -1   58.59    3.00
   8  -1  -1   65.89    3.40
  -8   1   1   69.19    3.60
  -8   1   1   55.29    3.10
   7  -1  -1    1.30    0.70
   7  -1  -1    2.30    1.00
  -7   1   1    2.70    0.80
  -7   1   1    1.40    1.10
   6  -1  -1   -0.30    0.60
  -6   1   1    0.00    0.80
  -6   1   1   -0.20    0.90
   5  -1  -1   39.80    2.90
   5  -1  -1   47.90    3.20
   4  -1  -1   62.29    3.70
   4  -1  -1   69.09    3.70
   4  -1  -1   67.29    3.80
   3  -1  -1   61.79    3.30
   3  -1  -1   67.99    3.40
   3  -1  -1   62.39    3.30
   2  -1  -1   31.10    1.60
   2  -1  -1   27.10    1.60
   2  -1  -1   27.50    1.70
   1  -1  -1  575.84   22.20
   1  -1  -1  536.75   22.00
   1  -1  -1  558.04   22.00
   1  -1  -1  535.75   22.00
  -1  -1  -1  317.67   12.60
  -1  -1  -1  302.77   12.40
  -1  -1  -1  310.37   12.40
   1   1   1  296.37   12.50
   1   1   1  308.37   12.30
  -2  -1  -1  298.97   12.10
  -2  -1  -1  287.47   12.00
  -2  -1  -1  294.27   12.00
   2   1   1  309.57   11.90
   2   1   1  263.47   12.00
   2   1   1  291.47   12.10
  -3  -1  -1  175.18    7.70
  -3  -1  -1  182.38    7.80
   3   1   1  182.18    7.90
   3   1   1  163.08    7.70
   3   1   1  177.38    7.50
  -4  -1  -1    9.10    1.40
   4   1   1    9.10    1.40
   4   1   1    7.40    1.20
   4   1   1    7.30    1.10
   5   1   1  164.98    7.50
   5   1   1  127.49    6.80
   6   1   1    0.10    0.80
   7   1   1    5.90    1.10
   7   1   1    6.00    1.10
   7   1   1    5.70    1.40
   8   1   1    0.10    0.80
   8   1   1    1.70    1.10
   8   1   1    0.60    0.50
   9   1   1   17.70    1.50
   9   1   1   23.20    1.40
   8  -2  -1    0.70    0.50
   8  -2  -1    0.90    0.50
  -8   2   1    0.30    0.50
   7  -2  -1   10.90    1.30
  -7   2   1   12.30    1.40
  -6   2   1   12.10    1.80
  -6   2   1   10.30    1.30
  -6   2   1    6.70    1.20
  -6   2   1   12.20    1.50
   5  -2  -1    3.60    1.10
  -5   2   1    2.70    1.00
  -5   2   1    4.70    1.20
   4  -2  -1   94.59    5.30
   4  -2  -1  114.39    5.40
   4  -2  -1   98.59    5.10
   3  -2  -1  139.89    6.40
   3  -2  -1  147.79    6.50
   3  -2  -1  142.19    6.70
   2  -2  -1  125.79    5.60
   2  -2  -1  121.79    5.30
   2  -2  -1  121.09    5.30
   1  -2  -1   45.50    2.00
   1  -2  -1   45.10    2.00
   1  -2  -1   48.60    2.00
   0  -2  -1   66.99    2.80
   0  -2  -1   71.69    2.80
   0  -2  -1   71.09    3.30
   0  -2  -1   68.29    2.90
  -1  -2  -1   25.60    1.40
  -1  -2  -1   25.80    1.70
  -1  -2  -1   22.30    1.30
   1   2   1   25.00    1.30
  -2  -2  -1  635.94   26.10
  -2  -2  -1  670.03   26.40
  -2  -2  -1  637.94   26.10
   2   2   1  609.34   26.10
   2   2   1  671.33   26.00
  -3  -2  -1    5.80    1.00
  -3  -2  -1    4.00    1.00
  -3  -2  -1    3.40    0.80
   3   2   1    3.90    0.90
   3   2   1    4.80    0.80
  -4  -2  -1  332.17   14.50
  -4  -2  -1  347.77   14.50
   4   2   1  346.97   14.60
   4   2   1  320.97   14.20
  -5  -2  -1   20.50    1.90
   5   2   1   16.80    1.80
   5   2   1   20.40    2.00
   6   2   1   46.00    3.50
   7   2   1    1.80    0.90
   7   2   1    2.40    1.20
   7   2   1    1.30    1.20
   8   2   1    2.60    1.30
   8   2   1    2.40    0.70
   8   2   1    1.50    1.00
   9   2   1    3.10    0.80
   9   2   1    4.30    0.80
   9   2   1    3.50    0.90
   8  -3  -1   -0.50    0.40
  -7   3   1    7.50    1.10
  -6   3   1   57.29    3.60
  -6   3   1   61.59    3.70
  -6   3   1   60.79    3.30
  -6   3   1   59.19    3.60
  -5   3   1   12.60    1.60
  -5   3   1    9.40    1.20
  -5   3   1    9.70    1.50
  -5   3   1   12.30    1.60
   4  -3  -1   14.70    1.50
   3  -3  -1  108.49    5.70
   3  -3  -1  122.89    5.60
   2  -3  -1    3.30    0.60
   2  -3  -1    3.50    0.60
   2  -3  -1    3.10    0.80
   1  -3  -1    5.40    0.50
   1  -3  -1    4.90    0.50
   1  -3  -1    5.50    0.80
   0  -3  -1  245.58   10.70
   0  -3  -1  277.17   10.70
   0  -3  -1  265.47   11.20
   0  -3  -1  264.87   10.70
  -1  -3  -1  191.38    8.20
  -1  -3  -1  177.08    7.70
  -1  -3  -1  184.38    7.70
  -2  -3  -1    4.40    0.80
  -2  -3  -1    4.00    1.00
  -2  -3  -1    4.80    0.90
   2   3   1    5.10    0.80
   2   3   1    4.00    0.90
  -3  -3  -1   17.20    1.50
  -3  -3  -1   15.60    1.50
  -3  -3  -1   20.00    1.90
   3   3   1   17.40    1.40
   3   3   1   15.20    1.50
  -4  -3  -1    0.20    0.90
  -4  -3  -1    1.00    0.80
   4   3   1    0.30    0.70
   4   3   1    1.30    0.80
  -5  -3  -1   15.60    2.00
  -5  -3  -1   10.20    1.70
   5   3   1   12.90    1.90
   5   3   1   11.30    1.50
   6   3   1    8.30    1.60
   7   3   1   54.79    3.10
   7   3   1   53.79    3.60
   7   3   1   56.49    3.50
   8   3   1    8.00    1.20
   8   3   1    8.00    1.50
   8   3   1    7.30    1.40
   9   3   1   16.90    1.60
   9   3   1   15.30    1.20
   9   3   1   18.40    1.80
   7  -4  -1    0.50    0.50
  -7   4   1    0.70    0.50
  -7   4   1    1.00    0.50
  -7   4   1    1.70    0.60
  -6   4   1    0.60    0.70
  -6   4   1    0.30    0.80
  -6   4   1    0.50    0.60
  -5   4   1    6.60    1.30
  -5   4   1   11.90    1.60
  -5   4   1    6.30    1.10
  -4   4   1   27.00    2.10
  -4   4   1   25.10    2.20
  -4   4   1   26.30    2.30
  -4   4   1   24.50    2.00
   3  -4  -1    0.60    0.50
   2  -4  -1   26.50    1.70
   2  -4  -1   21.20    1.90
   1  -4  -1  250.57   10.50
   0  -4  -1    5.30    0.70
   0  -4  -1    6.60    0.80
   0  -4  -1    7.10    1.10
  -1  -4  -1   19.60    1.30
  -1  -4  -1   18.90    1.30
  -1  -4  -1   21.00    1.90
  -2  -4  -1   -0.30    0.40
  -2  -4  -1   -0.10    0.40
  -2  -4  -1    0.20    0.80
  -3  -4  -1   14.40    1.90
  -3  -4  -1   12.70    1.50
  -3  -4  -1   13.00    1.50
   3   4   1   12.40    1.40
  -4  -4  -1   67.19    4.20
  -4  -4  -1   63.69    3.80
   4   4   1   60.29    3.50
  -5  -4  -1   16.20    2.30
  -5  -4  -1   17.90    2.30
   5   4   1   15.50    2.10
   5   4   1   12.50    1.90
  -6  -4  -1  218.08    9.30
  -6  -4  -1  195.18   10.80
  -6  -4  -1  197.78    9.90
   6   4   1  184.28    9.00
   6   4   1  197.98   10.10
  -7  -4  -1    4.10    1.00
   7   4   1    3.40    1.20
   7   4   1    2.90    1.20
   7   4   1    4.00    0.90
   8   4   1    2.90    1.20
   8   4   1    5.00    1.00
   8   4   1    5.30    1.10
   9   4   1    6.20    1.10
   9   4   1    6.00    0.80
   9   4   1    7.80    1.10
  -6   5   1   37.00    2.10
  -6   5   1   36.50    2.50
  -6   5   1   34.10    2.20
  -5   5   1   37.40    2.60
  -5   5   1   40.70    2.60
  -5   5   1   36.60    2.70
  -4   5   1    9.10    1.40
  -4   5   1    6.70    1.40
  -4   5   1   10.80    1.40
  -3   5   1   47.80    2.90
  -3   5   1   50.79    3.10
  -3   5   1   47.30    3.10
   2  -5  -1  114.19    5.50
   1  -5  -1   81.49    4.00
   0  -5  -1   65.39    3.30
  -1  -5  -1   77.29    3.80
  -1  -5  -1   71.09    4.20
  -1  -5  -1   71.29    3.60
  -2  -5  -1   64.89    4.10
  -2  -5  -1   61.89    3.40
  -2  -5  -1   60.49    3.40
  -3  -5  -1   48.10    3.00
  -3  -5  -1   48.90    3.50
  -3  -5  -1   46.30    3.00
  -4  -5  -1    2.00    1.00
  -4  -5  -1    2.20    1.20
   4   5   1    0.30    0.80
  -5  -5  -1   14.20    2.40
  -5  -5  -1    6.60    1.40
  -6  -5  -1    1.50    0.80
   6   5   1    0.70    0.80
   6   5   1    2.10    1.00
  -7  -5  -1    1.50    0.80
   7   5   1    1.00    0.80
   7   5   1    0.00    0.90
   8   5   1    3.50    1.20
   8   5   1    3.40    0.90
   9   5   1   16.60    1.50
  -6   6   1   -0.10    0.50
  -6   6   1   -0.10    0.40
  -5   6   1    7.10    1.10
  -5   6   1    7.10    1.10
  -4   6   1    5.20    1.20
  -4   6   1    8.20    1.10
  -4   6   1    7.20    1.20
  -3   6   1    0.50    1.00
  -3   6   1    1.70    0.80
  -3   6   1    0.50    0.80
  -2   6   1   48.30    3.00
  -2   6   1   44.50    2.60
  -2   6   1   49.90    2.90
  -2   6   1   45.40    2.90
   1  -6  -1    6.70    1.00
   0  -6  -1   20.30    1.60
  -1  -6  -1  104.29    5.20
  -2  -6  -1  135.59    6.60
  -2  -6  -1  136.29    7.20
  -2  -6  -1  129.39    6.40
  -3  -6  -1   49.50    3.90
  -3  -6  -1   51.99    3.30
  -3  -6  -1   54.89    3.40
  -4  -6  -1    1.80    1.30
  -4  -6  -1    1.30    0.80
  -5  -6  -1    8.20    1.10
   5   6   1    7.30    1.00
   5   6   1    5.90    1.10
  -6  -6  -1    7.70    1.20
   6   6   1    8.70    1.30
   6   6   1    4.70    1.20
  -7  -6  -1    2.10    0.90
   7   6   1    1.00    1.00
   7   6   1    0.40    0.80
  -8  -6  -1   50.49    3.00
   8   6   1   60.39    3.30
   9   6   1   20.70    1.60
  -5   7   1    0.00    0.30
  -5   7   1    0.20    0.60
  -5   7   1    0.70    0.70
  -4   7   1    6.30    0.90
  -4   7   1    4.30    1.00
  -4   7   1    4.90    0.90
  -3   7   1    2.90    1.00
  -3   7   1    3.70    0.90
  -3   7   1    4.60    1.00
  -2   7   1    6.70    1.30
  -2   7   1    8.80    1.20
  -2   7   1    8.70    1.30
  -2   7   1    8.20    1.10
  -1   7   1    8.90    1.20
  -1   7   1    7.80    1.10
  -1   7   1    6.40    1.10
   0   7   1   13.40    1.40
   0   7   1   12.70    1.30
   0   7   1   13.60    1.50
   0   7   1   10.90    1.30
   0   7   1   13.20    1.30
  -1  -7  -1   33.80    2.40
   1   7   1   27.80    1.90
   1   7   1   30.80    2.10
   1   7   1   28.10    1.90
   1   7   1   30.00    2.00
   1   7   1   30.50    2.00
  -2  -7  -1    5.00    1.10
   2   7   1    6.40    1.00
   2   7   1    6.10    1.00
   2   7   1    5.40    1.00
   2   7   1    6.40    1.20
   2   7   1    4.90    0.90
  -3  -7  -1    3.80    1.20
  -3  -7  -1    2.90    1.10
   3   7   1    2.10    0.80
   3   7   1    3.00    1.20
   3   7   1    2.00    0.90
   3   7   1    4.30    0.90
   3   7   1    4.50    1.00
  -4  -7  -1   82.09    4.10
   4   7   1   83.59    4.20
   4   7   1   79.69    4.00
   4   7   1   86.69    4.10
   4   7   1   83.59    4.50
   4   7   1   89.99    4.20
  -5  -7  -1   13.40    1.40
   5   7   1   11.60    1.40
   5   7   1   12.90    1.50
  -6  -7  -1    1.50    0.80
   6   7   1    1.90    0.80
   6   7   1    1.10    0.90
  -7  -7  -1   16.10    1.50
   7   7   1   18.40    1.90
   7   7   1   15.30    1.50
  -8  -7  -1   -0.80    0.60
   8   7   1    0.30    0.80
   8   7   1    0.40    0.60
   9   7   1    7.40    1.00
   9   7   1    7.90    0.80
  -4   8   1   14.00    1.20
  -4   8   1   13.80    1.20
  -4   8   1   18.40    1.20
  -3   8   1    2.10    0.90
  -3   8   1    2.70    0.70
  -3   8   1    2.80    0.70
  -2   8   1    2.20    0.80
  -2   8   1    1.10    0.90
  -2   8   1    0.80    0.70
  -1   8   1    1.80    0.80
  -1   8   1    1.70    0.80
  -1   8   1    0.60    0.90
   0   8   1    1.70    0.90
   0   8   1    3.30    1.10
   0   8   1    2.40    0.70
   0   8   1    2.00    1.00
   0   8   1    2.50    0.70
   1   8   1    9.40    1.20
   1   8   1    8.30    1.30
   1   8   1    7.10    1.00
   1   8   1    8.10    1.10
   1   8   1    9.20    1.10
   2   8   1   27.60    1.90
   2   8   1   31.40    2.40
   2   8   1   27.80    2.00
   2   8   1   26.90    2.00
   2   8   1   27.70    1.80
   3   8   1  219.68   10.50
   3   8   1  241.38   10.00
   3   8   1  227.98   10.00
   3   8   1  235.18   10.00
   3   8   1  233.58   10.00
   3   8   1  233.18   10.20
  -4  -8  -1    1.40    0.70
   4   8   1    0.70    0.90
   4   8   1    0.90    0.70
   4   8   1    1.10    0.80
   4   8   1    1.40    0.90
   4   8   1    1.50    0.80
  -5  -8  -1   10.00    1.20
   5   8   1   10.30    1.30
   5   8   1    7.00    1.30
  -6  -8  -1   -0.10    0.50
   6   8   1    0.40    0.50
   6   8   1    0.10    0.60
  -7  -8  -1   18.30    1.50
   7   8   1   16.20    1.60
  -8  -8  -1    0.30    0.40
   8   8   1    0.80    0.50
   8   8   1    0.30    0.70
  -2   9   1   15.30    1.10
  -2   9   1   18.50    1.40
  -2   9   1   19.80    1.50
  -1   9   1   15.00    1.50
  -1   9   1   17.20    1.30
  -1   9   1   15.00    1.40
   0   9   1    0.20    0.90
   0   9   1    0.70    0.70
   0   9   1    0.00    0.70
   0   9   1    0.30    0.80
   0   9   1    0.00    0.70
   1   9   1   56.29    3.00
   1   9   1   49.99    2.80
   1   9   1   55.09    3.30
   1   9   1   52.29    3.00
   2   9   1   13.50    1.20
   2   9   1   13.80    1.30
   2   9   1   12.10    1.60
   2   9   1   13.60    1.40
   2   9   1   13.30    1.20
   3   9   1   41.90    2.50
   3   9   1   41.30    2.40
   3   9   1   39.70    2.40
   3   9   1   43.40    2.40
   3   9   1   41.00    2.40
  -4  -9  -1    6.50    1.00
   4   9   1    5.00    1.10
   4   9   1    6.10    0.80
   4   9   1    5.70    1.00
   4   9   1    4.90    0.90
  -5  -9  -1   29.20    1.80
   5   9   1   28.00    1.70
   5   9   1   32.10    1.90
   5   9   1   26.50    1.70
   5   9   1   29.30    2.10
  -6  -9  -1    7.60    1.00
   6   9   1    5.60    0.80
   6   9   1    7.30    1.10
   6   9   1    7.30    0.90
  -7  -9  -1    1.90    0.50
   7   9   1    2.10    0.70
   7   9   1    0.90    0.60
   0  10   1    8.60    1.00
   0  10   1    6.10    0.90
   1  10   1    4.00    0.70
   1  10   1    3.70    0.70
   1  10   1    4.10    0.70
   1  10   1    2.70    0.80
   2  10   1    0.50    0.60
   2  10   1    0.90    0.60
   2  10   1    0.40    0.50
   2  10   1    1.30    0.50
   2  10   1    0.20    0.70
   3  10   1    0.30    0.40
   3  10   1   -0.30    0.60
   3  10   1    0.30    0.50
   3  10   1    0.30    0.50
   3  10   1    1.50    0.80
  -4 -10  -1    2.20    0.60
   4  10   1    2.00    0.60
   4  10   1    2.10    0.50
   4  10   1    1.50    0.50
  -5 -10  -1   29.10    1.70
   5  10   1   30.70    1.70
   5  10   1   27.00    1.60
   5  10   1   26.40    1.80
  -6 -10  -1   28.80    1.60
   6  10   1   29.40    1.80
   6  10   1   29.00    1.60
   4  10  -2    0.50    0.30
   4  10  -2    1.00    0.40
  -4 -10   2    0.50    0.30
   3  10  -2    0.00    0.30
   3  10  -2    0.00    0.30
   3  10  -2    0.30    0.50
  -3 -10   2    0.10    0.50
  -3 -10   2    0.50    0.40
   2  10  -2   10.50    1.00
   2  10  -2    9.60    0.80
   2  10  -2   11.80    0.90
  -2 -10   2   10.10    1.10
  -2 -10   2    9.60    0.90
   1  10  -2    0.70    0.40
   1  10  -2    0.50    0.30
   1  10  -2    0.10    0.50
  -1 -10   2   -0.20    0.70
   6   9  -2    0.60    0.50
   6   9  -2   -0.10    0.50
  -6  -9   2    0.10    0.50
   5   9  -2    4.40    0.70
   5   9  -2    6.40    0.90
   5   9  -2    7.70    0.90
  -5  -9   2    6.00    1.00
  -5  -9   2    4.50    0.80
   4   9  -2    3.10    0.70
   4   9  -2    1.90    0.70
   4   9  -2    1.70    0.60
  -4  -9   2    1.90    0.70
  -4  -9   2    2.30    0.80
   3   9  -2    0.00    0.70
   3   9  -2   -0.10    0.60
   3   9  -2   -0.30    0.70
   3   9  -2   -0.90    0.70
  -3  -9   2    0.60    1.10
  -3  -9   2    0.70    0.50
   2   9  -2    3.40    0.90
   2   9  -2    3.70    0.70
   2   9  -2    3.80    0.80
   2   9  -2    2.40    0.60
   2   9  -2    4.00    0.90
  -2  -9   2    2.60    1.10
  -2  -9   2    2.60    0.70
   1   9  -2   16.70    1.40
   1   9  -2   16.60    1.70
   1   9  -2   19.90    1.60
   1   9  -2   18.00    1.50
  -1  -9   2   18.80    2.00
  -1  -9   2   17.30    1.30
   0   9  -2   46.40    2.60
   0   9  -2   44.00    2.40
   0   9  -2   44.10    2.40
   0   9  -2   51.79    2.90
   0  -9   2   43.70    2.40
   0  -9   2   45.20    2.90
  -1   9  -2   14.80    1.30
  -1   9  -2   18.40    1.50
  -1   9  -2   17.80    1.30
  -1   9  -2   14.60    1.20
   1  -9   2   18.40    1.80
  -2   9  -2    0.30    0.60
   2  -9   2    0.60    0.60
   7   8  -2    0.30    0.70
  -7  -8   2    0.70    0.50
   6   8  -2   28.50    2.00
   6   8  -2   25.00    1.70
  -6  -8   2   22.10    1.80
  -6  -8   2   24.40    1.70
   5   8  -2   42.40    2.80
   5   8  -2   42.20    2.40
  -5  -8   2   39.40    2.70
  -5  -8   2   41.70    2.50
   4   8  -2    9.40    1.30
   4   8  -2    8.00    1.10
   4   8  -2    8.90    1.20
   4   8  -2    9.90    1.20
  -4  -8   2    9.20    1.20
  -4  -8   2    9.90    1.50
   3   8  -2    7.40    1.10
   3   8  -2   10.00    1.20
   3   8  -2    9.50    1.40
   3   8  -2    7.50    1.10
   3   8  -2   10.20    1.30
  -3  -8   2    8.40    1.20
  -3  -8   2    9.30    1.70
   2   8  -2    1.80    0.80
   2   8  -2    1.20    1.10
   2   8  -2    1.60    0.70
   2   8  -2    1.60    0.90
   2   8  -2    1.80    0.70
  -2  -8   2    2.40    0.80
  -2  -8   2    0.70    1.20
   1   8  -2    0.50    0.80
   1   8  -2    0.10    0.80
   1   8  -2    0.40    0.70
   1   8  -2    0.10    0.90
   1   8  -2    1.50    1.00
   1   8  -2    0.00    0.50
  -1  -8   2    0.80    1.40
  -1  -8   2    0.10    0.60
   0   8  -2    9.30    1.50
   0   8  -2   10.10    1.80
   0   8  -2   10.50    1.20
   0   8  -2    9.60    1.10
   0   8  -2   11.40    1.20
   0  -8   2    8.90    1.20
  -1   8  -2   51.69    2.80
  -1   8  -2   53.59    3.20
  -1   8  -2   46.30    3.00
  -1   8  -2   48.10    2.80
  -2   8  -2   20.40    1.50
  -2   8  -2   19.70    2.10
  -2   8  -2   19.70    1.40
  -3   8  -2    9.50    1.00
  -3   8  -2    9.90    1.20
  -7  -7   2    6.90    1.00
  -7  -7   2    4.60    1.00
   6   7  -2    0.20    0.80
   6   7  -2    1.80    0.80
  -6  -7   2    2.70    1.00
  -6  -7   2    2.00    0.80
   5   7  -2   25.40    2.40
   5   7  -2   26.60    2.00
  -5  -7   2   24.20    1.90
  -5  -7   2   25.60    2.30
   4   7  -2    3.40    1.00
   4   7  -2    3.30    1.10
   4   7  -2    1.70    0.90
  -4  -7   2    2.40    1.40
  -4  -7   2    3.80    0.90
   3   7  -2   61.29    3.40
   3   7  -2   52.99    3.50
   3   7  -2   58.59    3.20
   3   7  -2   52.79    3.10
  -3  -7   2   61.39    3.30
  -3  -7   2   61.09    3.90
   2   7  -2   13.20    1.50
   2   7  -2   13.40    1.50
   2   7  -2   13.90    1.40
  -2  -7   2   11.20    1.70
  -2  -7   2   11.80    1.40
   1   7  -2    5.50    1.60
   1   7  -2    3.60    0.90
   1   7  -2    7.20    1.20
   1   7  -2    6.70    1.50
  -1  -7   2    6.10    1.00
   0   7  -2    7.30    1.10
   0   7  -2    7.70    1.30
   0   7  -2    7.00    1.60
   0   7  -2   10.70    1.30
   0  -7   2    9.20    1.20
  -1   7  -2   45.50    2.60
  -1   7  -2   43.40    2.80
  -1   7  -2   44.60    3.00
  -1   7  -2   42.80    3.10
   1  -7   2   38.80    2.50
  -2   7  -2   -0.50    0.70
  -2   7  -2   -0.30    0.70
  -2   7  -2    1.00    0.80
  -2   7  -2    0.00    0.70
  -3   7  -2    3.10    0.90
  -3   7  -2    3.10    1.00
  -3   7  -2    2.60    0.80
  -4   7  -2   -0.40    0.90
  -4   7  -2   -0.50    0.60
  -5   7  -2   45.80    2.50
   8   6  -2   -0.60    0.40
   8   6  -2    0.50    0.50
  -8  -6   2    0.60    0.60
   7   6  -2    0.60    0.70
   7   6  -2    0.60    1.00
   7   6  -2    0.40    0.80
  -7  -6   2    0.10    0.80
   6   6  -2    2.30    1.20
  -6  -6   2    2.00    1.40
  -6  -6   2    1.40    0.80
   5   6  -2    6.80    1.10
   5   6  -2    4.30    1.20
  -5  -6   2    7.20    1.70
  -5  -6   2    6.20    1.10
   4   6  -2   11.50    1.20
   4   6  -2   10.00    1.50
  -4  -6   2   11.70    1.30
  -4  -6   2   13.20    1.90
   3   6  -2   61.39    3.40
   3   6  -2   58.69    3.20
  -3  -6   2   65.89    4.10
  -3  -6   2   60.89    3.40
  -3  -6   2   68.39    4.30
  -2  -6   2    1.90    1.00
  -1  -6   2    8.30    1.80
  -1  -6   2   10.30    1.50
   0   6  -2   10.10    1.70
   0  -6   2    8.40    1.50
   0  -6   2    6.10    1.30
  -1   6  -2    6.20    1.10
  -1   6  -2    5.90    1.30
  -1   6  -2    7.60    1.40
  -1   6  -2    4.10    0.90
   1  -6   2    5.10    1.30
   1  -6   2    5.90    0.90
  -2   6  -2    0.30    1.00
  -2   6  -2    0.70    0.70
  -2   6  -2    0.30    1.10
  -3   6  -2    0.40    1.20
  -3   6  -2    0.10    0.70
  -3   6  -2   -0.50    0.70
  -4   6  -2   73.29    3.90
  -4   6  -2   62.59    3.70
  -5   6  -2    4.00    0.90
  -5   6  -2    3.90    0.80
  -6   6  -2    0.30    0.50
   9   5  -2    7.80    0.80
   8   5  -2    3.20    0.70
   8   5  -2    1.70    1.00
  -8  -5   2    1.70    0.80
  -8  -5   2    2.30    0.80
   7   5  -2   19.20    1.80
   7   5  -2   21.00    1.70
   7   5  -2   20.10    2.00
  -7  -5   2   18.20    2.10
   6   5  -2    3.00    0.90
   6   5  -2    4.90    1.30
   6   5  -2    4.00    1.30
  -6  -5   2    5.30    1.40
  -6  -5   2    3.00    1.10
   5   5  -2    6.10    1.20
   5   5  -2    5.30    1.00
  -5  -5   2    7.60    1.60
  -5  -5   2    5.80    1.10
  -4  -5   2   66.79    4.80
  -4  -5   2   72.09    4.50
  -3  -5   2    6.80    1.60
  -3  -5   2    4.60    1.20
  -2  -5   2   46.90    3.10
  -2  -5   2   42.90    3.30
  -1  -5   2  445.26   18.50
  -1  -5   2  413.26   18.40
   0  -5   2   42.00    2.90
   0  -5   2   47.60    3.00
   1  -5   2   47.00    3.10
   1  -5   2   48.10    3.20
   2  -5   2    0.40    0.60
   2  -5   2    1.40    0.80
  -3   5  -2    1.80    1.10
  -3   5  -2    1.40    0.90
  -3   5  -2    1.70    0.60
  -4   5  -2   21.00    2.20
  -4   5  -2   15.90    1.70
   4  -5   2   25.40    2.20
  -5   5  -2    0.80    0.80
  -5   5  -2    0.10    0.80
  -6   5  -2    1.30    0.70
   9   4  -2   21.30    1.50
   9   4  -2   22.30    1.30
  -9  -4   2   23.10    1.50
   8   4  -2   11.40    1.10
   8   4  -2   11.70    1.40
  -8  -4   2    8.60    1.40
  -8  -4   2   11.30    1.30
   7   4  -2    8.20    1.20
   7   4  -2    7.20    1.30
   7   4  -2   10.80    1.50
  -7  -4   2   10.40    1.70
   6   4  -2    2.10    1.10
   6   4  -2    4.20    0.90
   6   4  -2    3.80    1.30
  -6  -4   2    2.90    1.10
   5   4  -2    0.00    0.90
  -5  -4   2    1.70    1.20
   4   4  -2    3.20    1.10
  -4  -4   2    1.60    1.00
  -4  -4   2    1.90    1.20
   3   4  -2    3.50    1.10
   3   4  -2    2.90    0.90
  -3  -4   2    3.10    1.10
  -3  -4   2    2.30    1.10
   2   4  -2    3.40    0.90
   2   4  -2    6.10    1.30
  -2  -4   2    5.70    1.20
  -2  -4   2    3.50    1.20
   1   4  -2   63.69    3.70
  -1  -4   2   68.39    3.90
  -1  -4   2   60.49    3.60
  -1  -4   2   65.49    3.60
   0  -4   2    2.00    0.80
   0  -4   2    2.80    0.80
   1  -4   2   26.20    2.00
   1  -4   2   28.70    2.10
   2  -4   2    3.90    0.90
   2  -4   2    5.20    1.10
   3  -4   2    8.50    1.30
   3  -4   2   11.40    1.60
  -4   4  -2    6.10    1.10
  -4   4  -2    6.70    1.30
   4  -4   2    7.30    1.00
  -5   4  -2   10.50    1.40
   5  -4   2    9.90    1.20
   5  -4   2    7.10    1.30
   6  -4   2   19.00    1.70
   6  -4   2   19.30    1.50
  -7   4  -2   10.20    1.20
   7  -4   2    7.70    0.70
   7  -4   2    8.20    1.00
   9   3  -2   -0.20    0.50
   9   3  -2   -0.50    0.50
   9   3  -2    0.60    0.50
  -9  -3   2    0.40    0.50
  -9  -3   2    0.00    0.40
   8   3  -2   71.49    3.70
   8   3  -2   76.69    4.10
   8   3  -2   65.99    3.90
  -8  -3   2   74.29    3.80
  -8  -3   2   71.49    4.10
   7   3  -2  175.68    8.00
   7   3  -2  160.08    7.90
   7   3  -2  170.58    7.60
  -7  -3   2  165.68    8.20
   6   3  -2   13.60    1.60
   6   3  -2   13.00    1.30
  -6  -3   2   13.40    1.80
   5   3  -2  134.79    6.90
  -5  -3   2  118.79    7.10
   4   3  -2   31.20    2.50
   4   3  -2   30.20    2.30
  -4  -3   2   29.20    2.40
  -4  -3   2   26.90    2.60
   3   3  -2   16.10    1.70
   3   3  -2   18.00    2.00
  -3  -3   2   15.70    1.90
  -3  -3   2   16.70    1.90
   2   3  -2  416.86   17.40
   2   3  -2  416.26   17.60
  -2  -3   2  419.16   17.50
  -2  -3   2  408.66   17.80
   1   3  -2   47.80    2.70
   1   3  -2   46.60    2.80
  -1  -3   2   51.09    3.00
  -1  -3   2   50.69    2.90
  -1  -3   2   45.00    2.80
   0   3  -2   -0.70    0.50
   0  -3   2    0.80    0.70
   0  -3   2   -0.10    0.50
   0  -3   2   -0.50    0.50
   1  -3   2  997.80   40.30
   1  -3   2  991.60   40.40
   2  -3   2   33.10    2.30
   2  -3   2   32.90    2.30
   3  -3   2    2.20    0.80
   3  -3   2    2.40    0.80
   3  -3   2    1.90    0.80
   4  -3   2    7.50    1.30
   4  -3   2    6.70    1.40
  -5   3  -2    0.30    0.90
   5  -3   2    0.60    0.60
   5  -3   2   -0.10    0.60
  -6   3  -2    0.70    0.90
   6  -3   2    1.10    0.70
   6  -3   2    1.00    0.80
   7  -3   2    3.10    0.80
   7  -3   2    3.10    0.70
   8  -3   2    0.70    0.30
   8  -3   2    0.20    0.60
   9   2  -2    4.20    0.70
   9   2  -2    4.40    0.70
   9   2  -2    3.70    0.70
  -9  -2   2    4.30    0.60
  -9  -2   2    2.00    0.70
   8   2  -2   29.10    2.30
   8   2  -2   29.30    2.30
   8   2  -2   27.00    1.90
  -8  -2   2   29.10    2.10
  -8  -2   2   28.00    2.20
   7   2  -2    0.30    0.70
   7   2  -2   -0.30    1.00
  -7  -2   2    1.10    0.80
  -7  -2   2    0.50    1.00
   6   2  -2   93.39    4.60
   6   2  -2   98.59    5.00
  -6  -2   2   93.79    5.20
   5   2  -2    3.30    1.10
  -5  -2   2    5.70    1.60
   4   2  -2    1.30    0.70
   4   2  -2    1.70    0.90
   4   2  -2    0.70    0.70
  -4  -2   2    1.10    1.00
   3   2  -2   71.39    4.20
   3   2  -2   82.09    4.30
   3   2  -2   75.59    4.10
  -3  -2   2   87.29    4.60
  -3  -2   2   81.79    4.20
   2   2  -2    9.80    1.20
   2   2  -2    6.40    1.10
   2   2  -2    7.00    1.10
  -2  -2   2    9.20    1.20
  -2  -2   2    7.40    1.30
   1   2  -2   13.90    1.30
   1   2  -2   14.00    1.30
   1   2  -2   13.60    1.20
  -1  -2   2   13.60    1.40
  -1  -2   2   15.10    1.30
  -1  -2   2   13.80    1.30
   0   2  -2   65.79    3.20
   0   2  -2   56.19    3.10
   0  -2   2   66.79    3.30
   0  -2   2   61.19    3.20
   0  -2   2   61.59    3.10
  -1   2  -2 1102.09   44.60
   1  -2   2 1118.19   44.60
   1  -2   2 1095.19   44.50
  -2   2  -2  118.29    5.80
   2  -2   2  131.79    6.00
   2  -2   2  131.19    6.00
   3  -2   2  299.27   13.00
   3  -2   2  285.17   12.70
   3  -2   2  305.67   13.00
   4  -2   2  170.78    8.20
   4  -2   2  182.08    8.60
   4  -2   2  183.08    8.60
   5  -2   2    4.80    1.40
   6  -2   2    1.60    0.70
   6  -2   2    2.50    1.10
   7  -2   2   15.30    1.70
   7  -2   2   16.20    1.50
   8  -2   2    0.30    0.50
   8  -2   2    1.00    0.60
   9   1  -2    0.00    0.40
   9   1  -2    0.40    0.40
  -9  -1   2    0.10    0.50
   8   1  -2   31.30    2.00
   8   1  -2   35.70    2.50
   8   1  -2   30.30    2.10
  -8  -1   2   30.10    2.10
  -8  -1   2   33.90    2.50
   7   1  -2   42.20    2.60
   7   1  -2   42.40    2.90
  -7  -1   2   48.50    3.30
  -7  -1   2   41.20    2.80
   6   1  -2    3.50    1.20
   6   1  -2    4.70    0.90
  -6  -1   2    5.20    1.30
  -6  -1   2    6.80    1.20
  -6  -1   2    3.90    1.00
   5   1  -2  164.28    8.20
   5   1  -2  165.88    8.30
   4   1  -2   77.39    4.10
   4   1  -2   74.79    4.20
   4   1  -2   75.09    4.20
  -4  -1   2   74.49    4.50
   3   1  -2  154.08    7.20
   3   1  -2  155.68    7.20
   3   1  -2  151.28    7.10
  -3  -1   2  163.98    7.50
   2   1  -2  351.96   14.50
   2   1  -2  345.17   14.60
   2   1  -2  350.86   14.60
  -2  -1   2  351.26   14.90
  -2  -1   2  348.67   14.60
   1   1  -2    0.70    0.50
   1   1  -2    0.30    0.50
   1   1  -2   -0.30    0.60
  -1  -1   2    0.10    0.60
  -1  -1   2    0.00    0.50
   0   1  -2  121.19    5.30
   0   1  -2  123.39    5.10
   0   1  -2  118.59    5.30
   0  -1   2  107.19    5.20
   0  -1   2  125.49    5.40
   0  -1   2  121.19    5.30
  -1   1  -2  598.04   23.20
  -1   1  -2  528.85   23.10
   1  -1   2  581.34   23.20
   1  -1   2  571.74   23.20
  -2   1  -2  413.96   17.50
   2  -1   2  424.86   17.60
   2  -1   2  433.36   17.60
  -3   1  -2 1049.70   44.70
   3  -1   2 1110.79   44.60
   3  -1   2 1158.88   44.90
   4  -1   2  219.08   10.10
   4  -1   2  228.48   10.10
   4  -1   2  215.18    9.70
   5  -1   2   37.00    2.90
   6  -1   2    0.30    0.70
   6  -1   2   -0.30    0.70
   7  -1   2    2.50    0.90
   7  -1   2    1.90    1.10
   7  -1   2    1.80    1.10
   8  -1   2    5.50    0.90
   8  -1   2    4.30    1.00
   8  -1   2    4.50    0.90
   9  -1   2    0.00    0.40
   9  -1   2    0.00    0.40
   8   0  -2    0.10    0.60
   8   0  -2    0.10    0.50
  -8   0   2   -0.10    0.80
  -8   0   2   -0.40    0.50
   7   0  -2    6.20    1.20
   7   0  -2   10.70    1.30
  -7   0   2    7.00    1.40
   6   0  -2    1.40    0.70
   6   0  -2    1.00    1.00
  -6   0   2    0.70    0.80
  -6   0   2    0.90    1.00
  -6   0   2    2.10    1.00
   5   0  -2  311.27   14.00
   5   0  -2  315.97   14.20
   4   0  -2   30.40    2.20
   4   0  -2   25.30    2.10
   4   0  -2   28.60    2.20
   3   0  -2    0.30    0.60
   3   0  -2    0.30    0.50
   3   0  -2    0.20    0.50
  -3   0   2    0.30    0.80
   2   0  -2   57.59    2.80
   2   0  -2   56.29    2.80
   2   0  -2   57.59    2.90
  -2   0   2   51.69    2.80
  -2   0   2   56.19    3.10
   1   0  -2  216.28    8.80
   1   0  -2  216.28    8.90
   1   0  -2  209.38    8.80
  -1   0   2  215.08    9.10
  -1   0   2  203.18    8.80
   0   0  -2   47.70    2.10
   0   0  -2   47.00    2.30
   0   0  -2   52.49    2.40
   0   0   2   46.40    2.30
  -1   0  -2  500.75   20.30
  -1   0  -2  511.25   20.30
   1   0   2  492.45   20.30
  -2   0  -2  525.55   21.40
  -2   0  -2  518.45   21.20
  -2   0  -2  501.55   21.40
   2   0   2  555.14   21.10
   2   0   2  508.15   21.40
   2   0   2  536.25   21.50
  -3   0  -2  374.86   15.40
   3   0   2  365.76   15.10
   3   0   2  377.96   15.50
   3   0   2  348.97   15.40
  -4   0  -2  160.18    7.70
   4   0   2  151.18    7.80
   4   0   2  175.98    7.50
   4   0   2  180.58    7.90
   5   0   2   63.99    4.00
   6   0   2   11.10    1.20
   6   0   2    6.70    1.50
   6   0   2    9.50    1.40
   7   0   2   38.90    2.80
   7   0   2   39.10    2.60
   7   0   2   39.20    2.40
   8   0   2   -1.20    0.90
   8   0   2    0.70    0.50
   8   0   2   -0.70    0.90
   9   0   2    0.80    0.50
   9   0   2   -0.30    0.50
   9   0   2    0.20    0.40
   8  -1  -2    7.40    1.00
  -8   1   2    8.40    1.10
  -8   1   2    5.90    0.80
  -7   1   2   11.10    1.30
  -7   1   2    7.30    1.40
  -7   1   2    7.10    1.40
  -6   1   2   14.40    2.00
  -6   1   2   13.30    1.70
  -6   1   2   14.70    1.70
  -6   1   2   13.40    1.70
   5  -1  -2    0.60    0.80
   5  -1  -2   -0.60    0.50
   4  -1  -2  138.49    7.10
   4  -1  -2  151.58    7.00
   4  -1  -2  151.98    7.10
   3  -1  -2  786.42   31.70
   3  -1  -2  774.62   31.90
   3  -1  -2  779.22   31.80
   2  -1  -2  217.38    9.20
   2  -1  -2  217.68    9.20
   2  -1  -2  224.38    9.40
   1  -1  -2  293.17   11.80
   1  -1  -2  279.37   11.70
   1  -1  -2  303.97   11.90
   1  -1  -2  285.57   11.80
   0  -1  -2  309.77   12.10
   0  -1  -2  304.97   12.00
   0  -1  -2  276.07   12.00
   0  -1  -2  304.47   12.10
  -1  -1  -2   58.19    2.60
  -1  -1  -2   57.09    2.60
   1   1   2   55.59    2.70
  -2  -1  -2  405.36   17.30
  -2  -1  -2  423.36   17.30
  -2  -1  -2  435.16   17.40
   2   1   2  428.86   17.00
   2   1   2  415.36   17.30
  -3  -1  -2    0.20    0.50
  -3  -1  -2    0.20    0.60
  -3  -1  -2   -0.90    0.50
   3   1   2    0.00    0.50
   3   1   2   -0.50    0.60
   3   1   2    0.10    0.40
  -4  -1  -2    6.90    1.20
   4   1   2    4.40    0.80
   4   1   2    5.20    1.10
  -5  -1  -2  583.14   25.10
   5   1   2  609.94   25.40
   6   1   2    1.20    0.90
   7   1   2    3.30    1.10
   7   1   2    5.00    1.40
   7   1   2    5.10    1.00
   8   1   2    3.10    0.70
   8   1   2    2.60    1.20
   8   1   2    1.80    1.00
   9   1   2    0.90    0.60
   9   1   2    2.80    0.80
   9   1   2    2.60    0.60
   8  -2  -2    8.50    0.90
  -8   2   2    8.50    1.00
   7  -2  -2    5.90    1.30
  -7   2   2    5.80    1.30
  -7   2   2    3.90    0.80
  -7   2   2    4.50    1.00
  -7   2   2    2.70    0.90
  -6   2   2    1.00    0.70
  -6   2   2   -0.50    1.00
  -6   2   2    1.00    0.70
  -6   2   2    0.70    0.70
  -5   2   2   -0.50    0.70
  -5   2   2   -0.40    0.50
  -5   2   2    0.80    0.80
  -5   2   2    0.10    0.60
   4  -2  -2   19.60    1.70
   3  -2  -2  403.76   17.40
   3  -2  -2  392.36   17.00
   3  -2  -2  443.06   17.30
   2  -2  -2   78.59    3.90
   2  -2  -2   81.99    3.60
   2  -2  -2   74.39    3.50
   1  -2  -2    6.20    0.30
   1  -2  -2    5.80    0.30
   1  -2  -2    7.00    0.90
   1  -2  -2    5.90    0.40
   0  -2  -2    2.30    0.30
  -1  -2  -2  233.08    9.50
  -1  -2  -2  232.18    9.60
  -2  -2  -2   49.30    2.50
  -2  -2  -2   50.29    2.80
  -2  -2  -2   49.50    2.50
   2   2   2   44.30    2.50
   2   2   2   47.00    2.20
  -3  -2  -2    3.10    1.00
  -3  -2  -2    3.60    0.80
  -3  -2  -2    2.80    0.90
   3   2   2    2.50    0.60
   3   2   2    3.50    0.90
  -4  -2  -2   18.30    1.80
  -4  -2  -2   21.00    1.80
   4   2   2   20.20    1.80
   4   2   2   17.10    1.40
  -5  -2  -2  326.77   14.40
   5   2   2  321.57   14.50
   6   2   2   19.70    2.50
   7   2   2  129.39    6.40
   7   2   2  129.29    6.50
   7   2   2  130.89    6.10
   8   2   2   25.40    1.90
   8   2   2   28.20    2.40
   8   2   2   23.20    1.90
   9   2   2    2.30    1.00
   9   2   2    1.80    0.70
  -7   3   2    3.70    0.90
  -7   3   2    3.90    0.90
  -7   3   2    6.10    0.90
  -6   3   2   23.70    2.20
  -6   3   2   21.00    2.20
  -6   3   2   20.20    1.90
  -6   3   2   23.70    2.00
  -5   3   2   -0.30    0.60
  -5   3   2    0.30    0.90
  -5   3   2   -0.40    0.60
  -5   3   2    0.30    1.00
   4  -3  -2    5.10    1.10
   3  -3  -2   28.30    2.20
   3  -3  -2   29.10    1.90
   2  -3  -2   12.60    0.90
   2  -3  -2   11.80    1.40
   1  -3  -2 1317.77   54.19
   1  -3  -2 1381.46   54.79
   1  -3  -2 1397.16   54.19
   0  -3  -2    1.30    0.20
   0  -3  -2    1.40    0.70
   0  -3  -2    1.60    0.20
  -1  -3  -2  180.68    8.20
  -1  -3  -2  190.98    7.70
  -1  -3  -2  177.78    7.60
  -2  -3  -2    6.80    1.30
  -2  -3  -2    6.40    0.90
  -2  -3  -2    7.50    1.00
  -3  -3  -2    3.80    1.20
  -3  -3  -2    2.70    0.80
  -3  -3  -2    3.70    0.90
   3   3   2    2.60    0.60
   3   3   2    3.30    0.90
  -4  -3  -2   11.00    1.60
  -4  -3  -2   11.30    1.70
   4   3   2   10.60    1.50
  -5  -3  -2   76.19    4.70
  -5  -3  -2   81.19    4.50
   5   3   2   69.19    4.50
  -6  -3  -2    3.40    1.20
   6   3   2    3.90    1.20
   7   3   2  145.09    6.90
   7   3   2  146.39    7.20
   7   3   2  156.28    7.20
   8   3   2   13.60    1.40
   8   3   2   14.80    1.80
   8   3   2   15.30    1.70
   9   3   2   -0.10    0.60
   9   3   2    0.30    0.60
   9   3   2   -0.60    0.90
   7  -4  -2    2.70    0.60
  -7   4   2    4.70    0.70
  -7   4   2    1.70    0.50
  -7   4   2    3.10    0.60
  -6   4   2   36.00    2.40
  -6   4   2   35.10    2.40
  -6   4   2   33.50    2.40
  -5   4   2    0.70    1.00
  -5   4   2    1.90    1.10
  -5   4   2    0.30    1.00
  -5   4   2    1.30    0.70
  -4   4   2   11.20    1.70
  -4   4   2   11.10    1.50
  -4   4   2   10.50    1.40
  -4   4   2   10.20    1.30
   3  -4  -2    0.40    0.50
  -3   4   2    0.20    0.60
   2  -4  -2    1.60    0.70
   1  -4  -2  269.77   10.80
   1  -4  -2  259.57   11.50
   0  -4  -2  269.07   12.00
   0  -4  -2  283.67   11.30
  -1  -4  -2    1.00    0.50
  -1  -4  -2    0.70    0.40
  -1  -4  -2    2.30    1.00
  -2  -4  -2   13.80    1.80
  -2  -4  -2   12.30    1.10
  -2  -4  -2   12.60    1.10
  -3  -4  -2  124.79    5.70
  -3  -4  -2  128.69    6.40
  -3  -4  -2  124.09    5.80
   3   4   2  104.79    5.50
  -4  -4  -2   19.20    1.90
  -4  -4  -2   20.60    1.80
  -4  -4  -2   17.80    2.30
  -5  -4  -2    1.30    0.90
  -5  -4  -2    0.60    1.30
  -6  -4  -2    1.30    0.90
  -6  -4  -2    4.20    1.00
   6   4   2    4.40    1.10
  -7  -4  -2   55.99    3.20
   7   4   2   51.59    3.30
   7   4   2   52.59    3.10
   7   4   2   60.59    3.60
   8   4   2   26.50    2.30
   8   4   2   25.00    2.30
   8   4   2   24.60    1.90
   9   4   2   32.10    2.20
   9   4   2   32.20    2.10
   9   4   2   26.50    1.80
  -6   5   2   19.40    1.60
  -6   5   2   20.80    1.50
  -6   5   2   20.20    1.60
  -5   5   2    8.70    1.30
  -5   5   2    8.00    1.30
  -5   5   2    7.50    1.10
  -4   5   2    0.90    1.00
  -4   5   2    1.00    0.90
  -4   5   2    0.40    1.00
  -3   5   2   -0.40    0.60
  -3   5   2    0.00    0.80
  -3   5   2    0.10    0.80
  -3   5   2    0.40    0.90
   1  -5  -2  123.09    5.40
   0  -5  -2   73.19    3.50
  -1  -5  -2  623.44   25.00
  -1  -5  -2  600.84   25.80
  -2  -5  -2    1.90    0.70
  -2  -5  -2    0.30    0.90
  -2  -5  -2    1.10    0.50
  -3  -5  -2   13.10    1.60
  -3  -5  -2   13.30    1.70
  -3  -5  -2   12.00    1.90
  -4  -5  -2   34.50    3.00
  -4  -5  -2   26.00    2.20
  -4  -5  -2   29.30    2.40
  -5  -5  -2   12.40    2.10
  -5  -5  -2   13.30    1.90
  -6  -5  -2   -0.20    0.70
   6   5   2    1.30    0.90
   6   5   2    1.40    0.70
  -7  -5  -2    8.90    1.30
   7   5   2    7.50    1.30
  -8  -5  -2    1.50    0.70
   8   5   2    2.80    1.20
   9   5   2  121.19    5.70
  -5   6   2   -0.30    0.80
  -5   6   2    0.00    0.80
  -5   6   2    1.10    0.50
  -4   6   2   33.70    2.40
  -4   6   2   34.50    2.40
  -4   6   2   34.40    2.50
  -3   6   2   10.90    1.40
  -3   6   2    8.50    1.30
  -3   6   2   10.30    1.40
  -2   6   2   -0.10    0.70
  -2   6   2    0.30    0.80
  -2   6   2    0.20    0.70
  -2   6   2    0.30    0.80
   1  -6  -2   19.50    1.40
  -1   6   2   22.40    1.90
  -1   6   2   18.40    1.40
   0  -6  -2    6.80    0.90
  -1  -6  -2  322.47   13.80
  -2  -6  -2    3.50    1.40
  -2  -6  -2    2.60    0.70
  -2  -6  -2    2.60    0.70
  -3  -6  -2    8.50    1.40
  -3  -6  -2   12.10    1.70
  -3  -6  -2    7.50    1.70
  -4  -6  -2   12.30    1.80
  -4  -6  -2   15.30    2.00
  -4  -6  -2    8.70    1.90
  -5  -6  -2    3.30    0.90
   5   6   2    2.30    1.00
   5   6   2    3.30    0.80
   5   6   2    2.40    0.90
  -6  -6  -2   20.00    1.70
   6   6   2   20.50    2.00
   6   6   2   20.80    2.00
  -7  -6  -2    1.00    0.80
   7   6   2    1.10    1.00
   7   6   2    0.60    0.70
  -8  -6  -2    7.70    1.00
   8   6   2    9.10    1.30
   9   6   2    0.20    0.60
   9   6   2    0.30    0.60
  -5   7   2    1.00    0.50
  -5   7   2    0.30    0.80
  -5   7   2    0.80    0.40
  -4   7   2    0.30    0.60
  -4   7   2    1.30    0.50
  -4   7   2    0.50    0.60
  -3   7   2    8.00    1.10
  -3   7   2    8.70    1.20
  -3   7   2    7.30    1.30
  -2   7   2    5.30    1.00
  -2   7   2    5.60    1.00
  -2   7   2    2.60    1.00
  -2   7   2    4.80    1.00
  -1   7   2    7.70    1.20
  -1   7   2    8.50    1.20
  -1   7   2    8.20    1.20
   0   7   2    7.30    1.00
   0   7   2    5.70    0.90
   0   7   2    4.80    0.90
   0   7   2    6.40    0.90
   1   7   2    2.40    0.80
   1   7   2    2.00    0.80
   1   7   2    3.40    0.90
   1   7   2    2.80    0.70
   1   7   2    1.70    0.60
  -2  -7  -2   10.60    1.50
   2   7   2   10.90    1.20
   2   7   2   11.10    1.20
   2   7   2    9.30    1.30
   2   7   2   10.30    1.20
   2   7   2    9.10    1.00
   3   7   2  390.86   16.30
   3   7   2  406.96   16.30
   3   7   2  393.16   16.30
   3   7   2  377.96   16.60
   3   7   2  393.46   16.30
   3   7   2  393.86   16.40
  -4  -7  -2    3.40    0.80
   4   7   2    2.80    0.80
   4   7   2    4.30    1.00
   4   7   2    4.80    1.00
   4   7   2    2.80    0.70
  -5  -7  -2   42.70    2.50
   5   7   2   43.70    2.60
   5   7   2   41.50    2.90
  -6  -7  -2    1.50    0.80
   6   7   2    2.70    1.00
   6   7   2    3.00    0.90
   6   7   2    1.20    1.00
  -7  -7  -2    1.70    0.80
   7   7   2    1.80    1.00
   7   7   2    2.30    0.80
  -8  -7  -2    1.60    0.60
   8   7   2    0.60    0.60
   8   7   2    0.80    0.80
   9   7   2   -0.10    0.40
   9   7   2    0.20    0.40
  -3   8   2    8.20    1.00
  -3   8   2    6.50    1.00
  -2   8   2    5.20    0.90
  -2   8   2    6.20    1.00
  -2   8   2    6.10    1.00
  -1   8   2    1.40    1.00
  -1   8   2    1.40    0.90
  -1   8   2    0.50    0.80
   0   8   2   -0.90    0.60
   0   8   2    0.20    0.80
   0   8   2    0.10    0.50
   0   8   2   -0.50    0.70
   1   8   2   -0.10    0.60
   1   8   2    0.40    0.70
   1   8   2    0.10    0.90
   1   8   2    0.60    0.70
   1   8   2    0.30    0.70
   2   8   2   45.40    2.70
   2   8   2   48.60    2.70
   2   8   2   45.50    2.60
   2   8   2   47.50    3.00
   2   8   2   45.90    2.60
   3   8   2    2.00    0.60
   3   8   2    1.70    0.80
   3   8   2    0.40    0.60
   3   8   2    1.00    1.20
   3   8   2    2.00    1.00
   3   8   2    1.60    0.70
  -4  -8  -2   10.90    1.30
   4   8   2    9.90    1.50
   4   8   2   11.90    1.30
   4   8   2   12.90    1.20
   4   8   2   12.50    1.20
   4   8   2   12.60    1.50
  -5  -8  -2   19.40    1.60
   5   8   2   21.80    2.10
   5   8   2   19.50    1.80
   5   8   2   17.70    1.50
   5   8   2   20.40    1.70
  -6  -8  -2    2.00    0.60
   6   8   2    1.70    1.00
   6   8   2    0.80    0.70
   6   8   2    1.10    0.80
  -7  -8  -2    0.90    0.50
   7   8   2    0.40    0.60
   7   8   2    1.30    0.90
  -8  -8  -2   -0.50    0.50
   8   8   2    0.00    0.70
   8   8   2   -0.20    0.50
  -2   9   2    1.40    0.70
  -2   9   2    0.40    0.70
  -1   9   2    7.40    0.90
  -1   9   2    4.60    1.00
  -1   9   2    4.00    0.90
   0   9   2    2.70    0.70
   0   9   2    2.10    0.60
   0   9   2    3.30    0.80
   0   9   2    2.10    0.80
   1   9   2    4.70    1.00
   1   9   2    2.70    0.80
   1   9   2    5.10    1.00
   1   9   2    2.30    0.90
   2   9   2    0.70    0.80
   2   9   2   -0.20    0.70
   2   9   2   -0.40    0.70
   2   9   2    1.30    1.20
   2   9   2    0.50    0.80
   3   9   2   27.90    1.90
   3   9   2   28.10    1.80
   3   9   2   28.30    2.10
   3   9   2   27.10    1.80
   3   9   2   26.90    1.90
   4   9   2    4.50    0.90
   4   9   2    6.50    0.90
   4   9   2    7.60    1.20
   4   9   2    6.70    1.00
  -5  -9  -2  122.59    5.60
   5   9   2  122.69    5.60
   5   9   2  122.49    5.60
   5   9   2  114.29    5.50
   5   9   2  131.19    6.00
  -6  -9  -2    1.50    0.60
   6   9   2    0.40    0.70
   6   9   2    0.40    0.60
   6   9   2    0.50    0.50
  -7  -9  -2    0.00    0.40
   7   9   2    0.40    0.60
   7   9   2   -0.10    0.50
   0  10   2    3.20    0.70
   0  10   2    2.20    0.60
   1  10   2    1.60    0.90
   1  10   2    1.90    0.70
   1  10   2    1.90    0.50
   1  10   2    1.50    0.50
   2  10   2   -0.30    0.60
   2  10   2   -0.50    0.50
   2  10   2   -0.70    0.60
   2  10   2   -0.50    0.40
   2  10   2    0.00    0.50
   3  10   2    1.70    0.50
   3  10   2    1.30    0.60
   3  10   2    1.10    0.60
   3  10   2    1.20    0.50
   3  10   2    1.30    0.70
   4  10   2    1.10    0.60
  -5 -10  -2   19.00    1.30
   5  10   2   21.30    1.40
   5  10   2   20.60    1.40
   5  10   2   21.60    1.60
  -6 -10  -2   -0.10    0.30
   6  10   2   -0.50    0.60
   6  10   2   -0.10    0.40
   5   9  -3   84.89    4.40
   5   9  -3   87.19    3.90
  -5  -9   3   86.69    4.20
  -5  -9   3   86.69    3.90
   4   9  -3    3.50    0.70
   4   9  -3    5.50    0.70
  -4  -9   3    4.40    0.70
  -4  -9   3    3.80    1.00
   3   9  -3    3.50    0.80
   3   9  -3    5.30    0.70
   3   9  -3    4.30    0.80
  -3  -9   3    5.20    1.00
  -3  -9   3    5.70    0.80
   2   9  -3    0.50    0.60
   2   9  -3    0.90    0.60
   2   9  -3    0.60    0.50
   2   9  -3    0.80    0.70
  -2  -9   3    0.30    0.40
  -2  -9   3    0.70    0.70
   1   9  -3    3.30    0.80
   1   9  -3    4.50    0.70
   1   9  -3    4.00    0.70
   1   9  -3    4.30    0.70
  -1  -9   3    4.90    1.00
  -1  -9   3    4.10    0.70
   0   9  -3    4.20    0.70
   0   9  -3    5.50    0.70
   0   9  -3    6.60    0.70
   0  -9   3    5.30    0.70
   0  -9   3    7.00    1.10
  -1   9  -3    0.30    0.30
  -1   9  -3    0.00    0.40
  -1   9  -3    0.40    0.50
   1  -9   3    0.60    0.40
   1  -9   3    0.60    0.80
   6   8  -3    1.90    0.50
   6   8  -3    1.90    0.60
  -6  -8   3    2.20    0.70
  -6  -8   3    1.30    0.60
   5   8  -3   40.90    2.50
   5   8  -3   41.60    2.30
  -5  -8   3   42.10    2.90
  -5  -8   3   41.20    2.30
   4   8  -3    2.20    0.60
   4   8  -3    1.60    0.70
   4   8  -3    2.60    0.70
  -4  -8   3    1.90    0.80
  -4  -8   3    1.70    1.20
   3   8  -3    0.00    0.80
   3   8  -3    1.00    0.80
   3   8  -3    0.00    0.60
  -3  -8   3   -0.30    1.10
  -3  -8   3    0.60    0.50
   2   8  -3    0.50    0.80
   2   8  -3    0.40    0.60
   2   8  -3    0.30    0.70
   2   8  -3    0.90    0.80
  -2  -8   3    0.30    0.70
  -2  -8   3    0.60    0.90
   1   8  -3   13.00    1.50
   1   8  -3   13.00    1.60
   1   8  -3   12.80    1.20
   1   8  -3   11.20    1.30
  -1  -8   3   13.80    1.30
  -1  -8   3   14.80    2.10
   0   8  -3    2.60    1.10
   0   8  -3    2.10    0.60
   0   8  -3    3.10    1.00
   0   8  -3    2.60    0.70
   0   8  -3    2.30    0.70
   0  -8   3    3.00    1.10
   0  -8   3    2.40    0.70
  -1   8  -3    4.80    0.80
  -1   8  -3    5.60    1.00
  -1   8  -3    6.00    1.00
  -1   8  -3    5.40    1.20
   1  -8   3    5.40    0.90
  -2   8  -3    6.10    0.80
  -2   8  -3    6.20    1.10
   2  -8   3    6.50    0.70
  -3   8  -3    1.00    0.80
   7   7  -3    0.10    0.50
  -7  -7   3    0.00    0.50
   6   7  -3    4.30    1.00
  -6  -7   3    2.90    0.80
  -6  -7   3    2.60    1.10
   5   7  -3    4.40    0.80
   5   7  -3    4.50    1.30
  -5  -7   3    5.00    1.20
  -5  -7   3    5.40    1.00
   4   7  -3    3.20    1.10
   4   7  -3    2.60    0.90
  -4  -7   3    3.80    1.00
  -4  -7   3    2.70    1.10
   3   7  -3  291.87   12.70
   3   7  -3  307.57   12.80
  -3  -7   3  301.47   13.50
  -3  -7   3  300.87   12.90
   2   7  -3    3.40    1.00
   2   7  -3    2.50    1.10
   2   7  -3    5.80    0.90
  -2  -7   3    5.50    1.60
  -2  -7   3    3.60    0.90
   1   7  -3    5.50    1.50
   1   7  -3    4.80    1.10
   1   7  -3    5.60    1.40
   1   7  -3    5.50    1.00
  -1  -7   3    5.50    1.70
  -1  -7   3    5.10    1.10
   0   7  -3    3.50    1.60
   0   7  -3    1.80    1.00
   0   7  -3    3.60    1.30
   0  -7   3    2.30    0.90
  -1   7  -3   13.40    1.40
  -1   7  -3   13.00    1.90
  -1   7  -3   15.00    1.60
   1  -7   3   15.00    1.50
  -2   7  -3    0.10    0.80
  -2   7  -3   -0.40    1.10
  -2   7  -3    0.40    0.50
  -2   7  -3   -0.40    0.90
   2  -7   3    0.10    0.60
  -3   7  -3    2.80    0.90
  -3   7  -3    1.20    1.10
   3  -7   3    1.80    0.60
  -4   7  -3    4.10    1.00
   8   6  -3    0.40    0.50
  -8  -6   3    1.30    0.60
  -8  -6   3    0.20    0.50
   7   6  -3    9.00    1.10
   7   6  -3    7.80    1.20
  -7  -6   3    9.70    1.30
   6   6  -3    0.10    0.40
   6   6  -3    0.20    0.80
  -6  -6   3   -0.10    0.70
   5   6  -3   11.90    1.60
   5   6  -3   11.60    1.40
  -5  -6   3   13.10    2.00
  -5  -6   3   12.80    1.40
   4   6  -3   -0.20    0.90
   4   6  -3    0.50    0.90
  -4  -6   3   -0.20    0.70
  -4  -6   3    0.00    1.20
   3   6  -3   65.29    3.80
   3   6  -3   73.99    3.60
   3   6  -3   63.59    3.50
  -3  -6   3   72.69    3.80
  -3  -6   3   72.49    4.30
   2   6  -3    0.90    0.70
   2   6  -3    0.00    0.80
   2   6  -3    0.70    0.90
  -2  -6   3    0.50    0.60
  -2  -6   3    0.80    1.30
   1   6  -3    6.10    1.30
   1   6  -3    6.60    1.10
   1   6  -3    6.70    1.40
   1   6  -3    5.80    1.00
  -1  -6   3    6.70    1.20
   0   6  -3    2.50    1.40
   0   6  -3    2.10    0.90
   0   6  -3    1.60    1.00
   0  -6   3    3.10    0.90
  -1   6  -3   17.40    1.70
  -1   6  -3   16.40    2.00
  -1   6  -3   18.40    1.80
  -1   6  -3   14.00    1.70
   1  -6   3   17.10    1.50
  -2   6  -3    0.60    0.90
  -2   6  -3    2.60    1.30
  -2   6  -3    0.20    0.80
   2  -6   3    1.10    0.70
  -3   6  -3    0.00    1.20
  -3   6  -3   -0.50    1.00
   3  -6   3    0.90    0.60
  -4   6  -3    0.00    0.90
  -4   6  -3    1.90    0.90
   4  -6   3    0.40    0.40
  -5   6  -3    9.40    1.20
   5  -6   3    7.40    0.80
   8   5  -3    1.20    0.50
   8   5  -3    0.70    0.80
  -8  -5   3    0.90    0.70
  -8  -5   3    1.00    0.60
   7   5  -3   -0.10    0.60
   7   5  -3   -0.70    0.60
   7   5  -3   -1.10    0.90
  -7  -5   3    0.20    0.90
   6   5  -3    0.30    0.70
   6   5  -3    0.30    1.00
   6   5  -3   -0.30    0.70
  -6  -5   3    0.60    1.00
   5   5  -3    0.70    0.80
   5   5  -3    1.10    0.70
  -5  -5   3    0.30    0.70
  -5  -5   3    2.20    1.30
   4   5  -3   12.30    1.60
   4   5  -3   10.90    1.30
   4   5  -3   11.60    1.30
   4   5  -3    9.30    1.90
  -4  -5   3   17.20    2.10
  -4  -5   3   11.10    1.40
  -4  -5   3   10.60    2.00
  -3  -5   3    0.30    1.00
  -3  -5   3    0.50    0.80
  -2  -5   3   65.19    4.50
  -2  -5   3   72.59    4.40
  -1  -5   3  466.15   20.10
   0  -5   3   64.79    4.00
   1  -5   3   88.89    5.00
  -2   5  -3   -0.70    0.80
  -2   5  -3   -1.30    0.90
  -2   5  -3    0.70    1.10
   2  -5   3   -0.80    0.60
  -3   5  -3   -0.60    0.90
  -3   5  -3   -0.90    1.10
   3  -5   3    0.60    0.70
  -4   5  -3   -0.50    0.80
  -4   5  -3    0.10    0.80
   4  -5   3   -0.10    0.60
  -5   5  -3   21.30    1.90
   5  -5   3   20.30    1.50
  -6   5  -3    0.70    0.60
   6  -5   3    0.40    0.40
   8   4  -3   29.40    1.80
   8   4  -3   27.00    2.10
  -8  -4   3   26.60    2.00
  -8  -4   3   27.60    1.90
   7   4  -3    0.60    0.80
   7   4  -3   -0.10    0.80
   7   4  -3    0.10    0.50
  -7  -4   3    0.30    0.90
   6   4  -3   40.10    2.90
   6   4  -3   40.30    2.40
   6   4  -3   42.20    2.90
  -6  -4   3   40.80    3.10
   5   4  -3  106.09    5.30
   5   4  -3  101.59    4.90
   5   4  -3   90.49    5.00
  -5  -4   3  108.29    5.60
   4   4  -3    0.90    0.90
  -4  -4   3    0.80    1.00
  -4  -4   3    0.50    1.00
   3   4  -3   12.20    1.90
  -3  -4   3   15.70    2.30
  -3  -4   3   14.70    1.90
   2   4  -3   10.60    1.70
   2   4  -3    6.90    1.20
  -2  -4   3    7.70    1.40
  -2  -4   3    6.50    1.40
   1   4  -3  175.38    8.40
  -1  -4   3  185.68    8.40
  -1  -4   3  170.38    8.60
   0  -4   3    2.30    0.90
   1  -4   3   53.99    3.50
   1  -4   3   56.19    3.40
   2  -4   3    0.50    0.80
   2  -4   3   -0.90    0.50
  -3   4  -3    6.60    1.40
   3  -4   3    5.70    1.30
  -4   4  -3   -0.70    1.00
   4  -4   3    0.00    0.70
  -5   4  -3    3.10    1.20
   5  -4   3    2.80    1.00
   5  -4   3    4.60    1.00
  -6   4  -3    0.60    0.70
   6  -4   3    0.10    0.50
   6  -4   3    0.10    0.60
   7  -4   3    0.70    0.30
   7  -4   3    0.20    0.40
   8   3  -3   12.00    1.20
   8   3  -3   12.80    1.40
   8   3  -3   12.60    1.30
  -8  -3   3   11.40    1.40
  -8  -3   3    9.50    1.10
   7   3  -3   17.30    2.00
   7   3  -3   17.30    1.50
  -7  -3   3   15.50    2.10
   6   3  -3   34.30    2.50
   6   3  -3   36.10    2.30
   6   3  -3   39.20    2.90
  -6  -3   3   38.60    2.90
   5   3  -3   93.79    4.80
   5   3  -3   90.89    4.40
  -5  -3   3   90.19    4.50
  -5  -3   3   92.09    5.00
  -5  -3   3   89.69    5.90
   4   3  -3   11.30    1.70
  -4  -3   3    8.50    1.80
   3   3  -3    0.30    0.70
   3   3  -3    0.80    0.70
  -3  -3   3    0.60    0.80
  -3  -3   3    1.30    0.90
   2   3  -3   97.99    5.20
   2   3  -3   96.49    5.00
  -2  -3   3   98.29    5.50
  -2  -3   3  102.09    5.20
   1   3  -3   13.40    1.50
   1   3  -3   11.30    1.60
  -1  -3   3   14.00    1.70
  -1  -3   3   14.70    1.90
   0   3  -3  173.08    8.10
   0  -3   3  172.88    8.00
   0  -3   3  177.88    8.00
  -1   3  -3  505.15   21.10
   1  -3   3  508.45   21.00
   1  -3   3  489.65   21.10
   2  -3   3    5.70    1.20
   2  -3   3    6.40    1.30
   3  -3   3   11.50    1.40
   3  -3   3   17.00    2.10
   4  -3   3    7.90    1.60
  -5   3  -3   11.50    1.60
   5  -3   3   11.70    1.30
   5  -3   3   12.10    1.60
  -6   3  -3    9.60    1.30
   6  -3   3    9.10    1.40
   6  -3   3    9.70    1.10
   7  -3   3   12.50    1.20
   7  -3   3   11.20    1.20
   8  -3   3    1.00    0.50
   8  -3   3    0.60    0.30
   8   2  -3   26.90    2.10
   8   2  -3   26.90    1.80
   8   2  -3   26.10    2.10
  -8  -2   3   26.50    1.90
  -8  -2   3   26.00    2.20
   7   2  -3  187.28    8.50
   7   2  -3  185.58    8.20
  -7  -2   3  175.38    8.20
  -7  -2   3  184.48    8.80
   6   2  -3   38.00    2.80
   6   2  -3   37.30    2.30
  -6  -2   3   39.50    2.90
  -6  -2   3   36.10    2.50
  -6  -2   3   32.10    2.50
   5   2  -3   13.60    1.90
  -5  -2   3    6.80    1.60
   4   2  -3    0.10    0.50
   4   2  -3    1.00    0.90
  -4  -2   3    0.50    0.90
   3   2  -3   43.90    2.80
   3   2  -3   37.30    2.50
   3   2  -3   36.10    2.60
  -3  -2   3   36.40    2.90
   2   2  -3   -0.10    0.60
   2   2  -3   -0.50    0.60
   2   2  -3    0.60    0.60
  -2  -2   3    0.10    0.60
  -2  -2   3    0.00    0.70
   1   2  -3   63.59    3.30
   1   2  -3   63.99    3.40
   1   2  -3   58.79    3.40
  -1  -2   3   62.99    3.40
  -1  -2   3   63.49    3.60
   0   2  -3   11.10    1.40
   0  -2   3   12.80    1.50
   0  -2   3   13.50    1.30
  -1   2  -3  164.18    7.30
   1  -2   3  154.28    7.30
   1  -2   3  162.28    7.30
  -2   2  -3   73.59    4.00
   2  -2   3   78.59    4.10
   2  -2   3   74.59    4.10
   3  -2   3  126.39    6.40
   3  -2   3  122.69    5.80
   4  -2   3  190.78    9.20
  -5   2  -3    0.70    0.90
   5  -2   3    0.90    0.90
   5  -2   3    0.20    0.60
   6  -2   3   14.80    1.50
   6  -2   3   14.50    1.50
   7  -2   3    1.10    1.00
   7  -2   3    1.00    0.70
   8  -2   3    0.50    0.60
   8  -2   3   -0.20    0.40
   8   1  -3   15.00    1.60
   8   1  -3   18.40    1.80
   8   1  -3   16.80    1.30
  -8  -1   3   17.50    1.40
  -8  -1   3   16.40    1.60
   7   1  -3    0.90    0.80
   7   1  -3    1.20    0.70
  -7  -1   3    1.50    0.80
  -7  -1   3    1.70    1.10
   6   1  -3    4.80    0.90
  -6  -1   3    4.80    1.20
  -6  -1   3    6.50    1.50
  -6  -1   3    5.70    1.40
  -6  -1   3    3.10    1.00
   5   1  -3   20.70    2.10
   5   1  -3   19.60    2.40
   4   1  -3    0.50    0.60
   4   1  -3    1.10    0.80
   4   1  -3    0.00    0.60
  -4  -1   3    0.40    0.90
   3   1  -3   17.10    1.60
   3   1  -3   19.30    1.70
   3   1  -3   17.30    1.70
  -3  -1   3   18.60    2.10
   2   1  -3   43.20    2.60
   2   1  -3   45.10    2.50
   2   1  -3   46.30    2.60
  -2  -1   3   41.00    2.90
  -2  -1   3   42.90    2.60
   1   1  -3    1.10    0.60
   1   1  -3    0.90    0.60
   1   1  -3    1.00    0.60
  -1  -1   3    1.00    0.60
  -1  -1   3    0.70    0.70
   0   1  -3  178.18    8.20
   0   1  -3  194.68    7.90
   0   1  -3  185.08    8.20
   0  -1   3  191.18    8.40
   0  -1   3  188.28    8.20
  -1   1  -3    1.30    0.60
  -1   1  -3    0.00    0.50
   1  -1   3    0.20    0.60
   1  -1   3   -0.20    0.50
  -2   1  -3  120.09    5.50
   2  -1   3  120.79    5.60
   2  -1   3  106.29    5.50
  -3   1  -3 1391.16   56.29
   3  -1   3 1448.96   56.49
   3  -1   3 1336.87   55.79
   4  -1   3  330.37   14.60
   5  -1   3  109.69    6.10
   6  -1   3    4.80    1.20
   6  -1   3    2.60    1.00
   6  -1   3    3.00    0.80
   7  -1   3    2.80    1.00
   7  -1   3    1.40    1.00
   7  -1   3    2.30    0.80
   8  -1   3    1.00    0.60
   8  -1   3    0.40    0.70
   8  -1   3   -0.30    0.90
   8   0  -3    3.70    0.60
   8   0  -3    2.00    0.60
   8   0  -3    4.70    0.90
  -8   0   3    2.90    0.80
  -8   0   3    2.80    0.90
   7   0  -3    0.70    0.90
   7   0  -3    0.70    0.60
  -7   0   3    0.50    0.70
  -7   0   3    1.50    0.90
  -7   0   3    0.70    1.00
   6   0  -3    0.10    0.60
  -6   0   3    0.20    1.00
  -6   0   3    0.60    0.80
  -6   0   3    0.20    0.70
  -6   0   3    1.30    1.00
   5   0  -3  117.29    6.20
   5   0  -3  121.89    6.40
  -5   0   3  121.99    5.70
  -5   0   3  109.59    6.10
   4   0  -3    2.70    0.90
   4   0  -3    2.70    1.00
   4   0  -3    3.50    1.00
   3   0  -3  142.89    6.60
   3   0  -3  142.59    6.60
   3   0  -3  133.29    6.50
   2   0  -3  246.88   10.30
   2   0  -3  238.48   10.20
   2   0  -3  232.58   10.20
  -2   0   3  233.48   10.60
   1   0  -3  114.69    4.90
   1   0  -3  112.49    5.00
   1   0  -3  113.39    5.00
  -1   0   3  103.99    5.00
   0   0  -3   33.50    1.90
   0   0  -3   33.50    1.60
   0   0  -3   34.00    1.90
   0   0   3   30.90    1.80
  -1   0  -3  360.16   14.80
  -1   0  -3  356.06   14.70
   1   0   3  348.87   14.70
  -2   0  -3   64.79    3.40
  -2   0  -3   70.79    3.50
   2   0   3   71.39    3.60
   2   0   3   65.49    3.00
  -3   0  -3    2.30    0.80
   3   0   3    1.00    0.80
  -4   0  -3   30.90    2.30
   4   0   3   28.30    2.30
   5   0   3    4.80    1.30
   6   0   3    9.00    1.40
   6   0   3    9.40    1.40
   6   0   3   10.50    1.20
   7   0   3    4.90    1.10
   7   0   3    6.60    1.20
   7   0   3    3.10    1.20
   8   0   3    0.50    1.00
   8   0   3    0.40    0.70
   8   0   3   -0.10    0.60
   9   0   3    2.40    0.60
   9   0   3    3.00    0.50
   9   0   3    1.80    0.70
   8  -1  -3    4.60    0.80
  -8   1   3    4.20    0.90
  -8   1   3    2.50    0.50
  -7   1   3   12.10    1.40
  -7   1   3   11.90    1.50
  -6   1   3    1.20    0.90
  -6   1   3    2.30    1.00
  -6   1   3    0.80    1.00
  -6   1   3    1.40    0.90
  -5   1   3   14.10    1.90
  -5   1   3   13.70    1.70
  -5   1   3   13.60    1.60
  -5   1   3   13.30    1.60
  -5   1   3   13.10    1.40
   4  -1  -3   48.10    3.00
   4  -1  -3   41.20    2.70
   3  -1  -3  118.59    5.40
   3  -1  -3  109.99    5.60
   3  -1  -3  117.09    5.50
   2  -1  -3  194.88    8.40
   2  -1  -3  194.58    8.30
   2  -1  -3  196.38    8.50
   1  -1  -3  377.56   15.50
   1  -1  -3  388.16   15.50
   1  -1  -3  370.86   15.50
   0  -1  -3    8.10    0.70
   0  -1  -3    8.40    0.80
   0  -1  -3    8.10    0.60
  -1  -1  -3   27.50    1.60
  -1  -1  -3   26.90    1.60
  -2  -1  -3  188.38    8.10
  -2  -1  -3  188.68    8.10
   2   1   3  181.88    8.10
  -3  -1  -3   15.30    1.40
  -3  -1  -3   16.30    1.60
  -3  -1  -3   15.20    1.50
   3   1   3   16.30    1.50
  -4  -1  -3   56.99    3.40
   4   1   3   62.89    3.70
  -5  -1  -3  148.89    7.50
   5   1   3  152.08    7.70
   6   1   3    1.10    1.10
   6   1   3    0.50    0.70
   6   1   3    0.30    0.70
   6   1   3   -0.10    0.90
   7   1   3    6.20    1.40
   7   1   3    7.30    1.40
   7   1   3    6.10    1.10
   8   1   3   -0.40    0.60
   8   1   3    0.70    0.80
   8   1   3    0.00    0.60
   9   1   3    7.00    0.90
   9   1   3    8.00    0.90
   9   1   3    9.70    1.10
  -8   2   3    4.40    0.70
  -7   2   3    1.10    0.80
  -7   2   3    2.40    0.80
  -7   2   3    1.40    0.60
  -7   2   3    2.60    0.70
  -6   2   3   17.10    1.70
  -6   2   3   16.30    1.60
  -6   2   3   16.40    2.10
  -6   2   3   16.60    1.90
  -5   2   3   16.00    2.10
  -5   2   3   19.00    2.00
  -5   2   3   17.40    1.90
  -5   2   3   19.10    1.80
   4  -2  -3   18.30    1.70
  -4   2   3   14.60    1.50
   3  -2  -3  157.68    7.80
   3  -2  -3  174.58    7.50
   2  -2  -3    2.70    0.70
   2  -2  -3    2.10    0.50
   1  -2  -3   67.99    2.90
   1  -2  -3   69.59    3.00
   1  -2  -3   65.59    3.00
   1  -2  -3   68.29    3.30
   0  -2  -3   53.49    2.40
   0  -2  -3   52.29    2.40
   0  -2  -3   51.39    2.40
   0  -2  -3   56.09    2.40
  -1  -2  -3   71.39    3.30
  -1  -2  -3   75.09    3.40
  -2  -2  -3  173.88    7.30
  -2  -2  -3  167.08    7.20
  -2  -2  -3  176.18    7.60
   2   2   3  148.19    7.20
  -3  -2  -3   53.99    3.10
  -3  -2  -3   50.79    2.90
  -3  -2  -3   48.60    2.90
   3   2   3   49.60    2.90
  -4  -2  -3   -0.60    0.60
  -4  -2  -3   -0.20    0.80
   4   2   3    0.70    0.70
  -5  -2  -3    8.20    1.50
   5   2   3    8.10    1.60
  -6  -2  -3   42.60    3.40
   6   2   3   45.30    3.50
   7   2   3   21.70    2.30
   7   2   3   18.40    1.70
   7   2   3   18.30    1.90
   7   2   3   21.30    1.70
   8   2   3   18.20    1.60
   8   2   3   18.90    1.90
   9   2   3    4.20    1.10
   9   2   3    7.10    0.90
   7  -3  -3    0.60    0.50
  -7   3   3    0.10    0.50
  -7   3   3    0.60    0.50
  -7   3   3    0.20    0.40
  -6   3   3    1.00    0.70
  -6   3   3    1.00    0.70
  -6   3   3    0.50    0.70
  -6   3   3    2.20    0.80
  -5   3   3    0.50    1.00
  -5   3   3    0.70    1.00
  -5   3   3    1.80    0.80
  -5   3   3    1.00    0.90
  -4   3   3    0.20    0.90
  -4   3   3    0.10    0.80
  -4   3   3    0.70    0.80
  -4   3   3    1.10    0.80
  -4   3   3    0.00    0.80
   3  -3  -3    2.20    0.60
  -3   3   3    0.90    0.70
   2  -3  -3   11.30    1.40
   2  -3  -3   13.80    1.00
   1  -3  -3   18.80    1.40
   1  -3  -3   18.20    0.90
   1  -3  -3   18.80    0.90
   0  -3  -3   22.10    1.10
   0  -3  -3   20.90    1.40
   0  -3  -3   24.10    1.10
  -1  -3  -3  693.63   27.80
  -1  -3  -3  690.13   27.80
  -2  -3  -3   67.09    3.30
  -2  -3  -3   67.69    3.30
  -2  -3  -3   69.09    3.80
  -3  -3  -3    7.20    1.10
  -3  -3  -3    5.80    1.00
  -3  -3  -3    6.20    1.30
  -4  -3  -3    3.50    1.00
  -4  -3  -3    4.50    1.20
  -4  -3  -3    4.80    1.10
  -5  -3  -3    7.20    1.40
  -5  -3  -3    7.30    1.80
   5   3   3    6.20    1.50
  -6  -3  -3    1.10    1.00
   6   3   3    1.70    1.40
  -7  -3  -3  130.49    6.10
   7   3   3  132.19    6.50
   7   3   3  125.19    6.10
   7   3   3  135.49    6.50
   8   3   3    5.90    1.30
   8   3   3    7.90    1.40
   8   3   3    8.80    1.20
   9   3   3    8.00    1.00
   9   3   3   10.50    1.30
   9   3   3    9.30    1.00
  -7   4   3    8.30    0.90
  -6   4   3    0.90    0.60
  -6   4   3   -0.20    0.80
  -6   4   3    0.10    0.70
  -5   4   3   77.09    4.20
  -5   4   3   79.49    4.30
  -5   4   3   74.89    4.40
  -5   4   3   78.49    4.40
  -4   4   3  121.79    6.10
  -4   4   3  124.69    5.90
  -4   4   3  123.69    6.10
  -4   4   3  117.09    6.20
   3  -4  -3   12.30    1.10
  -3   4   3   12.10    1.40
  -3   4   3    9.10    1.30
  -3   4   3   10.10    1.20
  -3   4   3   12.10    2.00
   2  -4  -3    0.70    0.30
   2  -4  -3    0.60    0.60
   1  -4  -3  137.69    6.60
   1  -4  -3  145.99    5.70
   0  -4  -3   17.90    0.90
   0  -4  -3   16.30    1.70
  -1  -4  -3    0.50    0.70
  -1  -4  -3    0.80    0.40
  -2  -4  -3   12.10    1.10
  -2  -4  -3   11.10    1.70
  -2  -4  -3   11.20    1.10
  -3  -4  -3    0.00    0.50
  -3  -4  -3   -0.10    0.50
  -3  -4  -3    0.00    0.80
  -4  -4  -3   87.99    5.10
  -4  -4  -3   86.29    4.60
  -4  -4  -3   78.19    4.50
  -5  -4  -3   11.30    1.90
  -5  -4  -3   14.70    2.00
  -6  -4  -3    0.60    0.90
  -6  -4  -3    2.50    0.90
   6   4   3    1.70    0.70
   6   4   3    1.40    1.00
  -7  -4  -3    0.60    0.80
   7   4   3   -0.50    1.00
   7   4   3    0.70    1.10
  -8  -4  -3    1.80    0.80
   8   4   3    0.90    1.10
   8   4   3    1.20    0.80
   9   4   3    0.00    0.80
   9   4   3    0.10    0.90
  -6   5   3    1.50    0.70
  -6   5   3    2.40    0.60
  -6   5   3    1.80    0.50
  -5   5   3   55.39    3.20
  -5   5   3   56.09    3.30
  -5   5   3   56.29    3.30
  -4   5   3   40.40    2.90
  -4   5   3   39.80    2.70
  -4   5   3   40.90    2.80
  -3   5   3   16.80    1.70
  -3   5   3   17.00    1.80
  -3   5   3   17.40    1.70
  -3   5   3   16.30    1.80
   2  -5  -3   -0.30    0.20
  -2   5   3    0.10    0.90
  -2   5   3   -0.10    0.60
   1  -5  -3   37.60    1.70
   0  -5  -3    0.20    0.20
  -1  -5  -3    5.40    1.30
  -1  -5  -3    6.40    0.80
  -2  -5  -3   12.30    1.90
  -2  -5  -3   11.60    1.10
  -2  -5  -3   10.60    1.20
  -3  -5  -3  122.09    6.80
  -3  -5  -3  128.99    6.10
  -3  -5  -3  119.29    5.90
  -4  -5  -3    5.40    1.20
  -4  -5  -3    5.20    1.30
  -4  -5  -3    3.20    1.30
  -5  -5  -3   -0.50    1.00
  -5  -5  -3   -0.10    0.60
  -6  -5  -3   14.30    1.40
   6   5   3   12.50    1.60
   6   5   3   13.10    1.70
  -7  -5  -3   24.80    1.90
   7   5   3   22.20    2.20
  -8  -5  -3    0.60    0.70
   8   5   3    0.80    0.80
   8   5   3    0.90    1.00
   9   5   3   22.20    2.40
   9   5   3   25.10    1.80
  -5   6   3    1.60    0.60
  -5   6   3    1.10    0.50
  -5   6   3    1.20    0.80
  -4   6   3   40.50    2.80
  -4   6   3   36.60    2.40
  -4   6   3   41.90    2.70
  -3   6   3    5.70    1.10
  -3   6   3    6.00    1.10
  -3   6   3    7.90    1.30
  -2   6   3   40.40    2.60
  -2   6   3   36.70    2.30
  -2   6   3   42.10    2.60
  -2   6   3   39.60    2.60
  -1   6   3   -0.30    0.70
  -1   6   3    0.40    0.70
  -1   6   3    0.40    0.70
   0  -6  -3    1.70    0.40
  -1  -6  -3   46.80    3.90
  -1  -6  -3   50.19    2.70
  -2  -6  -3   17.40    1.50
  -2  -6  -3   12.70    2.00
  -3  -6  -3   45.50    2.80
  -3  -6  -3   41.90    3.60
  -3  -6  -3   47.50    3.10
  -4  -6  -3   89.49    5.10
  -4  -6  -3   91.29    5.80
  -4  -6  -3   86.99    4.90
  -5  -6  -3   40.70    2.50
   5   6   3   40.70    2.70
   5   6   3   41.90    2.40
   5   6   3   45.10    2.80
  -6  -6  -3   34.60    2.20
   6   6   3   31.00    2.50
   6   6   3   31.70    2.40
  -7  -6  -3   11.00    1.30
   7   6   3    9.30    1.40
   7   6   3   11.40    1.50
  -8  -6  -3   -0.30    0.60
   8   6   3    0.10    1.00
   8   6   3   -0.30    0.60
  -9  -6  -3    0.30    0.50
   9   6   3    0.80    0.60
  -4   7   3   13.70    1.20
  -4   7   3   14.00    1.30
  -4   7   3   11.80    1.20
  -3   7   3    2.90    0.90
  -3   7   3    2.90    0.90
  -3   7   3    5.50    1.00
  -2   7   3    5.00    0.80
  -2   7   3    3.50    0.90
  -2   7   3    2.00    0.90
  -2   7   3    1.50    1.00
  -1   7   3    2.10    0.90
  -1   7   3    0.90    0.80
  -1   7   3    1.50    0.90
   0   7   3    0.60    0.70
   0   7   3   -0.20    0.70
   0   7   3    0.10    0.70
   0   7   3    0.40    0.70
   1   7   3   14.80    1.30
   1   7   3   14.30    1.50
   1   7   3   17.40    1.30
   1   7   3   15.20    2.30
   1   7   3   13.90    1.40
   2   7   3    2.10    0.80
   2   7   3    1.70    0.80
   2   7   3    1.30    0.90
   2   7   3    2.00    0.60
   2   7   3    1.70    0.60
   2   7   3    1.30    0.70
   3   7   3    0.40    0.60
   3   7   3    1.10    0.70
   3   7   3    1.60    0.80
   3   7   3    1.20    0.70
   3   7   3    1.20    0.70
   3   7   3    0.40    0.60
   4   7   3   43.10    2.50
   4   7   3   44.30    2.60
   4   7   3   45.70    3.00
   4   7   3   47.60    2.80
   4   7   3   41.80    2.60
  -5  -7  -3  232.78   10.20
   5   7   3  244.48   10.20
   5   7   3  230.98   10.60
   5   7   3  236.58   10.20
  -6  -7  -3    1.50    0.70
   6   7   3    2.90    0.90
   6   7   3    2.70    0.90
   6   7   3    2.30    0.80
   6   7   3    1.80    0.90
  -7  -7  -3   -0.10    0.50
   7   7   3    0.20    0.90
   7   7   3    0.40    0.90
  -8  -7  -3    3.90    0.70
   8   7   3    2.10    0.70
   8   7   3    4.40    0.80
   8   7   3    2.60    0.90
  -9  -7  -3    2.50    0.50
   9   7   3    3.10    0.70
   9   7   3    4.20    0.70
  -3   8   3   15.60    1.30
  -3   8   3   16.70    1.30
  -2   8   3    0.60    0.80
  -2   8   3    1.00    0.60
  -2   8   3    1.40    0.50
  -1   8   3   46.80    2.70
  -1   8   3   47.80    2.70
  -1   8   3   40.00    2.70
   0   8   3   36.40    2.30
   0   8   3   43.00    2.50
   0   8   3   42.00    2.40
   0   8   3   41.00    2.60
   1   8   3    0.40    0.80
   1   8   3    0.00    0.70
   1   8   3    0.30    0.80
   1   8   3    1.10    0.90
   1   8   3    0.00    0.70
   2   8   3   22.50    1.60
   2   8   3   21.40    1.70
   2   8   3   24.60    1.80
   2   8   3   23.40    1.80
   3   8   3   14.40    1.40
   3   8   3   15.20    1.40
   3   8   3   14.80    1.50
   3   8   3   14.70    1.80
   3   8   3   12.50    1.50
   3   8   3   14.40    1.30
   4   8   3    4.00    0.90
   4   8   3    4.30    1.00
   4   8   3    4.20    1.00
   4   8   3    5.60    0.90
   4   8   3    3.80    1.10
  -5  -8  -3   16.20    1.50
   5   8   3   16.40    1.60
   5   8   3   17.50    1.50
   5   8   3   17.50    1.90
  -6  -8  -3    1.10    0.70
   6   8   3    0.30    0.70
   6   8   3    0.60    0.80
   6   8   3    0.00    0.60
  -7  -8  -3    3.20    0.80
   7   8   3    3.70    0.80
   7   8   3    3.10    0.80
  -8  -8  -3   17.20    1.20
   8   8   3   16.70    1.30
   8   8   3   16.50    1.20
   8   8   3   14.90    1.20
  -2   9   3   -0.70    0.50
  -2   9   3   -0.40    0.40
  -1   9   3   40.40    2.20
  -1   9   3   39.40    2.30
   0   9   3   -0.30    0.50
   0   9   3    1.00    0.60
   0   9   3    1.10    0.70
   1   9   3   12.60    1.30
   1   9   3   12.70    1.30
   1   9   3    8.50    1.10
   1   9   3   11.20    1.30
   2   9   3    1.70    0.60
   2   9   3    2.50    0.80
   2   9   3    1.50    0.60
   2   9   3    1.60    0.80
   3   9   3   21.10    1.70
   3   9   3   25.30    1.80
   3   9   3   24.10    1.80
   3   9   3   22.60    1.80
   4   9   3    0.10    0.70
   4   9   3    0.00    0.50
   4   9   3    0.00    0.70
   4   9   3    0.50    0.50
  -5  -9  -3    3.30    0.70
   5   9   3    3.70    0.90
   5   9   3    2.50    0.70
   5   9   3    4.00    0.80
   5   9   3    4.20    0.80
  -6  -9  -3    0.30    0.50
   6   9   3    0.30    0.60
   6   9   3    0.50    0.50
   6   9   3    0.20    0.50
  -7  -9  -3   19.70    1.30
   7   9   3   16.60    1.40
   7   9   3   17.90    1.30
   0  10   3   -0.20    0.40
   0  10   3    0.20    0.70
   1  10   3   23.70    1.50
   1  10   3   24.30    1.40
   1  10   3   19.40    1.60
   2  10   3   35.90    2.00
   2  10   3   33.40    1.90
   2  10   3   34.90    2.00
   3  10   3    0.00    0.40
   3  10   3    0.10    0.60
   3  10   3   -0.40    0.40
   4  10   3    2.90    0.70
   4  10   3    2.20    0.70
   5  10   3    0.10    0.40
   5  10   3    0.10    0.70
   5  10   3    0.40    0.50
  -6 -10  -3    0.80    0.40
   6  10   3    1.00    0.40
   6  10   3    0.90    0.40
   6  10   3    1.50    0.60
   4   9  -4    0.20    0.50
   4   9  -4   -0.10    0.30
  -4  -9   4   -0.10    0.30
  -4  -9   4    0.50    0.70
   3   9  -4   18.90    1.30
   3   9  -4   17.10    1.10
   3   9  -4   18.20    1.30
  -3  -9   4   20.40    1.30
  -3  -9   4   19.40    1.50
   2   9  -4    1.20    0.50
   2   9  -4    0.70    0.40
   2   9  -4    1.00    0.50
   2   9  -4    0.00    0.50
  -2  -9   4    0.90    0.70
  -2  -9   4    0.50    0.40
   1   9  -4    1.70    0.50
   1   9  -4    1.40    0.50
   1   9  -4    1.40    0.50
  -1  -9   4    1.30    0.90
  -1  -9   4    0.90    0.50
   0   9  -4   -0.10    0.30
   0   9  -4   -0.10    0.40
   0   9  -4    0.40    0.40
   0  -9   4    0.20    0.30
   0  -9   4    0.40    0.50
   6   8  -4    3.70    0.60
  -6  -8   4    3.70    0.80
   5   8  -4   11.50    1.00
  -5  -8   4   14.60    1.60
  -5  -8   4   10.90    0.90
   4   8  -4   -0.10    0.70
   4   8  -4   -0.30    0.40
  -4  -8   4    0.00    0.60
  -4  -8   4    0.20    0.70
   3   8  -4   -0.30    0.40
   3   8  -4   -0.40    0.50
   3   8  -4   -0.50    0.70
  -3  -8   4    0.30    0.50
  -3  -8   4   -0.20    0.70
   2   8  -4   15.90    1.30
   2   8  -4   16.30    1.30
   2   8  -4   16.40    1.30
  -2  -8   4   14.50    1.70
   1   8  -4    6.70    0.90
   1   8  -4    4.70    0.70
   1   8  -4    6.90    0.90
  -1  -8   4    5.80    1.20
  -1  -8   4    6.70    0.90
   0   8  -4   12.50    1.40
   0   8  -4   14.60    1.20
   0   8  -4   12.10    1.10
   0  -8   4   15.40    1.40
   0  -8   4   14.90    1.90
  -1   8  -4    6.10    0.80
  -1   8  -4    7.80    0.90
   1  -8   4    7.30    0.90
   1  -8   4    8.60    1.50
  -2   8  -4   21.70    1.40
   2  -8   4   24.40    1.90
   2  -8   4   24.60    1.50
   7   7  -4    8.90    0.90
  -7  -7   4    5.10    1.20
   6   7  -4    5.20    0.90
  -6  -7   4    3.10    1.00
   5   7  -4    0.00    0.60
   5   7  -4    0.20    0.70
  -5  -7   4    0.30    0.60
  -5  -7   4   -0.20    0.80
   4   7  -4    5.70    1.00
   4   7  -4    4.70    1.00
  -4  -7   4    5.10    1.40
  -4  -7   4    3.30    0.90
   3   7  -4    0.00    0.70
   3   7  -4   -0.10    0.80
  -3  -7   4    0.80    0.80
  -3  -7   4    0.50    1.20
   2   7  -4    3.50    1.00
   2   7  -4    2.10    0.90
  -2  -7   4    2.50    0.90
  -2  -7   4    2.10    1.40
   1   7  -4   53.39    3.00
   1   7  -4   44.00    2.90
   1   7  -4   49.70    2.90
  -1  -7   4   52.59    3.60
  -1  -7   4   53.79    3.00
   0   7  -4    8.60    1.40
   0   7  -4   10.80    1.30
   0  -7   4    9.30    1.30
   0  -7   4    8.20    1.70
  -1   7  -4    2.00    1.00
  -1   7  -4    1.50    0.90
   1  -7   4    1.70    0.80
  -2   7  -4    1.60    0.90
  -2   7  -4    1.90    0.60
   2  -7   4    2.00    0.70
  -3   7  -4    2.00    0.80
   3  -7   4    4.20    0.70
   4  -7   4   -0.20    0.40
   7   6  -4    0.50    0.50
   7   6  -4   -0.10    0.50
  -7  -6   4    0.00    0.70
   6   6  -4   12.50    1.20
   6   6  -4   15.30    1.80
  -6  -6   4   16.10    2.00
   5   6  -4    1.20    0.70
   5   6  -4    2.40    0.80
   5   6  -4    3.50    1.20
  -5  -6   4    2.10    1.10
  -5  -6   4    2.70    0.80
   4   6  -4    9.40    1.50
   4   6  -4    9.10    1.30
  -4  -6   4    9.70    1.60
  -4  -6   4    8.50    1.20
   3   6  -4   22.80    1.70
   3   6  -4   22.00    2.10
  -3  -6   4   21.90    1.90
  -3  -6   4   21.90    2.40
   2   6  -4   20.90    1.80
   2   6  -4   21.30    1.80
  -2  -6   4   24.40    2.50
  -2  -6   4   23.00    1.90
   1   6  -4    3.40    0.90
   1   6  -4    4.60    1.10
   1   6  -4    4.00    1.10
  -1  -6   4    6.30    1.20
  -1  -6   4    1.90    1.40
   0   6  -4    5.60    1.20
   0   6  -4    5.30    1.50
   0  -6   4    3.60    1.00
  -1   6  -4    0.90    0.90
  -1   6  -4    0.10    1.30
   1  -6   4    1.20    0.80
  -2   6  -4   40.30    2.50
  -2   6  -4   44.00    2.80
   2  -6   4   41.10    2.60
  -3   6  -4    4.50    1.30
  -3   6  -4   10.30    1.40
   3  -6   4    7.70    1.10
  -4   6  -4    3.70    0.90
   4  -6   4    3.80    0.80
   5  -6   4    0.30    0.40
   8   5  -4    0.90    0.40
  -8  -5   4    1.90    0.60
  -8  -5   4    0.80    0.60
   7   5  -4    5.10    0.80
   7   5  -4    3.80    0.80
   7   5  -4    3.90    0.80
  -7  -5   4    2.60    1.00
   6   5  -4    2.60    0.80
   6   5  -4    1.80    0.90
  -6  -5   4    2.00    1.40
  -6  -5   4    0.40    1.00
   5   5  -4   16.40    1.60
   5   5  -4   15.40    1.50
   5   5  -4   18.40    1.90
  -5  -5   4   19.20    2.30
   4   5  -4   12.20    1.30
   4   5  -4   14.30    1.80
   4   5  -4   12.90    1.40
  -4  -5   4   12.60    1.70
  -4  -5   4   11.70    1.40
   3   5  -4    0.40    0.90
   3   5  -4    0.30    0.80
   3   5  -4    1.10    0.60
  -3  -5   4    0.30    0.90
  -3  -5   4    0.60    0.80
   2   5  -4    7.90    1.10
  -2  -5   4    7.60    1.10
  -2  -5   4    9.70    1.80
  -2  -5   4    3.70    1.30
  -1  -5   4   -1.20    0.70
   0   5  -4   41.30    3.00
   0   5  -4   43.90    2.50
   0  -5   4   33.70    2.60
   0  -5   4   41.10    3.10
  -1   5  -4   30.60    2.60
  -1   5  -4   29.30    1.90
   1  -5   4   30.40    2.00
  -2   5  -4   40.10    2.90
  -2   5  -4   40.60    2.40
  -2   5  -4   36.40    2.60
   2  -5   4   37.60    2.40
  -3   5  -4   12.40    1.80
  -3   5  -4   17.00    1.90
   3  -5   4   16.60    1.50
  -4   5  -4    2.20    1.20
   4  -5   4    2.60    0.80
  -5   5  -4    0.30    1.00
   5  -5   4    0.20    0.60
   6  -5   4    0.30    0.30
   8   4  -4    3.20    0.70
   8   4  -4    4.90    0.70
  -8  -4   4    4.90    0.90
  -8  -4   4    5.30    0.90
   7   4  -4    9.10    1.20
   7   4  -4    8.40    1.10
  -7  -4   4    5.00    1.20
   6   4  -4   11.60    1.40
   6   4  -4    8.60    1.50
   6   4  -4   11.00    1.10
  -6  -4   4    9.10    1.60
  -6  -4   4   14.20    1.80
   5   4  -4    2.80    1.10
   5   4  -4    5.10    1.00
   5   4  -4    4.60    1.30
  -5  -4   4    2.90    1.40
   4   4  -4  173.18    7.80
   4   4  -4  156.38    7.30
   4   4  -4  165.88    7.40
  -4  -4   4  170.28    8.10
   3   4  -4   75.59    4.70
  -3  -4   4   74.09    5.10
  -3  -4   4   71.99    4.60
   2   4  -4   47.00    3.30
  -2  -4   4   46.70    3.70
  -2  -4   4   45.50    3.30
   1   4  -4   34.40    2.80
  -1  -4   4   38.50    2.80
   0  -4   4  116.79    6.10
   1  -4   4   49.00    3.40
   2  -4   4    8.80    1.60
  -3   4  -4    1.20    0.90
   3  -4   4    1.90    0.80
  -4   4  -4   17.90    2.10
   4  -4   4   18.60    1.60
  -5   4  -4    0.90    1.10
   5  -4   4    0.90    0.80
   5  -4   4    1.20    0.70
  -6   4  -4    1.90    0.70
   6  -4   4    3.10    0.70
   6  -4   4    1.40    0.60
   7  -4   4    3.70    0.50
   8   3  -4   -0.30    0.50
   8   3  -4   -0.20    0.50
  -8  -3   4    0.10    0.40
  -8  -3   4    0.10    0.70
   7   3  -4    5.30    1.20
   7   3  -4    4.40    0.90
  -7  -3   4    5.70    1.20
  -7  -3   4    7.90    1.40
   6   3  -4  106.89    5.20
   6   3  -4   93.49    5.10
   6   3  -4   99.79    4.80
  -6  -3   4   92.09    5.00
  -6  -3   4  104.69    5.50
   5   3  -4    6.30    1.20
   5   3  -4    5.50    0.90
  -5  -3   4    5.40    1.20
  -5  -3   4    6.40    1.40
   4   3  -4    0.00    0.90
  -4  -3   4    0.00    1.00
   3   3  -4  184.08    8.90
  -3  -3   4  180.38    9.40
   2   3  -4    1.00    0.80
   2   3  -4    1.00    0.80
  -2  -3   4    0.60    0.80
  -2  -3   4   -0.10    1.00
   1   3  -4   18.90    2.10
  -1  -3   4   16.60    2.20
  -1  -3   4   15.00    1.90
   0   3  -4  100.79    5.40
   0  -3   4  104.59    5.40
  -1   3  -4    3.90    1.10
   1  -3   4    5.60    1.20
   2  -3   4   13.40    1.90
  -4   3  -4   14.30    1.60
   4  -3   4   13.50    1.40
   4  -3   4   12.50    1.50
  -5   3  -4    6.80    1.40
   5  -3   4    8.10    1.30
   5  -3   4    9.50    1.20
  -6   3  -4    4.00    0.90
   6  -3   4    4.50    1.00
   6  -3   4    5.50    1.00
   7  -3   4   -0.40    0.70
   7  -3   4   -0.20    0.40
   8   2  -4    3.00    0.70
   8   2  -4    2.70    0.70
   8   2  -4    3.30    0.80
  -8  -2   4    4.00    0.70
  -8  -2   4    4.80    0.90
   7   2  -4    7.60    1.00
   7   2  -4    4.20    1.00
  -7  -2   4    6.30    1.10
  -7  -2   4    7.40    1.30
  -7  -2   4    4.30    1.00
   6   2  -4   98.49    4.80
   6   2  -4  100.29    5.10
  -6  -2   4  102.19    5.00
  -6  -2   4   97.19    5.00
  -6  -2   4   96.39    5.30
   5   2  -4  116.19    5.50
   5   2  -4  113.09    5.70
  -5  -2   4  124.29    5.70
  -5  -2   4  118.29    5.90
  -5  -2   4  116.59    6.10
   4   2  -4   10.30    1.60
  -4  -2   4    6.30    1.50
   3   2  -4    3.60    1.10
   3   2  -4    3.90    1.00
  -3  -2   4    2.40    1.10
   2   2  -4  145.19    8.50
   2   2  -4  188.28    8.40
   2   2  -4  189.98    8.10
  -2  -2   4  184.48    8.80
   1   2  -4    0.30    0.60
   1   2  -4    0.00    0.60
  -1  -2   4   -0.40    0.70
  -1  -2   4   -0.50    0.60
   0   2  -4   29.90    2.20
   0  -2   4   30.00    2.20
  -1   2  -4   11.40    1.60
   1  -2   4   13.00    1.60
  -2   2  -4   24.40    2.10
   2  -2   4   21.60    2.00
   4  -2   4    3.90    1.20
  -5   2  -4   48.80    3.40
   5  -2   4   51.79    3.20
   5  -2   4   55.49    3.00
   6  -2   4  182.18    8.10
   6  -2   4  178.68    8.30
   7  -2   4    1.00    0.80
   7  -2   4    0.50    0.90
   8  -2   4   -0.10    0.60
   8  -2   4    1.50    0.60
   8   1  -4    3.50    0.70
   8   1  -4    1.80    0.80
   8   1  -4    3.50    0.60
  -8  -1   4    3.40    0.80
  -8  -1   4    3.60    0.70
   7   1  -4    2.10    0.60
   7   1  -4    1.70    0.80
  -7  -1   4    0.80    0.90
  -7  -1   4    1.90    0.80
  -7  -1   4    1.60    0.90
   6   1  -4    3.90    0.90
  -6  -1   4    3.40    1.10
  -6  -1   4    2.70    1.30
  -6  -1   4    3.70    1.00
  -6  -1   4    1.90    1.10
   5   1  -4    0.30    0.60
  -5  -1   4    0.80    0.90
  -5  -1   4    0.50    0.70
  -5  -1   4    1.00    0.90
   4   1  -4    5.60    1.20
   4   1  -4   10.50    1.70
   3   1  -4   24.50    2.00
   3   1  -4   26.10    2.10
   3   1  -4   30.10    2.20
  -3  -1   4   26.30    2.50
   2   1  -4    5.90    1.10
   2   1  -4    6.40    1.10
   2   1  -4    4.90    0.90
  -2  -1   4    4.70    1.30
   1   1  -4   95.79    4.60
   1   1  -4   94.19    4.90
   1   1  -4  103.59    5.00
  -1  -1   4  103.49    5.20
  -1  -1   4  103.19    5.40
   0   1  -4   98.59    4.50
   0   1  -4  101.19    5.00
   0   1  -4  103.09    4.90
   0  -1   4   98.29    4.90
  -1   1  -4    0.00    0.60
  -1   1  -4    1.20    0.70
   1  -1   4   -0.30    0.60
  -2   1  -4   38.00    2.50
   2  -1   4   36.10    2.60
  -3   1  -4  143.09    6.90
   3  -1   4  139.09    7.00
   4  -1   4   66.79    4.20
   5  -1   4   84.69    4.40
   5  -1   4   91.99    4.60
   5  -1   4   97.29    5.60
   6  -1   4   79.69    4.90
   6  -1   4  102.19    4.80
   6  -1   4  103.89    5.00
   7  -1   4   11.00    1.50
   7  -1   4   10.70    1.30
   7  -1   4    8.90    1.50
   8  -1   4   12.30    1.10
   8   0  -4    1.30    0.60
   8   0  -4    0.60    0.50
  -8   0   4    1.10    0.50
  -8   0   4    1.50    0.60
   7   0  -4    1.60    0.90
   7   0  -4    2.30    0.70
  -7   0   4    2.50    0.80
  -7   0   4    2.20    0.70
  -7   0   4    2.40    1.00
   6   0  -4   26.60    1.90
  -6   0   4   25.70    2.30
  -6   0   4   24.20    2.10
  -6   0   4   24.80    2.20
  -6   0   4   25.30    2.00
  -5   0   4    0.00    0.70
  -5   0   4   -0.10    0.80
  -5   0   4    1.40    1.00
  -5   0   4    1.00    0.90
  -5   0   4    0.90    0.90
   4   0  -4   17.60    1.80
   4   0  -4   20.20    1.90
   3   0  -4    3.50    0.90
   3   0  -4    4.10    0.90
   3   0  -4    5.00    1.00
   2   0  -4    3.80    0.80
   2   0  -4    5.30    1.00
   2   0  -4    4.10    0.80
   1   0  -4   29.20    1.90
   1   0  -4   28.80    1.90
   1   0  -4   24.70    1.70
   0   0  -4 1056.79   43.10
   0   0  -4 1078.89   43.20
  -1   0  -4    4.90    0.90
  -1   0  -4    4.80    0.90
   1   0   4    6.50    1.10
  -2   0  -4  144.79    6.60
  -2   0  -4  134.39    6.60
   2   0   4  149.69    6.80
  -3   0  -4  139.79    6.60
   3   0   4  132.39    6.70
  -4   0  -4  113.29    5.90
   4   0   4  110.59    5.90
   5   0   4    1.00    0.90
   6   0   4    0.50    0.70
   6   0   4    0.20    1.00
   6   0   4    0.70    1.00
   7   0   4    1.50    0.80
   7   0   4    1.90    1.20
   7   0   4    0.80    0.80
   8   0   4   25.90    1.90
   8   0   4   23.70    2.00
   9   0   4   10.00    0.90
   9   0   4    9.90    0.90
   9   0   4   10.00    1.10
   7  -1  -4   12.10    1.40
  -7   1   4   16.40    1.60
  -7   1   4   13.40    1.30
  -7   1   4   16.20    1.60
  -6   1   4    1.00    0.90
  -6   1   4    1.30    1.00
  -6   1   4    0.60    0.70
  -6   1   4    0.90    0.80
  -6   1   4    1.40    0.90
  -5   1   4   19.00    1.90
  -5   1   4   15.80    1.70
  -5   1   4   16.10    1.90
  -5   1   4   18.10    1.60
  -5   1   4   17.70    2.10
   4  -1  -4    0.10    0.50
  -4   1   4    0.40    0.50
   3  -1  -4   51.09    3.00
   3  -1  -4   52.49    3.20
   3  -1  -4   60.39    3.30
   2  -1  -4  113.89    5.10
   2  -1  -4  113.99    5.20
   2  -1  -4  101.69    5.10
   1  -1  -4   12.10    1.10
   1  -1  -4   12.20    1.10
   0  -1  -4    0.90    0.50
   0  -1  -4    1.00    0.60
  -1  -1  -4  529.45   21.30
  -1  -1  -4  505.95   21.20
  -2  -1  -4    0.30    0.60
  -2  -1  -4    1.30    0.60
   2   1   4    1.00    0.70
  -3  -1  -4    2.30    0.80
  -3  -1  -4    3.10    0.90
  -3  -1  -4    2.40    0.90
   3   1   4    1.70    0.90
  -4  -1  -4   66.59    3.90
   4   1   4   65.09    4.00
  -5  -1  -4    0.10    0.80
   5   1   4    0.10    0.90
  -6  -1  -4    2.50    0.90
   6   1   4    1.60    0.80
   6   1   4    2.60    1.20
   6   1   4    1.60    0.80
   7   1   4   12.00    1.70
   7   1   4   12.40    1.90
   8   1   4   -0.40    0.50
   8   1   4    0.20    0.70
   8   1   4    1.00    0.80
   9   1   4    4.70    0.60
   9   1   4    3.00    0.80
   9   1   4    6.00    0.90
  -7   2   4   49.70    2.80
  -7   2   4   47.20    2.80
  -7   2   4   51.39    2.90
  -6   2   4    3.80    1.00
  -6   2   4    3.20    0.80
  -6   2   4    4.30    1.20
  -6   2   4    3.30    1.00
  -5   2   4    0.60    0.90
  -5   2   4    0.40    1.00
  -5   2   4   -0.70    0.80
  -5   2   4   -0.40    0.80
  -4   2   4   34.40    2.40
  -4   2   4   34.60    2.50
  -4   2   4   30.40    2.20
  -4   2   4   34.20    2.70
  -4   2   4   35.90    2.50
  -4   2   4   35.40    2.50
   3  -2  -4    0.20    0.40
  -3   2   4    0.30    0.70
   2  -2  -4   60.69    3.10
   1  -2  -4   48.40    2.40
   0  -2  -4   69.09    3.30
   0  -2  -4   72.69    3.40
  -1  -2  -4   -0.40    0.50
  -1  -2  -4    0.00    0.40
  -2  -2  -4  552.24   22.70
  -2  -2  -4  550.34   22.70
  -3  -2  -4    1.70    0.70
  -3  -2  -4    1.70    0.90
  -3  -2  -4    1.90    0.90
  -4  -2  -4  140.39    6.30
  -4  -2  -4  108.69    6.30
   4   2   4  126.09    6.40
  -5  -2  -4    2.00    0.90
   5   2   4    3.10    1.20
  -6  -2  -4    0.70    1.00
  -6  -2  -4    0.00    0.70
   6   2   4    0.70    0.90
   6   2   4   -0.40    0.60
   6   2   4    0.20    0.70
   6   2   4    0.20    1.00
   6   2   4   -0.70    1.00
  -7  -2  -4    0.40    0.70
   7   2   4    0.60    0.90
   7   2   4    0.70    0.80
   7   2   4    0.80    1.20
   7   2   4    0.50    1.00
   8   2   4    7.20    1.20
   8   2   4   10.50    1.10
   8   2   4   10.00    1.60
   9   2   4    9.20    1.10
   9   2   4    7.80    0.90
   7  -3  -4   -0.10    0.70
  -7   3   4    0.80    0.40
  -7   3   4    1.40    0.50
  -7   3   4    0.70    0.60
  -6   3   4   36.60    2.50
  -6   3   4   37.40    2.50
  -6   3   4   33.90    2.40
  -6   3   4   34.30    2.50
  -5   3   4   47.60    3.00
  -5   3   4   45.70    3.30
  -5   3   4   46.40    3.10
  -5   3   4   45.00    2.80
  -4   3   4    6.20    1.20
  -4   3   4    5.10    1.30
  -4   3   4    6.50    1.10
  -4   3   4    6.00    1.20
  -4   3   4    5.00    1.10
   3  -3  -4    0.00    0.40
  -3   3   4    0.10    0.40
   2  -3  -4    8.50    0.80
   1  -3  -4    6.70    0.60
   0  -3  -4   11.50    0.90
  -1  -3  -4   33.50    1.80
  -1  -3  -4   30.80    1.70
  -2  -3  -4   61.09    3.20
  -2  -3  -4   61.39    3.20
  -2  -3  -4   62.89    3.70
  -3  -3  -4  561.04   23.40
  -3  -3  -4  536.85   22.90
  -3  -3  -4  555.24   22.90
  -4  -3  -4   62.89    4.10
  -4  -3  -4   64.69    3.70
  -4  -3  -4   61.19    3.70
  -5  -3  -4    0.10    0.70
  -6  -3  -4    1.40    1.20
  -6  -3  -4    3.00    0.90
   6   3   4    1.60    1.00
   6   3   4    2.30    1.20
  -7  -3  -4    9.30    1.10
   7   3   4   11.70    1.50
   7   3   4    9.10    1.60
   8   3   4    4.70    1.30
   8   3   4    4.80    0.90
   8   3   4    5.20    1.00
   9   3   4    6.70    1.20
  -6   4   4    0.30    0.60
  -6   4   4    0.10    0.50
  -6   4   4    0.40    0.50
  -5   4   4    4.00    1.10
  -5   4   4    5.40    1.20
  -5   4   4    8.40    1.20
  -5   4   4    6.00    1.30
  -4   4   4    0.50    0.90
  -4   4   4    0.60    0.90
  -4   4   4    1.60    0.80
  -4   4   4    0.70    0.70
  -3   4   4   31.70    2.30
  -3   4   4   28.00    2.30
  -3   4   4   29.00    2.00
  -3   4   4   26.40    2.40
  -3   4   4   30.90    2.30
   2  -4  -4  199.38    8.00
  -2   4   4  189.18    8.60
   1  -4  -4    0.10    0.10
   0  -4  -4   43.00    2.00
  -1  -4  -4  128.09    5.50
  -1  -4  -4  121.19    6.40
  -2  -4  -4  152.38    6.80
  -2  -4  -4  148.89    7.50
  -2  -4  -4  146.49    6.60
  -3  -4  -4    2.70    1.10
  -3  -4  -4    2.50    0.80
  -3  -4  -4    2.40    0.70
  -4  -4  -4  173.58    9.10
  -4  -4  -4  190.88    8.50
  -4  -4  -4  175.08    8.50
  -5  -4  -4   10.40    1.80
  -6  -4  -4   13.40    1.40
   6   4   4   15.30    1.80
   6   4   4   12.00    1.60
  -7  -4  -4    0.40    0.70
   7   4   4    0.00    1.10
   7   4   4    0.50    1.10
  -8  -4  -4    3.70    0.80
   8   4   4    4.00    1.00
   8   4   4    3.80    1.00
   9   4   4    0.60    0.90
   9   4   4    0.60    0.70
  -6   5   4   12.00    1.10
  -6   5   4   14.90    1.00
  -6   5   4   12.10    1.10
  -5   5   4   49.00    2.70
  -5   5   4   47.90    2.80
  -5   5   4   43.60    2.90
  -4   5   4  129.19    6.40
  -4   5   4  129.09    6.40
  -4   5   4  131.49    6.20
  -3   5   4  116.29    5.90
  -3   5   4  118.69    5.80
  -3   5   4  117.69    5.80
  -3   5   4  114.99    5.60
  -2   5   4   16.80    1.70
  -2   5   4   15.30    1.40
  -2   5   4   16.20    1.60
  -2   5   4   19.90    1.70
  -2   5   4   16.40    1.80
  -1   5   4    8.80    1.10
   0  -5  -4    2.80    1.10
   0  -5  -4    3.70    0.40
  -1  -5  -4   21.40    2.30
  -1  -5  -4   26.30    1.60
  -2  -5  -4   11.70    1.30
  -2  -5  -4    8.80    1.70
  -3  -5  -4   10.40    1.40
  -3  -5  -4   13.30    1.40
  -3  -5  -4   12.40    2.20
  -4  -5  -4   40.80    2.80
  -4  -5  -4   36.30    2.60
  -4  -5  -4   34.60    3.30
  -5  -5  -4   90.29    5.70
  -5  -5  -4   89.09    4.90
   5   5   4   74.09    4.30
   5   5   4   85.29    4.10
   5   5   4   76.29    4.30
  -6  -5  -4    0.40    0.70
   6   5   4    1.00    0.70
   6   5   4   -0.20    0.80
  -7  -5  -4   19.50    1.70
   7   5   4   18.20    1.90
   7   5   4   20.00    1.70
   7   5   4   20.80    2.10
  -8  -5  -4    1.00    0.70
   8   5   4    0.60    0.90
   8   5   4    0.50    1.00
  -9  -5  -4    0.40    0.40
   9   5   4   -0.10    0.50
   9   5   4    0.40    0.60
  -5   6   4   40.20    2.20
  -5   6   4   33.50    2.00
  -5   6   4   37.30    2.20
  -4   6   4   53.99    3.30
  -4   6   4   56.19    3.10
  -4   6   4   58.09    3.20
  -3   6   4   29.50    2.20
  -3   6   4   30.60    2.20
  -3   6   4   24.60    2.20
  -3   6   4   30.50    2.40
  -2   6   4   -0.10    0.50
  -2   6   4    1.00    0.80
  -2   6   4   -0.10    0.50
  -2   6   4    0.10    0.70
  -2   6   4    0.70    0.80
  -1   6   4   -0.20    0.40
  -1   6   4   -0.40    0.60
  -1   6   4    0.40    0.70
   0   6   4   32.50    2.10
   0   6   4   31.60    1.90
   0   6   4   31.60    2.20
  -1  -6  -4    5.40    1.50
  -1  -6  -4   12.20    1.00
   1   6   4   13.40    1.40
   1   6   4   10.60    1.30
  -2  -6  -4    5.10    1.50
  -2  -6  -4    6.30    1.00
   2   6   4    7.60    1.20
  -3  -6  -4    1.00    0.70
  -3  -6  -4    1.40    1.10
   3   6   4    1.00    0.90
  -4  -6  -4    0.50    0.80
  -4  -6  -4    0.90    0.80
   4   6   4    1.20    0.90
   4   6   4    2.40    1.00
   4   6   4    1.70    0.70
   4   6   4    1.20    0.80
  -5  -6  -4    0.20    0.60
   5   6   4   -0.20    0.50
   5   6   4   -0.20    0.70
   5   6   4    0.50    0.60
   5   6   4    0.60    0.80
  -6  -6  -4  302.47   12.50
   6   6   4  279.77   12.30
   6   6   4  285.97   12.70
   6   6   4  290.77   12.70
  -7  -6  -4   14.00    1.50
   7   6   4   14.70    1.70
   7   6   4   13.80    1.50
   7   6   4   13.70    1.80
  -8  -6  -4   20.60    1.60
   8   6   4   18.60    1.70
   8   6   4   17.50    1.40
  -9  -6  -4    1.10    0.50
   9   6   4    1.20    0.60
  -4   7   4    0.20    0.40
  -4   7   4    0.20    0.50
  -4   7   4    0.30    0.50
  -3   7   4    2.20    0.70
  -3   7   4    1.70    0.70
  -3   7   4    2.10    0.60
  -2   7   4   48.50    2.70
  -2   7   4   51.49    2.90
  -2   7   4   51.59    3.00
  -1   7   4   71.09    3.80
  -1   7   4   72.89    3.70
   0   7   4    2.00    0.80
   0   7   4    1.60    0.70
   1   7   4    0.40    0.70
   1   7   4    1.30    0.60
   1   7   4    1.00    0.70
   1   7   4    0.50    0.70
   2   7   4    0.00    0.70
   2   7   4   -0.10    0.70
   2   7   4    0.40    0.90
   2   7   4    0.30    0.70
   2   7   4    0.20    0.70
   2   7   4    0.60    0.50
   3   7   4    1.80    0.80
   3   7   4    3.60    1.10
   3   7   4    0.80    0.80
   3   7   4    2.70    0.70
   3   7   4    3.40    0.90
   3   7   4    2.00    0.80
   4   7   4   13.30    1.40
   4   7   4   12.10    1.30
   4   7   4    8.40    1.20
   4   7   4   13.00    1.70
  -5  -7  -4   30.50    2.00
   5   7   4   31.30    2.20
   5   7   4   30.50    2.00
   5   7   4   28.90    2.40
   5   7   4   30.00    2.20
  -6  -7  -4    0.60    0.60
   6   7   4    1.60    1.00
   6   7   4    0.20    0.70
   6   7   4    1.20    0.90
   6   7   4    1.40    1.00
  -7  -7  -4  149.69    6.80
   7   7   4  145.69    6.90
   7   7   4  145.89    6.70
   7   7   4  152.78    7.10
  -8  -7  -4   20.30    1.50
   8   7   4   22.90    1.60
   9   7   4    0.30    0.40
  -3   8   4    0.30    0.40
  -3   8   4    0.10    0.40
  -2   8   4    0.70    0.50
  -2   8   4    0.90    0.50
  -2   8   4    1.40    0.60
  -1   8   4   19.30    1.70
  -1   8   4   21.40    1.50
   0   8   4   29.00    1.90
   0   8   4   30.20    2.10
   1   8   4    6.50    1.00
   1   8   4    5.60    1.00
   1   8   4    6.30    1.10
   2   8   4   24.60    1.80
   2   8   4   24.40    1.90
   2   8   4   22.10    1.80
   3   8   4   -0.20    0.70
   3   8   4    0.10    0.60
   3   8   4    0.20    0.50
   3   8   4   -0.80    0.70
   3   8   4   -0.10    0.70
   4   8   4   50.89    3.00
   4   8   4   50.89    3.20
   4   8   4   52.29    3.00
   4   8   4   50.59    2.80
  -5  -8  -4   12.80    1.30
   5   8   4   16.20    1.40
   5   8   4   16.50    1.60
   5   8   4   17.00    1.90
  -6  -8  -4   -0.10    0.60
   6   8   4   -0.30    0.50
   6   8   4   -0.30    0.80
   6   8   4   -0.20    0.90
  -7  -8  -4   12.20    1.10
   7   8   4   10.90    1.20
   7   8   4   11.40    1.10
   7   8   4   12.40    1.60
  -8  -8  -4   57.39    2.70
   8   8   4   54.79    2.80
   8   8   4   59.59    2.70
   8   8   4   47.70    2.80
  -1   9   4   14.20    1.30
  -1   9   4   16.40    1.20
   0   9   4   32.10    1.90
   0   9   4   33.20    2.00
   1   9   4  107.19    4.90
   1   9   4  103.29    4.90
   2   9   4    0.50    0.70
   2   9   4    1.70    0.60
   2   9   4    1.10    0.80
   3   9   4    0.10    0.70
   3   9   4   -0.70    0.90
   3   9   4    0.20    0.70
   3   9   4   -0.50    0.70
   4   9   4   -0.30    0.80
   4   9   4    0.30    0.90
   4   9   4    0.40    0.50
   4   9   4    0.40    0.60
   5   9   4    0.80    0.80
   5   9   4    1.30    0.80
   5   9   4    0.90    0.50
   5   9   4    0.90    0.90
  -6  -9  -4    0.60    0.40
   6   9   4    0.70    0.90
   6   9   4   -0.40    0.40
   6   9   4    1.00    0.50
  -7  -9  -4    5.70    0.70
   7   9   4    6.50    0.80
   7   9   4    7.40    1.00
   0  10   4    2.70    0.50
   1  10   4    9.90    0.90
   1  10   4    9.90    0.90
   2  10   4   12.90    1.00
   2  10   4   13.50    1.10
   3  10   4    0.70    0.40
   3  10   4    0.60    0.60
   3  10   4   -0.20    0.60
   4  10   4   11.60    1.20
   4  10   4   12.60    1.00
   4  10   4   14.10    1.10
   5  10   4    1.00    0.40
   5  10   4    0.90    0.50
   5  10   4    0.80    0.40
   5  10   4    1.10    0.70
   6  10   4    3.10    0.50
   6  10   4    3.50    0.70
   5   8  -5    0.60    0.40
  -5  -8   5    0.30    0.60
   4   8  -5    8.50    0.80
   4   8  -5   11.20    0.90
  -4  -8   5   10.30    1.40
  -4  -8   5   11.30    0.90
   3   8  -5    1.20    0.50
   3   8  -5    1.30    0.50
   3   8  -5    1.00    0.70
  -3  -8   5    2.80    0.80
  -3  -8   5    2.00    0.50
   2   8  -5    0.60    0.50
   2   8  -5    1.20    0.50
   2   8  -5    0.10    0.60
  -2  -8   5    0.80    0.70
  -2  -8   5    0.50    0.60
   1   8  -5   11.30    1.00
   1   8  -5   12.80    1.10
   1   8  -5   10.40    1.10
  -1  -8   5   11.40    1.40
  -1  -8   5   11.30    1.10
   0   8  -5   40.40    2.20
   0   8  -5   36.90    2.00
   0  -8   5   37.10    2.10
   0  -8   5   37.40    2.40
  -1   8  -5    3.00    0.60
  -1   8  -5    4.10    0.70
   1  -8   5    3.10    0.90
   1  -8   5    4.70    0.70
   2  -8   5    1.70    0.50
   6   7  -5    4.00    0.70
  -6  -7   5    4.10    0.80
   5   7  -5    2.00    0.50
   5   7  -5    2.80    0.80
  -5  -7   5    2.10    0.90
   4   7  -5    4.00    0.70
   4   7  -5    3.80    1.00
  -4  -7   5    3.50    0.80
  -4  -7   5    3.30    1.20
   3   7  -5    3.50    0.90
  -3  -7   5    1.90    1.30
  -3  -7   5    1.60    0.70
   2   7  -5   -0.10    0.50
  -2  -7   5    0.40    0.50
  -2  -7   5    0.20    1.10
   1   7  -5   15.80    1.50
   1   7  -5   13.60    1.30
  -1  -7   5   16.90    1.60
  -1  -7   5   15.10    2.00
   0   7  -5   18.70    1.50
   0  -7   5   19.00    1.70
   0  -7   5   17.70    1.90
  -1   7  -5    4.70    1.00
   1  -7   5    4.60    1.40
   1  -7   5    7.00    1.00
  -2   7  -5   18.00    1.40
   2  -7   5   19.80    1.40
   2  -7   5   17.60    1.80
   3  -7   5    1.00    0.60
   6   6  -5   41.60    2.50
   6   6  -5   39.10    2.10
  -6  -6   5   42.40    2.60
  -6  -6   5   39.40    2.40
   5   6  -5    4.90    0.80
   5   6  -5    6.30    0.80
   5   6  -5    7.60    1.30
  -5  -6   5    6.70    1.40
   4   6  -5   14.60    1.50
   4   6  -5    9.60    1.30
   4   6  -5   14.10    1.80
  -4  -6   5   15.40    1.70
  -4  -6   5   12.90    1.30
   3   6  -5    0.20    0.90
   3   6  -5    0.00    0.70
  -3  -6   5   -0.50    1.10
  -3  -6   5    0.60    0.70
   2   6  -5    1.50    0.90
   2   6  -5    0.00    0.70
  -2  -6   5    1.00    1.00
  -2  -6   5    0.30    0.70
   1   6  -5    2.40    0.90
   1   6  -5    2.60    0.90
  -1  -6   5    2.10    1.50
  -1  -6   5    2.40    0.80
   0   6  -5    3.60    1.00
   0   6  -5    3.90    0.80
   0  -6   5    4.60    1.00
   0  -6   5    4.50    1.50
  -1   6  -5    5.30    0.90
   1  -6   5    5.10    1.20
   1  -6   5    4.00    1.00
  -2   6  -5   22.10    1.80
  -2   6  -5   20.60    2.10
   2  -6   5   23.90    1.80
  -3   6  -5   13.60    1.60
   3  -6   5   20.00    1.40
   4  -6   5    9.20    0.90
   5  -6   5    4.80    0.70
   7   5  -5    0.20    0.50
   7   5  -5    0.20    0.30
  -7  -5   5   -0.30    0.70
  -7  -5   5    0.40    0.80
   6   5  -5   71.39    3.80
   6   5  -5   68.69    3.40
  -6  -5   5   68.79    4.00
  -6  -5   5   62.99    3.50
   5   5  -5   46.50    2.70
   5   5  -5   54.49    3.30
   5   5  -5   42.20    2.50
  -5  -5   5   53.79    3.50
   4   5  -5   16.40    2.00
   4   5  -5   16.70    1.50
   4   5  -5   16.50    1.60
  -4  -5   5   16.70    2.10
   3   5  -5   10.60    1.20
   3   5  -5    9.40    1.50
   3   5  -5   10.60    1.20
  -3  -5   5   15.60    2.10
  -3  -5   5   12.00    1.40
   2   5  -5    3.10    0.80
   2   5  -5    7.10    0.90
   2   5  -5    5.60    0.90
  -2  -5   5    5.60    1.30
  -2  -5   5    4.90    1.00
   1   5  -5   13.90    1.50
   1   5  -5   14.70    1.50
  -1  -5   5   14.90    2.00
  -1  -5   5   17.80    1.60
   0   5  -5   16.70    1.50
   0   5  -5   12.10    1.40
   0  -5   5   14.60    1.50
   0  -5   5   14.90    2.00
  -1   5  -5   25.30    2.20
  -1   5  -5   25.50    1.90
   1  -5   5   27.10    2.00
  -2   5  -5   67.09    4.00
  -2   5  -5   68.29    3.60
   2  -5   5   68.79    3.70
  -3   5  -5    0.20    0.70
   3  -5   5   -0.40    0.70
   4  -5   5   37.30    2.30
   5  -5   5   -0.20    0.40
   6  -5   5    0.10    0.60
   7   4  -5    1.40    0.50
   7   4  -5    1.50    0.60
   7   4  -5    2.30    0.70
  -7  -4   5    2.80    0.80
  -7  -4   5    2.30    0.80
  -7  -4   5    3.60    0.80
   6   4  -5    7.00    1.20
   6   4  -5    9.00    1.00
   6   4  -5    6.90    1.10
  -6  -4   5    4.60    1.20
  -6  -4   5    7.40    1.30
   5   4  -5    2.90    0.90
   5   4  -5    2.00    1.10
  -5  -4   5    1.60    1.10
   4   4  -5    0.90    0.70
   4   4  -5    1.70    0.70
   4   4  -5    0.20    0.50
  -4  -4   5    0.20    1.10
   3   4  -5   92.29    4.50
   3   4  -5   93.39    4.90
   3   4  -5   87.59    4.40
  -3  -4   5   87.79    4.90
   2   4  -5   28.60    1.90
   2   4  -5   33.70    2.80
   2   4  -5   28.50    1.80
   2   4  -5   29.40    2.40
  -2  -4   5   26.70    2.40
  -2  -4   5   17.00    3.00
   1   4  -5    7.60    1.50
  -1  -4   5   17.30    2.30
   0  -4   5    1.70    1.00
  -1   4  -5    7.30    1.00
  -1   4  -5    7.00    1.70
   1  -4   5    7.80    1.10
   1  -4   5    8.30    1.70
  -2   4  -5   15.80    1.90
  -2   4  -5   16.70    1.30
   2  -4   5   18.00    1.60
  -3   4  -5    0.80    0.70
   3  -4   5    1.10    0.80
   4  -4   5   64.79    3.40
   5  -4   5    5.60    1.00
   6  -4   5    1.60    0.50
   7   3  -5    0.70    0.60
   7   3  -5    0.80    0.50
  -7  -3   5    0.90    0.60
  -7  -3   5    0.90    0.60
  -7  -3   5    1.50    0.60
   6   3  -5   12.80    1.40
   6   3  -5   12.30    1.30
   6   3  -5   10.20    1.30
  -6  -3   5    7.50    1.40
  -6  -3   5    9.60    1.40
   5   3  -5   11.50    1.30
   5   3  -5   11.00    1.50
  -5  -3   5   15.40    1.80
  -5  -3   5    7.20    1.40
  -5  -3   5   10.40    1.30
   4   3  -5  365.06   15.40
   4   3  -5  368.46   15.00
  -4  -3   5  334.57   15.00
  -4  -3   5  356.46   15.60
   3   3  -5    3.60    1.40
   3   3  -5    1.50    1.10
   3   3  -5    4.10    0.90
  -3  -3   5    1.70    1.30
   2   3  -5    3.30    1.10
  -2  -3   5    2.70    1.20
   1   3  -5   14.20    1.90
  -1  -3   5   15.20    2.00
   0   3  -5    0.40    0.80
   0  -3   5   -0.20    0.80
  -1   3  -5    0.90    0.90
   1  -3   5   -0.10    0.80
  -3   3  -5    5.40    0.90
  -3   3  -5    6.00    1.30
   3  -3   5    9.50    1.20
   3  -3   5    6.60    1.20
  -4   3  -5    4.70    1.40
   4  -3   5    5.50    1.10
   4  -3   5    8.00    1.20
  -5   3  -5   28.50    2.40
   5  -3   5   27.40    2.10
   5  -3   5   32.60    2.20
   6  -3   5   59.89    3.20
   6  -3   5   57.09    3.20
   7  -3   5   11.30    1.00
   7   2  -5    0.20    0.60
   7   2  -5    0.50    0.50
  -7  -2   5    0.50    0.60
  -7  -2   5    0.00    0.80
  -7  -2   5    1.00    0.70
   6   2  -5    0.70    0.60
   6   2  -5    1.40    0.90
   6   2  -5    1.00    0.70
  -6  -2   5    1.10    1.00
  -6  -2   5   -0.20    0.60
  -6  -2   5    2.20    1.10
  -6  -2   5    0.70    1.20
   5   2  -5    6.60    1.40
   5   2  -5    7.00    1.00
  -5  -2   5    5.40    1.30
  -5  -2   5    9.20    1.40
  -5  -2   5    7.70    1.50
   4   2  -5   36.90    2.60
   4   2  -5   35.00    2.20
  -4  -2   5   35.80    2.70
  -4  -2   5   33.60    2.50
  -4  -2   5   35.20    2.40
   3   2  -5   95.99    5.40
   2   2  -5  255.07   11.70
   1   2  -5   20.90    1.90
   0   2  -5   20.70    1.90
   0  -2   5   22.90    2.00
  -1   2  -5   -0.20    0.70
   1  -2   5    0.10    0.80
  -2   2  -5    1.40    0.90
   2  -2   5    0.70    0.70
  -4   2  -5   11.10    1.60
   4  -2   5   12.00    1.50
   4  -2   5   14.70    1.40
   5  -2   5   86.09    4.50
   5  -2   5   86.49    4.40
   6  -2   5    7.20    1.10
   6  -2   5   10.30    1.40
   7  -2   5    0.40    0.50
   7  -2   5    0.40    0.80
   8  -2   5   18.00    1.10
   8  -2   5   16.50    1.20
   7   1  -5    1.90    0.90
   7   1  -5    1.90    0.60
  -7  -1   5    1.70    0.60
  -7  -1   5    1.40    0.90
  -7  -1   5    1.50    0.80
   6   1  -5   -0.20    0.50
  -6  -1   5    1.60    1.00
  -6  -1   5    0.10    0.60
  -6  -1   5    0.10    0.70
  -6  -1   5    0.20    0.90
   5   1  -5    2.10    1.20
   5   1  -5    3.00    0.80
  -5  -1   5    2.70    1.30
  -5  -1   5    0.90    1.00
  -5  -1   5    1.70    0.80
  -5  -1   5    1.40    0.80
  -5  -1   5    3.10    1.00
   4   1  -5    6.80    0.90
   4   1  -5    5.60    1.40
  -4  -1   5    8.10    1.60
  -4  -1   5    6.00    1.30
  -4  -1   5    4.30    1.00
  -4  -1   5    6.90    1.20
  -4  -1   5    9.00    1.50
   3   1  -5    9.20    1.50
   3   1  -5    9.70    1.50
   2   1  -5  205.98    9.60
   2   1  -5  204.38    9.50
   1   1  -5  356.86   15.60
   1   1  -5  362.46   15.50
   0   1  -5  128.29    6.40
   0   1  -5  131.69    6.30
  -1   1  -5    7.70    1.30
   1  -1   5    8.20    1.40
  -2   1  -5   31.40    2.40
   2  -1   5   26.40    2.30
  -3   1  -5    0.70    0.80
   3  -1   5   -0.10    0.80
  -4   1  -5   15.90    2.20
   4  -1   5   15.10    2.10
   5  -1   5  121.59    5.80
   5  -1   5  112.29    5.50
   6  -1   5   88.79    4.50
   6  -1   5   87.59    4.60
   7  -1   5    0.70    0.70
   7  -1   5    0.00    0.70
   8  -1   5   43.50    2.50
   8  -1   5   52.09    2.60
   7   0  -5    0.60    0.60
  -7   0   5    0.60    0.80
  -7   0   5    0.40    0.70
  -7   0   5    0.10    0.70
  -6   0   5    4.10    1.00
  -6   0   5    6.50    1.20
  -6   0   5    8.00    1.30
  -6   0   5    9.10    1.40
  -6   0   5    6.00    1.10
  -5   0   5    0.50    1.00
  -5   0   5   -0.20    0.90
  -5   0   5    0.10    0.60
  -5   0   5    0.60    0.80
  -5   0   5   -0.20    0.90
  -4   0   5    9.80    1.50
  -4   0   5    9.30    1.60
  -4   0   5    8.60    1.20
  -4   0   5   12.20    1.70
  -4   0   5   11.10    1.70
   3   0  -5    0.90    0.70
   3   0  -5    0.40    0.60
   2   0  -5    4.50    1.00
   2   0  -5    3.30    0.90
   1   0  -5   -0.10    0.60
   1   0  -5    0.40    0.50
   0   0  -5  158.58    7.40
   0   0  -5  160.98    7.40
  -1   0  -5   43.00    2.70
  -1   0  -5   43.50    2.70
  -2   0  -5   20.30    1.80
   2   0   5   19.10    1.80
  -3   0  -5    0.40    0.70
   3   0   5    0.50    0.80
  -4   0  -5    1.80    1.00
   4   0   5    0.80    0.90
  -5   0  -5   21.30    1.70
   5   0   5   23.60    2.00
   5   0   5   25.30    3.00
   5   0   5   21.70    1.90
   5   0   5   22.50    1.70
   6   0   5    2.10    1.10
   6   0   5    3.00    0.90
   6   0   5    1.60    1.10
   7   0   5    1.30    0.80
   7   0   5    1.10    1.00
   7   0   5    1.30    0.90
   8   0   5   46.80    2.50
   8   0   5   44.80    2.70
   7  -1  -5    7.30    0.90
  -7   1   5    9.50    1.00
  -7   1   5    8.40    1.10
  -7   1   5    7.20    0.90
  -6   1   5   18.10    2.00
  -6   1   5   16.40    1.50
  -6   1   5   18.30    1.80
  -6   1   5   16.80    1.60
  -6   1   5   17.30    1.60
  -5   1   5   -0.70    0.80
  -5   1   5   -0.20    0.90
  -5   1   5    0.60    0.90
  -5   1   5   -0.20    0.90
  -5   1   5    0.20    0.80
  -4   1   5    5.00    1.20
  -4   1   5    4.30    1.00
  -4   1   5    4.20    1.10
  -4   1   5    3.60    1.20
  -4   1   5    4.10    1.00
  -4   1   5    4.30    1.10
   3  -1  -5    6.10    1.10
  -3   1   5    7.20    1.00
   2  -1  -5   21.80    1.80
   2  -1  -5   21.70    1.60
   1  -1  -5   87.39    4.30
   1  -1  -5   88.89    4.40
   0  -1  -5  575.64   24.10
   0  -1  -5  595.64   24.20
  -1  -1  -5  183.28    8.00
  -1  -1  -5  170.78    8.00
  -2  -1  -5   98.19    5.00
  -2  -1  -5   99.89    5.00
  -3  -1  -5   72.39    4.10
  -4  -1  -5    2.00    0.90
  -5  -1  -5    1.40    1.00
   5   1   5    1.90    1.20
  -6  -1  -5   14.00    1.50
   6   1   5   15.40    1.70
   6   1   5   13.50    1.40
   6   1   5   14.60    1.90
   7   1   5    2.40    1.10
   7   1   5    2.90    0.90
   7   1   5    4.20    1.30
   8   1   5    0.20    0.90
   8   1   5    0.30    0.90
   8   1   5    0.30    0.50
   9   1   5    0.10    0.60
   9   1   5    0.00    0.40
   9   1   5    0.30    0.50
  -7   2   5   37.70    1.90
  -7   2   5   32.50    2.00
  -7   2   5   33.20    2.10
  -7   2   5   31.30    2.00
   6  -2  -5   45.30    2.90
  -6   2   5   53.19    2.90
  -6   2   5   52.09    3.10
  -6   2   5   48.30    3.00
  -6   2   5   50.19    3.00
  -5   2   5   10.80    1.60
  -5   2   5    7.00    1.10
  -5   2   5    8.20    1.30
  -5   2   5    6.00    1.20
  -5   2   5    5.60    1.20
  -4   2   5    3.80    1.10
  -4   2   5    4.40    0.90
  -4   2   5    4.20    1.10
  -4   2   5    3.10    1.00
  -4   2   5    4.40    1.10
  -4   2   5    4.50    1.20
   3  -2  -5    4.40    0.90
  -3   2   5   10.10    1.90
  -3   2   5    8.10    1.50
  -3   2   5    6.90    1.00
  -3   2   5    6.30    1.20
   2  -2  -5    1.70    0.60
   1  -2  -5   16.20    1.30
   0  -2  -5   -0.20    0.40
   0  -2  -5    0.50    0.40
  -1  -2  -5   37.10    2.20
  -1  -2  -5   39.50    2.30
  -2  -2  -5  366.66   15.70
  -2  -2  -5  374.26   15.70
  -3  -2  -5   88.69    5.10
  -3  -2  -5  101.89    5.00
  -3  -2  -5   95.69    5.00
  -4  -2  -5    3.20    1.00
  -5  -2  -5   12.00    1.90
  -6  -2  -5    7.40    1.20
   6   2   5    5.50    1.20
   6   2   5    5.30    1.90
   6   2   5    6.20    1.40
  -7  -2  -5    0.90    0.70
   7   2   5    1.00    1.20
   7   2   5    0.10    0.70
   7   2   5    0.40    0.70
   8   2   5   16.70    1.40
   8   2   5   19.60    1.80
   8   2   5   17.00    1.60
   9   2   5   15.50    1.30
  -6   3   5   16.40    1.50
  -6   3   5   17.30    1.60
  -6   3   5   16.10    1.60
  -6   3   5   17.30    1.50
  -5   3   5   39.30    2.50
  -5   3   5   38.10    2.70
  -5   3   5   36.80    2.70
  -5   3   5   38.80    2.60
  -4   3   5    4.40    1.00
  -4   3   5    3.10    1.10
  -4   3   5    3.90    1.10
  -4   3   5    4.20    1.00
  -4   3   5    3.30    1.10
  -4   3   5    3.60    1.00
  -3   3   5   39.40    2.60
  -3   3   5   33.90    2.30
  -3   3   5   33.80    2.30
  -3   3   5   38.40    2.60
  -3   3   5   35.80    2.60
   2  -3  -5   21.40    1.50
  -2   3   5   19.60    1.80
   1  -3  -5    4.90    0.70
   0  -3  -5    0.00    0.40
  -1  -3  -5   20.60    1.50
  -1  -3  -5   23.90    1.60
  -2  -3  -5  322.47   13.70
  -2  -3  -5  318.57   13.60
  -3  -3  -5   -0.40    0.70
  -3  -3  -5   -0.30    0.50
  -3  -3  -5   -0.60    0.50
  -4  -3  -5    3.10    1.00
  -4  -3  -5    1.90    0.90
  -4  -3  -5    2.00    1.10
  -5  -3  -5   67.39    4.30
  -6  -3  -5    1.80    0.80
   6   3   5    2.80    1.20
   6   3   5    1.90    1.00
  -7  -3  -5    0.70    0.70
   7   3   5   -1.00    1.10
   7   3   5    1.30    1.00
  -8  -3  -5    0.00    0.60
   8   3   5    0.60    1.10
   8   3   5    0.70    0.80
   9   3   5    9.90    1.20
  -6   4   5    0.10    0.60
  -6   4   5    0.70    0.60
  -6   4   5    0.90    0.50
  -5   4   5   37.90    2.60
  -5   4   5   39.40    2.70
  -5   4   5   38.20    2.50
  -4   4   5   14.10    1.80
  -4   4   5   13.40    1.50
  -4   4   5   11.90    1.40
  -3   4   5   35.70    2.50
  -3   4   5   34.40    2.60
  -3   4   5   31.80    2.30
  -3   4   5   31.40    2.20
  -3   4   5   37.20    2.40
   2  -4  -5   80.59    3.70
  -2   4   5   84.69    4.10
  -2   4   5   76.59    4.30
  -2   4   5   89.89    4.40
  -2   4   5   78.99    4.30
   1  -4  -5   44.40    2.10
  -1   4   5   41.60    2.60
   0  -4  -5   22.70    1.40
  -1  -4  -5    9.00    1.60
  -1  -4  -5   10.70    1.00
  -2  -4  -5    1.70    0.60
  -2  -4  -5    1.00    0.90
  -2  -4  -5    2.00    0.70
  -3  -4  -5   85.19    4.60
  -3  -4  -5   89.39    5.30
  -3  -4  -5   85.39    4.50
  -4  -4  -5  362.76   15.90
  -5  -4  -5    8.40    1.60
  -5  -4  -5    6.30    1.00
  -5  -4  -5    1.60    1.40
   5   4   5    8.50    1.40
   5   4   5    6.10    1.10
  -6  -4  -5    0.30    0.70
   6   4   5    0.60    1.00
   6   4   5   -0.60    0.80
  -7  -4  -5   -0.10    0.50
   7   4   5    0.30    0.90
   7   4   5    0.60    1.10
  -8  -4  -5    8.80    1.10
   8   4   5    5.90    1.30
   8   4   5    6.40    1.20
   9   4   5    1.90    0.60
   9   4   5    2.10    0.70
  -5   5   5    0.50    0.50
  -5   5   5    0.30    0.50
  -5   5   5   -0.10    0.60
  -4   5   5   52.19    3.10
  -4   5   5   50.89    3.00
  -4   5   5   52.79    3.10
  -3   5   5    7.20    1.20
  -3   5   5    9.60    1.30
  -3   5   5    6.40    1.20
  -3   5   5    8.70    1.20
  -2   5   5   26.00    2.10
  -2   5   5   27.90    2.20
  -2   5   5   25.60    1.90
  -2   5   5   27.70    2.10
  -2   5   5   30.70    2.30
  -1   5   5   13.00    1.40
  -1   5   5   16.20    1.60
  -1   5   5   12.20    1.30
  -1   5   5   13.70    1.50
   0  -5  -5   26.60    1.30
   0  -5  -5   23.10    2.50
   0   5   5   24.60    1.80
   0   5   5   24.60    1.90
  -1  -5  -5    0.30    0.90
  -1  -5  -5    0.80    0.40
   1   5   5    0.40    0.70
  -2  -5  -5    9.00    1.20
  -2  -5  -5    8.80    1.80
   2   5   5   10.40    1.30
  -3  -5  -5    0.20    0.60
  -3  -5  -5    0.20    0.90
  -4  -5  -5   40.50    2.80
  -4  -5  -5   42.50    3.00
  -4  -5  -5   34.70    3.40
  -5  -5  -5   10.70    1.20
   5   5   5   11.10    1.70
   5   5   5    8.70    1.20
   5   5   5    9.60    1.30
   5   5   5   10.80    1.30
  -6  -5  -5   31.30    2.10
   6   5   5   26.70    2.50
   6   5   5   27.30    2.30
   6   5   5   30.80    2.40
   6   5   5   28.20    1.90
  -7  -5  -5   45.80    2.70
   7   5   5   48.20    3.10
   7   5   5   45.70    2.90
  -8  -5  -5   13.70    1.30
   8   5   5   13.20    1.60
   8   5   5   13.00    1.40
  -9  -5  -5    3.10    0.60
   9   5   5    4.60    0.90
   9   5   5    4.70    0.90
  -4   6   5   -0.10    0.70
  -4   6   5    0.30    0.50
  -4   6   5    0.80    0.80
  -3   6   5   81.09    4.20
  -3   6   5   86.29    4.40
  -3   6   5   86.39    4.50
  -3   6   5   83.69    4.40
  -2   6   5  117.89    5.60
  -2   6   5  109.99    5.60
  -2   6   5  123.59    5.70
  -2   6   5  109.39    5.30
  -1   6   5    4.50    1.00
  -1   6   5    5.40    1.10
   0   6   5   23.80    1.80
   0   6   5   21.20    1.60
   0   6   5   24.30    2.00
   0   6   5   23.00    1.70
   1   6   5   32.10    2.00
   1   6   5   32.30    2.20
   1   6   5   29.40    2.40
   1   6   5   34.20    2.10
   1   6   5   28.70    2.10
   1   6   5   28.30    2.00
   2   6   5    6.80    1.20
   2   6   5    7.60    1.20
   2   6   5    7.50    1.00
   2   6   5    8.00    1.10
   2   6   5    8.90    1.20
   2   6   5    7.20    1.00
   3   6   5   13.60    1.80
   3   6   5   12.20    1.60
   3   6   5   10.80    1.30
   3   6   5   12.80    1.20
   3   6   5   12.60    1.30
   3   6   5   13.20    1.60
   3   6   5   13.00    1.40
   4   6   5    1.40    0.70
   4   6   5    1.40    0.80
   4   6   5    2.30    0.90
   4   6   5    1.30    0.80
   4   6   5    0.70    1.00
  -5  -6  -5    4.60    0.90
   5   6   5    4.20    1.00
   5   6   5    4.70    1.20
   5   6   5    4.60    0.90
   5   6   5    4.00    1.00
  -6  -6  -5    7.50    1.10
   6   6   5    5.20    1.10
   6   6   5    3.40    1.00
   6   6   5    6.30    1.30
  -7  -6  -5   29.30    1.90
   7   6   5   29.50    2.20
   7   6   5   28.20    2.00
  -8  -6  -5    2.70    0.80
   8   6   5    3.10    1.00
  -9  -6  -5   21.40    1.30
   9   6   5   25.30    1.60
  -3   7   5    0.50    0.50
  -3   7   5    0.80    0.60
  -3   7   5    0.80    0.40
  -2   7   5   14.10    1.30
  -2   7   5   14.50    1.30
  -1   7   5   11.40    1.40
  -1   7   5   13.60    1.40
   0   7   5    9.50    1.30
   0   7   5    9.40    1.20
   0   7   5    7.00    1.00
   1   7   5   24.30    1.80
   1   7   5   21.30    1.80
   1   7   5   24.30    1.90
   1   7   5   24.50    1.90
   2   7   5    3.50    1.00
   2   7   5    4.00    0.90
   2   7   5    5.30    1.00
   2   7   5    4.40    1.00
   2   7   5    5.00    1.00
   2   7   5    6.40    1.40
   3   7   5    1.70    1.00
   3   7   5   -0.50    0.70
   3   7   5    0.50    1.00
   3   7   5    0.60    0.70
   3   7   5    1.00    0.70
   3   7   5   -0.20    0.70
   4   7   5    1.10    0.80
   4   7   5   -0.40    1.00
   4   7   5    2.00    1.00
   4   7   5    1.40    0.90
   4   7   5    0.30    0.70
   4   7   5   -0.20    1.00
  -5  -7  -5    9.70    1.20
   5   7   5    8.50    1.50
   5   7   5   14.10    1.50
   5   7   5    9.00    1.50
   5   7   5   13.20    1.40
   5   7   5   10.90    1.50
  -6  -7  -5  106.49    5.00
   6   7   5  104.09    5.30
   6   7   5  103.59    5.30
   6   7   5   99.99    4.90
  -7  -7  -5   22.80    1.70
   7   7   5   22.40    1.70
   7   7   5   22.30    1.80
   7   7   5   24.30    1.90
  -8  -7  -5    3.70    0.60
   8   7   5    3.60    0.60
   8   7   5    3.60    0.80
  -1   8   5    7.80    0.90
   0   8   5    8.70    1.20
   0   8   5   10.00    1.20
   1   8   5    0.20    0.50
   1   8   5    0.40    0.50
   2   8   5   13.40    1.50
   2   8   5   14.50    1.50
   2   8   5   12.40    1.30
   2   8   5   13.90    1.30
   2   8   5   13.50    1.50
   3   8   5   37.50    2.30
   3   8   5   39.00    2.50
   3   8   5   38.40    2.40
   3   8   5   36.10    2.40
   3   8   5   37.90    2.90
   4   8   5   30.20    2.00
   4   8   5   26.80    1.90
   4   8   5   25.30    2.00
   4   8   5   28.20    2.40
   5   8   5    2.90    0.90
   5   8   5    1.20    0.80
   5   8   5    2.90    1.00
  -6  -8  -5    6.40    0.90
   6   8   5    6.80    0.90
   6   8   5    8.10    1.10
   6   8   5    9.60    1.30
  -7  -8  -5    5.40    0.70
   7   8   5    4.80    0.90
   7   8   5    5.90    1.00
   7   8   5    5.30    0.90
  -8  -8  -5   15.50    1.10
   8   8   5   15.20    1.20
   8   8   5   17.00    1.10
  -1   9   5    0.50    0.30
   0   9   5   34.40    1.90
   0   9   5   38.60    2.10
   1   9   5    0.30    0.50
   1   9   5    0.00    0.50
   2   9   5    0.70    0.50
   2   9   5    1.40    0.60
   3   9   5   19.20    1.40
   3   9   5   18.40    1.50
   3   9   5   18.30    1.60
   3   9   5   20.40    1.70
   4   9   5    9.80    1.00
   4   9   5    8.60    1.40
   4   9   5   11.60    1.10
   4   9   5    9.50    1.20
   5   9   5    0.40    0.50
   5   9   5    0.70    0.90
   5   9   5    0.00    0.70
   5   9   5    1.00    0.50
  -6  -9  -5    1.30    0.50
   6   9   5    1.80    0.60
   6   9   5    1.30    0.60
  -7  -9  -5    1.40    0.40
   7   9   5    1.40    0.50
   7   9   5    2.80    0.60
   1  10   5    1.20    0.40
   1  10   5    1.80    0.50
   2  10   5   10.90    0.90
   2  10   5   10.20    1.00
   3  10   5    0.00    0.30
   3  10   5   -0.10    0.50
   4  10   5   24.90    1.40
   4  10   5   18.10    1.40
   5  10   5   14.70    1.20
   5  10   5   12.70    1.10
   5  10   5   14.80    1.10
   3   8  -6    0.80    0.50
   3   8  -6    0.60    0.30
  -3  -8   6   -0.40    1.00
   2   8  -6    0.40    0.30
   2   8  -6    0.10    0.40
   2   8  -6    0.20    0.30
   2   8  -6    0.00    0.30
  -2  -8   6   -0.40    0.60
  -2  -8   6    0.00    0.30
   1   8  -6    0.50    0.40
   1   8  -6    0.20    0.50
  -1  -8   6    0.60    0.50
  -1  -8   6    0.70    0.40
   0   8  -6   12.10    0.90
   0  -8   6   12.40    0.90
  -5  -7   6    0.10    0.60
   4   7  -6    0.40    0.50
   4   7  -6    0.30    0.60
   4   7  -6    0.50    0.40
  -4  -7   6   -0.10    0.60
   3   7  -6    3.30    0.60
  -3  -7   6    4.80    1.00
  -3  -7   6    3.90    0.60
   2   7  -6    7.60    0.80
   2   7  -6    8.00    0.90
  -2  -7   6    9.50    1.30
  -2  -7   6    7.20    0.90
   1   7  -6    1.00    0.70
   1   7  -6   -0.50    0.70
  -1  -7   6    0.40    0.70
  -1  -7   6   -0.50    0.60
   0   7  -6    3.50    0.70
   0  -7   6    2.80    1.00
   0  -7   6    3.20    0.80
  -1   7  -6    4.90    0.70
   1  -7   6    4.10    0.70
  -2   7  -6    0.00    0.50
   2  -7   6    0.70    0.60
   6   6  -6   14.40    1.20
  -6  -6   6   19.40    1.40
   5   6  -6    6.10    0.90
   5   6  -6    5.00    0.60
   5   6  -6    4.40    0.60
  -5  -6   6    3.50    1.00
   4   6  -6    2.10    0.60
   4   6  -6    4.20    0.90
   4   6  -6    3.10    0.80
  -4  -6   6    4.80    1.10
   3   6  -6    6.90    1.00
   3   6  -6    5.10    1.00
  -3  -6   6    8.60    1.40
   2   6  -6    0.70    0.60
   2   6  -6    1.50    0.80
  -2  -6   6    1.40    0.70
  -2  -6   6    0.30    1.10
   1   6  -6    1.20    0.60
   1   6  -6    0.90    0.60
  -1  -6   6    0.60    0.60
  -1  -6   6    0.20    0.80
   0   6  -6   12.40    1.30
   0   6  -6   16.10    1.40
   0  -6   6   15.70    1.60
   0  -6   6   15.00    1.60
  -1   6  -6    3.00    0.90
   1  -6   6    3.40    0.90
  -2   6  -6   45.50    2.40
   2  -6   6   41.60    2.50
   3  -6   6    6.40    0.90
   4  -6   6    4.30    0.60
   6   5  -6    8.20    1.00
   6   5  -6    8.40    0.80
  -6  -5   6    9.10    1.20
  -6  -5   6    8.00    1.10
   5   5  -6    3.30    1.10
   5   5  -6    4.10    0.80
  -5  -5   6    6.40    1.10
   4   5  -6    6.00    0.90
   4   5  -6    9.20    1.50
  -4  -5   6    9.50    1.70
   3   5  -6   33.80    2.10
   3   5  -6   32.50    2.50
   3   5  -6   34.00    2.20
  -3  -5   6   34.60    2.70
   2   5  -6   59.59    3.10
   2   5  -6   65.89    3.30
   2   5  -6   59.49    3.20
  -2  -5   6   56.79    3.30
  -2  -5   6   59.79    3.80
   1   5  -6   58.89    3.20
   1   5  -6   58.59    3.10
  -1  -5   6   54.99    3.60
  -1  -5   6   61.69    3.30
   0   5  -6    0.80    0.80
   0   5  -6    0.80    0.70
   0  -5   6    0.60    0.80
  -1   5  -6   -0.40    0.80
   1  -5   6    0.60    0.80
  -2   5  -6    1.40    0.80
   2  -5   6    2.00    0.70
  -3   5  -6    6.00    0.90
   3  -5   6    4.30    1.00
   4  -5   6    2.30    0.60
   5  -5   6    4.90    0.70
   7   4  -6    0.30    0.40
  -7  -4   6   -0.10    0.40
   6   4  -6    3.00    0.80
   6   4  -6    1.80    0.60
  -6  -4   6    2.30    0.70
  -6  -4   6    2.50    0.70
  -6  -4   6    1.00    0.90
   5   4  -6    5.00    0.80
   5   4  -6    2.80    1.10
  -5  -4   6    6.00    1.50
  -5  -4   6    2.80    1.10
   4   4  -6  134.89    6.20
   4   4  -6  125.89    6.00
   4   4  -6  138.49    6.60
  -4  -4   6  134.99    6.70
   3   4  -6   11.30    1.30
   3   4  -6    9.90    1.40
   3   4  -6    9.10    1.20
  -3  -4   6   10.50    1.70
   2   4  -6  101.39    5.30
   2   4  -6  106.49    4.90
   2   4  -6  106.19    5.00
  -2  -4   6   95.89    5.30
   1   4  -6    5.60    0.90
   1   4  -6    5.20    0.90
   1   4  -6    6.30    1.10
  -1  -4   6    6.70    1.10
   0   4  -6   30.20    2.00
   0   4  -6   28.50    2.00
   0   4  -6   29.00    1.90
   0  -4   6   31.30    2.10
  -1   4  -6    0.30    0.70
   1  -4   6   -0.40    0.70
  -2   4  -6   19.30    1.70
   2  -4   6   23.70    1.90
  -3   4  -6    3.00    0.80
   3  -4   6    3.30    0.90
   4  -4   6   38.90    2.40
   5  -4   6    0.90    0.70
   6  -4   6    3.00    0.50
   7   3  -6    6.80    0.70
   7   3  -6    6.40    0.80
  -7  -3   6    7.20    0.90
  -7  -3   6    7.00    0.80
   6   3  -6    2.80    0.80
   6   3  -6    2.80    0.80
   6   3  -6    1.60    0.70
  -6  -3   6    2.40    0.90
  -6  -3   6    2.70    1.00
  -6  -3   6    2.80    0.90
   5   3  -6    2.00    0.80
   5   3  -6    1.80    0.80
  -5  -3   6    2.30    0.90
  -5  -3   6    0.50    1.20
  -5  -3   6    2.30    1.10
   4   3  -6   11.50    1.60
   4   3  -6    7.00    1.00
   4   3  -6    7.70    1.10
  -4  -3   6    9.50    1.60
  -4  -3   6    5.80    1.10
   3   3  -6   18.50    1.50
   3   3  -6   17.50    2.10
   3   3  -6   16.20    1.60
  -3  -3   6   15.20    1.90
  -3  -3   6   15.30    1.90
   2   3  -6   29.30    2.50
   2   3  -6   28.10    2.00
   2   3  -6   31.70    2.10
   1   3  -6   10.50    2.70
   1   3  -6    3.50    0.80
   1   3  -6    2.70    0.90
   1   3  -6    2.80    1.20
   1   3  -6    3.50    0.90
   0   3  -6    5.60    1.00
   0   3  -6    4.10    0.80
   0   3  -6    3.60    1.20
  -1   3  -6   31.00    2.00
  -1   3  -6   31.50    2.00
  -1   3  -6   32.40    2.00
  -1   3  -6   33.30    2.90
   1  -3   6   29.90    2.10
   1  -3   6   31.00    2.90
  -2   3  -6    4.40    0.90
  -2   3  -6    5.30    1.00
   2  -3   6    4.60    1.00
  -3   3  -6    2.60    0.80
   3  -3   6    3.20    1.10
   3  -3   6    2.40    0.90
   4  -3   6    2.50    0.90
   4  -3   6    4.10    1.10
   5  -3   6    7.10    1.20
   5  -3   6    7.20    1.10
   6  -3   6    2.10    0.70
   6  -3   6    3.80    0.90
   7  -3   6   64.99    3.00
   7   2  -6    3.10    0.60
   7   2  -6    4.20    0.80
  -7  -2   6    3.70    0.80
  -7  -2   6    4.40    0.70
  -7  -2   6    5.10    0.70
   6   2  -6   47.80    2.90
   6   2  -6   50.39    2.60
   6   2  -6   45.10    2.70
  -6  -2   6   47.30    2.60
  -6  -2   6   49.20    3.10
  -6  -2   6   39.90    2.70
   5   2  -6    1.60    1.00
   5   2  -6    1.10    0.70
  -5  -2   6    1.90    1.10
  -5  -2   6    1.50    0.80
  -5  -2   6    0.60    0.70
  -5  -2   6    1.80    1.00
   4   2  -6   20.90    2.00
   4   2  -6   19.70    1.50
  -4  -2   6   20.00    1.80
  -4  -2   6   21.40    2.10
  -4  -2   6   19.10    2.00
   3   2  -6    6.70    1.10
   3   2  -6    6.40    1.10
  -3  -2   6    7.90    1.50
  -3  -2   6    7.00    2.00
  -3  -2   6    6.50    1.20
   2   2  -6   91.19    4.80
   2   2  -6   98.69    4.70
   2   2  -6   97.39    5.50
   1   2  -6   43.70    3.20
   0   2  -6    4.60    1.20
  -1   2  -6   72.79    4.40
  -2   2  -6   14.30    2.00
   2  -2   6   23.00    2.70
  -3   2  -6    0.70    0.60
  -3   2  -6    0.90    0.70
   3  -2   6    1.10    1.00
   3  -2   6    0.60    0.70
   4  -2   6    3.40    0.90
   4  -2   6    4.50    1.20
   5  -2   6    0.90    1.00
   5  -2   6    1.10    0.80
   6  -2   6    3.80    0.90
   6  -2   6    1.80    0.80
   7  -2   6   53.89    2.70
   7   1  -6    3.10    0.70
   7   1  -6    4.70    0.50
  -7  -1   6    2.90    0.70
  -7  -1   6    3.40    0.70
   6   1  -6   37.50    2.10
  -6  -1   6   36.50    2.40
  -6  -1   6   39.30    2.30
  -6  -1   6   37.80    2.30
  -6  -1   6   37.50    2.60
   5   1  -6    4.20    0.90
   5   1  -6    4.10    1.30
  -5  -1   6    2.50    1.10
  -5  -1   6    5.60    1.20
  -5  -1   6    2.30    0.90
  -5  -1   6    3.60    1.10
  -5  -1   6    1.00    0.90
   4   1  -6    1.40    1.40
   4   1  -6    1.90    0.70
  -4  -1   6    1.60    1.00
  -4  -1   6    2.40    1.10
  -4  -1   6    3.50    1.10
  -4  -1   6    2.60    1.40
  -4  -1   6    3.10    1.10
  -4  -1   6    2.00    1.10
   3   1  -6    0.40    0.80
   3   1  -6    0.40    0.60
  -3  -1   6   -0.10    0.70
  -3  -1   6    1.10    1.10
  -3  -1   6    1.00    0.90
   2   1  -6    5.50    1.30
   2   1  -6    6.00    1.40
   1   1  -6    1.00    0.70
   1   1  -6    1.40    0.90
   0   1  -6    3.30    1.20
  -1   1  -6  234.88   10.80
  -2   1  -6  111.79    6.00
  -3   1  -6  131.99    7.00
  -4   1  -6    3.80    1.00
  -4   1  -6    3.00    0.80
   4  -1   6    7.10    1.20
   4  -1   6    5.20    1.20
   5  -1   6   15.30    1.50
   5  -1   6   14.20    1.50
   6  -1   6    6.70    1.20
   6  -1   6    3.00    0.90
   7  -1   6   27.60    1.90
   7  -1   6   34.10    2.20
   8  -1   6    9.10    0.80
   8  -1   6    9.60    0.90
   7   0  -6   30.40    1.90
  -7   0   6   31.00    1.80
  -7   0   6   28.30    1.90
  -7   0   6   30.20    1.70
  -6   0   6    0.50    0.50
  -6   0   6    0.60    0.70
  -6   0   6    0.10    0.60
  -6   0   6    0.10    0.70
  -6   0   6    0.60    0.60
  -5   0   6   40.00    2.90
  -5   0   6   36.40    2.50
  -5   0   6   39.60    2.70
  -5   0   6   38.60    2.50
  -5   0   6   36.80    2.70
  -4   0   6  169.28    7.90
  -4   0   6  162.58    7.50
  -4   0   6  169.18    8.40
  -4   0   6  168.48    7.80
  -4   0   6  160.08    7.70
  -3   0   6   -0.30    1.00
  -3   0   6    1.10    0.80
  -3   0   6    0.30    0.80
  -3   0   6    1.40    1.40
   2   0  -6    1.00    0.60
   2   0  -6    2.80    0.90
   1   0  -6    6.70    1.20
   1   0  -6    9.60    1.50
   0   0  -6  112.39    5.70
   0   0  -6  107.39    5.60
  -1   0  -6    5.50    1.30
  -1   0  -6    6.50    1.30
  -2   0  -6   63.89    3.90
  -3   0  -6   33.20    2.70
  -4   0  -6   97.19    5.50
  -4   0  -6   87.09    4.40
   4   0   6   89.69    4.60
  -5   0  -6   10.20    1.20
   5   0   6    7.30    1.40
   5   0   6    8.10    1.20
   5   0   6    8.40    1.50
   6   0   6    1.70    1.00
   6   0   6    2.70    0.90
   6   0   6    2.40    1.20
   7   0   6    0.20    0.60
   7   0   6   -0.50    0.40
   7   0   6    0.50    0.70
   8   0   6    2.70    0.80
   8   0   6    4.10    0.80
   8   0   6    3.70    0.70
  -6   1   6   17.70    1.60
  -6   1   6   18.20    1.60
  -6   1   6   19.50    1.60
  -6   1   6   19.10    1.70
  -6   1   6   17.50    1.50
  -5   1   6    0.30    0.80
  -5   1   6   -0.20    0.70
  -5   1   6   -0.10    0.80
  -5   1   6   -0.30    0.60
  -5   1   6    0.70    1.00
  -4   1   6   49.20    3.10
  -4   1   6   52.79    3.30
  -4   1   6   47.80    3.00
  -4   1   6   46.90    2.90
  -3   1   6    2.50    1.00
  -3   1   6    3.80    1.30
  -3   1   6    2.10    0.80
  -3   1   6    1.30    0.50
  -3   1   6    2.30    0.80
   2  -1  -6    0.70    0.70
   1  -1  -6    7.80    1.30
   1  -1  -6    7.00    1.20
   0  -1  -6    4.30    0.90
   0  -1  -6    7.80    1.20
  -1  -1  -6    0.50    0.60
  -1  -1  -6    0.50    0.60
  -2  -1  -6   22.10    2.00
  -2  -1  -6   25.90    2.10
  -3  -1  -6   70.79    4.20
  -4  -1  -6   37.90    3.00
  -5  -1  -6  240.08   10.20
   5   1   6  233.78   10.50
   5   1   6  234.68   10.40
  -6  -1  -6   13.10    1.40
   6   1   6   14.40    1.70
   6   1   6   13.60    1.60
   6   1   6   13.70    1.60
   7   1   6    1.60    0.80
   7   1   6    1.20    0.80
   7   1   6    0.90    0.70
   8   1   6   -0.10    0.40
   8   1   6    0.70    0.90
   8   1   6   -0.40    0.50
   6  -2  -6    0.80    0.70
  -6   2   6   -0.10    0.40
  -6   2   6    0.40    0.50
  -6   2   6    0.20    0.50
  -6   2   6    0.40    0.50
  -6   2   6   -0.20    0.60
  -5   2   6   30.10    2.40
  -5   2   6   32.90    2.20
  -5   2   6   33.30    2.30
  -5   2   6   31.60    2.40
  -5   2   6   33.60    2.30
  -4   2   6    1.40    0.90
  -4   2   6    1.50    1.00
  -4   2   6    1.50    0.80
  -4   2   6    3.20    1.00
  -3   2   6  113.19    5.80
  -3   2   6  118.09    5.80
  -3   2   6  113.89    5.70
  -3   2   6  113.39    5.60
  -3   2   6  118.99    5.60
   2  -2  -6  196.18    8.70
  -2   2   6  182.28    8.50
  -2   2   6  187.08    8.40
  -2   2   6  190.38    8.30
  -2   2   6  187.58    8.50
  -1   2   6   21.40    1.80
   0  -2  -6   11.20    1.40
   0  -2  -6    8.40    1.10
  -1  -2  -6   12.30    1.30
  -1  -2  -6   13.60    1.60
  -2  -2  -6   19.00    1.70
  -2  -2  -6   22.70    1.90
  -3  -2  -6   46.20    3.20
  -3  -2  -6   43.40    3.30
  -3  -2  -6   48.70    3.20
  -4  -2  -6    5.20    1.20
  -5  -2  -6    8.20    1.10
   5   2   6    9.10    1.40
   5   2   6    6.70    1.20
   5   2   6    7.40    1.50
  -6  -2  -6  163.08    7.10
   6   2   6  144.59    7.20
   6   2   6  161.08    7.50
  -7  -2  -6    2.50    0.80
   7   2   6    5.50    1.20
   7   2   6    3.00    1.30
   8   2   6    1.50    0.80
   8   2   6    3.20    1.10
   9   2   6    0.00    0.40
  -6   3   6    9.90    1.00
  -6   3   6   10.60    1.10
  -6   3   6    8.60    1.00
  -5   3   6    0.10    0.60
  -5   3   6   -0.10    0.40
  -5   3   6   -0.20    0.80
  -5   3   6    1.30    0.80
  -4   3   6    4.80    1.00
  -4   3   6    4.10    0.90
  -4   3   6    3.50    1.00
  -4   3   6    3.40    1.00
  -3   3   6    0.80    0.80
  -3   3   6    2.50    0.80
  -3   3   6    2.10    0.70
  -3   3   6    1.10    0.70
  -2   3   6  157.48    7.80
  -2   3   6  182.68    7.90
  -2   3   6  172.58    7.70
  -2   3   6  169.78    7.90
  -2   3   6  173.98    7.90
   1  -3  -6  151.68    6.80
  -1   3   6  145.19    6.80
   0  -3  -6   14.90    1.30
   0   3   6   10.60    1.40
  -1  -3  -6    2.50    0.70
  -2  -3  -6    8.70    1.30
  -2  -3  -6    7.50    1.20
  -3  -3  -6    7.80    1.70
  -3  -3  -6    8.30    1.50
  -3  -3  -6    5.40    1.10
  -4  -3  -6    9.80    1.80
  -4  -3  -6    8.20    1.40
  -5  -3  -6    0.80    0.70
   5   3   6    0.90    1.00
   5   3   6    1.00    0.90
  -6  -3  -6    0.30    0.50
   6   3   6    0.60    0.70
   6   3   6    1.00    1.10
  -7  -3  -6  224.88    9.50
   7   3   6  223.88   10.00
   7   3   6  203.48    9.60
  -8  -3  -6   15.10    1.30
   8   3   6   18.10    1.60
   9   3   6    0.00    0.50
  -5   4   6    0.30    0.40
  -5   4   6   -0.60    0.70
  -5   4   6    0.40    0.50
  -4   4   6   11.30    1.30
  -4   4   6   13.40    1.70
  -4   4   6   11.40    1.50
  -3   4   6  132.09    6.40
  -3   4   6  135.49    6.30
  -3   4   6  126.59    6.10
  -3   4   6  124.99    6.30
  -2   4   6    0.70    0.80
  -2   4   6    0.30    0.50
  -2   4   6    0.50    0.80
  -2   4   6    0.00    0.70
  -2   4   6    0.40    0.60
  -1   4   6   14.10    1.60
  -1   4   6   13.30    1.60
  -1   4   6   14.00    1.50
  -1   4   6   11.70    1.40
  -1   4   6   13.10    1.20
  -1   4   6   10.70    1.10
  -1   4   6   14.00    1.50
   0  -4  -6  702.53   27.40
   0   4   6  629.54   27.40
   0   4   6  683.43   27.60
  -1  -4  -6   14.60    1.30
   1   4   6   15.00    1.60
  -2  -4  -6    3.20    1.20
  -2  -4  -6    5.70    1.10
   2   4   6    6.40    1.10
  -3  -4  -6   15.80    2.40
  -3  -4  -6   24.60    1.90
  -3  -4  -6   25.30    2.10
  -4  -4  -6    1.20    0.80
  -4  -4  -6    1.70    1.30
  -4  -4  -6    1.50    0.90
   4   4   6    1.20    1.00
   4   4   6    1.50    0.90
   4   4   6    2.00    1.00
  -5  -4  -6   37.20    2.30
   5   4   6   39.60    2.70
   5   4   6   36.80    2.70
  -6  -4  -6    1.40    0.80
   6   4   6    3.20    1.20
   6   4   6    3.40    1.00
  -7  -4  -6   76.39    3.90
   7   4   6   78.89    4.30
   7   4   6   75.99    4.30
  -8  -4  -6   44.90    2.40
   8   4   6   42.10    2.50
   8   4   6   42.20    2.80
   9   4   6    6.60    0.90
  -5   5   6    0.40    0.40
  -5   5   6    0.30    0.40
  -4   5   6    2.80    0.80
  -4   5   6    4.40    0.90
  -4   5   6    3.50    0.80
  -3   5   6   38.30    2.60
  -3   5   6   35.70    2.60
  -3   5   6   37.60    2.60
  -2   5   6    7.50    1.10
  -2   5   6    9.10    1.10
  -2   5   6    8.80    1.40
  -2   5   6    9.10    1.20
  -1   5   6   36.30    2.40
  -1   5   6   37.20    2.40
  -1   5   6   35.10    2.30
  -1   5   6   38.40    2.60
   0   5   6   43.20    2.60
   0   5   6   46.40    2.80
   0   5   6   39.10    2.70
   0   5   6   41.30    2.60
   0   5   6   39.50    2.50
   1   5   6   54.69    2.90
   1   5   6   54.59    3.30
   1   5   6   49.10    3.20
   1   5   6   54.79    3.00
   1   5   6   52.49    2.90
   1   5   6   53.99    3.10
  -2  -5  -6   10.40    1.40
   2   5   6   12.50    1.40
   2   5   6   12.40    1.50
   2   5   6   11.00    1.20
   2   5   6   11.30    1.50
   2   5   6   11.80    1.30
   2   5   6   12.40    1.70
  -3  -5  -6    6.70    1.40
   3   5   6   11.80    1.60
   3   5   6    9.90    1.40
   3   5   6   10.90    1.30
   3   5   6   11.50    1.50
   3   5   6   10.10    1.10
   3   5   6   10.70    1.10
   3   5   6    9.80    1.40
   4   5   6   13.90    1.80
   4   5   6   14.50    1.70
   4   5   6   14.00    1.30
   4   5   6   13.60    1.80
  -5  -5  -6    4.90    0.90
   5   5   6    6.70    1.40
   5   5   6    6.50    1.10
   5   5   6    5.90    1.30
   5   5   6    5.50    1.20
  -6  -5  -6    3.30    0.90
   6   5   6    4.60    1.30
   6   5   6    3.40    1.20
   6   5   6    4.70    1.00
  -7  -5  -6   26.50    1.90
   7   5   6   26.00    2.20
   7   5   6   23.90    2.10
  -8  -5  -6   34.30    2.00
   8   5   6   31.80    2.10
   8   5   6   34.80    2.20
   9   5   6  113.19    5.40
  -4   6   6    1.70    0.60
  -4   6   6    3.50    0.70
  -3   6   6   14.80    1.40
  -3   6   6   16.30    1.60
  -2   6   6    0.80    0.60
  -2   6   6    0.30    0.70
  -2   6   6    0.50    0.60
  -1   6   6   82.69    4.10
  -1   6   6   77.99    4.00
  -1   6   6   78.29    4.10
  -1   6   6   85.39    4.30
   0   6   6   16.60    1.40
   0   6   6   15.40    1.60
   0   6   6   15.80    1.60
   0   6   6   16.80    1.70
   1   6   6  167.98    8.20
   1   6   6  177.18    7.90
   1   6   6  181.98    8.10
   1   6   6  177.98    7.80
   1   6   6  174.88    7.90
   2   6   6  322.17   14.00
   2   6   6  324.67   13.60
   2   6   6  321.27   13.60
   2   6   6  328.67   13.70
   2   6   6  334.77   13.80
   2   6   6  297.67   13.90
   3   6   6   15.70    1.90
   3   6   6   13.20    1.40
   3   6   6   13.80    1.60
   3   6   6   14.60    1.80
   3   6   6   16.30    2.00
   3   6   6   13.60    1.50
   4   6   6    2.20    1.20
   4   6   6    3.10    1.20
   4   6   6    1.20    0.70
   4   6   6    3.30    1.20
   4   6   6    1.70    0.90
  -5  -6  -6    1.10    0.70
   5   6   6    0.90    1.00
   5   6   6    1.90    0.90
   5   6   6    0.00    0.90
  -6  -6  -6    2.20    0.80
   6   6   6    1.80    1.00
   6   6   6    1.80    1.00
   6   6   6    1.60    0.90
  -7  -6  -6   -0.10    0.70
   7   6   6    0.30    0.70
   7   6   6   -0.80    0.90
  -8  -6  -6   31.50    2.00
   8   6   6   38.50    2.20
  -2   7   6    0.60    0.40
  -1   7   6    0.60    0.60
  -1   7   6    1.20    0.60
   0   7   6    0.30    0.70
   0   7   6    0.30    0.50
   0   7   6    0.70    0.70
   0   7   6    0.40    0.50
   1   7   6   -1.20    0.70
   1   7   6    0.30    0.80
   1   7   6    0.80    0.70
   1   7   6    0.50    0.80
   2   7   6  191.48    8.70
   2   7   6  195.98    8.60
   2   7   6  194.78    8.50
   2   7   6  183.68    8.80
   2   7   6  193.68    8.50
   3   7   6  144.89    6.70
   3   7   6  148.59    6.70
   3   7   6  146.29    6.70
   3   7   6  146.39    7.10
   3   7   6  153.68    6.90
   3   7   6  134.49    6.80
   4   7   6   13.30    1.40
   4   7   6   12.30    1.60
   4   7   6   12.40    1.70
   4   7   6   11.20    1.40
   4   7   6   13.10    1.50
   5   7   6    0.90    1.00
   5   7   6    1.30    0.90
   5   7   6    1.00    1.00
   5   7   6    0.40    1.00
  -6  -7  -6   31.60    2.00
   6   7   6   34.60    2.40
   6   7   6   31.30    2.20
   6   7   6   31.30    2.10
   6   7   6   33.00    2.20
  -7  -7  -6    3.90    0.70
   7   7   6    3.50    0.80
   7   7   6    2.40    0.70
   7   7   6    3.50    0.70
   7   7   6    3.50    1.00
  -8  -7  -6   30.10    1.60
   8   7   6   22.10    1.90
   8   7   6   28.40    1.80
  -1   8   6    0.00    0.30
  -1   8   6    0.00    0.50
   0   8   6    7.90    0.90
   0   8   6    5.60    0.90
   0   8   6    3.60    0.70
   1   8   6   27.50    1.80
   1   8   6   29.40    1.80
   1   8   6   26.40    2.00
   1   8   6   26.90    1.80
   2   8   6    1.20    0.50
   2   8   6    1.80    0.80
   2   8   6    1.20    0.70
   2   8   6    1.50    0.80
   3   8   6   89.39    4.80
   3   8   6  103.29    4.70
   3   8   6   99.19    5.10
   3   8   6  102.09    4.80
   3   8   6   90.79    4.60
   4   8   6  293.37   12.60
   4   8   6  296.57   12.50
   4   8   6  304.97   12.40
   4   8   6  280.27   12.80
   5   8   6    1.50    0.70
   5   8   6    1.30    1.00
   5   8   6    2.00    1.00
   5   8   6    0.40    0.80
  -6  -8  -6    0.00    0.50
   6   8   6    0.10    0.70
   6   8   6    0.70    0.80
   6   8   6    0.50    0.50
   6   8   6    0.40    0.90
  -7  -8  -6    0.40    0.50
   7   8   6    0.40    0.50
   7   8   6    0.70    0.70
   7   8   6    0.90    0.50
   0   9   6   14.90    1.10
   1   9   6    3.00    0.60
   1   9   6    2.00    0.60
   2   9   6    1.90    0.70
   2   9   6    1.70    0.70
   2   9   6    3.70    0.70
   3   9   6    5.50    0.90
   3   9   6    7.20    0.80
   3   9   6    8.00    1.00
   4   9   6   78.69    4.00
   4   9   6   72.29    3.60
   4   9   6   71.99    3.60
   5   9   6  118.09    5.20
   5   9   6  114.79    5.40
   5   9   6  112.39    5.10
   6   9   6    5.00    0.70
   6   9   6    5.80    0.80
   3  10   6    6.00    0.60
   4  10   6    0.50    0.50
   3   7  -7   67.09    3.10
   2   7  -7    8.90    0.80
   2   7  -7    7.60    0.80
  -2  -7   7    7.40    1.10
   1   7  -7    0.30    0.40
   1   7  -7    0.10    0.30
  -1  -7   7    0.40    0.40
   0   7  -7    4.70    0.60
   0  -7   7    4.40    0.60
  -1   7  -7    3.70    0.60
   1  -7   7    3.20    0.50
   4   6  -7    1.40    0.50
   4   6  -7    1.90    0.50
  -4  -6   7    1.90    0.80
   3   6  -7  152.78    6.40
  -3  -6   7  140.09    6.70
   2   6  -7  143.59    6.60
   2   6  -7  169.68    6.80
  -2  -6   7  147.09    7.00
   1   6  -7    0.20    0.50
   1   6  -7    0.30    0.60
  -1  -6   7    0.60    0.50
   0   6  -7   11.30    1.30
   0   6  -7    9.90    1.10
   0  -6   7   12.70    1.10
  -1   6  -7    8.40    0.90
   1  -6   7    8.00    0.90
  -2   6  -7   -0.80    0.60
   2  -6   7   -0.60    0.50
   3  -6   7    0.60    0.50
   5   5  -7   -0.20    0.40
   5   5  -7   -0.20    0.50
  -5  -5   7    0.00    0.70
  -5  -5   7    0.20    0.60
   4   5  -7    0.20    0.60
   4   5  -7   -0.20    0.80
   4   5  -7   -0.20    0.50
  -4  -5   7    0.30    0.60
   3   5  -7    6.40    0.90
   3   5  -7    4.30    1.10
   3   5  -7    4.40    0.90
  -3  -5   7    6.50    1.30
   2   5  -7    1.60    0.60
   2   5  -7    0.80    0.60
   1   5  -7  205.88    8.80
   1   5  -7  195.18    8.80
   1   5  -7  213.98    8.90
   0   5  -7    1.40    0.60
   0   5  -7    1.10    0.50
   0  -5   7    0.60    0.70
  -1   5  -7   17.40    1.40
   1  -5   7   17.80    1.60
  -2   5  -7   12.90    1.40
   2  -5   7   12.90    1.40
  -3   5  -7   15.90    1.20
   3  -5   7   15.00    1.40
   4  -5   7    5.30    0.70
   6   4  -7    7.70    0.90
   6   4  -7    7.50    0.80
  -6  -4   7    7.50    0.80
  -6  -4   7    5.90    1.30
   5   4  -7    2.80    0.80
   5   4  -7    3.30    0.60
  -5  -4   7    3.20    1.10
  -5  -4   7    2.80    0.80
   4   4  -7    0.10    0.40
   4   4  -7    0.00    0.40
   4   4  -7    1.00    1.00
  -4  -4   7    0.00    0.80
   3   4  -7   39.80    2.20
   3   4  -7   41.00    2.40
   3   4  -7   40.60    2.60
  -3  -4   7   33.90    2.70
  -3  -4   7   35.30    2.40
   2   4  -7  109.79    5.60
   2   4  -7  117.59    5.40
   2   4  -7  112.59    5.40
   1   4  -7  374.26   16.30
   1   4  -7  392.66   16.40
   1   4  -7  411.56   16.40
   0   4  -7  301.37   12.00
   0   4  -7  281.07   12.00
   0   4  -7  304.67   12.00
   0  -4   7  235.58   12.50
  -1   4  -7   18.80    1.60
  -1   4  -7   24.60    1.80
  -1   4  -7   16.30    1.60
   1  -4   7   25.40    1.80
  -2   4  -7    0.40    0.70
   2  -4   7   -0.50    0.70
  -3   4  -7    0.10    0.70
   3  -4   7    0.50    0.80
   4  -4   7    4.40    0.90
   5  -4   7    2.10    0.50
   6   3  -7   -0.20    0.50
   6   3  -7    0.30    0.40
   6   3  -7    0.60    0.60
  -6  -3   7    0.40    0.50
  -6  -3   7    0.10    0.60
   5   3  -7   -0.60    0.50
   5   3  -7    0.10    0.60
   5   3  -7    0.20    0.60
  -5  -3   7    1.20    1.10
  -5  -3   7   -0.40    0.80
   4   3  -7    9.20    1.30
   4   3  -7    6.60    1.00
   4   3  -7    6.40    0.90
  -4  -3   7    8.30    1.30
  -4  -3   7    9.70    1.30
  -4  -3   7    5.80    0.90
   3   3  -7   15.30    1.50
   3   3  -7   14.60    2.00
   3   3  -7   15.40    1.50
  -3  -3   7   15.60    1.80
   2   3  -7   29.20    2.00
   2   3  -7   27.20    2.50
   2   3  -7   29.40    2.10
   1   3  -7    9.70    1.70
   1   3  -7   10.60    1.30
   1   3  -7   10.10    1.30
   1   3  -7    9.80    1.20
   0   3  -7    6.30    1.00
   0   3  -7    7.70    1.10
   0   3  -7    5.80    1.00
  -1   3  -7  343.07   14.10
  -1   3  -7  328.97   14.10
  -2   3  -7   26.20    1.90
  -2   3  -7   27.40    1.90
   2  -3   7   26.50    2.00
  -3   3  -7    2.20    0.60
   3  -3   7    1.90    0.80
   3  -3   7    1.90    0.90
  -4   3  -7    0.60    0.60
   4  -3   7    0.70    0.60
   4  -3   7   -0.60    0.70
   5  -3   7    4.90    0.80
   5  -3   7    6.00    0.90
   6  -3   7    0.60    0.40
   6  -3   7    0.70    0.40
   6   2  -7  122.09    5.70
   6   2  -7  121.89    5.70
   6   2  -7  132.59    5.50
  -6  -2   7  130.69    5.70
  -6  -2   7  124.79    5.80
   5   2  -7    1.70    0.70
   5   2  -7    0.80    0.60
  -5  -2   7    0.60    0.80
  -5  -2   7    2.60    1.00
  -5  -2   7    1.90    0.90
  -5  -2   7    1.60    0.70
   4   2  -7    5.80    1.00
   4   2  -7    7.80    1.40
  -4  -2   7    3.30    1.00
  -4  -2   7    4.30    1.20
  -4  -2   7    7.90    1.40
   3   2  -7    2.30    1.50
   3   2  -7    2.10    0.70
   3   2  -7    1.90    0.80
  -3  -2   7    2.80    1.00
  -3  -2   7    2.10    1.20
   2   2  -7    6.40    1.00
   2   2  -7    8.00    1.20
   1   2  -7    0.00    0.60
   1   2  -7   -0.10    0.80
   1   2  -7    0.40    0.60
  -1  -2   7    0.20    1.30
   0   2  -7   12.90    1.30
   0   2  -7   15.20    1.60
   0   2  -7   14.40    1.40
   0  -2   7   13.50    1.50
  -1   2  -7  326.97   14.10
  -1   2  -7  343.57   14.20
  -1   2  -7  339.17   14.10
   1  -2   7  332.67   14.30
  -2   2  -7  217.68    9.40
  -2   2  -7  212.88    9.40
   2  -2   7  219.78    9.70
  -3   2  -7    0.40    0.70
  -3   2  -7    0.60    0.50
   3  -2   7    0.70    0.70
   3  -2   7    1.30    1.00
  -4   2  -7    4.80    0.90
   4  -2   7    2.30    0.80
   4  -2   7    5.50    1.30
   5  -2   7    5.50    0.90
   5  -2   7   10.90    1.40
   6  -2   7    1.40    0.90
   6  -2   7    2.70    0.60
   7  -2   7    2.60    0.50
   7  -2   7    3.00    0.70
   6   1  -7  145.19    6.30
   6   1  -7  135.89    6.00
  -6  -1   7  141.79    6.30
  -6  -1   7  133.99    6.30
   5   1  -7    5.20    1.10
   5   1  -7    6.30    0.80
  -5  -1   7    7.60    1.20
  -5  -1   7    3.90    1.00
  -5  -1   7    5.00    0.90
   4   1  -7   11.20    1.60
   4   1  -7    9.20    1.10
  -4  -1   7    8.70    1.50
  -4  -1   7    8.30    1.20
  -4  -1   7   11.50    1.80
   3   1  -7    1.10    0.60
   3   1  -7    1.30    0.70
  -3  -1   7    0.40    0.80
  -3  -1   7   -0.20    1.40
  -3  -1   7    1.70    1.20
  -3  -1   7    0.30    0.80
   2   1  -7   37.80    2.30
   2   1  -7   38.40    2.40
  -2  -1   7   39.70    2.60
  -2  -1   7   36.90    2.40
  -2  -1   7   36.50    2.40
  -2  -1   7   40.30    2.80
   1   1  -7    9.80    1.30
  -1  -1   7    8.00    1.10
  -1  -1   7   10.50    1.50
   0   1  -7    4.50    1.20
   0   1  -7    9.60    1.20
   0   1  -7   12.00    1.50
   0  -1   7    9.30    1.40
   0  -1   7    8.20    1.10
  -1   1  -7   24.70    2.30
  -1   1  -7   23.70    1.70
  -1   1  -7   25.80    1.80
   1  -1   7   25.40    2.00
   1  -1   7   24.90    1.80
  -2   1  -7    3.20    0.90
  -2   1  -7    1.60    0.70
   2  -1   7    2.60    0.80
   2  -1   7    2.40    1.00
  -3   1  -7  689.33   28.50
  -3   1  -7  692.23   28.50
   3  -1   7  715.03   28.80
  -4   1  -7    2.20    0.80
  -4   1  -7    2.00    0.70
   4  -1   7    2.10    1.00
   4  -1   7    3.50    1.20
  -5   1  -7    1.90    0.70
   5  -1   7    0.80    0.70
   5  -1   7    3.80    1.20
   6  -1   7   12.40    1.50
   6  -1   7    9.80    1.20
   7  -1   7   27.80    1.60
   7  -1   7   23.50    1.70
   6   0  -7   19.00    1.40
  -6   0   7   15.30    1.20
  -6   0   7   18.70    1.30
   5   0  -7  274.77   13.50
  -5   0   7  336.37   13.50
  -5   0   7  309.17   13.40
  -5   0   7  329.17   13.30
   4   0  -7  115.99    6.00
  -4   0   7  124.89    6.10
  -4   0   7  120.29    5.90
  -4   0   7  130.99    6.20
  -3   0   7    6.00    1.20
  -3   0   7    9.80    1.90
  -3   0   7    7.90    1.50
  -3   0   7    6.20    1.20
   2   0  -7    0.20    0.60
  -2   0   7    0.00    0.40
  -2   0   7   -0.40    1.40
  -2   0   7   -0.40    1.10
  -2   0   7    0.50    0.70
  -2   0   7   -0.10    0.90
   1   0  -7    0.70    0.80
   1   0  -7    3.00    1.00
   1   0  -7    1.50    0.80
  -1   0   7    4.50    1.20
  -1   0   7    1.10    0.80
  -1   0   7    2.60    1.10
  -1   0   7    2.90    0.80
   0   0  -7    0.80    0.80
   0   0  -7    0.40    0.70
  -1   0  -7   24.20    2.20
  -2   0  -7   49.70    2.90
  -2   0  -7   58.99    3.80
   2   0   7   52.99    3.10
  -3   0  -7  377.66   15.50
  -3   0  -7  374.06   15.50
   3   0   7  379.26   15.80
   3   0   7  353.26   15.80
  -4   0  -7  205.58    9.00
  -4   0  -7  210.68    9.00
   4   0   7  193.78    9.20
   4   0   7  214.98    9.40
  -5   0  -7   19.80    1.60
   5   0   7   20.90    1.80
   5   0   7   17.50    1.80
  -6   0  -7    0.90    0.60
   6   0   7    2.30    1.10
   6   0   7    1.00    0.90
   7   0   7    5.10    1.00
   7   0   7    4.30    0.80
   8   0   7    0.30    0.40
   6  -1  -7    2.80    0.60
  -6   1   7    3.30    0.60
  -6   1   7    2.90    0.70
  -6   1   7    1.90    0.60
  -5   1   7    3.00    0.80
  -5   1   7    2.20    0.90
  -5   1   7    2.70    0.80
  -4   1   7  334.17   14.10
  -4   1   7  336.17   14.30
  -4   1   7  319.17   14.20
  -3   1   7   61.89    3.50
  -3   1   7   66.79    3.70
  -3   1   7   60.69    3.60
  -3   1   7   60.59    3.60
  -2   1   7   14.80    2.00
  -2   1   7   14.70    1.70
  -2   1   7   11.70    1.30
  -2   1   7   13.80    1.50
  -2   1   7   16.90    1.90
   1  -1  -7    6.30    1.20
  -1   1   7    8.70    1.20
  -1   1   7   10.50    1.50
  -1   1   7   10.60    1.60
  -1   1   7    8.00    1.10
  -1   1   7   13.80    1.70
   0  -1  -7   43.60    2.90
   0  -1  -7   44.50    3.00
  -1  -1  -7   10.20    1.50
  -1  -1  -7   12.70    1.70
  -2  -1  -7    0.40    0.90
  -3  -1  -7    0.80    0.90
  -3  -1  -7    0.90    0.70
   3   1   7    1.80    0.90
   3   1   7    0.90    1.00
  -4  -1  -7   -0.30    0.60
   4   1   7   -0.10    1.00
   4   1   7    0.50    0.70
  -5  -1  -7  449.86   18.70
   5   1   7  448.16   19.00
   5   1   7  448.46   18.90
  -6  -1  -7    8.60    1.10
   6   1   7    8.70    1.50
   6   1   7    7.90    1.40
  -7  -1  -7   13.60    1.40
   7   1   7   12.10    1.60
   7   1   7   15.10    1.40
   8   1   7    3.20    0.70
   8   1   7    2.80    0.80
  -5   2   7   -0.50    0.60
  -5   2   7    0.60    0.60
  -5   2   7    0.30    0.50
  -4   2   7    2.60    0.90
  -4   2   7    4.60    1.10
  -4   2   7    2.10    0.90
  -3   2   7  367.26   15.10
  -3   2   7  354.16   15.00
  -3   2   7  347.57   15.00
  -3   2   7  311.27   14.70
  -3   2   7  359.96   14.80
  -2   2   7  229.28    9.90
  -2   2   7  214.08   10.00
  -2   2   7  215.48    9.80
  -2   2   7  229.08   10.20
  -2   2   7  237.18   10.10
  -1   2   7    0.60    0.80
  -1   2   7    0.90    1.00
  -1   2   7    0.00    0.90
  -1   2   7   -0.50    0.70
  -1   2   7    0.40    0.60
  -1   2   7    0.00    0.60
   0  -2  -7    1.30    0.80
   0   2   7    1.90    1.00
   0   2   7    1.60    1.00
   0   2   7    1.20    0.70
   0   2   7    1.40    0.80
   0   2   7    1.10    0.70
  -1  -2  -7   72.19    3.80
  -1  -2  -7   71.99    4.00
   1   2   7   59.19    3.40
  -2  -2  -7    7.90    1.40
  -2  -2  -7   10.00    1.60
   2   2   7    8.10    1.20
  -3  -2  -7    1.50    1.10
  -3  -2  -7    0.20    0.70
   3   2   7   -0.30    0.80
   3   2   7    2.10    1.10
   3   2   7    1.00    0.80
  -4  -2  -7   21.40    1.60
   4   2   7   19.60    1.80
   4   2   7   18.90    1.70
   4   2   7   18.60    1.70
  -5  -2  -7  453.25   18.40
   5   2   7  446.76   18.80
   5   2   7  424.86   18.60
  -6  -2  -7   76.49    3.80
   6   2   7   80.59    4.30
   6   2   7   70.29    3.90
  -7  -2  -7   44.60    2.50
   7   2   7   46.20    3.00
   7   2   7   41.20    2.70
   8   2   7   11.00    1.10
   8   2   7   15.80    1.30
  -5   3   7   -0.10    0.40
  -5   3   7    0.60    0.60
  -5   3   7   -0.30    0.50
  -4   3   7   25.00    1.90
  -4   3   7   21.00    1.80
  -4   3   7   20.80    1.90
  -3   3   7   23.80    2.10
  -3   3   7   22.20    1.90
  -3   3   7   21.80    1.70
  -3   3   7   19.30    1.90
  -2   3   7  136.69    6.30
  -2   3   7  131.19    6.40
  -2   3   7  131.59    6.30
  -2   3   7  133.89    6.50
  -1   3   7   17.50    1.50
  -1   3   7   17.10    2.00
  -1   3   7   16.90    1.40
  -1   3   7   17.80    1.70
  -1   3   7   15.80    1.70
  -1   3   7   17.10    1.90
   0   3   7    6.00    1.40
   0   3   7    5.10    1.00
   0   3   7    4.40    0.90
   0   3   7    4.30    1.20
   0   3   7    4.10    1.00
   0   3   7    6.20    1.30
  -1  -3  -7   24.30    1.90
   1   3   7   23.40    2.10
   1   3   7   21.80    1.80
   1   3   7   21.20    1.80
   1   3   7   22.50    1.80
   1   3   7   24.10    1.70
   1   3   7   21.30    1.90
  -2  -3  -7  117.49    5.70
   2   3   7  111.39    5.20
   2   3   7  110.59    5.60
   2   3   7  114.99    5.60
   2   3   7  110.59    5.40
  -3  -3  -7    9.50    1.10
  -3  -3  -7    8.70    1.60
   3   3   7   10.40    1.50
   3   3   7   13.60    1.60
   3   3   7    9.10    1.20
   3   3   7   11.60    1.70
   3   3   7   12.20    1.20
  -4  -3  -7    6.60    1.10
   4   3   7    6.70    1.30
   4   3   7    6.50    1.30
   4   3   7    7.20    1.40
  -5  -3  -7   10.50    1.30
   5   3   7    9.60    1.40
   5   3   7    9.90    1.30
   5   3   7    8.90    1.50
  -6  -3  -7   -0.10    0.70
   6   3   7   -0.50    0.80
   6   3   7    0.30    0.70
  -7  -3  -7  272.77   11.70
   7   3   7  277.77   12.10
  -8  -3  -7   18.60    1.30
   8   3   7   20.20    1.60
  -5   4   7    5.50    0.70
  -4   4   7   10.10    1.20
  -4   4   7    9.10    1.00
  -4   4   7    9.40    1.20
  -3   4   7    1.90    0.80
  -3   4   7    1.90    0.80
  -3   4   7    2.30    0.80
  -3   4   7    3.50    0.90
  -2   4   7   69.69    3.90
  -2   4   7   73.49    4.00
  -2   4   7   73.09    3.90
  -1   4   7  858.71   34.10
  -1   4   7  828.02   34.10
  -1   4   7  813.52   33.70
  -1   4   7  869.01   33.90
  -1   4   7  826.02   34.20
  -1   4   7  792.22   34.00
   0   4   7  105.79    5.30
   0   4   7  107.89    5.10
   0   4   7  104.79    5.50
   0   4   7  107.09    5.50
   0   4   7  108.69    5.20
   0   4   7  100.99    5.20
   0   4   7  106.69    5.10
   1   4   7   23.30    1.90
   1   4   7   20.50    2.00
   1   4   7   22.00    2.10
   1   4   7   22.00    1.70
   1   4   7   20.90    1.70
   1   4   7   20.90    1.70
   2   4   7   37.10    2.40
   2   4   7   36.40    2.30
   2   4   7   34.20    2.60
   2   4   7   36.30    2.20
   2   4   7   36.40    2.30
   2   4   7   35.80    2.60
   3   4   7   16.10    1.80
   3   4   7   15.30    1.80
   3   4   7   15.40    1.40
   3   4   7   15.80    1.50
   3   4   7   18.30    2.00
   3   4   7   16.30    1.90
  -4  -4  -7    0.20    0.60
   4   4   7    0.20    0.90
   4   4   7   -0.10    1.00
   4   4   7   -0.80    0.70
   4   4   7    0.50    0.80
  -5  -4  -7   17.80    1.60
   5   4   7   18.30    1.80
   5   4   7   20.50    2.00
  -6  -4  -7    0.00    0.70
   6   4   7    0.80    1.10
   6   4   7    0.80    1.00
   7   4   7  200.78    8.90
   7   4   7  192.18    8.80
  -8  -4  -7   21.30    1.50
   8   4   7   25.60    1.80
   8   4   7   22.80    1.60
  -4   5   7   11.30    1.10
  -4   5   7   10.50    1.00
  -3   5   7    0.60    0.50
  -3   5   7    1.80    0.60
  -3   5   7    1.50    0.60
  -3   5   7    2.10    0.90
  -2   5   7    0.20    0.70
  -2   5   7    0.20    0.50
  -2   5   7    0.60    0.70
  -1   5   7   13.20    1.40
  -1   5   7   14.10    1.50
  -1   5   7   14.40    1.50
  -1   5   7   12.30    1.20
   0   5   7  206.68   10.10
   0   5   7  230.58    9.90
   0   5   7  231.88    9.80
   0   5   7  228.58    9.90
   0   5   7  226.88   10.00
   1   5   7   56.79    3.10
   1   5   7   57.39    3.50
   1   5   7   59.79    3.40
   1   5   7   46.10    3.30
   1   5   7   59.79    3.10
   1   5   7   56.69    3.20
   2   5   7    7.00    1.40
   2   5   7    7.50    1.20
   2   5   7    7.70    1.00
   2   5   7    8.40    1.20
   2   5   7    7.10    1.20
   2   5   7    7.60    1.40
   3   5   7   -1.40    0.90
   3   5   7    1.30    1.00
   3   5   7    0.10    0.60
   3   5   7   -0.80    0.90
   3   5   7    0.30    0.80
   3   5   7    0.10    0.80
   3   5   7   -0.90    1.00
   4   5   7    7.50    1.10
   4   5   7    7.90    1.30
   4   5   7    8.90    1.50
   4   5   7    9.70    1.50
   4   5   7    8.90    1.60
   4   5   7   10.00    1.70
  -5  -5  -7    1.30    0.70
   5   5   7    0.70    1.00
   5   5   7   -1.10    0.80
   5   5   7    0.00    0.80
   5   5   7    0.20    0.90
  -6  -5  -7    0.30    0.70
   6   5   7    0.70    1.00
   6   5   7   -0.30    1.00
  -7  -5  -7    1.50    0.60
   7   5   7    0.30    0.60
   7   5   7   -0.80    0.90
  -8  -5  -7   11.80    1.00
   8   5   7   11.00    1.30
   8   5   7   12.40    1.20
  -3   6   7    1.70    0.70
  -2   6   7    2.50    0.70
  -2   6   7    2.10    0.70
  -1   6   7    2.70    0.80
  -1   6   7    3.20    0.80
  -1   6   7    2.90    0.90
  -1   6   7    4.50    0.70
   0   6   7    2.40    0.90
   0   6   7    2.60    0.80
   0   6   7    4.30    1.00
   0   6   7    2.20    0.80
   1   6   7  357.46   16.30
   1   6   7  385.76   16.20
   1   6   7  396.36   16.00
   1   6   7  375.76   16.00
   1   6   7  393.76   16.10
   2   6   7  106.39    5.20
   2   6   7  102.99    5.00
   2   6   7  106.89    5.10
   2   6   7   99.19    5.30
   2   6   7  103.59    5.00
   3   6   7    0.30    1.00
   3   6   7    0.90    0.80
   3   6   7    0.70    0.80
   3   6   7    0.40    0.70
   3   6   7    0.10    0.80
   3   6   7    0.40    1.00
   4   6   7    0.20    1.00
   4   6   7    0.60    1.10
   4   6   7    0.00    0.70
   4   6   7    0.00    0.90
   4   6   7    1.00    0.90
  -5  -6  -7   26.10    1.80
   5   6   7   28.40    2.10
   5   6   7   26.50    2.00
   5   6   7   27.20    2.10
   5   6   7   29.70    2.30
  -6  -6  -7    5.80    0.90
   6   6   7    4.30    1.00
   6   6   7    3.40    1.00
   6   6   7    5.60    1.00
   6   6   7    5.00    1.10
  -7  -6  -7    0.80    0.50
   7   6   7    1.70    0.70
   7   6   7    0.30    0.50
  -8  -6  -7   21.80    1.40
   8   6   7   22.00    1.50
  -2   7   7    4.00    0.60
  -1   7   7    6.30    0.90
  -1   7   7    3.70    0.70
  -1   7   7    4.00    0.70
   0   7   7    1.50    0.50
   0   7   7    1.40    0.60
   0   7   7    1.90    0.70
   0   7   7    1.10    0.70
   1   7   7    7.70    1.10
   1   7   7    3.40    0.90
   1   7   7    8.90    1.10
   1   7   7    5.00    0.90
   2   7   7   20.30    2.20
   2   7   7   25.20    2.00
   2   7   7   25.80    2.10
   2   7   7   26.70    1.80
   2   7   7   24.90    1.80
   3   7   7   70.09    3.70
   3   7   7   72.29    3.90
   3   7   7   68.49    3.60
   3   7   7   73.19    3.60
   3   7   7   66.19    3.90
   3   7   7   70.59    4.10
   4   7   7    7.00    1.30
   4   7   7   10.00    1.20
   4   7   7    7.20    1.40
   4   7   7    5.80    1.20
   4   7   7    7.80    1.10
   5   7   7    5.00    1.20
   5   7   7    6.80    1.10
   5   7   7    6.60    1.00
   5   7   7    6.10    1.30
  -6  -7  -7    5.10    0.80
   6   7   7    6.80    1.00
   6   7   7    7.40    1.30
   6   7   7    7.30    1.00
   6   7   7    7.60    1.10
  -7  -7  -7    1.10    0.40
   7   7   7    0.40    0.60
   7   7   7    1.20    0.50
   7   7   7    1.00    0.50
   7   7   7    1.10    0.50
   0   8   7   -0.10    0.50
   0   8   7    0.60    0.40
   0   8   7    0.80    0.40
   1   8   7    2.40    0.60
   1   8   7    1.10    0.70
   1   8   7    1.50    0.60
   1   8   7    1.20    0.70
   2   8   7   28.70    1.80
   2   8   7   28.90    1.80
   2   8   7   23.80    1.80
   2   8   7   27.00    1.70
   3   8   7  252.87   10.90
   3   8   7  244.08   10.70
   3   8   7  254.77   10.80
   3   8   7  254.27   10.70
   4   8   7   62.49    3.20
   4   8   7   63.29    3.40
   4   8   7   58.99    3.10
   4   8   7   63.59    3.60
   5   8   7    0.50    0.60
   5   8   7    0.90    0.50
   5   8   7    0.50    0.80
   5   8   7    0.70    0.50
   6   8   7    7.50    0.90
   6   8   7    6.90    0.90
   6   8   7    5.20    0.70
   6   8   7    7.40    1.00
  -7  -8  -7    4.40    0.60
   7   8   7    4.40    0.70
   1   9   7    1.30    0.40
   1   9   7    1.40    0.40
   2   9   7    0.00    0.40
   2   9   7   -0.30    0.30
   2   9   7   -0.50    0.40
   3   9   7    0.10    0.60
   3   9   7   -0.40    0.40
   3   9   7   -0.20    0.40
   4   9   7    5.90    0.80
   4   9   7    5.90    0.70
   5   9   7   27.20    1.70
   3   6  -8  124.09    5.30
   2   6  -8   10.40    0.90
   1   6  -8    0.10    0.30
   1   6  -8    0.00    0.50
   0   6  -8   49.70    2.40
  -1   6  -8    1.60    0.50
   4   5  -8    3.50    0.50
   4   5  -8    2.50    0.70
   4   5  -8    1.80    0.80
  -4  -5   8    4.30    0.80
   3   5  -8    5.50    0.90
   3   5  -8    5.70    0.60
   3   5  -8    4.00    0.70
   2   5  -8    7.00    0.80
   2   5  -8    7.20    0.80
  -2  -5   8    7.40    1.00
   1   5  -8   49.80    2.60
   1   5  -8   56.39    2.70
   0   5  -8   59.59    2.90
   0   5  -8   56.29    2.80
  -1   5  -8    0.50    0.70
  -2   5  -8    8.70    0.90
   2  -5   8    5.30    0.80
  -3   5  -8   -0.50    0.30
   3  -5   8   -0.10    0.40
   5   4  -8    0.90    0.40
   5   4  -8    1.40    0.50
  -5  -4   8    1.30    0.50
   4   4  -8    7.30    0.80
   4   4  -8    9.60    1.10
   4   4  -8    8.90    1.00
  -4  -4   8    9.60    1.10
   3   4  -8    2.90    0.80
   3   4  -8    3.20    0.60
   3   4  -8    3.30    0.60
  -3  -4   8    2.70    0.70
   2   4  -8    0.50    0.50
   2   4  -8    0.90    0.60
   2   4  -8   -0.20    0.70
  -2  -4   8    1.80    0.80
   1   4  -8  233.08   10.60
   1   4  -8  266.57   10.80
   1   4  -8  254.67   10.70
   0   4  -8   22.40    1.50
   0   4  -8   21.30    1.60
   0   4  -8   21.20    1.50
  -1   4  -8   33.30    2.00
  -1   4  -8   38.90    2.20
  -1   4  -8   32.40    2.00
  -2   4  -8   29.50    1.80
   2  -4   8   24.00    2.30
  -3   4  -8    1.60    0.70
   3  -4   8    0.90    0.60
   4  -4   8    0.90    0.50
   5   3  -8   13.00    1.00
   5   3  -8   15.90    1.40
  -5  -3   8   13.50    1.30
   4   3  -8    1.40    0.50
   4   3  -8    1.80    0.70
  -4  -3   8    2.00    0.60
  -4  -3   8    1.80    0.80
   3   3  -8    4.10    0.70
   3   3  -8    3.30    0.70
   3   3  -8    5.70    1.10
  -3  -3   8    5.70    1.10
   2   3  -8    6.60    1.40
   2   3  -8    6.50    1.00
   2   3  -8    4.10    0.80
  -2  -3   8    6.50    1.50
   1   3  -8    1.40    0.50
   1   3  -8    1.10    1.80
   1   3  -8    1.80    0.70
   1   3  -8    2.10    0.70
   0   3  -8   16.90    1.60
   0   3  -8   19.80    1.60
   0   3  -8   20.50    1.70
  -1   3  -8  192.98    8.50
  -1   3  -8  197.98    8.60
  -1   3  -8  195.08    8.50
  -2   3  -8    0.70    0.60
  -3   3  -8   19.10    1.50
   3  -3   8   15.40    1.50
  -4   3  -8    2.30    0.70
   4  -3   8    2.60    0.80
   4  -3   8    3.50    0.80
   5  -3   8    8.40    0.80
   5  -3   8   10.20    0.90
   5   2  -8   24.30    1.70
   5   2  -8   20.70    1.50
   5   2  -8   25.30    1.40
  -5  -2   8   25.90    1.70
   4   2  -8    0.40    0.70
   4   2  -8    0.50    0.40
  -4  -2   8    0.10    0.50
  -4  -2   8    0.10    0.70
  -4  -2   8    0.50    0.70
   3   2  -8    1.00    1.30
   3   2  -8    0.20    0.50
   3   2  -8   -0.20    0.40
  -3  -2   8    1.80    1.10
  -3  -2   8    0.00    1.30
   2   2  -8   15.20    1.60
   2   2  -8   15.10    1.70
   2   2  -8   14.60    1.30
  -2  -2   8   15.50    1.90
   1   2  -8    0.50    0.70
   1   2  -8    0.20    0.80
  -1  -2   8    0.60    0.70
   0   2  -8    1.50    0.70
   0   2  -8    2.60    0.90
   0  -2   8    3.00    1.10
  -1   2  -8  142.39    6.40
  -1   2  -8  136.79    6.30
  -1   2  -8  137.19    6.30
   1  -2   8  139.79    6.60
  -2   2  -8    1.30    0.80
  -2   2  -8    1.40    0.80
   2  -2   8    1.00    1.00
  -3   2  -8    0.40    0.70
  -3   2  -8    0.70    0.70
   3  -2   8   -0.40    0.90
  -4   2  -8   38.40    2.80
  -4   2  -8   47.50    2.50
   4  -2   8   48.50    2.80
   5  -2   8    2.20    0.70
   6  -2   8    0.20    0.40
   5   1  -8   19.80    1.30
   5   1  -8   19.00    1.50
  -5  -1   8   22.50    1.50
  -5  -1   8   19.90    1.40
  -5  -1   8   21.20    1.60
   4   1  -8   14.40    1.20
   4   1  -8   13.70    1.50
  -4  -1   8   13.20    1.50
  -4  -1   8   14.50    1.40
  -4  -1   8   12.40    1.30
   3   1  -8   11.50    1.20
   3   1  -8   11.60    1.80
   3   1  -8    9.00    1.10
  -3  -1   8   15.00    1.90
  -3  -1   8    8.90    1.30
  -3  -1   8   12.30    1.40
  -3  -1   8   10.80    1.40
   2   1  -8    0.70    0.70
   2   1  -8    1.20    0.60
  -2  -1   8    1.70    1.00
  -2  -1   8    1.60    1.00
  -2  -1   8   -0.50    1.10
   1   1  -8    4.40    1.10
   1   1  -8    4.30    0.90
  -1  -1   8    4.10    0.90
  -1  -1   8    3.30    1.20
   0   1  -8    8.90    1.20
   0   1  -8   10.50    1.40
   0   1  -8   10.30    1.30
   0  -1   8   11.20    1.30
   0  -1   8   13.10    1.70
  -1   1  -8    0.80    0.70
  -1   1  -8    2.40    1.10
  -1   1  -8    3.00    0.90
   1  -1   8    1.00    0.80
   1  -1   8    2.00    1.00
  -2   1  -8    2.70    0.80
  -2   1  -8    2.20    0.80
  -2   1  -8    3.40    1.00
   2  -1   8    3.90    1.00
   2  -1   8    3.40    1.20
  -3   1  -8   33.90    2.10
  -3   1  -8   33.10    2.20
   3  -1   8   31.80    2.40
  -4   1  -8    7.10    1.10
   4  -1   8    7.70    1.20
  -5   1  -8   17.80    1.40
   5  -1   8   18.60    1.60
   6  -1   8    5.20    0.90
   5   0  -8   39.00    2.30
  -5   0   8   47.20    2.40
  -5   0   8   43.50    2.40
  -5   0   8   37.20    2.30
   4   0  -8    4.00    1.00
  -4   0   8    4.10    0.90
  -4   0   8    4.10    0.90
  -4   0   8    3.60    0.90
   3   0  -8   35.80    2.20
  -3   0   8   40.10    2.40
  -3   0   8   42.60    2.70
  -3   0   8   40.40    2.80
  -3   0   8   39.70    2.60
   2   0  -8    2.80    1.00
   2   0  -8    2.20    0.70
  -2   0   8    3.90    1.10
  -2   0   8    3.20    1.10
  -2   0   8    2.60    0.70
  -2   0   8    2.30    0.90
  -2   0   8    2.70    1.30
   1   0  -8   -0.20    0.50
  -1   0   8    0.10    1.00
  -1   0   8    0.20    0.90
  -1   0   8    1.10    1.20
  -1   0   8    0.20    0.50
   0   0  -8    4.60    1.00
   0   0  -8    3.10    0.90
   0   0   8    4.00    1.00
   0   0   8    7.50    1.40
   0   0   8    5.90    1.30
  -1   0  -8    0.70    0.70
  -1   0  -8    0.30    0.70
   1   0   8    1.00    0.80
   1   0   8    0.30    1.00
   1   0   8   -0.10    0.90
  -2   0  -8    7.90    1.10
  -2   0  -8    4.50    1.00
   2   0   8    6.40    1.30
   2   0   8    5.40    1.00
   2   0   8    7.90    1.30
  -3   0  -8  120.39    5.40
  -3   0  -8  113.49    5.40
   3   0   8  112.69    5.60
   3   0   8  107.69    5.60
  -4   0  -8   14.40    1.50
  -4   0  -8   15.00    1.40
   4   0   8   12.40    1.60
   4   0   8   14.40    1.50
  -5   0  -8   13.90    1.40
  -5   0  -8   12.40    1.20
   5   0   8   16.10    1.70
   5   0   8   13.60    1.80
  -6   0  -8   25.60    1.70
   6   0   8   33.20    2.10
   7   0   8    0.70    0.50
  -5   1   8    2.20    0.60
  -5   1   8    2.90    0.60
  -5   1   8    1.70    0.60
   4  -1  -8    0.00    0.70
  -4   1   8   -0.20    0.50
  -4   1   8    0.50    0.60
  -4   1   8    0.00    0.40
  -3   1   8   30.60    2.50
  -3   1   8   35.80    2.20
  -3   1   8   31.50    2.40
  -3   1   8   30.40    2.40
   2  -1  -8   68.79    3.60
  -2   1   8   71.79    4.10
  -2   1   8   72.99    3.70
  -2   1   8   76.19    4.10
  -2   1   8   68.19    3.60
  -1   1   8    0.70    0.90
  -1   1   8   -0.30    1.00
  -1   1   8    0.90    0.80
  -1   1   8    0.50    0.70
  -1   1   8    1.10    1.10
   0  -1  -8    1.10    0.70
   0  -1  -8    1.30    0.70
   0   1   8    0.50    0.80
   0   1   8    0.50    1.00
   0   1   8    1.00    1.00
   0   1   8    0.90    0.90
  -1  -1  -8    9.90    1.30
  -1  -1  -8    7.80    1.20
   1   1   8    8.20    1.40
   1   1   8   10.10    1.50
   1   1   8    9.70    1.60
   1   1   8    8.90    1.20
  -2  -1  -8    2.20    0.80
   2   1   8    3.30    1.10
   2   1   8    2.70    0.70
   2   1   8    2.40    1.10
  -3  -1  -8   -0.40    0.50
  -3  -1  -8    0.00    0.60
   3   1   8    1.20    1.00
   3   1   8   -0.20    0.90
  -4  -1  -8    0.80    0.80
  -4  -1  -8    2.10    0.70
   4   1   8    1.40    0.80
   4   1   8    2.20    1.00
  -5  -1  -8   47.80    2.70
  -5  -1  -8   50.69    2.80
   5   1   8   48.90    3.00
   5   1   8   49.30    3.00
  -6  -1  -8    1.50    0.60
   6   1   8    2.20    1.00
   6   1   8    0.00    0.90
   7   1   8    0.70    0.50
   7   1   8    1.60    0.60
  -5   2   8    2.40    0.60
  -5   2   8    3.90    0.60
  -5   2   8    4.70    0.70
  -4   2   8   15.60    1.60
  -4   2   8   15.70    1.40
  -4   2   8   14.40    1.40
  -3   2   8   32.70    2.40
  -3   2   8   36.80    2.30
  -3   2   8   35.90    2.50
  -2   2   8    1.50    0.90
  -2   2   8    1.10    0.70
  -2   2   8    1.30    0.70
  -2   2   8    1.30    1.00
  -1   2   8   20.90    2.20
  -1   2   8   21.90    1.80
  -1   2   8   20.10    1.70
  -1   2   8   19.60    2.00
  -1   2   8   23.20    2.30
   0   2   8   20.60    1.90
   0   2   8   20.40    2.10
   0   2   8   19.20    2.10
   0   2   8   18.60    1.70
   0   2   8   21.50    1.70
   1   2   8   48.10    3.10
   1   2   8   57.69    3.40
   1   2   8   58.39    3.50
   1   2   8   54.39    3.50
   1   2   8   57.49    3.00
  -2  -2  -8    3.80    0.80
   2   2   8    3.40    0.90
   2   2   8    4.20    1.20
   2   2   8    4.80    1.20
   2   2   8    4.40    1.20
  -3  -2  -8   34.10    2.20
   3   2   8   36.20    2.40
   3   2   8   34.20    2.50
   3   2   8   33.70    2.20
   3   2   8   34.70    2.60
  -4  -2  -8   21.00    1.70
   4   2   8   21.10    1.90
   4   2   8   22.40    2.00
   4   2   8   20.00    2.90
  -5  -2  -8   18.70    1.60
  -5  -2  -8   16.50    1.40
   5   2   8   14.50    1.50
   5   2   8   16.90    1.90
  -6  -2  -8   17.80    1.50
   6   2   8   16.80    1.50
   6   2   8   18.90    1.90
  -7  -2  -8   50.09    2.60
   7   2   8   51.69    2.90
   7   2   8   47.20    2.70
   8   2   8    4.30    0.70
  -4   3   8    0.20    0.60
  -4   3   8    0.30    0.50
  -4   3   8   -0.30    0.50
  -3   3   8    0.40    0.50
  -3   3   8    1.00    0.80
  -3   3   8    0.10    0.50
  -3   3   8    0.50    0.80
  -2   3   8    1.70    0.70
  -2   3   8    2.60    0.80
  -2   3   8    2.00    1.00
  -2   3   8    0.10    0.60
  -1   3   8   16.70    1.70
  -1   3   8   18.40    1.60
  -1   3   8   22.10    2.20
  -1   3   8   21.20    1.80
  -1   3   8   19.70    2.00
  -1   3   8   20.80    1.90
   0   3   8    8.10    1.20
   0   3   8    5.50    1.00
   0   3   8    7.70    1.10
   0   3   8    7.70    1.40
   0   3   8    7.30    1.40
   1   3   8   54.89    3.00
   1   3   8   53.89    3.30
   1   3   8   56.49    3.50
   1   3   8   51.59    3.10
   1   3   8   56.89    3.40
   1   3   8   53.59    3.00
   2   3   8    3.70    1.20
   2   3   8    2.10    0.70
   2   3   8    2.80    0.90
   2   3   8    1.50    0.80
   2   3   8    2.50    1.10
   2   3   8    3.90    1.20
  -3  -3  -8    2.40    0.90
   3   3   8    1.30    0.90
   3   3   8    1.50    1.10
   3   3   8    1.20    0.70
   3   3   8    2.80    1.20
   3   3   8    1.60    0.80
  -4  -3  -8   12.90    1.30
   4   3   8   10.80    1.30
   4   3   8   13.10    1.70
   4   3   8   11.90    1.40
   4   3   8   15.80    1.90
  -5  -3  -8    1.20    0.70
   5   3   8    1.40    1.10
   5   3   8    0.90    0.80
   5   3   8    1.30    1.00
  -6  -3  -8    0.60    0.60
   6   3   8    0.40    0.80
   6   3   8   -0.60    0.90
   6   3   8    0.00    0.70
  -7  -3  -8   48.40    2.60
   7   3   8   50.59    3.00
  -8  -3  -8    1.40    0.40
   8   3   8    1.10    0.60
  -4   4   8    4.60    0.80
  -4   4   8    4.30    0.80
  -3   4   8    7.40    1.00
  -3   4   8    8.60    1.10
  -3   4   8    6.10    1.00
  -2   4   8    1.00    0.70
  -2   4   8    1.60    0.60
  -2   4   8    1.80    0.70
  -1   4   8    2.10    0.80
  -1   4   8    5.50    1.00
  -1   4   8    3.90    0.80
  -1   4   8    3.80    0.90
  -1   4   8    3.10    0.90
   0   4   8   30.10    2.30
   0   4   8   31.50    2.10
   0   4   8   28.20    2.10
   0   4   8   29.90    2.50
   0   4   8   32.80    2.20
   1   4   8  209.78    9.70
   1   4   8  217.28    9.60
   1   4   8  219.08    9.50
   1   4   8  219.78    9.50
   1   4   8  209.18    9.80
   1   4   8  224.68   10.00
   2   4   8    9.60    1.50
   2   4   8   10.40    1.50
   2   4   8    7.30    1.10
   2   4   8    8.30    1.20
   2   4   8    9.00    1.20
   3   4   8   39.90    2.40
   3   4   8   40.10    2.90
   3   4   8   35.50    2.50
   3   4   8   39.80    2.90
   3   4   8   37.50    2.40
  -4  -4  -8   -0.10    0.60
   4   4   8    0.10    0.90
   4   4   8    0.20    0.70
   4   4   8   -0.20    1.00
  -5  -4  -8   18.00    1.50
   5   4   8   18.10    1.70
   5   4   8   17.90    1.90
   5   4   8   16.30    1.70
  -6  -4  -8    5.60    0.90
   6   4   8    4.70    1.20
   6   4   8    4.80    1.00
  -7  -4  -8    0.50    0.60
   7   4   8    0.80    0.60
   7   4   8    1.80    0.70
  -8  -4  -8    1.40    0.40
   8   4   8    0.30    0.60
  -3   5   8    8.60    0.80
  -3   5   8    8.70    1.10
  -2   5   8    0.50    0.60
  -2   5   8    1.60    0.70
  -2   5   8    1.20    0.70
  -1   5   8    0.20    0.50
  -1   5   8    0.40    0.80
  -1   5   8    0.10    0.60
   0   5   8    2.80    0.70
   0   5   8    1.50    0.90
   0   5   8    2.00    0.90
   0   5   8    1.10    0.80
   1   5   8   63.49    3.40
   1   5   8   60.19    3.60
   1   5   8   63.19    3.60
   1   5   8   61.39    3.50
   1   5   8   64.69    3.70
   2   5   8   79.29    4.40
   2   5   8   84.29    4.40
   2   5   8   86.49    4.70
   2   5   8   84.59    4.20
   2   5   8   84.19    4.20
   3   5   8   -0.10    0.90
   3   5   8   -0.20    0.70
   3   5   8    1.40    1.10
   3   5   8    0.10    1.00
   3   5   8    0.60    0.80
   4   5   8   12.00    1.50
   4   5   8   12.90    1.60
   4   5   8    9.60    1.10
   4   5   8    7.90    1.10
   4   5   8   14.70    1.80
  -5  -5  -8   21.30    1.70
   5   5   8   23.90    2.00
   5   5   8   24.30    1.80
   5   5   8   26.70    2.20
  -6  -5  -8    0.50    0.50
   6   5   8    1.80    1.10
   6   5   8    1.10    0.80
   6   5   8    0.30    0.60
  -7  -5  -8    0.40    0.50
   7   5   8    0.30    0.60
   7   5   8    0.10    0.50
   7   5   8    0.00    0.50
  -8  -5  -8    0.00    0.40
   8   5   8    0.70    0.50
  -2   6   8   12.30    1.10
  -2   6   8   11.30    1.10
  -1   6   8   14.30    1.30
  -1   6   8   12.70    1.10
   0   6   8    3.80    0.90
   0   6   8    3.70    0.60
   0   6   8    5.70    0.90
   1   6   8    0.40    0.50
   1   6   8    0.70    0.80
   1   6   8   -0.70    0.70
   2   6   8    3.60    0.80
   2   6   8    5.70    1.30
   2   6   8    7.40    1.00
   2   6   8    6.00    1.00
   3   6   8   23.20    1.90
   3   6   8   24.60    1.90
   3   6   8   23.30    2.10
   3   6   8   25.00    1.70
   3   6   8   21.40    2.00
   4   6   8    8.00    1.50
   4   6   8    6.90    1.30
   4   6   8    4.40    1.00
   4   6   8    7.20    0.90
   4   6   8    6.20    1.20
  -5  -6  -8   29.10    1.90
   5   6   8   31.30    2.20
   5   6   8   33.20    2.30
   5   6   8   33.60    2.40
   5   6   8   28.90    2.00
  -6  -6  -8    0.20    0.50
   6   6   8   -0.30    0.70
   6   6   8    0.70    0.70
   6   6   8   -0.10    0.50
  -7  -6  -8   18.20    1.20
   7   6   8   14.10    1.30
   7   6   8   15.90    1.40
   7   6   8   17.60    1.50
  -1   7   8   38.50    2.10
  -1   7   8   37.00    2.00
   0   7   8    0.50    0.50
   0   7   8    0.00    0.40
   0   7   8    0.10    0.30
   1   7   8   34.70    2.10
   1   7   8   34.80    2.00
   1   7   8   33.70    2.20
   2   7   8    2.00    0.70
   2   7   8    2.10    0.80
   2   7   8    3.10    0.80
   3   7   8    0.80    0.70
   3   7   8    0.70    0.90
   3   7   8    0.40    0.70
   3   7   8   -0.50    0.50
   4   7   8    2.10    0.60
   4   7   8    0.50    0.60
   4   7   8    0.90    0.60
   4   7   8    1.10    0.70
   5   7   8    0.40    0.70
   5   7   8    1.50    0.70
   5   7   8    0.50    0.60
  -6  -7  -8   17.90    1.20
   6   7   8   21.80    1.60
   6   7   8   18.90    1.40
   6   7   8   20.80    1.60
  -7  -7  -8   19.20    1.10
   7   7   8   15.20    1.30
   1   8   8    1.20    0.40
   1   8   8    0.90    0.40
   1   8   8    1.10    0.50
   2   8   8    0.10    0.40
   2   8   8    0.40    0.40
   2   8   8   -0.50    0.60
   3   8   8   -0.10    0.50
   3   8   8    0.40    0.40
   3   8   8    0.00    0.50
   4   8   8   22.20    1.70
   4   8   8   24.30    1.60
   4   8   8   24.30    1.60
   4   8   8   24.50    1.50
   5   8   8   26.30    1.70
   5   8   8   27.50    1.70
   5   8   8   26.90    1.60
   6   8   8    0.40    0.40
   2   5  -9    0.50    0.40
   1   5  -9    5.50    0.60
  -1  -5   9    6.90    0.80
   0   5  -9   29.10    1.60
  -1   5  -9   -0.30    0.30
   3   4  -9    0.30    0.50
   3   4  -9    0.10    0.30
   3   4  -9    0.40    0.40
  -3  -4   9   -0.60    0.70
   2   4  -9    8.60    0.80
   2   4  -9    8.60    0.80
  -2  -4   9    8.50    0.90
  -2  -4   9    8.70    1.00
   1   4  -9   30.30    1.70
   1   4  -9   23.00    1.70
   1   4  -9   25.60    1.60
  -1  -4   9   30.40    1.90
   0   4  -9    7.00    0.80
   0   4  -9    4.00    0.70
   0   4  -9    5.00    0.70
  -1   4  -9   18.50    1.40
  -2   4  -9   17.30    1.30
  -3   4  -9   -0.40    0.50
   4   3  -9    3.40    0.50
   4   3  -9    2.60    0.60
   3   3  -9   66.09    3.30
   3   3  -9   65.99    3.20
   3   3  -9   72.39    3.60
  -3  -3   9   70.39    3.50
  -3  -3   9   69.49    3.50
   2   3  -9    1.10    0.60
   2   3  -9    1.40    0.50
   2   3  -9    1.60    0.50
  -2  -3   9    0.90    0.70
  -2  -3   9    0.50    0.90
   1   3  -9    1.20    0.50
   1   3  -9    1.00    0.50
  -1  -3   9    2.40    0.90
   0   3  -9    7.40    0.90
   0   3  -9    8.70    1.00
   0   3  -9    5.80    0.90
  -1   3  -9    3.70    0.70
  -1   3  -9    3.40    0.70
  -1   3  -9    3.00    0.60
  -2   3  -9    5.00    0.80
  -3   3  -9    4.70    0.80
  -4   3  -9   47.30    2.30
   4   2  -9    9.70    1.20
   4   2  -9   10.90    0.80
  -4  -2   9    7.30    0.90
  -4  -2   9    9.40    0.90
   3   2  -9   17.00    1.30
   3   2  -9   14.80    1.20
   3   2  -9   17.80    1.70
  -3  -2   9   17.20    1.40
  -3  -2   9   14.90    1.30
   2   2  -9    0.30    0.60
   2   2  -9    0.50    0.80
   2   2  -9    1.40    0.70
  -2  -2   9    0.20    0.70
  -2  -2   9   -0.20    0.90
   1   2  -9    3.70    0.80
   1   2  -9    4.40    1.00
   1   2  -9    2.50    0.90
  -1  -2   9    5.30    1.10
   0   2  -9   15.50    1.40
   0   2  -9   15.40    1.30
   0   2  -9   15.70    1.40
   0  -2   9   15.60    1.50
  -1   2  -9   16.50    1.40
  -1   2  -9   16.90    1.30
  -1   2  -9   16.40    1.50
   1  -2   9   16.30    1.60
  -2   2  -9    5.80    1.00
  -2   2  -9    6.10    0.90
   2  -2   9    6.40    1.10
  -3   2  -9   29.00    1.70
   3  -2   9   25.40    1.90
  -4   2  -9   -0.20    0.50
   4  -2   9   -0.10    0.50
   5  -2   9   18.40    1.30
   4   1  -9    4.10    0.60
   4   1  -9    5.70    0.90
  -4  -1   9    5.00    0.70
  -4  -1   9    3.40    0.70
  -4  -1   9    2.80    0.70
   3   1  -9   25.10    1.60
   3   1  -9   29.50    2.20
   3   1  -9   23.30    1.50
  -3  -1   9   24.60    1.80
  -3  -1   9   27.50    1.90
   2   1  -9   59.89    3.20
   2   1  -9   64.59    3.70
   2   1  -9   58.89    3.20
  -2  -1   9   65.99    3.70
  -2  -1   9   63.09    3.60
  -2  -1   9   59.29    3.30
   1   1  -9  109.19    5.10
   1   1  -9  107.09    5.10
  -1  -1   9  107.89    5.30
  -1  -1   9  110.99    5.60
   0   1  -9   12.90    1.30
   0   1  -9   17.20    1.50
   0   1  -9   15.10    1.60
   0  -1   9   17.00    1.70
  -1   1  -9   10.50    1.30
  -1   1  -9    7.80    1.00
   1  -1   9   10.60    1.40
  -2   1  -9    9.10    1.00
  -2   1  -9    7.40    1.00
  -2   1  -9    7.70    1.10
   2  -1   9    7.50    1.30
  -3   1  -9    0.40    0.50
  -3   1  -9    0.60    0.70
   3  -1   9    1.00    0.70
  -4   1  -9    2.40    0.70
  -4   1  -9    3.70    0.70
   4  -1   9    2.20    1.00
  -5   1  -9    1.80    0.50
   5  -1   9    0.80    0.60
   6  -1   9   15.80    1.10
   4   0  -9    3.70    0.70
  -4   0   9    3.70    0.60
  -4   0   9    2.80    0.60
  -4   0   9    1.70    0.60
   3   0  -9   -0.60    1.20
  -3   0   9   -0.10    0.50
  -3   0   9   -0.10    0.50
  -3   0   9    0.70    0.70
   2   0  -9    2.10    0.60
   2   0  -9    1.40    0.60
  -2   0   9    1.40    0.80
  -2   0   9    1.10    0.80
  -2   0   9    2.20    0.70
   1   0  -9   26.60    1.80
   1   0  -9   27.50    2.00
  -1   0   9   27.10    2.40
  -1   0   9   24.70    2.00
  -1   0   9   29.10    2.20
   0   0  -9    0.30    1.00
   0   0  -9    0.60    0.60
   0   0   9   -0.20    0.60
   0   0   9    0.40    0.90
   0   0   9    0.20    0.60
   0   0   9   -0.80    1.10
  -1   0  -9   14.00    1.50
  -1   0  -9   15.40    1.50
   1   0   9   13.90    1.50
   1   0   9   13.70    1.70
   1   0   9   11.80    1.60
  -2   0  -9   15.40    1.50
  -2   0  -9   15.10    1.50
   2   0   9   14.90    1.50
   2   0   9   13.80    1.60
   2   0   9   15.30    1.70
  -3   0  -9   42.00    2.50
  -3   0  -9   40.20    2.40
   3   0   9   40.60    2.60
  -4   0  -9    0.30    0.60
  -4   0  -9    0.00    0.60
   4   0   9   -0.10    0.60
  -5   0  -9    9.70    0.90
  -5   0  -9    9.00    1.10
   5   0   9   10.30    1.20
  -6   0  -9    5.60    0.60
   6   0   9    7.30    1.00
   4  -1  -9    3.10    0.60
  -4   1   9    2.00    0.60
  -4   1   9    4.30    0.70
  -4   1   9    3.50    0.60
  -3   1   9   10.80    1.20
  -3   1   9    4.90    1.00
  -3   1   9    7.10    0.90
   2  -1  -9    0.60    0.50
  -2   1   9    0.60    0.70
  -2   1   9    1.30    0.70
  -2   1   9    0.40    0.50
  -2   1   9    0.60    0.80
   1  -1  -9   20.00    1.60
  -1   1   9   19.30    1.70
  -1   1   9   17.70    1.60
  -1   1   9   18.80    1.70
  -1   1   9   20.10    2.10
   0   1   9  114.19    5.30
   0   1   9  108.39    5.60
   0   1   9  111.39    5.70
   0   1   9  106.89    5.50
  -1  -1  -9   66.09    3.50
  -1  -1  -9   72.19    3.60
   1   1   9   69.49    3.90
   1   1   9   59.29    3.80
   1   1   9   74.59    3.90
   1   1   9   70.59    3.70
  -2  -1  -9   -0.20    0.60
  -2  -1  -9    0.70    0.80
   2   1   9    0.70    0.80
   2   1   9   -0.10    0.70
   2   1   9    0.10    0.70
  -3  -1  -9   29.90    2.00
  -3  -1  -9   27.90    2.00
   3   1   9   27.50    2.10
   3   1   9   24.80    1.90
   3   1   9   30.20    2.10
  -4  -1  -9    6.30    0.90
  -4  -1  -9    6.10    0.90
   4   1   9    5.60    1.00
   4   1   9    6.50    1.10
  -5  -1  -9    6.90    0.90
  -5  -1  -9    4.50    0.80
   5   1   9    6.30    1.20
   5   1   9    8.90    1.20
  -6  -1  -9    1.00    0.60
   6   1   9    1.70    0.60
   6   1   9    2.00    0.60
   7   1   9    0.30    0.40
  -4   2   9    2.00    0.60
  -4   2   9    1.90    0.50
  -3   2   9    0.90    0.60
  -3   2   9    2.70    0.70
  -2   2   9   17.10    1.50
  -2   2   9   18.50    1.60
  -2   2   9   14.70    1.40
  -2   2   9   18.20    1.80
  -1   2   9    0.90    0.90
  -1   2   9    2.20    0.70
  -1   2   9    2.00    0.80
  -1   2   9    1.30    0.90
   0   2   9   26.20    2.00
   0   2   9   30.50    2.30
   0   2   9   26.90    2.30
   0   2   9   29.80    2.30
   0   2   9   30.30    2.10
  -1  -2  -9   16.20    1.60
   1   2   9   20.20    1.70
   1   2   9   19.70    1.90
   1   2   9   19.20    2.10
  -2  -2  -9   46.30    2.80
  -2  -2  -9   45.00    2.70
   2   2   9   49.10    2.80
   2   2   9   51.19    3.10
   2   2   9   49.99    3.10
   2   2   9   48.60    3.10
  -3  -2  -9   18.40    1.50
  -3  -2  -9   19.70    1.50
   3   2   9   17.70    1.80
   3   2   9   16.90    1.40
   3   2   9   18.00    1.80
   3   2   9   18.90    1.90
  -4  -2  -9    4.00    0.80
  -4  -2  -9    1.80    0.70
   4   2   9    2.10    0.80
   4   2   9    2.70    1.10
  -5  -2  -9    9.30    1.10
  -5  -2  -9    9.50    1.10
   5   2   9   11.20    1.50
   5   2   9    9.50    1.20
  -6  -2  -9   -0.20    0.30
   6   2   9    0.60    0.50
   6   2   9   -0.30    0.70
  -7  -2  -9    0.20    0.30
   7   2   9   -0.30    0.40
   7   2   9    0.10    0.50
  -3   3   9   55.09    2.90
  -3   3   9   55.49    2.90
  -2   3   9    0.60    0.50
  -2   3   9    0.30    0.60
  -1   3   9    0.30    0.70
  -1   3   9   -0.10    0.60
  -1   3   9    0.50    0.80
  -1   3   9   -0.30    0.70
   0   3   9   10.80    1.20
   0   3   9   12.20    1.70
   0   3   9   12.50    1.40
   0   3   9   10.90    1.20
   1   3   9   56.19    3.30
   1   3   9   54.69    3.50
   1   3   9   53.89    3.00
   1   3   9   49.50    2.90
   2   3   9   58.59    3.20
   2   3   9   57.39    3.60
   2   3   9   57.99    3.60
   2   3   9   58.19    3.50
  -3  -3  -9  243.08   10.70
   3   3   9  254.57   11.20
   3   3   9  254.17   11.10
   3   3   9  255.87   11.20
   3   3   9  247.48   10.70
  -4  -3  -9   30.10    1.90
   4   3   9   30.60    2.20
   4   3   9   26.60    2.20
   4   3   9   32.00    2.30
  -5  -3  -9    3.90    0.80
  -5  -3  -9    7.80    1.00
   5   3   9    6.10    1.00
   5   3   9    2.80    0.90
   5   3   9    4.00    1.10
  -6  -3  -9    1.30    0.60
   6   3   9    1.20    0.70
   6   3   9    1.90    0.60
  -7  -3  -9    7.10    0.80
   7   3   9    6.70    1.00
  -3   4   9    0.60    0.60
  -3   4   9    0.30    0.50
  -2   4   9    0.00    0.40
  -2   4   9    0.00    0.40
  -2   4   9    0.10    0.50
  -1   4   9   13.00    1.20
  -1   4   9   15.60    1.30
  -1   4   9   13.30    1.40
  -1   4   9   14.90    1.30
   0   4   9    4.40    0.90
   0   4   9    5.00    0.80
   0   4   9    5.60    1.00
   0   4   9    5.40    1.10
   0   4   9    2.60    0.80
   1   4   9   22.80    2.00
   1   4   9   21.80    1.90
   1   4   9   19.30    1.60
   1   4   9   25.50    1.70
   1   4   9   20.80    1.70
   2   4   9   29.30    2.00
   2   4   9   34.00    2.60
   2   4   9   30.60    2.10
   2   4   9   26.80    2.10
   2   4   9   30.40    2.30
   2   4   9   31.40    2.50
   3   4   9    2.80    1.00
   3   4   9    2.30    0.80
   3   4   9    4.50    1.20
   3   4   9    2.10    0.80
  -4  -4  -9    2.70    0.70
   4   4   9    2.80    0.90
   4   4   9    1.60    1.00
   4   4   9    3.70    0.80
  -5  -4  -9   -0.10    0.60
   5   4   9    0.50    0.90
   5   4   9    0.70    0.70
   5   4   9    0.30    0.70
  -6  -4  -9   10.40    1.00
  -6  -4  -9   12.40    1.00
   6   4   9   10.40    1.00
   6   4   9   12.30    1.30
   6   4   9   10.00    1.10
  -7  -4  -9    2.30    0.50
   7   4   9    0.80    0.70
  -2   5   9    4.40    0.60
  -1   5   9   18.00    1.30
  -1   5   9   18.30    1.40
  -1   5   9   20.80    1.40
   0   5   9    1.20    0.50
   0   5   9    1.40    0.50
   0   5   9    1.40    0.60
   1   5   9   15.50    1.30
   1   5   9   14.60    1.50
   1   5   9   13.70    1.50
   1   5   9   13.40    1.30
   2   5   9    0.10    0.80
   2   5   9    1.10    1.00
   2   5   9    0.60    0.70
   2   5   9   -0.20    0.70
   2   5   9    0.40    0.70
   3   5   9   20.60    2.00
   3   5   9   18.10    1.70
   3   5   9   18.80    1.60
   3   5   9   17.70    1.90
   3   5   9   19.70    1.40
   4   5   9  103.39    4.90
   4   5   9  114.59    5.40
   4   5   9  114.49    5.40
   4   5   9  102.19    5.00
   4   5   9   99.59    4.90
  -5  -5  -9   35.90    2.10
   5   5   9   41.10    2.50
   5   5   9   36.90    2.50
   5   5   9   34.00    2.20
  -6  -5  -9    1.10    0.40
  -6  -5  -9    0.40    0.50
   6   5   9    0.90    0.50
   6   5   9    0.70    0.60
   6   5   9    0.60    0.80
  -7  -5  -9    2.80    0.50
   7   5   9    3.20    0.70
  -1   6   9    1.70    0.50
   0   6   9    1.00    0.60
   0   6   9    2.00    0.50
   0   6   9    1.50    0.40
   1   6   9    8.80    1.00
   1   6   9    9.40    1.00
   2   6   9   -0.70    0.80
   2   6   9   -0.20    0.50
   2   6   9   -0.40    0.60
   2   6   9    0.00    0.40
   3   6   9    0.10    0.80
   3   6   9   -0.20    0.60
   3   6   9   -0.10    0.50
   3   6   9    0.00    0.50
   3   6   9    0.50    0.60
   4   6   9   22.30    1.50
   4   6   9   21.20    1.50
   4   6   9   24.20    1.80
   4   6   9   22.10    1.70
   4   6   9   22.40    1.60
   5   6   9   10.20    1.10
   5   6   9    9.80    1.20
   5   6   9    7.60    1.10
   5   6   9    8.90    1.00
  -6  -6  -9   44.60    2.20
   6   6   9   49.40    2.50
   6   6   9   40.50    2.30
   6   6   9   42.00    2.30
   0   7   9    3.40    0.50
   1   7   9   -0.20    0.30
   1   7   9    0.50    0.40
   1   7   9   -0.20    0.40
   2   7   9   -0.70    0.40
   2   7   9    0.10    0.40
   2   7   9    0.40    0.40
   3   7   9    2.10    0.70
   3   7   9    2.40    0.60
   3   7   9    2.70    0.50
   4   7   9    2.90    0.50
   4   7   9    2.40    0.60
   4   7   9    2.00    0.60
   4   7   9    1.40    0.60
   5   7   9    0.30    0.50
   5   7   9    0.00    0.40
   5   7   9    0.10    0.60
   3   8   9    8.40    0.70
   3   8   9    6.10    0.60
   2   3 -10    0.30    0.30
   1   3 -10    0.50    0.30
   1   3 -10    0.10    0.40
  -1  -3  10    0.20    0.70
   0   3 -10    5.80    0.70
   0   3 -10    4.60    0.60
   0   3 -10    3.90    0.60
   0  -3  10    6.50    0.90
  -1   3 -10    0.70    0.30
  -1   3 -10    0.50    0.40
  -1   3 -10    0.50    0.40
   1  -3  10    0.20    0.60
  -2   3 -10   -0.10    0.50
  -2   3 -10    0.30    0.30
   2   2 -10    1.60    0.50
   2   2 -10    2.30    0.50
   2   2 -10    1.50    0.40
  -2  -2  10    1.60    0.70
   1   2 -10    3.00    0.60
   1   2 -10    1.80    0.50
   1   2 -10    2.40    0.60
  -1  -2  10    3.10    0.80
   0   2 -10    1.50    0.50
   0   2 -10    1.10    0.50
   0   2 -10    1.70    0.50
   0  -2  10    0.90    0.60
  -1   2 -10    1.20    0.50
  -1   2 -10    1.20    0.50
  -1   2 -10    0.70    0.60
   1  -2  10    0.90    0.60
   1  -2  10    1.70    0.90
  -2   2 -10    1.70    0.50
  -2   2 -10    3.60    0.60
   2  -2  10    2.90    0.70
  -3   2 -10    6.00    0.60
  -3   2 -10    3.40    0.60
   3  -2  10    4.60    0.80
   3   1 -10    0.50    0.50
  -3  -1  10    0.70    0.40
   2   1 -10   52.49    2.50
   2   1 -10   47.80    2.70
   2   1 -10   47.00    2.40
  -2  -1  10   46.30    2.50
  -2  -1  10   53.29    2.70
   1   1 -10    3.40    0.70
   1   1 -10    3.70    0.60
   1   1 -10    6.20    1.00
  -1  -1  10    3.30    0.80
  -1  -1  10    3.30    0.80
   0   1 -10   18.50    1.30
   0   1 -10   23.10    1.50
   0   1 -10   21.20    1.60
   0   1 -10   14.70    1.80
   0  -1  10   19.10    1.80
   0  -1  10   20.40    1.60
  -1   1 -10    1.80    0.70
  -1   1 -10    1.50    0.60
  -1   1 -10    2.70    0.60
   1  -1  10    2.60    0.90
   1  -1  10    3.10    0.80
  -2   1 -10    0.30    0.40
  -2   1 -10    0.00    0.40
   2  -1  10    0.20    0.60
  -3   1 -10    1.90    0.60
   3  -1  10    2.70    0.80
  -4   1 -10    2.90    0.60
   4  -1  10    4.30    0.80
   3   0 -10    0.20    0.50
  -3   0  10    0.30    0.50
   2   0 -10    7.30    0.80
   2   0 -10    9.80    1.20
   2   0 -10    4.80    0.70
  -2   0  10    7.00    0.80
  -2   0  10    7.70    1.00
   1   0 -10   19.40    1.40
   1   0 -10   17.50    1.40
  -1   0  10   19.70    1.60
  -1   0  10   18.20    1.70
   0   0 -10   24.00    1.50
   0   0 -10   23.30    1.60
   0   0  10   22.00    1.80
   0   0  10   19.40    1.70
  -1   0 -10    0.50    0.40
  -1   0 -10    1.00    0.80
   1   0  10    0.70    0.70
   1   0  10    0.60    0.70
  -2   0 -10    0.20    0.40
  -2   0 -10    0.40    0.70
  -2   0 -10    0.10    0.50
   2   0  10    0.40    0.90
   2   0  10    1.60    1.10
  -3   0 -10    1.50    0.70
  -3   0 -10    0.70    0.50
   3   0  10    0.70    0.70
  -4   0 -10    0.90    0.60
  -4   0 -10    1.00    0.50
   4   0  10    1.20    0.70
  -5   0 -10    3.30    0.50
  -5   0 -10    3.60    0.60
   5   0  10    4.20    0.70
   3  -1 -10    2.80    0.70
  -3   1  10    2.30    0.50
   2  -1 -10    0.20    0.80
  -2   1  10   -0.20    0.60
  -2   1  10    0.30    0.50
  -2   1  10    0.50    0.60
   1  -1 -10    3.20    0.80
  -1   1  10    1.60    0.70
  -1   1  10    2.30    0.90
  -1   1  10    4.30    0.70
   0  -1 -10   16.20    1.30
   0  -1 -10   18.70    1.40
   0   1  10   17.10    1.70
   0   1  10   17.10    1.40
   0   1  10   14.30    1.40
  -1  -1 -10    1.30    0.70
  -1  -1 -10    0.50    0.60
   1   1  10    0.70    0.60
   1   1  10    1.30    0.60
   1   1  10    0.80    0.80
   1   1  10    0.90    0.70
  -2  -1 -10    6.00    1.00
  -2  -1 -10    9.20    1.00
  -2  -1 -10    9.30    1.00
   2   1  10    7.20    1.30
   2   1  10    9.70    1.10
   2   1  10    7.70    1.30
  -3  -1 -10    7.00    1.00
  -3  -1 -10    7.20    0.90
  -3  -1 -10    7.50    0.90
   3   1  10    8.70    1.20
   3   1  10    7.40    0.90
   3   1  10    7.60    1.10
  -4  -1 -10   11.60    1.00
  -4  -1 -10   13.20    1.10
   4   1  10   12.00    1.30
  -5  -1 -10   33.00    1.80
  -5  -1 -10   32.30    1.70
   5   1  10   31.10    1.90
   5   1  10   29.70    1.90
  -2   2  10    3.40    0.70
  -2   2  10    4.20    0.70
   1  -2 -10    1.40    0.70
  -1   2  10    1.10    0.70
  -1   2  10    1.20    0.60
  -1   2  10    1.90    0.60
  -1   2  10    1.50    0.50
   0   2  10   12.20    1.10
   0   2  10    9.70    1.30
   0   2  10   11.00    1.30
   0   2  10   10.50    1.20
  -1  -2 -10    0.20    0.40
   1   2  10    0.20    0.50
   1   2  10   -0.50    0.90
   1   2  10   -0.20    0.90
  -2  -2 -10    3.00    0.80
  -2  -2 -10    4.10    0.90
   2   2  10    3.50    0.80
   2   2  10    4.40    1.00
   2   2  10    3.90    0.90
  -3  -2 -10   11.30    1.20
  -3  -2 -10   11.20    1.30
   3   2  10    9.30    1.00
   3   2  10   10.40    1.30
   3   2  10   11.60    1.20
  -4  -2 -10   11.10    1.00
  -4  -2 -10   10.50    1.20
   4   2  10    9.80    1.10
   4   2  10   12.40    1.30
  -5  -2 -10   12.50    1.00
  -5  -2 -10   12.40    1.10
   5   2  10   11.40    1.30
   5   2  10   12.00    1.10
  -6  -2 -10   10.50    0.90
   6   2  10   15.10    1.40
  -2   3  10   14.30    1.20
  -2   3  10   14.80    1.10
   1  -3 -10   18.60    1.30
  -1   3  10   18.60    1.50
  -1   3  10   18.40    1.60
  -1   3  10   20.90    1.40
  -1   3  10   23.70    1.40
   0   3  10    2.20    0.70
   0   3  10    2.10    0.70
   0   3  10    2.90    0.90
  -1  -3 -10   -0.10    0.40
   1   3  10   -0.10    1.00
   1   3  10    0.60    0.80
   1   3  10    0.30    0.50
   1   3  10    0.70    0.60
  -2  -3 -10   90.89    4.20
   2   3  10   94.99    4.30
   2   3  10   82.79    4.40
   2   3  10   85.69    4.50
  -3  -3 -10   69.69    3.30
  -3  -3 -10   71.09    3.40
   3   3  10   72.89    3.80
   3   3  10   65.49    3.40
   3   3  10   60.59    3.50
  -4  -3 -10   19.60    1.30
  -4  -3 -10   17.70    1.40
   4   3  10   16.60    1.50
   4   3  10   21.20    1.80
   4   3  10   18.20    1.50
  -5  -3 -10   35.40    1.80
  -5  -3 -10   31.80    1.80
   5   3  10   28.70    1.80
   5   3  10   32.10    2.10
  -6  -3 -10    0.40    0.30
   6   3  10    0.20    0.40
  -1   4  10    0.30    0.40
  -1   4  10    0.70    0.50
   0   4  10   10.20    1.10
   0   4  10    9.40    0.90
   0   4  10    8.30    0.90
   1   4  10    0.10    0.60
   1   4  10   -0.30    0.50
   1   4  10    0.50    0.50
   1   4  10    0.20    0.60
  -2  -4 -10   10.60    1.20
   2   4  10   10.30    1.40
   2   4  10    8.90    1.00
   2   4  10    9.70    1.00
   2   4  10    6.50    0.90
  -3  -4 -10   25.30    1.70
   3   4  10   27.30    1.90
   3   4  10   27.80    2.20
   3   4  10   25.50    1.60
  -4  -4 -10    2.90    0.60
  -4  -4 -10    3.40    0.70
   4   4  10    3.70    0.80
   4   4  10    3.90    0.90
  -5  -4 -10    1.60    0.50
  -5  -4 -10    1.70    0.60
   5   4  10    1.50    0.60
   5   4  10    2.90    0.70
  -6  -4 -10    1.50    0.50
   6   4  10    2.70    0.70
   0   5  10   15.30    1.10
   0   5  10   15.10    1.20
   1   5  10   10.50    1.00
   1   5  10   12.20    1.00
   1   5  10   14.10    1.10
   2   5  10    0.30    0.40
   2   5  10    0.70    0.50
   2   5  10    0.30    0.50
   2   5  10    0.90    0.60
   3   5  10    2.30    0.60
   3   5  10    3.70    0.70
   3   5  10    6.30    0.80
   3   5  10    5.50    0.90
   4   5  10    5.20    0.90
   4   5  10    4.10    0.60
   4   5  10    4.20    0.80
   4   5  10    3.20    0.60
  -5  -5 -10    5.80    0.70
  -5  -5 -10    6.30    0.70
   5   5  10    3.60    0.70
   5   5  10    6.20    0.80
   1   6  10    9.00    0.80
   1   6  10    9.50    0.80
   2   6  10   15.30    1.10
   2   6  10   16.20    1.20
   3   6  10    1.10    0.50
   3   6  10    1.30    0.40
   3   6  10    1.00    0.40
   3   6  10    0.40    0.50
   4   6  10    1.50    0.60
   4   6  10    1.00    0.60
   4   6  10    1.30    0.50
  -5  -6 -10    2.40    0.60
   5   6  10    2.30    0.60
   0   1 -11   12.60    1.00
   0   1 -11   13.50    0.90
   0  -1  11   18.00    1.50
  -1   1 -11    7.20    0.80
  -1   1 -11    9.00    0.70
  -2   1 -11   24.10    1.40
  -2   1 -11   24.20    1.30
   0   0 -11    3.30    0.60
   0   0 -11    4.00    0.70
   0   0  11    5.30    0.70
   0   0  11    3.70    0.70
  -1   0 -11    2.10    0.40
  -1   0 -11    2.80    0.50
  -1   0 -11    2.40    0.50
   1   0  11    3.00    0.60
   1   0  11    1.00    0.60
  -2   0 -11   11.10    0.90
  -2   0 -11   10.80    0.90
  -2   0 -11   10.10    0.80
   2   0  11   11.90    1.00
  -3   0 -11   16.70    1.10
  -3   0 -11   16.60    1.10
   3   0  11   18.60    1.20
   1  -1 -11    6.40    0.90
   0  -1 -11    0.30    0.40
   0  -1 -11    0.30    0.40
   0   1  11    0.40    0.40
   0   1  11    0.20    0.30
  -1  -1 -11    0.70    0.30
  -1  -1 -11    0.60    0.40
  -1  -1 -11    1.20    0.40
   1   1  11    1.00    0.70
  -2  -1 -11    3.10    0.60
  -2  -1 -11    6.20    0.70
  -2  -1 -11    5.70    0.70
   2   1  11    5.90    0.90
  -3  -1 -11    0.30    0.30
  -3  -1 -11    0.30    0.40
   3   1  11    0.80    0.50
  -4  -1 -11    0.50    0.30
  -4  -1 -11    0.20    0.40
   4   1  11   -0.10    0.40
   0  -2 -11   10.00    0.90
   0   2  11    8.80    0.90
  -1  -2 -11    8.10    0.90
   1   2  11    8.80    0.90
  -2  -2 -11    1.00    0.50
  -2  -2 -11    0.60    0.70
  -2  -2 -11    0.30    0.40
   2   2  11    1.20    0.50
   2   2  11    0.80    0.50
   2   2  11    1.80    0.60
  -3  -2 -11   -0.60    0.50
  -3  -2 -11    0.50    0.50
  -3  -2 -11    0.30    0.40
   3   2  11    0.90    0.50
   3   2  11    0.20    0.60
  -4  -2 -11    9.10    0.80
  -4  -2 -11    9.80    0.90
   4   2  11   14.00    1.80
   4   2  11    8.10    0.80
   0  -3 -11    3.10    0.70
   0   3  11    3.00    0.50
  -1  -3 -11    7.70    0.80
   1   3  11    5.00    0.70
   1   3  11    6.00    0.70
  -2  -3 -11    5.30    0.60
   2   3  11    7.50    0.70
   2   3  11    3.80    0.70
   2   3  11    5.20    0.90
  -3  -3 -11    1.20    0.40
  -3  -3 -11    1.50    0.50
  -3  -3 -11    1.10    0.50
   3   3  11    1.10    0.50
   3   3  11    0.10    0.50
   3   3  11    1.00    0.40
  -4  -3 -11   23.10    1.60
   4   3  11   32.10    1.80
  -1  -4 -11    6.50    0.70
   1   4  11    6.50    0.70
  -2  -4 -11    1.50    0.40
   2   4  11    1.20    0.60
   2   4  11    0.40    0.50
  -3  -4 -11   10.50    0.80
   3   4  11   11.10    0.80
   3   4  11   10.30    1.20

_computing_structure_solution     'SHELXT 2014/4 (Sheldrick, 2014)'
;
_shelx_hkl_checksum              76396
_shelx_shelxl_version_number     2014/7
_olex2_submission_special_instructions 'No special instructions were received'
loop_
_space_group_symop_operation_xyz
'x, y, z'
'-x, -y, -z'
loop_
_atom_site_label
_atom_site_type_symbol
_atom_site_fract_x
_atom_site_fract_y
_atom_site_fract_z
_atom_site_U_iso_or_equiv
_atom_site_adp_type
_atom_site_occupancy
_atom_site_site_symmetry_order
_atom_site_calc_flag
_atom_site_refinement_flags_posn
O1 O 0.98655(14) 0.25391(12) 0.47905(11) 0.0300(3) Uani 1 1 d .
O2 O 0.76606(15) 0.51723(12) 0.87136(11) 0.0318(3) Uani 1 1 d .
N1 N 0.72394(17) 0.03880(15) 1.02102(13) 0.0282(3) Uani 1 1 d .
N2 N 0.87587(15) 0.38631(14) 0.67458(12) 0.0235(3) Uani 1 1 d .
C1 C 0.74480(19) -0.08270(17) 0.94876(15) 0.0272(3) Uani 1 1 d .
H1 H 0.6865 -0.1581 0.9905 0.033 Uiso 1 1 calc R
C2 C 0.84664(19) -0.10415(16) 0.81683(16) 0.0259(3) Uani 1 1 d .
H2 H 0.8585 -0.1927 0.7701 0.031 Uiso 1 1 calc R
C3 C 0.93091(18) 0.00543(16) 0.75407(14) 0.0245(3) Uani 1 1 d .
H3 H 1.0016 -0.0068 0.6635 0.029 Uiso 1 1 calc R
C4 C 0.91079(17) 0.13397(16) 0.82537(14) 0.0233(3) Uani 1 1 d .
C5 C 0.80706(19) 0.14293(16) 0.95890(15) 0.0260(3) Uani 1 1 d .
H5 H 0.7947 0.2291 1.0091 0.031 Uiso 1 1 calc R
C6 C 0.99275(19) 0.26186(16) 0.76077(15) 0.0255(3) Uani 1 1 d .
H6A H 1.0201 0.3068 0.8387 0.031 Uiso 1 1 calc R
H6B H 1.1026 0.2171 0.6990 0.031 Uiso 1 1 calc R
C7 C 0.88245(18) 0.36736(16) 0.53015(15) 0.0238(3) Uani 1 1 d .
C8 C 0.75943(18) 0.48897(16) 0.44658(15) 0.0233(3) Uani 1 1 d .
C9 C 0.75824(19) 0.47631(17) 0.30411(15) 0.0258(3) Uani 1 1 d .
H9 H 0.8370 0.3895 0.2603 0.031 Uiso 1 1 calc R
C10 C 0.6414(2) 0.59083(17) 0.22333(15) 0.0279(3) Uani 1 1 d .
H10 H 0.6420 0.5813 0.1252 0.034 Uiso 1 1 calc R
C11 C 0.5263(2) 0.71661(17) 0.28575(16) 0.0271(3) Uani 1 1 d .
H11 H 0.4488 0.7940 0.2299 0.033 Uiso 1 1 calc R
C12 C 0.52158(19) 0.73244(16) 0.43252(15) 0.0244(3) Uani 1 1 d .
C13 C 0.40154(19) 0.85806(17) 0.50239(16) 0.0268(3) Uani 1 1 d .
H13 H 0.3206 0.9362 0.4502 0.032 Uiso 1 1 calc R
C14 C 0.40186(19) 0.86718(17) 0.64491(16) 0.0269(3) Uani 1 1 d .
H14 H 0.3206 0.9514 0.6906 0.032 Uiso 1 1 calc R
C15 C 0.52077(19) 0.75352(16) 0.72372(15) 0.0252(3) Uani 1 1 d .
H15 H 0.5196 0.7615 0.8223 0.030 Uiso 1 1 calc R
C16 C 0.63885(18) 0.63078(16) 0.65955(15) 0.0233(3) Uani 1 1 d .
C17 C 0.76132(19) 0.51140(16) 0.74474(15) 0.0238(3) Uani 1 1 d .
C18 C 0.64109(18) 0.61713(16) 0.51284(15) 0.0223(3) Uani 1 1 d .
loop_
_atom_site_aniso_label
_atom_site_aniso_U_11
_atom_site_aniso_U_22
_atom_site_aniso_U_33
_atom_site_aniso_U_23
_atom_site_aniso_U_13
_atom_site_aniso_U_12
O1 0.0307(6) 0.0282(5) 0.0276(5) -0.0063(4) 0.0004(4) -0.0044(5)
O2 0.0381(6) 0.0314(6) 0.0241(5) -0.0066(4) -0.0065(4) -0.0046(5)
N1 0.0293(7) 0.0306(6) 0.0244(6) -0.0031(5) -0.0024(5) -0.0089(5)
N2 0.0229(6) 0.0235(6) 0.0246(6) -0.0036(5) -0.0025(5) -0.0078(5)
C1 0.0283(7) 0.0271(7) 0.0265(7) -0.0011(6) -0.0044(6) -0.0090(6)
C2 0.0254(7) 0.0242(7) 0.0279(7) -0.0053(5) -0.0057(6) -0.0047(6)
C3 0.0206(7) 0.0279(7) 0.0224(7) -0.0044(5) -0.0014(5) -0.0033(6)
C4 0.0202(7) 0.0239(7) 0.0242(7) -0.0016(5) -0.0063(5) -0.0028(5)
C5 0.0275(7) 0.0264(7) 0.0240(7) -0.0064(5) -0.0048(6) -0.0053(6)
C6 0.0226(7) 0.0263(7) 0.0275(7) -0.0034(6) -0.0048(5) -0.0059(6)
C7 0.0235(7) 0.0251(7) 0.0242(7) -0.0046(5) 0.0020(5) -0.0110(6)
C8 0.0227(7) 0.0256(7) 0.0236(7) -0.0034(5) -0.0003(5) -0.0113(6)
C9 0.0268(7) 0.0282(7) 0.0241(7) -0.0050(6) 0.0007(5) -0.0118(6)
C10 0.0328(8) 0.0342(8) 0.0210(6) -0.0038(6) -0.0017(6) -0.0165(7)
C11 0.0264(7) 0.0298(7) 0.0270(7) 0.0009(6) -0.0055(6) -0.0117(6)
C12 0.0229(7) 0.0264(7) 0.0264(7) -0.0018(6) -0.0026(6) -0.0115(6)
C13 0.0245(7) 0.0248(7) 0.0320(7) -0.0007(6) -0.0054(6) -0.0088(6)
C14 0.0251(7) 0.0235(7) 0.0317(7) -0.0051(6) -0.0003(6) -0.0074(6)
C15 0.0268(8) 0.0271(7) 0.0242(7) -0.0058(6) -0.0007(6) -0.0116(6)
C16 0.0234(7) 0.0240(7) 0.0242(7) -0.0030(5) -0.0009(5) -0.0103(6)
C17 0.0246(7) 0.0251(7) 0.0235(7) -0.0049(5) -0.0009(5) -0.0102(6)
C18 0.0221(7) 0.0234(7) 0.0237(7) -0.0026(5) -0.0002(5) -0.0117(6)
loop_
_atom_type_symbol
_atom_type_description
_atom_type_scat_dispersion_real
_atom_type_scat_dispersion_imag
_atom_type_scat_source
C C 0.0181 0.0091 'International Tables Vol C Tables 4.2.6.8 and 6.1.1.4'
H H 0.0000 0.0000 'International Tables Vol C Tables 4.2.6.8 and 6.1.1.4'
N N 0.0311 0.0180 'International Tables Vol C Tables 4.2.6.8 and 6.1.1.4'
O O 0.0492 0.0322 'International Tables Vol C Tables 4.2.6.8 and 6.1.1.4'
loop_
_geom_angle_atom_site_label_1
_geom_angle_atom_site_label_2
_geom_angle_atom_site_label_3
_geom_angle
C5 N1 C1 116.65(12)
C7 N2 C6 117.48(11)
C7 N2 C17 124.84(13)
C17 N2 C6 117.61(11)
N1 C1 H1 118.2
N1 C1 C2 123.53(13)
C2 C1 H1 118.2
C1 C2 H2 120.6
C1 C2 C3 118.90(13)
C3 C2 H2 120.6
C2 C3 H3 120.4
C2 C3 C4 119.15(13)
C4 C3 H3 120.4
C3 C4 C5 117.21(13)
C3 C4 C6 122.16(12)
C5 C4 C6 120.61(12)
N1 C5 C4 124.56(13)
N1 C5 H5 117.7
C4 C5 H5 117.7
N2 C6 C4 111.06(11)
N2 C6 H6A 109.4
N2 C6 H6B 109.4
C4 C6 H6A 109.4
C4 C6 H6B 109.4
H6A C6 H6B 108.0
O1 C7 N2 119.92(14)
O1 C7 C8 123.02(13)
N2 C7 C8 117.06(12)
C9 C8 C7 119.89(13)
C9 C8 C18 119.98(14)
C18 C8 C7 120.13(13)
C8 C9 H9 119.7
C8 C9 C10 120.54(13)
C10 C9 H9 119.7
C9 C10 H10 119.9
C11 C10 C9 120.24(13)
C11 C10 H10 119.9
C10 C11 H11 119.6
C10 C11 C12 120.89(14)
C12 C11 H11 119.6
C11 C12 C13 122.76(14)
C18 C12 C11 118.47(13)
C18 C12 C13 118.76(13)
C12 C13 H13 119.8
C14 C13 C12 120.37(14)
C14 C13 H13 119.8
C13 C14 H14 119.6
C13 C14 C15 120.71(14)
C15 C14 H14 119.6
C14 C15 H15 119.8
C16 C15 C14 120.47(13)
C16 C15 H15 119.8
C15 C16 C17 119.65(13)
C15 C16 C18 120.26(14)
C18 C16 C17 120.08(13)
O2 C17 N2 119.79(14)
O2 C17 C16 123.05(13)
N2 C17 C16 117.16(12)
C8 C18 C12 119.86(13)
C8 C18 C16 120.72(14)
C16 C18 C12 119.41(13)
loop_
_geom_bond_atom_site_label_1
_geom_bond_atom_site_label_2
_geom_bond_distance
O1 C7 1.2198(17)
O2 C17 1.2225(18)
N1 C1 1.3415(19)
N1 C5 1.3358(19)
N2 C6 1.4755(19)
N2 C7 1.4015(18)
N2 C17 1.4031(18)
C1 H1 0.9500
C1 C2 1.383(2)
C2 H2 0.9500
C2 C3 1.383(2)
C3 H3 0.9500
C3 C4 1.393(2)
C4 C5 1.395(2)
C4 C6 1.5116(19)
C5 H5 0.9500
C6 H6A 0.9900
C6 H6B 0.9900
C7 C8 1.477(2)
C8 C9 1.381(2)
C8 C18 1.4151(19)
C9 H9 0.9500
C9 C10 1.406(2)
C10 H10 0.9500
C10 C11 1.375(2)
C11 H11 0.9500
C11 C12 1.419(2)
C12 C13 1.421(2)
C12 C18 1.419(2)
C13 H13 0.9500
C13 C14 1.372(2)
C14 H14 0.9500
C14 C15 1.402(2)
C15 H15 0.9500
C15 C16 1.372(2)
C16 C17 1.474(2)
C16 C18 1.4175(19)
loop_
_geom_torsion_atom_site_label_1
_geom_torsion_atom_site_label_2
_geom_torsion_atom_site_label_3
_geom_torsion_atom_site_label_4
_geom_torsion
O1 C7 C8 C9 0.5(2)
O1 C7 C8 C18 179.53(12)
N1 C1 C2 C3 -0.7(2)
N2 C7 C8 C9 -179.38(11)
N2 C7 C8 C18 -0.33(19)
C1 N1 C5 C4 0.7(2)
C1 C2 C3 C4 0.0(2)
C2 C3 C4 C5 0.9(2)
C2 C3 C4 C6 -177.42(13)
C3 C4 C5 N1 -1.3(2)
C3 C4 C6 N2 89.82(15)
C5 N1 C1 C2 0.4(2)
C5 C4 C6 N2 -88.46(15)
C6 N2 C7 O1 -2.58(19)
C6 N2 C7 C8 177.29(11)
C6 N2 C17 O2 2.94(19)
C6 N2 C17 C16 -176.85(11)
C6 C4 C5 N1 177.06(14)
C7 N2 C6 C4 -86.83(14)
C7 N2 C17 O2 -179.95(12)
C7 N2 C17 C16 0.3(2)
C7 C8 C9 C10 179.73(12)
C7 C8 C18 C12 -179.12(11)
C7 C8 C18 C16 0.0(2)
C8 C9 C10 C11 -0.3(2)
C9 C8 C18 C12 -0.1(2)
C9 C8 C18 C16 179.09(11)
C9 C10 C11 C12 -0.8(2)
C10 C11 C12 C13 -178.15(12)
C10 C11 C12 C18 1.4(2)
C11 C12 C13 C14 179.56(12)
C11 C12 C18 C8 -0.93(19)
C11 C12 C18 C16 179.90(12)
C12 C13 C14 C15 0.3(2)
C13 C12 C18 C8 178.60(11)
C13 C12 C18 C16 -0.57(19)
C13 C14 C15 C16 -0.1(2)
C14 C15 C16 C17 -179.22(12)
C14 C15 C16 C18 -0.4(2)
C15 C16 C17 O2 -1.5(2)
C15 C16 C17 N2 178.28(11)
C15 C16 C18 C8 -178.42(11)
C15 C16 C18 C12 0.7(2)
C17 N2 C6 C4 90.50(14)
C17 N2 C7 O1 -179.70(11)
C17 N2 C7 C8 0.2(2)
C17 C16 C18 C8 0.4(2)
C17 C16 C18 C12 179.57(11)
C18 C8 C9 C10 0.7(2)
C18 C12 C13 C14 0.1(2)
C18 C16 C17 O2 179.67(12)
C18 C16 C17 N2 -0.55(19)
