#------------------------------------------------------------------------------
#$Date: 2019-11-23 20:42:43 +0200 (Sat, 23 Nov 2019) $
#$Revision: 234906 $
#$URL: file:///home/coder/svn-repositories/cod/cif/4/34/95/4349592.cif $
#------------------------------------------------------------------------------
#
# This file is available in the Crystallography Open Database (COD),
# http://www.crystallography.net/
#
# All data on this site have been placed in the public domain by the
# contributors.
#
data_4349592
loop_
_publ_author_name
'Mahmoudi, Ghodrat'
'Safin, Damir A.'
'Mitoraj, Mariusz P.'
'Amini, Mojtaba'
'Kubicki, Maciej'
'Doert, Thomas'
'Locherer, Franziska'
'Fleck, Michel'
_publ_section_title
;
 Anion-driven tetrel bond-induced engineering of lead(ii) architectures
 with N&#x2032;-(1-(2-pyridyl)ethylidene)nicotinohydrazide: experimental
 and theoretical findings
;
_journal_issue                   1
_journal_name_full               'Inorganic Chemistry Frontiers'
_journal_page_first              171
_journal_paper_doi               10.1039/C6QI00477F
_journal_volume                  4
_journal_year                    2017
_chemical_formula_moiety         'C13 H11 N7 O Pb'
_chemical_formula_sum            'C13 H11 N7 O Pb'
_chemical_formula_weight         488.48
_space_group_crystal_system      triclinic
_space_group_IT_number           2
_space_group_name_Hall           '-P 1'
_space_group_name_H-M_alt        'P -1'
_atom_sites_solution_hydrogens   geom
_audit_creation_method           SHELXL-2013
_audit_update_record
;
2015-04-14 deposited with the CCDC.
2016-11-25 downloaded from the CCDC.
;
_cell_angle_alpha                85.982(6)
_cell_angle_beta                 77.230(7)
_cell_angle_gamma                71.633(6)
_cell_formula_units_Z            2
_cell_length_a                   7.4765(3)
_cell_length_b                   9.8748(5)
_cell_length_c                   10.3866(9)
_cell_measurement_temperature    296(2)
_cell_volume                     709.77(8)
_computing_cell_refinement       'Bruker SAINT'
_computing_data_collection       'Bruker APEX2'
_computing_data_reduction        'Bruker SAINT'
_computing_molecular_graphics    'Mercury (MacRae et al., 2009)'
_computing_publication_material  'SHELXL-2013 (Sheldrick, 2013)'
_computing_structure_refinement  'SHELXL-2013 (Sheldrick, 2013)'
_computing_structure_solution    'SIR92 (Altomare et al., 1993)'
_diffrn_ambient_temperature      296(2)
_diffrn_measured_fraction_theta_full 0.983
_diffrn_measured_fraction_theta_max 0.987
_diffrn_measurement_device_type  'Bruker APEX-II CCD'
_diffrn_measurement_method       '\f and \w scans'
_diffrn_radiation_monochromator  graphite
_diffrn_radiation_source         'fine-focus sealed tube'
_diffrn_radiation_type           MoK\a
_diffrn_radiation_wavelength     0.71073
_diffrn_reflns_av_R_equivalents  0.0384
_diffrn_reflns_av_unetI/netI     0.0368
_diffrn_reflns_Laue_measured_fraction_full 0.983
_diffrn_reflns_Laue_measured_fraction_max 0.987
_diffrn_reflns_limit_h_max       10
_diffrn_reflns_limit_h_min       -10
_diffrn_reflns_limit_k_max       13
_diffrn_reflns_limit_k_min       -13
_diffrn_reflns_limit_l_max       14
_diffrn_reflns_limit_l_min       -14
_diffrn_reflns_number            14106
_diffrn_reflns_point_group_measured_fraction_full 0.983
_diffrn_reflns_point_group_measured_fraction_max 0.987
_diffrn_reflns_theta_full        25.000
_diffrn_reflns_theta_max         29.996
_diffrn_reflns_theta_min         3.069
_exptl_absorpt_coefficient_mu    11.899
_exptl_absorpt_correction_T_max  0.1812
_exptl_absorpt_correction_T_min  0.0415
_exptl_absorpt_correction_type   multi-scan
_exptl_absorpt_process_details   'SADABS, Bruker-AXS, 2010'
_exptl_crystal_colour            colourless
_exptl_crystal_density_diffrn    2.286
_exptl_crystal_description       block
_exptl_crystal_F_000             456
_exptl_crystal_size_max          0.44
_exptl_crystal_size_mid          0.34
_exptl_crystal_size_min          0.22
_refine_diff_density_max         1.680
_refine_diff_density_min         -1.888
_refine_diff_density_rms         0.145
_refine_ls_extinction_method     none
_refine_ls_goodness_of_fit_ref   1.038
_refine_ls_hydrogen_treatment    constr
_refine_ls_matrix_type           full
_refine_ls_number_parameters     200
_refine_ls_number_reflns         4097
_refine_ls_number_restraints     0
_refine_ls_restrained_S_all      1.038
_refine_ls_R_factor_all          0.0263
_refine_ls_R_factor_gt           0.0239
_refine_ls_shift/su_max          0.001
_refine_ls_shift/su_mean         0.000
_refine_ls_structure_factor_coef Fsqd
_refine_ls_weighting_details
'w=1/[\s^2^(Fo^2^)+(0.0337P)^2^+0.2700P] where P=(Fo^2^+2Fc^2^)/3'
_refine_ls_weighting_scheme      calc
_refine_ls_wR_factor_gt          0.0611
_refine_ls_wR_factor_ref         0.0619
_reflns_Friedel_coverage         0.000
_reflns_number_gt                3831
_reflns_number_total             4097
_reflns_threshold_expression     'I > 2\s(I)'
_cod_data_source_file            c6qi00477f2.cif
_cod_data_source_block           1
_cod_database_code               4349592
_shelx_space_group_comment
;
The symmetry employed for this shelxl refinement is uniquely defined
by the following loop, which should always be used as a source of
symmetry information in preference to the above space-group names.
They are only intended as comments.
;
_shelx_estimated_absorpt_t_min   0.077
_shelx_estimated_absorpt_t_max   0.179
_shelxl_version_number           2013-4
_shelx_res_file
;
TITL  P-1
CELL  0.71073 7.4765 9.8748 10.3866 85.982 77.230 71.633
ZERR  2       0.0003 0.0005  0.0009  0.006  0.007  0.006
LATT  1
SFAC  C H N O Pb
UNIT  26 22 14 2 2
OMIT  0 60
OMIT -1 -1 1

acta 50
SIZE  0.44 0.34 0.22
L.S.  10
FMAP  2
PLAN -5
bond $h

mpla n1a c2a c3a c4a c5a c6a
mpla c3a c7a n8a c9a c10a c11a
mpla c11a n12a c13a c14a c15a c16a
mpla n1a c2a c3a c4a c5a c6a
conf
htab

WGHT    0.033700    0.270000
FVAR       0.21537
PB1   5    0.305080    0.419617    0.485980    11.00000    0.02690    0.02849 =
         0.02610   -0.00417   -0.00103   -0.00350
N1A   3    0.808227   -0.222109    0.327900    11.00000    0.04010    0.02556 =
         0.03181    0.00025    0.00124   -0.00137
C2A   1    0.715508   -0.083159    0.351009    11.00000    0.03447    0.02885 =
         0.02627   -0.00164    0.00591   -0.00199
AFIX  43
H2A   2    0.649236   -0.055701    0.436671    11.00000   -1.20000
AFIX   0
C3A   1    0.712034    0.022191    0.255512    11.00000    0.02731    0.02575 =
         0.02692   -0.00254    0.00327   -0.00463
C4A   1    0.810254   -0.019692    0.127825    11.00000    0.03870    0.03172 =
         0.02478   -0.00069    0.00592   -0.00928
AFIX  43
H4A   2    0.810535    0.047329    0.060313    11.00000   -1.20000
AFIX   0
C5A   1    0.908293   -0.163457    0.102337    11.00000    0.04539    0.03351 =
         0.03095   -0.01001    0.00623   -0.00772
AFIX  43
H5A   2    0.975296   -0.193894    0.017496    11.00000   -1.20000
AFIX   0
C6A   1    0.904927   -0.259785    0.203891    11.00000    0.03800    0.02955 =
         0.03834   -0.00731    0.00413   -0.00437
AFIX  43
H6A   2    0.972606   -0.355485    0.186144    11.00000   -1.20000
AFIX   0
C7A   1    0.600302    0.172433    0.293773    11.00000    0.02818    0.02612 =
         0.02651   -0.00160    0.00374   -0.00220
O7A   4    0.477984    0.191373    0.402037    11.00000    0.05058    0.02884 =
         0.03605    0.00122    0.01789    0.00168
N8A   3    0.639538    0.270811    0.209927    11.00000    0.03512    0.02354 =
         0.02959   -0.00257    0.00782   -0.00378
N9A   3    0.526325    0.405763    0.256165    11.00000    0.03163    0.02686 =
         0.03234   -0.00102    0.00096   -0.00452
C10A  1    0.556841    0.511823    0.184558    11.00000    0.03098    0.02642 =
         0.03042   -0.00053   -0.00140   -0.00590
C101  1    0.709067    0.491983    0.062076    11.00000    0.04754    0.03377 =
         0.04151   -0.00208    0.01034   -0.00933
AFIX 137
H10A  2    0.693843    0.425921    0.004940    11.00000   -1.50000
H10B  2    0.833583    0.455179    0.084249    11.00000   -1.50000
H10C  2    0.698157    0.582025    0.017882    11.00000   -1.50000
AFIX   0
C11A  1    0.434420    0.656893    0.231646    11.00000    0.03064    0.02797 =
         0.03393   -0.00044   -0.00553   -0.00719
N12A  3    0.319245    0.666699    0.352479    11.00000    0.04118    0.02930 =
         0.03426   -0.00143    0.00391   -0.00069
C13A  1    0.211443    0.796255    0.399328    11.00000    0.04377    0.03768 =
         0.04650   -0.00767    0.00459   -0.00119
AFIX  43
H13A  2    0.131986    0.803054    0.482831    11.00000   -1.20000
AFIX   0
C14A  1    0.212406    0.919491    0.330225    11.00000    0.04635    0.03139 =
         0.06020   -0.01097   -0.00732    0.00012
AFIX  43
H14A  2    0.137577    1.007752    0.367223    11.00000   -1.20000
AFIX   0
C15A  1    0.325116    0.910779    0.205947    11.00000    0.05503    0.02556 =
         0.06028    0.00195   -0.01607   -0.00659
AFIX  43
H15A  2    0.325212    0.992625    0.155884    11.00000   -1.20000
AFIX   0
C16A  1    0.439174    0.777330    0.156251    11.00000    0.04618    0.03101 =
         0.04264    0.00253   -0.00698   -0.00881
AFIX  43
H16A  2    0.518513    0.768851    0.072596    11.00000   -1.20000
AFIX   0
N1B   3    0.069669    0.410038    0.376994    11.00000    0.03254    0.05387 =
         0.04293   -0.01694   -0.00701   -0.00383
N2B   3    0.119392    0.337775    0.280656    11.00000    0.04333    0.03199 =
         0.03459    0.00038   -0.00937   -0.01019
N3B   3    0.162471    0.270511    0.187149    11.00000    0.08606    0.06412 =
         0.05064   -0.01889   -0.01654   -0.01733

HKLF  4

REM   P-1
REM R1 =  0.0239 for    3831 Fo > 4sig(Fo)  and  0.0263 for all    4097 data
REM    200 parameters refined using      0 restraints

END

WGHT      0.0335      0.2762

REM Instructions for potential hydrogen bonds
EQIV $1 -x+1, -y, -z+1
HTAB C2A O7A_$1
EQIV $2 -x+1, -y+1, -z
HTAB C101 N3B_$2

REM Highest difference peak  1.680,  deepest hole -1.888,  1-sigma level  0.145
Q1    1   0.3154  0.3924  0.5638  11.00000  0.05    1.68
Q2    1   0.2904  0.4498  0.4121  11.00000  0.05    1.59
Q3    1   0.2088  0.4033  0.4956  11.00000  0.05    1.15
Q4    1   0.4119  0.4182  0.4808  11.00000  0.05    0.98
Q5    1   0.4211  0.4722  0.3770  11.00000  0.05    0.83
;
_shelx_res_checksum              97903
_shelx_hkl_file
;
  -3   0   0  331.21   19.04
  -3   0   0  327.00   16.76
   3   0   0  323.04   16.78
   3   0   0  332.67   16.76
   3   0   0  330.54   16.75
  -4   0   0   13.58    0.98
   4   0   0   13.84    0.88
   4   0   0   13.87    0.86
  -5   0   0  416.98   23.70
   5   0   0  393.95   20.87
   5   0   0  414.62   20.87
  -6   0   0   47.16    2.96
   6   0   0   45.30    2.61
   6   0   0   49.88    2.63
   6   0   0   45.05    2.61
   7   0   0   63.62    3.35
   7   0   0   60.34    3.36
   7   0   0   56.29    3.30
   8   0   0  100.95    5.80
   8   0   0  114.66    5.83
   9   0   0    0.34    0.67
   9   0   0   -0.06    0.56
  10   0   0   33.11    2.34
  10  -1   0   12.71    1.31
   9  -1   0   15.55    1.33
   9  -1   0   14.47    1.37
   8  -1   0   82.70    4.43
   8  -1   0   77.93    4.43
   7  -1   0    8.90    0.88
   7  -1   0   10.92    0.93
   7  -1   0   10.82    0.93
   6  -1   0  147.53    8.05
   6  -1   0  160.68    8.08
   6  -1   0  156.83    8.07
   5  -1   0  227.01   11.72
   5  -1   0  229.18   11.72
   4  -1   0   77.41    3.96
   4  -1   0   75.64    3.95
   4  -1   0   73.83    3.96
   3  -1   0  572.68   29.11
  -2   1   0  289.69   20.02
  -1  -1   0    6.00    0.38
  -1  -1   0    8.17    0.40
  -1  -1   0    6.17    0.39
   1   1   0    7.83    0.39
   1   1   0    6.44    0.39
  -2  -1   0   35.73    1.94
  -2  -1   0   38.03    1.95
   2   1   0   35.48    1.94
   2   1   0   34.57    1.94
   2   1   0   36.22    1.95
  -3  -1   0  227.35   12.90
  -3  -1   0  220.96   11.35
   3   1   0  214.35   11.36
   3   1   0  225.36   11.35
  -4  -1   0  231.62   13.33
  -4  -1   0  228.61   11.73
   4   1   0  225.96   11.74
   4   1   0  228.99   11.73
  -5  -1   0  358.59   20.77
   5   1   0  359.31   18.29
   5   1   0  354.41   18.30
  -6  -1   0    2.26    0.46
   6   1   0    3.35    0.47
   6   1   0    2.45    0.46
   6   1   0    1.75    0.41
   7   1   0  123.95    6.95
   7   1   0  139.06    6.97
   8   1   0   44.83    2.59
   8   1   0   40.49    2.60
   9   1   0   16.50    1.35
   9   1   0   11.52    1.19
  10   1   0   19.68    1.70
   9  -2   0   27.67    1.82
   9  -2   0   25.33    1.86
  -9   2   0   24.32    1.91
   8  -2   0   57.64    3.34
   8  -2   0   57.42    3.31
  -8   2   0   60.36    3.96
   7  -2   0    2.10    0.49
   7  -2   0    1.15    0.51
   7  -2   0    1.16    0.43
   6  -2   0  145.49    7.54
   6  -2   0  150.88    7.54
   6  -2   0  137.43    7.52
   5  -2   0   49.40    2.69
   5  -2   0   49.62    2.70
  -5   2   0   50.50    3.06
   4  -2   0  142.29    7.16
   4  -2   0  139.83    7.17
   4  -2   0  135.56    7.17
  -4   2   0  139.11    8.14
   3  -2   0  573.45   28.30
  -3   2   0  540.18   38.41
   2  -2   0   22.05    1.23
  -2   2   0   23.37    1.40
  -2   2   0   23.32    1.79
   0  -2   0  101.91    5.37
   0  -2   0  104.08    5.43
   0  -2   0  105.68    5.35
   0  -2   0  101.40    6.40
   0  -2   0  108.32    7.26
   0  -2   0  100.07    6.85
   0   2   0  108.01    6.37
   0   2   0  106.05    5.39
  -3  -2   0   28.93    1.84
  -3  -2   0   29.29    1.63
   3   2   0   30.74    1.63
   3   2   0   28.84    1.63
  -4  -2   0  621.67   35.95
  -4  -2   0  611.54   31.66
  -4  -2   0  633.65   31.69
   4   2   0  620.83   31.68
  -5  -2   0  211.80   10.91
  -5  -2   0  215.28   12.39
   5   2   0  213.05   10.91
   5   2   0  206.15   10.90
  -6  -2   0   34.71    1.95
  -6  -2   0   31.94    2.16
   6   2   0   33.03    1.93
   6   2   0   34.55    1.95
   6   2   0   29.06    1.88
   7   2   0  153.83    7.89
   7   2   0  145.28    7.88
   8   2   0    5.50    0.78
   8   2   0    6.37    0.78
   9   2   0   54.58    3.27
  10   2   0   20.71    1.83
   9  -3   0   37.52    2.23
   9  -3   0   34.75    2.28
  -9   3   0   30.89    2.35
  -9   3   0   36.37    2.67
   8  -3   0   13.38    1.17
   8  -3   0   13.68    1.10
  -8   3   0   11.76    1.14
  -8   3   0   13.57    1.38
   7  -3   0   44.88    2.65
   7  -3   0   44.65    2.62
   7  -3   0   46.39    2.63
  -7   3   0   49.96    3.16
   6  -3   0   91.65    4.97
   6  -3   0   98.75    4.98
   6  -3   0   91.82    4.97
   5  -3   0    4.82    0.46
   5  -3   0    4.76    0.47
   5  -3   0    4.52    0.45
  -5   3   0    5.85    0.61
   4  -3   0  322.70   16.63
   4  -3   0  328.17   16.65
  -4   3   0  324.57   22.72
  -4   3   0  329.84   18.91
   3  -3   0   80.88    4.18
   3  -3   0   81.77    4.18
  -3   3   0   81.91    5.84
  -3   3   0   79.62    4.76
  -2   3   0  405.23   26.67
  -2   3   0  366.25   22.40
  -1   3   0  691.65   47.62
   0  -3   0    4.76    0.35
   0  -3   0    4.10    0.31
   0  -3   0    4.28    0.29
   0  -3   0    3.79    0.34
   0  -3   0    4.15    0.28
   0   3   0    4.47    0.48
   0   3   0    4.46    0.28
   0   3   0    4.41    0.36
   0   3   0    4.50    0.29
  -1  -3   0  379.29   25.45
   1   3   0  376.36   25.46
   1   3   0  415.71   26.94
  -2  -3   0  321.40   16.25
  -2  -3   0  327.45   16.27
   2   3   0  317.59   16.26
   2   3   0  306.32   16.24
   2   3   0  321.19   16.26
  -3  -3   0  138.34    7.15
  -3  -3   0  138.80    7.16
   3   3   0  136.95    7.14
   3   3   0  140.78    7.15
   3   3   0  137.32    7.14
  -4  -3   0  627.11   32.55
  -4  -3   0  643.86   36.96
   4   3   0  665.80   32.59
   4   3   0  631.62   32.57
   4   3   0  627.66   32.54
  -5  -3   0    5.46    0.56
  -5  -3   0    5.60    0.62
  -5  -3   0    6.47    0.59
   5   3   0    7.02    0.56
   5   3   0    5.21    0.54
   5   3   0    4.89    0.55
  -6  -3   0  156.69    8.48
  -6  -3   0  171.13    9.65
   6   3   0  169.67    8.50
   6   3   0  157.43    8.48
   6   3   0  157.54    8.46
   7   3   0   65.27    3.82
   7   3   0   72.44    3.84
   8   3   0   14.89    1.19
   8   3   0   12.16    1.23
   9   3   0   56.87    3.42
  10   3   0    6.67    1.12
   9  -4   0   27.17    2.00
  -9   4   0   31.52    2.42
   8  -4   0   -0.22    0.49
   8  -4   0    1.29    0.62
  -8   4   0    1.20    0.65
  -8   4   0    0.66    0.50
   7  -4   0   84.96    4.69
   7  -4   0   89.23    4.71
   7  -4   0   89.33    4.73
  -7   4   0   80.44    5.25
  -7   4   0   95.64    5.60
   6  -4   0   44.47    2.48
   6  -4   0   43.01    2.46
   6  -4   0   43.89    2.46
  -6   4   0   46.41    2.93
   5  -4   0   78.04    4.05
   5  -4   0   72.23    4.04
   5  -4   0   78.92    4.06
  -5   4   0   77.35    4.64
  -5   4   0   78.19    4.79
   4  -4   0  311.05   15.57
   4  -4   0  303.55   15.55
   4  -4   0  304.30   15.56
  -4   4   0  306.93   21.30
  -4   4   0  299.49   17.72
   3  -4   0    0.42    0.15
   3  -4   0    0.55    0.16
  -3   4   0    0.48    0.47
  -3   4   0   -0.08    0.19
   2  -4   0  370.19   18.13
  -2   4   0  340.04   24.59
  -2   4   0  354.52   21.47
   1  -4   0  368.52   18.35
  -1   4   0  354.98   21.74
  -1   4   0  350.33   24.75
   0  -4   0   48.86    2.52
   0  -4   0   48.19    2.53
   0  -4   0   47.34    2.52
   0  -4   0   49.09    2.88
   0  -4   0   46.82    2.53
   0   4   0   52.04    2.56
   0   4   0   51.04    3.00
   0   4   0   47.04    3.33
   0   4   0   47.30    2.20
   0   4   0   48.94    3.54
  -2  -4   0  138.85    7.19
  -2  -4   0  142.18    7.20
   2   4   0  142.89    7.18
   2   4   0  134.25    7.18
   2   4   0  139.84    7.19
   2   4   0  139.20    9.29
  -3  -4   0  431.56   22.01
  -3  -4   0  442.05   22.04
   3   4   0  436.99   22.00
   3   4   0  440.91   22.02
   3   4   0  406.84   22.01
  -4  -4   0  338.85   17.31
  -4  -4   0  347.12   17.33
   4   4   0  327.42   17.30
   4   4   0  332.09   17.31
   4   4   0  345.74   17.32
  -5  -4   0   45.50    2.64
   5   4   0   47.16    2.63
   5   4   0   46.64    2.66
   5   4   0   51.11    2.66
  -6  -4   0  172.87    9.16
   6   4   0  170.78    9.16
   6   4   0  162.97    9.12
   6   4   0  196.41    9.20
  -7  -4   0   35.66    2.21
   7   4   0   33.66    2.16
   7   4   0   37.49    2.17
   8   4   0   31.07    2.08
   9   4   0   46.33    2.92
  10   4   0    1.21    0.83
  11   4   0   17.32    1.72
   8  -5   0   10.90    1.03
   8  -5   0   11.90    1.18
  -8   5   0   12.75    1.34
   7  -5   0   55.90    3.02
   7  -5   0   51.44    2.95
   7  -5   0   53.38    2.96
  -7   5   0   48.77    3.23
  -7   5   0   58.64    3.57
   6  -5   0    1.52    0.38
   6  -5   0    0.95    0.38
   6  -5   0    1.28    0.43
  -6   5   0    1.23    0.34
  -6   5   0    1.81    0.49
   5  -5   0  102.53    5.43
   5  -5   0  101.81    5.42
   5  -5   0  107.30    5.44
  -5   5   0  106.86    6.43
  -5   5   0  102.96    6.10
   4  -5   0  124.91    6.51
   4  -5   0  126.17    6.53
  -4   5   0  128.33    7.71
  -4   5   0  123.06    9.13
  -4   5   0  130.43    7.57
   3  -5   0   17.19    0.92
   3  -5   0   16.17    0.90
   3  -5   0   15.16    0.87
  -3   5   0   15.35    1.58
  -3   5   0   15.81    1.07
   2  -5   0  205.07   10.44
  -2   5   0  201.91   12.36
   1  -5   0   42.79    2.22
   1  -5   0   43.83    2.23
  -1   5   0   42.02    3.23
  -1   5   0   42.10    2.64
   0  -5   0  451.64   25.54
   0  -5   0  432.32   22.51
   0   5   0  426.03   28.83
   0   5   0  457.16   30.53
  -1  -5   0  406.77   20.40
  -1  -5   0  409.26   20.45
   1   5   0  380.68   26.18
   1   5   0  405.63   20.40
   1   5   0  402.71   27.71
  -2  -5   0    2.41    0.33
  -2  -5   0    2.92    0.32
  -2  -5   0    2.83    0.31
   2   5   0    3.32    0.32
   2   5   0    2.47    0.29
   2   5   0    2.76    0.46
   2   5   0    2.59    0.29
   2   5   0    2.81    0.47
  -3  -5   0  248.29   12.81
  -3  -5   0  257.19   12.83
   3   5   0  249.61   12.80
   3   5   0  248.78   12.80
   3   5   0  244.71   12.81
  -4  -5   0   15.88    1.10
  -4  -5   0   17.74    1.09
   4   5   0   17.66    1.08
   4   5   0   16.76    1.07
   4   5   0   15.77    1.06
  -5  -5   0  119.04    6.06
  -5  -5   0  114.85    6.05
   5   5   0  114.43    6.03
   5   5   0  110.12    6.03
  -6  -5   0  121.27    6.93
   6   5   0  136.47    6.97
   6   5   0  141.61    6.97
   6   5   0  127.03    6.92
  -7  -5   0    0.26    0.50
   7   5   0    1.03    0.51
   7   5   0    0.42    0.53
  -8  -5   0   83.49    4.57
   8   5   0   79.08    4.57
   9   5   0   14.87    1.47
  10   5   0   14.78    1.48
  11   5   0   15.13    1.72
  -8   6   0   23.78    1.95
   7  -6   0   14.57    1.11
   7  -6   0   15.67    1.24
   7  -6   0   14.99    1.15
  -7   6   0   16.26    1.39
  -7   6   0   17.59    1.05
   6  -6   0   10.67    0.93
   6  -6   0   10.14    0.82
   6  -6   0    9.74    0.79
  -6   6   0   11.11    1.02
   5  -6   0   94.86    5.13
   5  -6   0  101.77    5.18
   5  -6   0   91.70    5.13
  -5   6   0  102.57    6.11
  -5   6   0  104.19    7.43
   4  -6   0   15.11    0.94
   4  -6   0   13.07    0.84
  -4   6   0   14.93    1.06
  -4   6   0   14.57    1.67
   3  -6   0  112.87    6.64
   3  -6   0  145.60    6.61
  -3   6   0  147.76    9.32
  -3   6   0  111.72    7.84
   2  -6   0  230.75   11.90
   2  -6   0  235.63   11.83
  -2   6   0  229.90   14.00
  -2   6   0  228.85   16.23
   1  -6   0   10.49    0.62
   1  -6   0    9.82    0.62
   1  -6   0    9.95    0.62
  -1   6   0   10.45    1.13
  -1   6   0   11.26    0.73
   0  -6   0  365.44   18.51
   0  -6   0  371.30   21.07
   0  -6   0  366.25   18.54
   0  -6   0  357.78   18.56
   0   6   0  369.44   25.25
   0   6   0  367.17   16.16
   0   6   0  349.68   23.83
  -1  -6   0   58.84    3.03
  -1  -6   0   59.60    3.44
  -1  -6   0   54.35    3.00
  -1  -6   0   60.21    3.04
   1   6   0   56.73    4.22
   1   6   0   54.31    3.96
  -2  -6   0  212.31   10.61
  -2  -6   0  211.75   10.59
   2   6   0  211.03   14.40
   2   6   0  205.91   10.56
   2   6   0  207.27   10.56
   2   6   0  188.66   13.60
  -3  -6   0  239.76   15.71
  -3  -6   0  263.94   13.33
  -3  -6   0  270.41   13.35
   3   6   0  269.29   13.31
   3   6   0  253.52   13.30
   3   6   0  258.17   17.16
   3   6   0  262.16   18.07
  -4  -6   0    8.42    0.75
  -4  -6   0    8.36    0.69
   4   6   0    8.35    0.73
   4   6   0    9.05    0.70
  -5  -6   0  221.49   12.25
  -5  -6   0  246.44   12.28
   5   6   0  250.93   12.27
   5   6   0  239.35   12.26
   5   6   0  227.36   12.24
  -6  -6   0   86.31    4.50
  -6  -6   0   80.33    4.48
   6   6   0   80.44    4.48
  -7  -6   0   18.51    1.45
   7   6   0   23.01    1.56
  -8  -6   0   61.32    3.67
   8   6   0   65.46    3.72
   9   6   0    1.40    0.78
  10   6   0   19.93    1.85
   7  -7   0    3.39    0.53
  -7   7   0    4.48    0.54
  -7   7   0    2.84    0.54
  -7   7   0    4.71    0.75
   6  -7   0   32.48    1.92
   6  -7   0   32.49    1.93
  -6   7   0   37.47    1.71
  -6   7   0   33.75    2.39
   5  -7   0   66.93    3.50
   5  -7   0   66.94    3.52
  -5   7   0   60.42    4.21
  -5   7   0   74.40    5.37
   4  -7   0   17.93    1.01
   4  -7   0   16.97    1.10
  -4   7   0   17.96    1.96
  -4   7   0   16.40    1.25
   3  -7   0  209.21   10.53
   3  -7   0  203.63   10.54
  -3   7   0  206.10   12.47
  -3   7   0  203.84   14.61
   2  -7   0   32.26    1.76
   2  -7   0   32.53    1.71
  -2   7   0   32.59    2.74
  -2   7   0   32.62    2.03
   1  -7   0  105.72    5.26
   1  -7   0   97.93    5.27
   1  -7   0  102.82    5.26
  -1   7   0  102.69    4.59
  -1   7   0  101.67    7.40
   0  -7   0  167.36    9.36
   0  -7   0  161.93    8.23
   0  -7   0  161.18    8.25
   0  -7   0  161.44    8.22
   0   7   0  152.34   10.68
   0   7   0  157.59   11.35
  -1  -7   0   13.95    0.89
  -1  -7   0   14.90    0.92
  -1  -7   0   15.01    1.04
  -1  -7   0   14.87    0.91
   1   7   0   15.18    1.45
   1   7   0   15.42    0.86
   1   7   0   12.97    1.28
  -2  -7   0  237.79   12.20
  -2  -7   0  247.36   12.22
   2   7   0  236.12   16.59
   2   7   0  231.93   15.69
   2   7   0  234.55   12.16
  -3  -7   0   92.07    4.85
  -3  -7   0   94.25    4.85
   3   7   0   84.99    6.26
   3   7   0   92.09    4.82
   3   7   0   91.76    4.80
   3   7   0   94.16    6.62
  -4  -7   0   64.65    3.55
  -4  -7   0   64.07    3.54
   4   7   0   63.78    3.52
   4   7   0   65.61    4.83
   4   7   0   63.63    4.68
   4   7   0   68.10    3.52
  -5  -7   0  159.89    8.77
  -5  -7   0  161.97    8.77
   5   7   0  169.98    8.77
   5   7   0  178.85    8.77
  -6  -7   0    1.92    0.57
  -6  -7   0    2.12    0.48
   6   7   0    2.08    0.56
  -7  -7   0   41.21    2.61
   7   7   0   44.18    2.64
  -8  -7   0   11.42    1.19
   8   7   0   14.06    1.33
  -9  -7   0   17.56    1.63
   9   7   0   18.82    1.67
  10   7   0   23.10    2.03
  -7   8   0    2.63    0.50
   6  -8   0   35.40    2.12
   6  -8   0   36.40    2.20
  -6   8   0   42.98    1.92
  -6   8   0   40.75    2.49
  -6   8   0   37.55    2.41
   5  -8   0   15.61    1.01
   5  -8   0   16.55    1.09
  -5   8   0   18.35    2.21
  -5   8   0   17.62    1.10
  -5   8   0   16.46    0.92
   4  -8   0   34.19    2.01
  -4   8   0   37.07    3.26
  -4   8   0   37.48    1.68
   3  -8   0   83.36    4.64
  -3   8   0   96.49    6.73
   2  -8   0    0.33    0.21
   2  -8   0    0.35    0.17
  -2   8   0    0.31    0.69
   1  -8   0  207.36   10.19
   1  -8   0  193.45   10.21
  -1   8   0  196.98   14.12
   0  -8   0   88.07    4.63
   0  -8   0   89.75    4.65
   0  -8   0   89.93    5.27
   0   8   0   88.63    6.55
  -1  -8   0   63.75    3.37
  -1  -8   0   63.47    3.38
  -1  -8   0   63.43    3.83
   1   8   0   65.01    4.78
   1   8   0   61.62    4.45
  -2  -8   0  169.82    9.82
  -2  -8   0  169.81    8.66
  -2  -8   0  171.18    8.65
   2   8   0  164.25   11.81
   2   8   0  166.18    8.60
   2   8   0  160.58   11.14
  -3  -8   0    3.73    0.50
  -3  -8   0    4.06    0.50
   3   8   0    4.43    0.78
   3   8   0    3.70    0.44
  -4  -8   0  148.82    7.64
  -4  -8   0  142.86    7.62
   4   8   0  151.17   10.36
   4   8   0  140.99    7.59
   4   8   0  143.07    9.86
  -5  -8   0   64.63    3.64
  -5  -8   0   61.67    3.64
   5   8   0   66.32    3.63
   5   8   0   69.37    4.97
   5   8   0   65.70    4.81
  -6  -8   0    8.80    0.95
  -6  -8   0   10.06    0.95
   6   8   0   12.49    1.07
  -7  -8   0   65.26    3.85
   7   8   0   68.98    3.84
  -8  -8   0    4.27    0.86
   8   8   0    3.71    0.84
  -9  -8   0   27.26    2.14
   9   8   0   29.86    2.19
  10   8   0   19.72    1.91
  -6   9   0   42.26    2.08
   5  -9   0    0.08    0.26
   5  -9   0   -0.42    0.37
  -5   9   0    0.19    0.29
  -5   9   0    0.63    1.17
   4  -9   0   68.31    3.72
  -4   9   0   74.40    5.65
  -4   9   0   69.50    3.19
   3  -9   0   31.83    1.77
  -3   9   0   35.12    3.06
   2  -9   0   26.87    1.50
   2  -9   0   27.39    1.46
  -2   9   0   28.40    2.59
   1  -9   0  107.83    5.60
   1  -9   0  110.38    5.58
  -1   9   0  105.38    7.94
   0  -9   0    4.25    0.43
   0  -9   0    3.93    0.43
   0   9   0    4.17    0.92
  -1  -9   0  115.69    5.86
  -1  -9   0  112.12    5.87
   1   9   0  111.38    8.16
   1   9   0  109.39    7.65
  -2  -9   0  143.18    7.38
  -2  -9   0  143.07    7.39
   2   9   0  137.35    9.54
   2   9   0  142.27   10.13
  -3  -9   0   28.51    1.73
  -3  -9   0   27.27    1.74
   3   9   0   32.24    2.34
   3   9   0   27.23    1.66
   3   9   0   27.88    2.44
  -4  -9   0  161.51    8.62
  -4  -9   0  162.98    8.63
   4   9   0  167.77   11.73
   4   9   0  165.95    8.59
   4   9   0  165.28   11.12
  -5  -9   0    5.98    0.71
  -5  -9   0    4.68    0.70
   5   9   0    6.50    0.73
   5   9   0    5.68    0.99
   5   9   0    5.62    1.04
  -6  -9   0   48.70    3.02
   6   9   0   56.67    4.13
   6   9   0   51.44    3.02
   6   9   0   48.43    3.95
  -7  -9   0   41.92    2.79
   7   9   0   42.95    3.70
   7   9   0   48.47    2.83
   7   9   0   48.33    3.80
  -8  -9   0    2.72    0.81
   8   9   0    1.23    0.80
  -9  -9   0   15.60    1.57
   9   9   0   19.05    1.73
  10   9   0    3.57    1.10
  -5  10   0   14.43    2.14
   4 -10   0   50.85    2.75
  -4  10   0   57.19    4.60
   3 -10   0    4.79    0.42
  -3  10   0    4.62    1.24
   2 -10   0   51.80    2.75
  -2  10   0   51.76    4.28
   1 -10   0   43.52    2.31
   1 -10   0   43.35    2.33
  -1  10   0   41.80    3.62
   0 -10   0   21.40    1.27
   0 -10   0   21.07    1.27
   0  10   0   20.21    2.13
  -1 -10   0  150.10    7.62
  -1 -10   0  147.22    7.60
   1  10   0  142.58    9.90
   1  10   0  144.65   10.55
  -2 -10   0    8.22    0.76
  -2 -10   0    7.75    0.72
   2  10   0    6.86    1.13
   2  10   0    6.46    0.96
  -3 -10   0   64.98    3.46
  -3 -10   0   61.90    3.45
   3  10   0   59.82    4.77
   3  10   0   61.93    4.50
  -4 -10   0   35.61    2.25
  -4 -10   0   35.54    2.21
   4  10   0   38.63    2.96
   4  10   0   38.63    3.14
  -5 -10   0    0.24    0.48
  -5 -10   0    0.56    0.54
   5  10   0    0.03    0.71
   5  10   0    0.86    0.72
   5  10   0    0.21    0.51
  -6 -10   0   36.69    2.42
   6  10   0   42.68    3.35
   6  10   0   35.62    3.13
   6  10   0   39.25    2.42
  -7 -10   0    9.50    1.09
   7  10   0    9.37    1.14
   7  10   0   11.21    1.50
   7  10   0    9.27    1.46
  -8 -10   0   13.24    1.37
   8  10   0   13.28    1.74
   8  10   0   14.73    1.41
  -9 -10   0   12.64    1.46
   9  10   0   15.52    1.55
  10  10   0   -0.30    0.98
  -4  11   0   35.57    3.54
   3 -11   0    1.80    0.27
  -3  11   0    2.75    1.23
   2 -11   0   32.76    1.83
  -2  11   0   34.81    3.19
   1 -11   0    9.58    0.73
  -1  11   0    9.14    1.46
   0 -11   0   34.70    1.95
   0 -11   0   33.33    1.94
   0  11   0   34.80    3.09
  -1 -11   0   60.16    3.28
  -1 -11   0   59.72    3.28
   1  11   0   60.39    4.77
  -2 -11   0    4.10    0.58
  -2 -11   0    3.27    0.59
   2  11   0    4.62    0.88
   2  11   0    3.59    1.02
  -3 -11   0   59.77    3.31
  -3 -11   0   57.10    3.31
   3  11   0   59.57    4.35
   3  11   0   59.11    4.65
  -4 -11   0   23.98    1.60
  -4 -11   0   22.92    1.64
   4  11   0   24.17    2.15
   4  11   0   22.83    2.34
  -5 -11   0   21.32    1.55
  -5 -11   0   22.58    1.59
   5  11   0   21.70    2.22
   5  11   0   19.43    2.04
  -6 -11   0   42.89    2.79
   6  11   0   50.33    3.86
   6  11   0   43.55    3.58
  -7 -11   0    0.82    0.79
   7  11   0    0.10    0.98
  -8 -11   0   24.17    1.96
  -9 -11   0    5.18    1.12
  -3  12   0   18.40    2.46
   2 -12   0   20.87    1.25
  -2  12   0   22.90    2.54
   1 -12   0    2.85    0.44
  -1  12   0    2.01    1.13
   0 -12   0   81.87    4.28
   0 -12   0   80.69    4.24
   0  12   0   75.78    6.21
  -1 -12   0   13.83    1.08
  -1 -12   0   14.85    1.08
   1  12   0   12.24    1.77
  -2 -12   0   28.48    1.79
  -2 -12   0   28.19    1.80
   2  12   0   28.90    2.74
   2  12   0   27.61    2.48
  -3 -12   0   46.36    2.84
  -3 -12   0   51.37    2.86
   3  12   0   49.94    4.12
   3  12   0   48.20    3.77
  -4 -12   0    0.27    0.51
  -4 -12   0    0.32    0.60
   4  12   0    1.33    0.83
   4  12   0   -0.25    0.95
  -5 -12   0   44.83    2.74
  -5 -12   0   41.73    2.73
   5  12   0   47.79    3.80
   5  12   0   44.63    3.55
  -6 -12   0   11.88    1.25
   6  12   0   11.61    1.59
  -7 -12   0    5.10    0.98
   7  12   0    6.11    1.37
  -8 -12   0   12.91    1.42
  -2  13   0    8.29    1.72
  -1  13   0   11.03    1.80
   0 -13   0   36.12    2.11
   0  13   0   35.76    3.38
  -1 -13   0    1.25    0.51
  -1 -13   0    0.08    0.47
   1  13   0    1.41    1.09
  -2 -13   0   13.39    1.18
  -2 -13   0   15.00    1.18
   2  13   0   13.64    1.82
  -3 -13   0   23.18    1.51
  -3 -13   0   19.13    1.52
   3  13   0   18.42    2.03
   3  13   0   18.54    2.35
  -4 -13   0    3.87    0.78
  -4 -13   0    3.12    0.73
   4  13   0    3.63    1.01
   4  13   0    3.35    1.25
  -5 -13   0   26.12    1.99
   5  13   0   29.43    2.89
  -6 -13   0    1.71    0.79
   6  13   0    1.05    1.15
  -7 -13   0   11.21    1.30
  -8 -13   0    7.50    1.28
   0  14   0   11.46    1.86
   1  14   0    3.03    1.36
  -2 -14   0   26.28    1.72
  -2 -14   0   25.21    1.74
   2  14   0   22.38    2.69
  -3 -14   0    1.56    0.70
  -3 -14   0    2.44    0.70
   3  14   0    1.55    1.15
  -4 -14   0   16.73    1.49
  -4 -14   0   15.90    1.44
   4  14   0   17.68    2.31
  -5 -14   0    8.30    1.14
   5  14   0    9.38    1.70
  -6 -14   0    1.51    0.85
   6  14   0    2.03    1.30
  -6 -14   1   -0.04    0.83
   5  14  -1   14.89    1.93
  -5 -14   1   13.14    1.35
   4  14  -1   13.78    1.86
  -4 -14   1   12.23    1.23
  -4 -14   1   12.84    1.22
   3  14  -1    1.21    1.16
   3  14  -1    1.74    1.07
  -3 -14   1    1.08    0.60
  -3 -14   1    0.87    0.68
   2  14  -1   25.10    2.65
  -2 -14   1   21.42    1.62
  -2 -14   1   22.58    1.60
   1  14  -1    4.94    1.34
   0  14  -1   16.34    2.17
  -7 -13   1    8.64    1.16
   6  13  -1    1.54    1.13
  -6 -13   1    2.16    0.81
   5  13  -1   27.71    2.65
   5  13  -1   23.72    2.50
  -5 -13   1   23.01    1.81
   4  13  -1    7.15    1.37
   4  13  -1    9.45    1.48
  -4 -13   1    7.29    0.95
  -4 -13   1    7.96    0.94
   3  13  -1   10.03    1.55
   3  13  -1   11.71    1.66
  -3 -13   1   12.27    1.13
  -3 -13   1   11.53    1.08
   2  13  -1   25.01    2.58
   2  13  -1   24.07    2.42
  -2 -13   1   23.25    1.64
  -2 -13   1   23.98    1.62
   1  13  -1    1.45    1.01
  -1 -13   1    1.92    0.51
  -1 -13   1    1.33    0.52
   0  13  -1   30.45    3.04
   0 -13   1   30.63    1.83
  -1  13  -1    7.30    1.48
  -2  13  -1    5.47    1.47
  -8 -12   1   13.26    1.43
  -7 -12   1    3.15    0.88
   6  12  -1   14.71    1.84
   6  12  -1   15.55    2.00
  -6 -12   1   13.89    1.40
   5  12  -1   23.82    2.39
   5  12  -1   23.93    2.39
  -5 -12   1   23.06    1.74
  -5 -12   1   21.18    1.66
   4  12  -1    0.92    0.95
   4  12  -1    0.90    0.95
  -4 -12   1    1.23    0.60
  -4 -12   1    1.06    0.63
   3  12  -1   47.30    3.94
   3  12  -1   50.67    3.83
  -3 -12   1   46.12    2.76
  -3 -12   1   45.89    2.76
   2  12  -1   13.30    1.62
   2  12  -1   13.61    1.79
  -2 -12   1   12.90    1.09
  -2 -12   1   12.12    1.05
   1  12  -1   13.36    1.74
  -1 -12   1   14.59    1.04
  -1 -12   1   13.11    1.06
   0  12  -1   29.26    2.78
   0 -12   1   26.68    1.70
   0 -12   1   30.71    1.72
  -1  12  -1    0.39    0.95
   1 -12   1    0.23    0.35
  -2  12  -1   29.53    2.85
   2 -12   1   26.05    1.49
  -3  12  -1   13.76    2.00
  -8 -11   1   18.62    1.72
   7  11  -1    0.21    0.98
  -7 -11   1   -0.41    0.68
   6  11  -1   34.09    2.79
   6  11  -1   28.11    2.81
  -6 -11   1   28.58    2.07
   5  11  -1   20.60    2.17
   5  11  -1   20.58    2.07
  -5 -11   1   18.28    1.46
  -5 -11   1   19.68    1.50
   4  11  -1   23.37    2.28
   4  11  -1   24.66    2.35
  -4 -11   1   24.49    1.65
  -4 -11   1   23.39    1.63
   3  11  -1   70.37    5.14
   3  11  -1   70.64    5.33
  -3 -11   1   71.00    3.85
  -3 -11   1   66.74    3.83
   2  11  -1    0.82    0.75
   2  11  -1    0.79    0.84
  -2 -11   1    0.34    0.46
  -2 -11   1    1.04    0.45
   1  11  -1   51.10    3.96
   1  11  -1   51.47    4.13
  -1 -11   1   49.88    2.83
  -1 -11   1   52.74    2.84
   0  11  -1   34.14    3.05
   0 -11   1   35.29    1.96
   0 -11   1   34.00    1.95
  -1  11  -1   16.25    1.91
   1 -11   1   15.48    0.99
  -2  11  -1   56.21    4.51
   2 -11   1   53.05    2.84
  -3  11  -1    6.39    1.41
  -4  11  -1   26.65    2.90
   9  10  -1   17.02    1.66
   8  10  -1    8.01    1.10
   8  10  -1    4.40    1.40
  -8 -10   1    7.43    1.08
   7  10  -1   13.97    1.34
   7  10  -1   11.48    1.73
   7  10  -1   14.09    1.78
  -7 -10   1   12.32    1.25
   6  10  -1   38.79    3.44
   6  10  -1   43.44    3.35
   6  10  -1   42.31    2.51
  -6 -10   1   36.42    2.50
   5  10  -1    1.44    0.92
   5  10  -1    1.31    0.75
  -5 -10   1    1.31    0.64
  -5 -10   1    1.44    0.55
   4  10  -1   85.04    6.00
   4  10  -1   83.82    6.12
  -4 -10   1   79.82    4.50
  -4 -10   1   81.69    4.50
   3  10  -1   27.62    2.42
   3  10  -1   27.61    2.43
  -3 -10   1   26.15    1.68
  -3 -10   1   28.05    1.73
   2  10  -1   15.14    1.66
   2  10  -1   13.05    1.61
  -2 -10   1   15.30    1.04
  -2 -10   1   14.87    1.06
   1  10  -1  109.33    8.02
   1  10  -1  110.26    7.64
  -1 -10   1  110.33    5.76
  -1 -10   1  109.53    5.77
   0  10  -1   11.34    1.51
   0 -10   1   11.92    0.81
   0 -10   1   10.55    0.80
  -1  10  -1   42.81    3.62
   1 -10   1   42.98    2.34
   1 -10   1   45.03    2.35
  -2  10  -1   31.14    2.83
   2 -10   1   30.12    1.64
  -3  10  -1    4.43    1.17
  -4  10  -1   43.64    3.89
  10   9  -1    4.44    1.16
   9   9  -1   20.79    1.86
   8   9  -1    0.81    0.77
  -8  -9   1    0.54    0.74
   7   9  -1   50.72    3.65
   7   9  -1   41.64    3.77
   7   9  -1   45.07    2.76
  -7  -9   1   38.90    2.72
   6   9  -1   31.06    2.90
   6   9  -1   36.08    2.78
   6   9  -1   31.32    2.05
  -6  -9   1   28.06    2.04
   5   9  -1   19.40    2.11
   5   9  -1   21.51    1.92
   5   9  -1   20.19    1.40
  -5  -9   1   18.70    1.39
  -5  -9   1   19.15    1.43
   4   9  -1  105.12    7.49
   4   9  -1  105.59    5.66
   4   9  -1  109.65    7.70
  -4  -9   1  101.50    5.68
  -4  -9   1  110.84    5.70
   3   9  -1   42.94    3.28
   3   9  -1   41.33    3.28
   3   9  -1   41.06    2.34
  -3  -9   1   40.85    2.38
  -3  -9   1   42.89    2.40
   2   9  -1   36.27    2.91
   2   9  -1   35.41    2.99
  -2  -9   1   37.05    2.12
  -2  -9   1   39.40    2.12
   1   9  -1   77.88    5.68
   1   9  -1   78.19    5.96
  -1  -9   1   82.19    4.26
  -1  -9   1   83.52    4.27
   0   9  -1   17.51    1.66
   0   9  -1   16.48    1.74
   0  -9   1   16.41    1.02
   0  -9   1   16.44    1.03
  -1   9  -1  101.65    4.53
  -1   9  -1   97.90    7.40
   1  -9   1  102.22    5.21
   1  -9   1  100.24    5.19
  -2   9  -1   19.16    2.02
  -2   9  -1   18.17    0.91
   2  -9   1   20.25    1.06
  -3   9  -1   47.70    3.81
   3  -9   1   43.82    2.34
  -4   9  -1   61.84    5.01
  -5   9  -1    0.78    0.26
   5  -9   1    0.75    0.20
   5  -9   1    0.57    0.28
  -6   9  -1   27.20    1.40
  10   8  -1   17.13    1.70
   9   8  -1   15.77    1.53
   8   8  -1   11.46    1.21
  -8  -8   1   11.29    1.20
   7   8  -1   65.19    3.89
   7   8  -1   74.57    5.17
  -7  -8   1   63.38    3.87
   6   8  -1    3.75    0.86
   6   8  -1    2.05    0.61
  -6  -8   1    3.80    0.63
  -6  -8   1    2.85    0.64
   5   8  -1   72.49    5.75
   5   8  -1   84.89    5.80
   5   8  -1   80.12    4.30
  -5  -8   1   79.85    4.32
  -5  -8   1   75.30    4.31
   4   8  -1  153.98   10.36
   4   8  -1  152.12   10.66
   4   8  -1  146.89    7.86
  -4  -8   1  156.21    7.91
  -4  -8   1  144.72    7.89
   3   8  -1    6.52    1.05
   3   8  -1    9.90    1.15
   3   8  -1    9.25    0.74
  -3  -8   1    9.20    0.78
  -3  -8   1    9.51    0.76
   2   8  -1  237.34   12.11
   2   8  -1  237.34   15.73
   2   8  -1  238.25   16.51
  -2  -8   1  239.04   12.15
  -2  -8   1  228.60   12.13
   1   8  -1    2.04    0.63
   1   8  -1    5.08    0.77
  -1  -8   1    1.67    0.33
  -1  -8   1    2.91    0.40
  -1  -8   1    2.75    0.36
   0   8  -1  272.67   19.67
   0   8  -1  281.22   12.53
   0   8  -1  278.73   18.64
   0  -8   1  280.44   16.32
   0  -8   1  289.87   14.38
   0  -8   1  285.44   14.39
  -1   8  -1  195.01    8.61
  -1   8  -1  191.85   13.67
   1  -8   1  192.11    9.87
   1  -8   1  193.64    9.89
  -2   8  -1    2.54    0.80
   2  -8   1    1.43    0.20
  -3   8  -1  115.64    8.49
  -4   8  -1   21.34    2.21
   4  -8   1   19.19    1.09
   4  -8   1   21.17    1.13
   5  -8   1   14.16    0.86
   5  -8   1   15.26    0.90
   6  -8   1   33.38    1.84
   6  -8   1   33.62    1.89
  -7   8  -1   -0.03    0.42
  10   7  -1   15.42    1.60
   9   7  -1    3.13    0.90
   8   7  -1   47.85    2.94
  -8  -7   1   46.32    2.91
   7   7  -1   56.54    3.29
  -7  -7   1   55.48    3.27
   6   7  -1    6.49    0.72
  -6  -7   1    6.43    0.76
  -6  -7   1    5.80    0.72
   5   7  -1  158.78    8.10
   5   7  -1  149.48    8.10
   5   7  -1  159.16   10.91
  -5  -7   1  149.93    8.11
  -5  -7   1  154.90    8.12
   4   7  -1   55.77    3.97
   4   7  -1   52.05    2.93
   4   7  -1   51.92    2.91
   4   7  -1   52.18    4.07
  -4  -7   1   51.44    2.95
  -4  -7   1   55.29    2.96
   3   7  -1  160.67    8.47
   3   7  -1  166.75   11.51
   3   7  -1  165.22    8.49
   3   7  -1  165.58   11.11
  -3  -7   1  159.89    8.51
  -3  -7   1  166.11    8.51
   2   7  -1  200.73   14.02
   2   7  -1  209.50   10.81
   2   7  -1  211.75   14.71
  -2  -7   1  216.50   10.84
  -2  -7   1  214.28   10.85
   1   7  -1    1.55    0.48
   1   7  -1    1.78    0.54
   1   7  -1    1.65    0.24
   1   7  -1    1.77    0.26
  -1  -7   1    1.47    0.27
  -1  -7   1    2.48    0.32
  -1  -7   1    2.57    0.30
   0   7  -1  191.22   13.45
   0   7  -1  190.73    8.54
   0   7  -1  185.05   12.75
   0  -7   1  189.19    9.81
   0  -7   1  195.49   11.14
   0  -7   1  189.77    9.79
   0  -7   1  194.53    9.80
   0  -7   1  195.99    9.82
  -1   7  -1  176.38   12.24
   1  -7   1  172.60    8.84
   1  -7   1  167.66    8.86
   1  -7   1  173.39    8.85
   1  -7   1  176.46    8.87
  -2   7  -1   24.62    2.15
   2  -7   1   24.47    1.26
   2  -7   1   22.63    1.25
  -3   7  -1  150.89   10.83
  -4   7  -1    2.81    0.84
   4  -7   1    2.06    0.23
   4  -7   1    2.17    0.24
  -5   7  -1   62.71    3.75
  -5   7  -1   56.97    3.80
   5  -7   1   61.18    3.19
   5  -7   1   62.16    3.20
  -6   7  -1   27.29    1.83
  -6   7  -1   29.12    1.95
   6  -7   1   26.17    1.57
   6  -7   1   28.77    1.60
  -7   7  -1    5.55    0.63
  -7   7  -1    6.75    0.79
   7  -7   1    4.85    0.56
  10   6  -1   19.95    1.86
   9   6  -1    2.49    0.87
   8   6  -1   72.63    4.17
   7   6  -1   31.60    2.01
  -7  -6   1   29.40    1.99
   6   6  -1   25.02    1.69
  -6  -6   1   26.27    1.70
   5   6  -1  258.51   12.58
   5   6  -1  238.81   12.57
  -5  -6   1  237.13   12.58
  -5  -6   1  238.03   12.57
   4   6  -1    0.57    0.45
   4   6  -1    1.09    0.35
   4   6  -1    1.62    0.33
  -4  -6   1    1.71    0.39
  -4  -6   1    1.86    0.37
   3   6  -1  392.04   20.08
   3   6  -1  400.89   27.18
   3   6  -1  381.66   25.93
   3   6  -1  391.37   20.09
  -3  -6   1  403.30   20.12
  -3  -6   1  389.16   20.09
   2   6  -1  126.05    8.97
   2   6  -1  133.73    9.36
   2   6  -1  131.31    6.88
   2   6  -1  137.93    6.88
  -2  -6   1  135.22    6.91
  -2  -6   1  134.55    6.90
   1   6  -1   88.17    4.05
   1   6  -1   87.65    6.11
   1   6  -1   94.61    6.41
  -1  -6   1   90.18    4.66
  -1  -6   1   87.49    4.64
  -1  -6   1   92.17    4.66
  -1  -6   1   87.68    4.65
   0   6  -1  334.29   22.80
   0   6  -1  341.95   24.09
   0   6  -1  353.54   15.44
   0  -6   1  355.80   17.72
   0  -6   1  337.68   17.71
   0  -6   1  349.46   20.11
   0  -6   1  345.69   17.68
   0  -6   1  361.38   17.70
  -1   6  -1    3.03    0.58
  -1   6  -1    1.86    0.54
   1  -6   1    2.95    0.25
   1  -6   1    3.33    0.25
   1  -6   1    2.35    0.22
   1  -6   1    2.03    0.21
  -2   6  -1  189.17   13.32
  -3   6  -1   99.94    7.28
  -4   6  -1   31.30    2.75
  -4   6  -1   32.66    2.01
   4  -6   1   34.23    1.71
   4  -6   1   28.46    1.68
  -5   6  -1  152.14    8.90
   5  -6   1  140.41    7.51
   5  -6   1  142.19    7.52
   5  -6   1  149.80    7.53
  -6   6  -1   11.45    0.94
   6  -6   1    8.67    0.73
   6  -6   1    8.50    0.72
   6  -6   1    9.89    0.82
  -7   6  -1   30.87    2.12
  -7   6  -1   36.16    2.26
   7  -6   1   30.27    1.84
   7  -6   1   28.90    1.81
  -8   6  -1   20.50    1.68
  -8   6  -1   17.32    1.47
  10   5  -1    9.62    1.27
   9   5  -1   18.22    1.63
   8   5  -1   59.75    3.51
   7   5  -1   -0.19    0.45
  -7  -5   1    0.41    0.52
   6   5  -1  145.61    7.68
   6   5  -1  154.08    7.69
  -6  -5   1  137.29    7.66
   5   5  -1  119.83    6.30
   5   5  -1  120.70    6.30
  -5  -5   1  116.32    6.31
  -5  -5   1  121.68    6.32
   4   5  -1  123.48    6.35
   4   5  -1  117.49    6.34
   4   5  -1  125.22    6.35
  -4  -5   1  121.20    6.36
  -4  -5   1  119.47    6.35
   3   5  -1  204.34   10.66
   3   5  -1  200.72   10.65
   3   5  -1  210.21   14.40
   3   5  -1  216.01   10.66
  -3  -5   1  207.18   10.67
  -3  -5   1  204.59   10.66
   2   5  -1    0.80    0.22
   2   5  -1    2.25    0.51
   2   5  -1    1.10    0.21
   2   5  -1    0.89    0.34
  -2  -5   1    0.78    0.24
  -2  -5   1    0.84    0.22
   1   5  -1  332.71   22.91
   1   5  -1  352.80   16.91
   1   5  -1  333.96   16.88
   1   5  -1  330.71   14.73
   1   5  -1  303.97   21.71
  -1  -5   1  327.85   16.88
  -1  -5   1  342.17   16.91
  -1  -5   1  334.27   16.89
  -1  -5   1  322.95   16.90
   0   5  -1  413.38   28.38
   0   5  -1  383.24   26.85
   0  -5   1  420.78   23.73
   0  -5   1  419.10   20.88
   0  -5   1  416.85   20.93
  -1   5  -1   47.72    3.35
  -1   5  -1   48.72    3.51
   1  -5   1   41.07    2.49
   1  -5   1   48.42    2.44
   1  -5   1   49.26    2.44
   1  -5   1   47.99    2.50
  -2   5  -1  401.14   27.80
  -3   5  -1   18.15    1.71
   3  -5   1   18.73    1.01
   3  -5   1   19.53    1.02
  -4   5  -1  171.51   12.09
   4  -5   1  162.60    8.69
   4  -5   1  172.28    8.68
   4  -5   1  173.40    8.69
   5  -5   1   89.50    4.50
   5  -5   1   82.91    4.48
  -6   5  -1    6.72    0.55
  -6   5  -1    5.00    0.56
  -6   5  -1    7.41    0.77
   6  -5   1    6.28    0.61
   6  -5   1    6.68    0.60
   6  -5   1    7.58    0.64
  -7   5  -1   52.09    3.15
  -7   5  -1   56.96    3.46
   7  -5   1   48.00    2.87
   7  -5   1   53.37    2.93
   7  -5   1   52.12    2.90
  -8   5  -1    7.87    0.90
  -8   5  -1   10.14    1.04
   8  -5   1    8.71    0.83
   8  -5   1    8.39    0.88
  10   4  -1    0.03    0.81
   9   4  -1   48.49    3.03
   8   4  -1   31.88    2.13
   7   4  -1   37.88    2.20
   7   4  -1   33.44    2.20
   6   4  -1  178.08    9.66
   6   4  -1  189.48    9.68
   6   4  -1  194.51    9.69
  -6  -4   1  179.98    9.67
   5   4  -1    9.33    0.77
   5   4  -1    8.99    0.77
   5   4  -1   10.25    0.84
  -5  -4   1    9.23    0.81
   4   4  -1  353.53   18.31
   4   4  -1  349.93   18.29
  -4  -4   1  370.12   18.32
  -4  -4   1  357.04   18.30
   3   4  -1  258.14   13.10
   3   4  -1  248.38   13.10
   3   4  -1  257.61   13.09
  -3  -4   1  256.45   13.10
  -3  -4   1  260.91   13.11
  -3  -4   1  252.36   14.87
   2   4  -1   38.75    2.09
   2   4  -1   38.31    2.10
   2   4  -1   39.79    2.84
   2   4  -1   38.39    2.10
  -2  -4   1   39.11    2.11
  -2  -4   1   40.04    2.11
  -2  -4   1   38.78    2.38
   0   4  -1   98.22    6.80
   0   4  -1   92.85    6.45
   0  -4   1   97.95    4.95
   0  -4   1   95.21    5.62
   0  -4   1   96.38    4.97
   0  -4   1   97.26    4.95
   0  -4   1   96.29    4.96
  -1   4  -1  666.00   45.86
  -2   4  -1  428.74   29.64
  -3   4  -1   10.01    1.11
   3  -4   1   11.37    0.61
   3  -4   1   10.22    0.61
  -4   4  -1  249.26   17.00
  -4   4  -1  253.84   14.06
  -4   4  -1  236.76   14.05
   4  -4   1  233.72   12.37
   4  -4   1  242.89   12.36
   4  -4   1  237.26   12.34
  -5   4  -1   44.89    2.76
  -5   4  -1   47.53    2.79
   5  -4   1   43.59    2.44
   5  -4   1   46.36    2.46
  -6   4  -1   55.83    3.39
   6  -4   1   57.56    3.03
   6  -4   1   53.71    2.99
  -7   4  -1   90.42    5.51
   7  -4   1   98.36    4.93
   7  -4   1   92.00    4.91
   7  -4   1   87.48    4.88
  -8   4  -1   -0.22    0.60
  -8   4  -1    0.31    0.45
   8  -4   1    0.70    0.55
   8  -4   1    1.00    0.50
  -9   4  -1   27.53    2.00
  -9   4  -1   36.42    2.40
  -9   4  -1   25.41    2.11
   9  -4   1   28.66    1.98
  10   3  -1    9.08    1.19
   9   3  -1   61.72    3.66
   8   3  -1    6.76    0.83
   8   3  -1    6.09    0.86
   7   3  -1   62.18    3.67
   7   3  -1   68.89    3.68
   6   3  -1  165.63    8.79
   6   3  -1  182.40    8.82
   6   3  -1  157.23    8.77
   5   3  -1   21.20    1.24
   5   3  -1   17.24    1.18
   5   3  -1   18.05    1.17
  -5  -3   1   17.53    1.21
  -5  -3   1   18.87    1.37
   4   3  -1  591.40   31.15
   4   3  -1  640.30   31.16
   4   3  -1  611.67   31.13
  -4  -3   1  605.14   35.35
  -4  -3   1  606.69   31.13
   3   3  -1  134.29    7.15
   3   3  -1  139.03    7.16
   3   3  -1  135.73    7.16
  -3  -3   1  138.01    7.16
  -3  -3   1  143.37    7.17
  -3  -3   1  141.32    8.13
   2   3  -1  166.29    8.50
   2   3  -1  165.54    8.50
   2   3  -1  166.34    8.49
  -2  -3   1  165.51    8.49
  -2  -3   1  156.01    8.49
  -2  -3   1  169.30    8.51
  -2  -3   1  170.61    9.65
   0   3  -1   10.20    0.57
   0   3  -1   10.26    0.69
   0   3  -1   10.03    0.87
   0  -3   1    9.51    0.67
   0  -3   1    9.80    0.69
   0  -3   1    9.71    0.57
   0  -3   1   10.00    0.58
   0  -3   1    9.65    0.66
   0  -3   1   10.80    0.59
  -2   3  -1  243.16   14.67
  -2   3  -1  231.66   16.88
  -2   3  -1  247.92   14.62
   2  -3   1  244.81   12.44
   2  -3   1  249.64   12.48
  -3   3  -1   24.71    1.57
  -3   3  -1   25.34    1.56
  -3   3  -1   26.70    2.10
   3  -3   1   28.03    1.38
   3  -3   1   25.18    1.38
  -4   3  -1  296.34   17.15
  -4   3  -1  298.45   17.14
   4  -3   1  298.65   15.08
   4  -3   1  291.04   15.10
   4  -3   1  295.20   15.09
  -5   3  -1    1.21    0.33
  -5   3  -1    1.12    0.31
   5  -3   1    1.71    0.29
   5  -3   1    0.98    0.31
  -6   3  -1  137.29    8.20
   6  -3   1  137.93    7.23
   6  -3   1  142.51    7.24
  -7   3  -1   37.36    2.59
   7  -3   1   40.99    2.32
   7  -3   1   42.59    2.37
   7  -3   1   42.72    2.36
  -8   3  -1   18.09    1.47
   8  -3   1   19.61    1.41
   8  -3   1   19.83    1.40
  -9   3  -1   43.23    2.94
  -9   3  -1   35.38    2.62
   9  -3   1   41.75    2.44
   9  -3   1   36.50    2.43
  10   2  -1   18.89    1.76
   9   2  -1   35.50    2.36
   8   2  -1    3.30    0.65
   8   2  -1    2.87    0.69
   7   2  -1  124.70    6.93
   7   2  -1  136.83    6.95
   6   2  -1   76.61    3.98
   6   2  -1   71.64    3.96
   6   2  -1   73.19    3.98
  -6  -2   1   70.77    4.48
   5   2  -1  148.68    7.89
   5   2  -1  148.64    7.89
   5   2  -1  160.04    7.91
  -5  -2   1  149.66    8.96
   4   2  -1  237.20   12.13
   4   2  -1  233.16   12.14
   4   2  -1  244.94   12.14
  -4  -2   1  238.85   13.78
  -4  -2   1  227.19   12.13
   3   2  -1    4.97    0.46
   3   2  -1    5.53    0.46
  -3  -2   1    5.13    0.38
  -3  -2   1    4.90    0.47
  -3  -2   1    6.89    0.53
  -2  -2   1  559.75   32.34
   0  -2   1  340.70   22.19
  -2   2  -1    0.50    0.14
  -2   2  -1    0.43    0.28
   2  -2   1    0.72    0.12
   2  -2   1    0.59    0.11
  -3   2  -1  441.80   24.91
   3  -2   1  430.49   21.91
   3  -2   1  419.76   21.95
   3  -2   1  432.43   21.93
  -4   2  -1  165.28    9.34
   4  -2   1  158.98    8.21
   4  -2   1  154.06    8.22
   4  -2   1  162.72    8.23
  -5   2  -1  137.38    7.91
   5  -2   1  137.75    6.97
   5  -2   1  128.82    6.96
   5  -2   1  134.53    6.95
  -6   2  -1  201.62   11.99
   6  -2   1  210.91   10.57
   6  -2   1  202.06   10.56
   7  -2   1   12.19    1.02
   7  -2   1   11.06    0.91
   7  -2   1   12.09    0.96
  -8   2  -1   46.31    3.19
   8  -2   1   53.58    2.92
   8  -2   1   51.20    2.93
  -9   2  -1   24.27    1.94
   9  -2   1   26.62    1.86
   9  -2   1   30.57    1.89
 -10   2  -1    1.88    0.78
  10  -2   1    2.89    0.88
  10   1  -1   27.93    2.16
   9   1  -1    8.05    1.00
   8   1  -1   37.39    2.44
   8   1  -1   42.26    2.45
   7   1  -1  123.87    6.49
   7   1  -1  120.17    6.49
   6   1  -1    2.18    0.47
   6   1  -1    2.45    0.45
   6   1  -1    2.82    0.46
  -6  -1   1    2.89    0.51
   5   1  -1  263.66   14.20
   5   1  -1  292.77   14.21
   5   1  -1  271.44   14.19
  -5  -1   1  277.55   16.11
   4   1  -1   40.53    2.17
   4   1  -1   37.81    2.17
   4   1  -1   39.30    2.17
  -4  -1   1   40.52    2.47
   3   1  -1  246.21   12.28
   3   1  -1  234.29   12.29
   3   1  -1  241.06   12.27
  -3  -1   1  238.17   13.94
   1   1  -1    1.66    0.12
   1   1  -1    1.01    0.12
   1   1  -1    1.27    0.13
   1   1  -1    1.06    0.15
   1   1  -1    1.46    0.14
  -1  -1   1    1.55    0.12
  -1  -1   1    0.96    0.13
  -1  -1   1    1.28    0.13
   1  -1   1  199.40   12.99
   1  -1   1  198.61   13.74
   2  -1   1    5.98    0.37
   2  -1   1    5.41    0.37
   2  -1   1    5.90    0.39
   4  -1   1   24.38    1.36
   4  -1   1   24.86    1.38
   4  -1   1   24.05    1.36
   5  -1   1  267.68   13.60
   5  -1   1  262.93   13.59
   6  -1   1  155.40    7.84
   6  -1   1  145.94    7.82
   7  -1   1    1.82    0.51
   7  -1   1    2.61    0.47
   8  -1   1   47.07    2.90
   8  -1   1   52.74    2.92
  -9   1  -1    1.18    0.62
   9  -1   1    1.18    0.65
   9  -1   1    1.14    0.68
  10  -1   1   14.55    1.43
  10  -1   1   15.26    1.49
  10   0  -1   18.26    1.70
   9   0  -1    0.80    0.72
   9   0  -1    0.14    0.58
   8   0  -1   75.31    4.07
   8   0  -1   69.62    4.07
   7   0  -1   31.87    2.02
   7   0  -1   34.09    2.02
   6   0  -1   71.61    3.87
   6   0  -1   71.36    3.86
   6   0  -1   74.24    3.86
  -6   0   1   67.94    4.36
   5   0  -1  283.96   15.31
   5   0  -1  309.65   15.31
   5   0  -1  297.38   15.30
  -5   0   1  302.42   17.38
   4   0  -1   16.03    0.99
   4   0  -1   15.40    0.99
   4   0  -1   16.35    0.99
  -4   0   1   16.19    1.12
   3   0  -1  436.40   22.58
  -3   0   1  450.41   25.65
   1   0  -1  161.63   10.88
   1   0  -1  155.57    8.03
   1   0  -1  156.74    9.13
   1   0  -1  154.44    8.04
  -1   0   1  149.06    8.03
  -1   0   1  155.29    9.49
  -1   0   1  162.41    9.13
  -1   0   1  157.41    8.02
  -1   0  -1  104.25    5.42
  -1   0  -1  106.25    6.42
  -1   0  -1  104.71    5.43
  -1   0  -1  106.22    6.18
   1   0   1  110.78    6.17
   1   0   1  100.57    5.43
   1   0   1  104.39    5.42
   3   0   1  446.31   22.71
  -4   0  -1   56.71    3.00
   4   0   1   57.43    3.00
   4   0   1   55.85    3.01
  -5   0  -1  367.26   20.49
  -5   0  -1  348.81   18.02
   5   0   1  340.95   18.03
   5   0   1  353.85   18.03
  -6   0  -1   37.71    2.45
   6   0   1   38.19    2.14
   6   0   1   37.88    2.17
   7   0   1   68.04    3.79
   7   0   1   70.00    3.76
   8   0   1   83.59    4.41
   8   0   1   75.33    4.37
   9   0   1    0.71    0.69
   9   0   1    0.92    0.67
  10   0   1   41.56    2.72
  10  -1  -1   12.59    1.33
   9  -1  -1   22.19    1.76
   9  -1  -1   24.18    1.73
   8  -1  -1  119.57    6.66
   8  -1  -1  125.07    6.66
  -8   1   1  128.94    7.89
   7  -1  -1    1.49    0.49
   7  -1  -1    1.79    0.51
  -7   1   1    1.43    0.60
   6  -1  -1  152.30    7.91
   6  -1  -1  154.66    7.93
   6  -1  -1  148.16    7.92
   5  -1  -1  146.66    7.93
   5  -1  -1  153.88    7.93
   5  -1  -1  158.09    7.93
  -5   1   1  153.05    9.00
   4  -1  -1   94.58    4.87
   4  -1  -1   90.15    4.87
   4  -1  -1   95.59    4.87
  -4   1   1   92.60    5.53
   2  -1  -1  101.18    5.98
   2  -1  -1  103.67    5.26
   2  -1  -1  101.27    5.26
  -2   1   1  101.97    7.16
  -1  -1  -1  250.27   12.62
   1   1   1  244.01   12.65
  -3  -1  -1  169.52    8.64
  -3  -1  -1  169.73    8.63
   3   1   1  168.13    8.64
   3   1   1  165.86    8.63
  -4  -1  -1  311.70   15.93
  -4  -1  -1  316.43   15.94
   4   1   1  303.69   15.93
   4   1   1  315.54   15.94
  -5  -1  -1  262.11   15.33
  -5  -1  -1  261.18   13.49
   5   1   1  257.02   13.49
   5   1   1  271.84   13.51
  -6  -1  -1    8.25    0.75
  -6  -1  -1    7.20    0.81
   6   1   1    7.87    0.68
   6   1   1    8.26    0.79
   7   1   1  115.14    6.17
   7   1   1  118.18    6.21
   8   1   1   38.90    2.29
   8   1   1   35.03    2.27
   9   1   1   18.19    1.49
   9   1   1   14.64    1.41
  10   1   1   29.92    2.21
   9  -2  -1   34.88    2.24
   9  -2  -1   33.80    2.28
   8  -2  -1   26.34    1.88
   8  -2  -1   30.09    1.87
  -8   2   1   28.87    2.25
   7  -2  -1    2.26    0.53
   7  -2  -1    2.25    0.56
   7  -2  -1    3.38    0.54
  -7   2   1    2.69    0.65
   6  -2  -1   78.26    4.16
   6  -2  -1   76.35    4.17
   6  -2  -1   78.33    4.18
  -6   2   1   77.70    4.92
   5  -2  -1    9.03    0.74
   5  -2  -1   10.14    0.74
   5  -2  -1   10.53    0.78
   4  -2  -1  361.47   18.21
   4  -2  -1  361.21   18.20
   4  -2  -1  347.18   18.19
   3  -2  -1  419.22   21.24
   3  -2  -1  425.79   21.25
  -3   2   1  419.39   24.13
  -3   2   1  403.49   28.82
   2  -2  -1   24.69    1.51
   2  -2  -1   24.42    1.32
   2  -2  -1   25.26    1.34
  -2   2   1   22.46    1.88
  -2   2   1   25.80    1.54
  -2   2   1   24.49    1.57
   0  -2  -1    7.59    0.61
   0  -2  -1    8.26    0.65
   0  -2  -1    7.82    0.52
   0  -2  -1    8.37    0.53
   0  -2  -1    8.67    0.59
   0   2   1    8.31    0.74
   0   2   1    7.41    0.52
   0   2   1    8.30    0.50
   0   2   1    8.67    0.62
  -1  -2  -1  250.74   15.51
  -1  -2  -1  255.76   13.14
  -1  -2  -1  254.58   13.11
   1   2   1  264.71   15.52
   1   2   1  261.49   13.12
  -2  -2  -1  196.69   10.17
  -2  -2  -1  200.04   10.18
   2   2   1  200.35   10.17
   2   2   1  197.65   10.17
  -3  -2  -1   38.75    2.12
   3   2   1   39.19    2.12
   3   2   1   39.51    2.11
  -4  -2  -1  521.85   25.63
  -4  -2  -1  502.68   25.60
   4   2   1  498.47   25.60
   4   2   1  486.29   25.61
  -5  -2  -1  136.46    7.19
  -5  -2  -1  140.95    7.20
   5   2   1  136.46    7.18
   5   2   1  139.40    7.20
  -6  -2  -1   34.84    2.07
  -6  -2  -1   37.67    2.37
   6   2   1   35.43    2.08
   6   2   1   34.52    2.03
  -7  -2  -1  122.18    6.50
   7   2   1  122.91    6.52
   8   2   1    3.07    0.70
   8   2   1    2.85    0.64
   9   2   1   58.23    3.43
   9   2   1   55.94    3.39
  10   2   1   12.73    1.38
  11   2   1    2.59    1.05
   9  -3  -1   33.22    2.17
   9  -3  -1   32.44    2.24
   8  -3  -1    4.94    0.80
   8  -3  -1    4.91    0.72
  -8   3   1    6.47    0.92
   7  -3  -1   62.04    3.49
   7  -3  -1   64.17    3.46
   7  -3  -1   60.51    3.46
  -7   3   1   63.15    4.11
   6  -3  -1  131.55    6.90
   6  -3  -1  128.48    6.89
   6  -3  -1  130.09    6.88
  -6   3   1  136.10    8.15
   5  -3  -1   23.40    1.40
   5  -3  -1   23.44    1.43
   5  -3  -1   24.48    1.44
  -5   3   1   24.29    1.64
  -5   3   1   23.99    1.69
   4  -3  -1  412.73   20.50
   4  -3  -1  391.01   20.50
   4  -3  -1  404.58   20.49
  -4   3   1  402.42   23.31
  -4   3   1  406.60   24.23
  -4   3   1  394.31   27.90
   3  -3  -1  177.34    8.87
   3  -3  -1  169.76    8.86
  -3   3   1  175.14   10.11
  -3   3   1  167.91   12.13
  -3   3   1  174.37   10.48
   2  -3  -1  138.17    7.00
   2  -3  -1  142.71    7.01
   2  -3  -1  132.28    7.94
  -2   3   1  132.25    9.59
  -2   3   1  137.87    8.28
   0  -3  -1    1.64    0.23
   0  -3  -1    0.98    0.19
   0  -3  -1    1.24    0.16
   0  -3  -1    1.13    0.18
   0  -3  -1    2.22    0.23
   0  -3  -1    1.06    0.24
   0   3   1    1.21    0.20
   0   3   1    1.15    0.14
   0   3   1    0.99    0.29
   0   3   1    1.37    0.12
   0   3   1    2.12    0.25
  -2  -3  -1  383.05   23.75
   2   3   1  406.57   20.12
  -3  -3  -1  336.42   16.96
  -3  -3  -1  333.17   16.94
   3   3   1  332.18   16.94
   3   3   1  325.29   16.93
  -4  -3  -1  576.79   29.36
   4   3   1  575.86   29.36
   4   3   1  575.85   29.35
  -5  -3  -1    3.74    0.44
  -5  -3  -1    2.87    0.39
   5   3   1    2.02    0.40
   5   3   1    2.05    0.33
  -6  -3  -1  116.95    6.39
  -6  -3  -1  123.16    6.40
  -6  -3  -1  129.71    7.29
   6   3   1  120.24    6.41
   6   3   1  116.63    6.37
  -7  -3  -1   68.06    3.98
   7   3   1   77.19    4.03
  -8  -3  -1   16.25    1.41
   8   3   1   21.02    1.47
   8   3   1   19.19    1.47
   9   3   1   57.78    3.45
  10   3   1    0.95    0.81
  11   3   1   14.42    1.60
   9  -4  -1   21.39    1.74
  -9   4   1   23.64    2.10
   8  -4  -1    3.35    0.71
   8  -4  -1    2.74    0.60
  -8   4   1    2.24    0.58
  -8   4   1    3.28    0.81
   7  -4  -1   87.32    4.85
   7  -4  -1   90.11    4.84
   7  -4  -1   85.47    4.86
  -7   4   1   91.83    5.75
  -7   4   1   95.38    4.23
   6  -4  -1   32.85    1.97
   6  -4  -1   31.75    1.94
   6  -4  -1   31.71    1.92
  -6   4   1   32.90    1.67
  -6   4   1   37.61    2.34
   5  -4  -1   80.34    4.28
   5  -4  -1   81.74    4.26
  -5   4   1   82.71    5.05
  -5   4   1   77.79    4.90
   4  -4  -1  227.66   11.78
   4  -4  -1  238.11   11.80
  -4   4   1  238.76   13.94
  -4   4   1  211.47   13.44
  -4   4   1  233.92   16.18
   3  -4  -1    2.18    0.25
   3  -4  -1    2.26    0.29
  -3   4   1    1.84    0.55
  -3   4   1    2.05    0.32
  -3   4   1    1.35    0.34
   2  -4  -1  372.22   22.09
   2  -4  -1  400.58   19.49
   2  -4  -1  378.33   19.48
  -2   4   1  362.75   26.46
  -2   4   1  392.07   22.15
  -2   4   1  386.29   23.03
   1  -4  -1   31.06    1.91
   1  -4  -1   30.39    1.72
   1  -4  -1   33.12    1.68
  -1   4   1   29.17    2.01
  -1   4   1   33.56    1.90
  -1   4   1   31.53    2.43
   0  -4  -1  458.30   26.09
   0   4   1  443.53   31.12
  -2  -4  -1   17.77    1.23
  -2  -4  -1   17.85    1.05
  -2  -4  -1   17.83    1.05
   2   4   1   17.83    1.04
   2   4   1   19.28    1.05
   2   4   1   16.93    1.32
  -3  -4  -1  540.72   26.81
   3   4   1  511.25   26.78
   3   4   1  525.08   26.77
  -4  -4  -1  127.28    6.65
  -4  -4  -1  131.22    6.66
   4   4   1  128.14    6.64
   4   4   1  123.99    6.62
  -5  -4  -1   69.66    3.82
   5   4   1   71.32    3.80
   5   4   1   72.11    3.84
  -6  -4  -1  207.59   10.71
  -6  -4  -1  212.83   10.72
   6   4   1  191.33   10.66
   6   4   1  212.62   10.72
  -7  -4  -1   17.54    1.30
   7   4   1   18.01    1.28
   7   4   1   15.99    1.31
  -8  -4  -1   70.99    4.24
   8   4   1   80.38    4.28
   8   4   1   75.54    4.27
   9   4   1   31.79    2.20
  10   4   1    2.77    0.93
  11   4   1   20.25    1.94
   8  -5  -1   15.38    1.32
   8  -5  -1   14.32    1.15
  -8   5   1   16.07    1.51
  -8   5   1   11.69    1.10
   7  -5  -1   62.00    3.35
   7  -5  -1   56.72    3.27
   7  -5  -1   57.38    3.29
  -7   5   1   52.38    3.58
  -7   5   1   65.65    2.89
  -7   5   1   62.67    3.94
   6  -5  -1    0.22    0.44
   6  -5  -1    0.78    0.37
   6  -5  -1    0.64    0.41
  -6   5   1    0.30    0.34
  -6   5   1    0.51    0.49
   5  -5  -1  172.18    8.95
   5  -5  -1  166.98    8.91
  -5   5   1  174.20   12.41
  -5   5   1  177.96   10.57
   4  -5  -1  115.18    5.80
   4  -5  -1  111.07    5.76
  -4   5   1  114.55    6.84
  -4   5   1  105.10    6.59
  -4   5   1  109.78    8.10
   3  -5  -1   79.16    4.09
   3  -5  -1   74.76    4.03
  -3   5   1   75.04    5.73
  -3   5   1   76.63    4.81
  -3   5   1   82.53    4.60
   2  -5  -1  327.99   15.97
   2  -5  -1  272.05   15.98
  -2   5   1  281.29   18.88
  -2   5   1  353.12   18.15
  -2   5   1  329.55   21.79
   1  -5  -1   28.37    1.45
   1  -5  -1   23.90    1.59
  -1   5   1   28.13    1.69
  -1   5   1   24.29    2.09
  -1   5   1   24.72    1.18
   0  -5  -1  486.42   24.18
   0  -5  -1  468.34   24.24
   0  -5  -1  468.76   24.21
   0  -5  -1  489.10   27.52
   0   5   1  459.63   32.85
   0   5   1  480.97   28.62
  -1  -5  -1  591.39   34.17
   1   5   1  571.47   40.78
   1   5   1  610.88   35.56
  -2  -5  -1   43.89    2.93
  -2  -5  -1   46.77    2.50
  -2  -5  -1   47.90    2.51
   2   5   1   49.44    2.50
   2   5   1   45.12    2.47
   2   5   1   47.95    2.47
   2   5   1   43.79    3.17
  -3  -5  -1  574.43   28.85
  -3  -5  -1  551.58   34.07
  -3  -5  -1  572.87   28.88
   3   5   1  563.59   28.83
   3   5   1  558.45   36.94
   3   5   1  575.78   28.86
  -4  -5  -1   40.50    2.28
  -4  -5  -1   42.55    2.29
   4   5   1   38.67    2.24
   4   5   1   41.10    2.27
  -5  -5  -1  141.92    7.48
  -5  -5  -1  144.74    7.49
   5   5   1  137.24    7.44
   5   5   1  147.59    7.48
  -6  -5  -1  147.63    8.04
   6   5   1  145.55    8.00
   6   5   1  153.12    8.05
   6   5   1  166.74    8.08
  -7  -5  -1    1.92    0.57
   7   5   1    1.94    0.56
   7   5   1    2.12    0.60
  -8  -5  -1   81.05    4.71
   8   5   1   88.53    4.76
  -9  -5  -1   13.69    1.31
   9   5   1   13.14    1.30
  10   5   1   11.90    1.36
  11   5   1   17.17    1.80
  -8   6   1   40.28    2.97
   7  -6  -1   20.29    1.53
   7  -6  -1   19.80    1.39
   7  -6  -1   18.79    1.42
  -7   6   1   24.40    1.29
  -7   6   1   20.21    1.72
   6  -6  -1   11.59    0.94
   6  -6  -1   13.12    1.09
   6  -6  -1   11.97    0.92
  -6   6   1   12.49    0.85
  -6   6   1   12.58    1.18
   5  -6  -1   97.68    5.27
   5  -6  -1   91.78    5.18
  -5   6   1  104.21    6.20
  -5   6   1  100.54    4.51
  -5   6   1  102.28    7.47
   4  -6  -1   10.14    0.69
   4  -6  -1   10.24    0.85
  -4   6   1    9.40    0.91
  -4   6   1    9.51    0.58
  -4   6   1    9.95    1.33
   3  -6  -1  118.94    6.77
   3  -6  -1  136.63    6.71
  -3   6   1  143.40    9.43
  -3   6   1  122.50    7.98
   2  -6  -1  259.21   12.68
   2  -6  -1  233.19   12.64
  -2   6   1  253.08   14.96
  -2   6   1  244.53   17.32
  -2   6   1  244.32   11.01
   1  -6  -1   13.13    0.88
   1  -6  -1   13.91    0.84
   1  -6  -1   14.06    0.85
  -1   6   1   13.37    1.36
  -1   6   1   13.06    0.96
   0  -6  -1  493.35   24.50
   0  -6  -1  493.21   27.88
   0  -6  -1  481.63   24.53
   0  -6  -1  461.47   24.55
   0   6   1  473.16   33.34
   0   6   1  487.01   28.99
  -1  -6  -1   24.13    1.37
  -1  -6  -1   25.12    1.38
  -1  -6  -1   24.82    1.57
  -1  -6  -1   24.55    1.36
   1   6   1   23.47    2.01
   1   6   1   23.04    1.79
  -2  -6  -1  327.66   16.25
  -2  -6  -1  322.57   16.26
  -2  -6  -1  324.21   18.45
   2   6   1  295.50   20.76
   2   6   1  318.27   22.08
   2   6   1  314.39   16.21
   2   6   1  320.91   16.21
  -3  -6  -1  237.05   15.33
  -3  -6  -1  257.35   13.02
  -3  -6  -1  255.05   13.01
   3   6   1  238.90   16.62
   3   6   1  274.48   13.00
   3   6   1  255.72   12.98
  -4  -6  -1    3.37    0.44
  -4  -6  -1    3.69    0.49
  -4  -6  -1    2.52    0.41
   4   6   1    3.86    0.45
   4   6   1    3.71    0.43
   4   6   1    2.64    0.64
  -5  -6  -1  120.85    6.62
  -5  -6  -1  124.59    6.63
   5   6   1  120.67    6.58
   5   6   1  137.72    6.64
   5   6   1  124.19    6.62
  -6  -6  -1   43.94    2.53
  -6  -6  -1   43.01    2.56
   6   6   1   43.83    2.56
  -7  -6  -1   41.10    2.52
   7   6   1   41.87    2.54
  -8  -6  -1   66.41    3.90
   8   6   1   69.29    3.93
  -9  -6  -1    0.33    0.75
   9   6   1    0.56    0.74
  10   6   1   22.31    1.96
  11   6   1    5.23    1.22
   7  -7  -1    4.43    0.65
  -7   7   1    6.01    0.62
  -7   7   1    5.92    0.90
   6  -7  -1   27.87    1.66
   6  -7  -1   26.51    1.65
  -6   7   1   23.75    2.04
  -6   7   1   29.64    1.44
   5  -7  -1   63.17    3.31
   5  -7  -1   52.58    3.39
  -5   7   1   56.52    3.98
  -5   7   1   68.82    2.86
  -5   7   1   64.54    5.01
   4  -7  -1   10.35    1.06
   4  -7  -1   15.16    0.95
  -4   7   1   16.39    0.79
  -4   7   1   15.20    1.83
  -4   7   1   13.38    1.20
   3  -7  -1  210.88   11.35
   3  -7  -1  236.23   11.39
  -3   7   1  230.31   13.43
  -3   7   1  213.88    9.82
  -3   7   1  212.01   15.64
   2  -7  -1   31.10    2.02
   2  -7  -1   39.56    2.01
  -2   7   1   39.14    2.36
  -2   7   1   36.53    3.02
   1  -7  -1  131.29    6.74
   1  -7  -1  130.87    6.72
  -1   7   1  128.53    9.36
  -1   7   1  130.21    7.93
   0  -7  -1  205.05   10.27
   0  -7  -1  191.79   10.28
   0  -7  -1  199.47   11.69
   0  -7  -1  201.74   10.28
   0   7   1  195.43   14.11
   0   7   1  208.09   12.15
  -1  -7  -1    2.75    0.31
  -1  -7  -1    2.42    0.35
  -1  -7  -1    3.10    0.35
  -1  -7  -1    2.54    0.39
   1   7   1    2.72    0.50
   1   7   1    1.99    0.62
  -2  -7  -1  231.99   11.64
  -2  -7  -1  229.68   13.22
  -2  -7  -1  229.15   11.65
   2   7   1  231.90   15.89
   2   7   1  222.42   11.59
   2   7   1  213.48   14.88
  -3  -7  -1   86.66    4.53
  -3  -7  -1   85.43    4.53
   3   7   1   85.72    6.23
   3   7   1   81.86    5.77
   3   7   1   86.10    4.48
   3   7   1   85.39    4.50
  -4  -7  -1   92.79    5.03
  -4  -7  -1   93.27    5.02
   4   7   1   94.21    5.01
   4   7   1   99.40    5.01
   4   7   1   92.05    6.44
  -5  -7  -1  192.80    9.95
  -5  -7  -1  179.54    9.92
   5   7   1  190.02    9.93
   5   7   1  186.22   12.78
   5   7   1  204.62    9.94
  -6  -7  -1    0.12    0.42
  -6  -7  -1    0.56    0.50
   6   7   1    0.12    0.47
  -7  -7  -1  107.28    5.90
   7   7   1  109.80    5.91
  -8  -7  -1   18.81    1.55
   8   7   1   18.17    1.55
  -9  -7  -1   13.95    1.34
   9   7   1   12.55    1.35
 -10  -7  -1   20.16    1.91
  10   7   1   23.14    1.99
  11   7   1    1.46    1.09
   6  -8  -1   39.24    2.29
   6  -8  -1   38.74    2.21
  -6   8   1   34.67    2.66
  -6   8   1   43.29    1.97
   5  -8  -1   15.21    1.13
  -5   8   1   15.61    1.31
  -5   8   1   16.21    0.93
  -5   8   1   16.01    2.05
   4  -8  -1   44.16    2.83
  -4   8   1   54.00    4.31
  -4   8   1   55.51    3.28
  -4   8   1   51.79    2.38
   3  -8  -1   92.16    4.64
  -3   8   1   85.24    6.72
  -3   8   1   88.38    5.47
   2  -8  -1    3.97    0.44
   2  -8  -1    4.03    0.39
  -2   8   1    3.15    0.93
  -2   8   1    3.42    0.42
   1  -8  -1  150.74    8.07
   1  -8  -1  159.51    8.06
  -1   8   1  161.57    9.53
  -1   8   1  153.99   11.22
   0  -8  -1   31.63    1.82
   0  -8  -1   34.81    1.83
   0  -8  -1   30.63    2.09
   0   8   1   35.10    2.81
  -1  -8  -1  144.84    7.58
  -1  -8  -1  149.22    7.58
  -1  -8  -1  150.01    8.62
   1   8   1  143.50    9.76
   1   8   1  143.64   10.44
  -2  -8  -1  202.32   10.15
  -2  -8  -1  196.19   10.13
  -2  -8  -1  199.74   11.51
   2   8   1  193.25   12.98
   2   8   1  190.89   10.07
   2   8   1  194.90   13.86
  -3  -8  -1    0.71    0.34
  -3  -8  -1    0.47    0.35
  -3  -8  -1    0.64    0.36
   3   8   1    0.01    0.28
   3   8   1    3.11    0.75
  -4  -8  -1  152.48    7.91
  -4  -8  -1  150.82    7.91
   4   8   1  155.69    7.88
   4   8   1  147.17   10.08
   4   8   1  147.38   10.77
  -5  -8  -1   77.12    3.99
  -5  -8  -1   69.45    3.97
   5   8   1   73.01    3.96
   5   8   1   68.52    5.07
  -6  -8  -1   22.93    1.56
  -6  -8  -1   21.18    1.58
   6   8   1   23.28    1.58
   6   8   1   20.69    2.03
  -7  -8  -1   76.32    4.35
   7   8   1   77.53    4.35
  -8  -8  -1    3.09    0.80
   8   8   1    2.96    0.73
  -9  -8  -1   21.58    1.85
   9   8   1   23.88    1.91
 -10  -8  -1   16.35    1.60
  10   8   1   13.79    1.57
   5  -9  -1   -0.20    0.45
   5  -9  -1    0.22    0.35
  -5   9   1    0.41    1.18
   4  -9  -1   61.82    3.53
  -4   9   1   63.46    3.94
  -4   9   1   69.48    5.30
   3  -9  -1   19.87    1.26
  -3   9   1   20.96    2.29
   2  -9  -1   21.15    1.20
   2  -9  -1   20.07    1.24
  -2   9   1   21.00    2.20
   1  -9  -1  138.53    6.86
   1  -9  -1  128.30    6.87
  -1   9   1  130.71    9.67
   0  -9  -1    3.72    0.43
   0  -9  -1    4.81    0.47
   0   9   1    2.83    0.91
  -1  -9  -1  209.11   10.63
  -1  -9  -1  207.08   10.62
   1   9   1  201.22   14.61
  -2  -9  -1  205.97   10.48
  -2  -9  -1  209.76   10.50
   2   9   1  197.59   13.43
   2   9   1  196.74   14.35
  -3  -9  -1    0.83    0.45
  -3  -9  -1    1.34    0.44
  -3  -9  -1    1.53    0.44
   3   9   1    1.34    0.71
   3   9   1    1.55    0.54
   3   9   1    2.68    0.42
  -4  -9  -1  126.36    7.77
  -4  -9  -1  134.03    6.88
  -4  -9  -1  127.51    6.87
   4   9   1  124.99    8.74
   4   9   1  130.79    9.42
   4   9   1  135.18    6.84
  -5  -9  -1    6.82    0.74
  -5  -9  -1    5.65    0.73
   5   9   1    5.33    0.85
   5   9   1    4.98    1.11
   5   9   1    6.78    0.72
  -6  -9  -1   62.76    3.75
  -6  -9  -1   65.17    3.72
   6   9   1   71.80    3.77
   6   9   1   66.81    5.17
   6   9   1   62.68    4.76
  -7  -9  -1   35.49    2.44
   7   9   1   38.78    3.17
   7   9   1   43.61    2.57
  -8  -9  -1    2.62    0.82
   8   9   1    1.36    0.77
  -9  -9  -1   25.00    2.04
   9   9   1   26.39    2.09
 -10  -9  -1    4.34    1.03
 -10  -9  -1    4.32    1.11
  10   9   1    4.75    1.15
  -5  10   1   16.60    2.33
   4 -10  -1   40.19    2.29
  -4  10   1   42.55    3.84
   3 -10  -1    0.29    0.34
  -3  10   1   -0.06    0.98
   2 -10  -1   57.20    3.08
  -2  10   1   57.81    4.72
   1 -10  -1   60.37    3.36
   1 -10  -1   66.84    3.35
  -1  10   1   60.96    5.01
   0 -10  -1   22.63    1.35
   0 -10  -1   21.65    1.35
   0  10   1   21.05    2.16
  -1 -10  -1   86.59    4.59
  -1 -10  -1   86.81    4.60
   1  10   1   85.21    6.52
  -2 -10  -1    8.40    0.84
  -2 -10  -1    9.33    0.79
   2  10   1    8.29    1.01
   2  10   1    9.18    1.30
  -3 -10  -1   48.50    2.77
  -3 -10  -1   48.68    2.77
   3  10   1   48.32    3.91
   3  10   1   48.25    3.53
  -4 -10  -1   32.49    2.07
  -4 -10  -1   31.79    2.03
   4  10   1   34.97    2.93
   4  10   1   33.14    2.55
  -5 -10  -1   22.44    1.62
  -5 -10  -1   23.87    1.61
   5  10   1   20.84    1.95
   5  10   1   23.35    1.58
   5  10   1   25.48    2.35
  -6 -10  -1   55.43    3.43
   6  10   1   59.35    3.46
   6  10   1   58.35    4.32
   6  10   1   63.43    4.75
  -7 -10  -1    9.82    1.11
   7  10   1   10.44    1.61
   7  10   1   10.43    1.11
  -8 -10  -1   14.76    1.46
   8  10   1   16.83    2.08
   8  10   1   16.27    1.58
  -9 -10  -1   15.22    1.57
   9  10   1   17.38    1.63
 -10 -10  -1   -0.28    0.92
  10  10   1   -0.33    0.97
  -4  11   1    7.33    1.68
   3 -11  -1    1.79    0.37
  -3  11   1    3.26    1.29
   2 -11  -1   47.56    2.60
  -2  11   1   47.82    4.17
   1 -11  -1    9.49    0.77
   1 -11  -1   10.25    0.81
  -1  11   1   10.16    1.56
   0 -11  -1   36.50    2.09
   0 -11  -1   36.55    2.11
   0  11   1   37.82    3.32
  -1 -11  -1   37.94    2.19
  -1 -11  -1   38.20    2.19
   1  11   1   37.10    3.34
  -2 -11  -1    7.00    0.71
  -2 -11  -1    7.20    0.75
   2  11   1    7.20    1.28
  -3 -11  -1   77.87    4.36
  -3 -11  -1   81.83    4.38
   3  11   1   76.75    6.09
   3  11   1   82.47    5.60
  -4 -11  -1   11.16    1.07
  -4 -11  -1   11.19    1.06
   4  11   1   11.96    1.37
   4  11   1   10.61    1.51
  -5 -11  -1   17.47    1.48
  -5 -11  -1   18.01    1.42
   5  11   1   17.89    1.70
   5  11   1   19.69    2.17
  -6 -11  -1   40.95    2.65
   6  11   1   43.97    3.73
  -7 -11  -1    1.94    0.79
   7  11   1    1.84    1.17
  -8 -11  -1   15.50    1.56
   8  11   1   20.61    2.39
  -9 -11  -1    5.82    1.14
  -3  12   1   28.04    3.14
   2 -12  -1   31.93    1.82
  -2  12   1   32.68    3.28
  -1  12   1    6.29    1.44
   0 -12  -1   57.73    3.12
   0 -12  -1   55.68    3.14
   0  12   1   58.02    4.77
  -1 -12  -1   11.24    0.99
  -1 -12  -1   11.72    0.97
   1  12   1   11.28    1.67
  -2 -12  -1   21.32    1.50
  -2 -12  -1   22.16    1.49
   2  12   1   20.80    2.37
  -3 -12  -1   36.35    2.34
  -3 -12  -1   38.45    2.35
   3  12   1   38.91    3.45
   3  12   1   40.50    3.02
  -4 -12  -1    0.65    0.62
  -4 -12  -1   -0.27    0.51
   4  12   1    0.00    0.99
   4  12   1    0.26    0.65
  -5 -12  -1   37.00    2.36
  -5 -12  -1   34.64    2.36
   5  12   1   39.56    3.41
  -6 -12  -1   13.32    1.31
   6  12   1   15.55    1.95
  -7 -12  -1   10.27    1.21
   7  12   1    9.86    1.72
  -8 -12  -1   15.60    1.58
   8  12   1   17.72    2.29
  -9 -12  -1   -1.01    0.88
  -2  13   1    6.24    1.67
  -1  13   1    9.84    1.79
   0 -13  -1   26.88    1.67
   0  13   1   25.26    2.84
  -1 -13  -1    0.07    0.49
  -1 -13  -1    0.38    0.47
   1  13   1   -0.20    1.07
  -2 -13  -1   22.53    1.64
  -2 -13  -1   24.99    1.65
   2  13   1   24.06    2.63
  -3 -13  -1   11.04    1.10
  -3 -13  -1   10.38    1.05
   3  13   1   12.70    1.77
  -4 -13  -1    5.18    0.90
  -4 -13  -1    7.38    0.93
   4  13   1   10.48    1.65
  -5 -13  -1   22.84    1.84
   5  13   1   28.62    2.74
  -6 -13  -1   -0.57    0.76
   6  13   1    1.07    1.20
  -7 -13  -1    9.20    1.24
   7  13   1   11.44    1.82
  -8 -13  -1    4.69    1.12
   0  14   1    4.90    1.49
  -1 -14  -1    8.70    0.86
   1  14   1    7.74    1.68
  -2 -14  -1   21.47    1.58
  -2 -14  -1   20.32    1.56
   2  14   1   23.12    2.63
  -3 -14  -1    2.16    0.75
  -3 -14  -1    2.55    0.69
   3  14   1    2.36    1.26
  -4 -14  -1   13.95    1.32
  -4 -14  -1   14.82    1.38
   4  14   1   15.20    2.13
  -5 -14  -1    6.37    1.05
   5  14   1    7.33    1.68
  -6 -14  -1    2.69    0.95
   6  14   1    3.18    1.44
  -7 -14  -1   11.48    1.38
   7  14   1   11.18    1.96
   3  15   1    3.53    1.43
   4  15   1   18.72    2.47
   4  14  -2    8.92    1.51
   4  14  -2    7.73    1.55
   3  14  -2    2.40    1.30
   3  14  -2    2.55    1.18
  -3 -14   2    2.47    0.67
   2  14  -2   17.13    2.25
   2  14  -2   22.02    2.43
  -2 -14   2   17.71    1.36
   1  14  -2    0.97    1.06
   0  14  -2   12.04    1.87
   6  13  -2    3.91    1.38
  -6 -13   2    3.92    0.90
   5  13  -2   18.33    2.26
   5  13  -2   19.99    2.16
  -5 -13   2   17.31    1.59
   4  13  -2    3.48    1.09
   4  13  -2    2.28    1.16
  -4 -13   2    2.36    0.70
  -4 -13   2    3.70    0.75
   3  13  -2   10.74    1.66
   3  13  -2   11.23    1.59
  -3 -13   2   10.58    1.06
  -3 -13   2   11.68    1.07
   2  13  -2   25.09    2.45
   2  13  -2   24.28    2.53
  -2 -13   2   22.62    1.59
   1  13  -2    1.71    1.00
  -1 -13   2    1.68    0.52
   0  13  -2   30.66    2.95
  -1  13  -2    2.72    1.20
  -2  13  -2   12.10    1.86
   7  12  -2    1.80    1.24
   6  12  -2   13.43    1.96
  -6 -12   2   14.51    1.36
   5  12  -2   25.19    2.34
   5  12  -2   22.68    2.56
  -5 -12   2   20.06    1.71
   4  12  -2    2.79    0.97
   4  12  -2    1.91    1.07
  -4 -12   2    2.22    0.60
  -4 -12   2    1.70    0.66
   3  12  -2   47.74    3.88
   3  12  -2   46.47    3.77
  -3 -12   2   45.64    2.66
  -3 -12   2   43.07    2.67
   2  12  -2    7.02    1.32
   2  12  -2    6.58    1.19
  -2 -12   2    7.10    0.72
  -2 -12   2    5.82    0.74
   1  12  -2   28.15    2.57
   1  12  -2   26.26    2.59
  -1 -12   2   26.40    1.65
   0  12  -2   17.30    1.99
   0 -12   2   16.71    1.14
  -1  12  -2    2.36    1.14
  -2  12  -2   32.63    3.19
  -3  12  -2   13.41    1.93
   8  11  -2   16.97    2.25
   7  11  -2    1.74    1.15
  -7 -11   2    1.80    0.80
   6  11  -2   36.32    3.37
  -6 -11   2   35.44    2.34
   5  11  -2   10.80    1.67
   5  11  -2   10.22    1.32
  -5 -11   2    9.39    1.00
  -5 -11   2    9.08    0.97
   4  11  -2   27.45    2.64
   4  11  -2   29.14    2.47
  -4 -11   2   26.62    1.74
  -4 -11   2   23.23    1.73
   3  11  -2   74.97    5.55
   3  11  -2   75.97    5.54
  -3 -11   2   69.85    4.02
  -3 -11   2   72.26    4.02
   2  11  -2    0.02    0.69
   2  11  -2   -0.12    0.80
  -2 -11   2    0.26    0.46
  -2 -11   2   -0.39    0.41
   1  11  -2   74.04    5.44
   1  11  -2   74.70    5.33
  -1 -11   2   69.35    3.82
  -1 -11   2   67.50    3.82
   0  11  -2   29.00    2.72
   0  11  -2   31.24    2.75
   0 -11   2   30.69    1.76
  -1  11  -2   11.33    1.55
   1 -11   2   12.04    0.82
  -2  11  -2   68.54    5.43
  -3  11  -2    2.91    1.18
  -4  11  -2   23.33    2.66
   9  10  -2   20.36    1.88
   9  10  -2   18.18    2.49
   8  10  -2    7.71    1.12
   8  10  -2    5.67    1.54
   7  10  -2   20.53    1.64
   7  10  -2   18.09    2.30
  -7 -10   2   18.71    1.61
   6  10  -2   50.64    2.95
   6  10  -2   47.05    4.10
   6  10  -2   51.21    3.79
  -6 -10   2   42.81    2.88
   5  10  -2    3.13    0.82
   5  10  -2    2.55    1.07
  -5 -10   2    4.79    0.69
  -5 -10   2    2.28    0.65
   4  10  -2   68.37    5.08
   4  10  -2   69.87    5.19
  -4 -10   2   67.19    3.76
  -4 -10   2   65.72    3.76
   3  10  -2   44.96    3.55
   3  10  -2   42.25    3.41
  -3 -10   2   41.84    2.46
  -3 -10   2   42.53    2.48
   2  10  -2   31.53    2.66
   2  10  -2   30.89    2.72
  -2 -10   2   30.69    1.87
  -2 -10   2   30.76    1.83
   1  10  -2   77.62    5.93
   1  10  -2   80.77    5.80
  -1 -10   2   81.01    4.25
  -1 -10   2   79.49    4.24
   0  10  -2    2.63    0.90
   0  10  -2    4.04    0.90
   0 -10   2    3.36    0.43
   0 -10   2    3.18    0.44
  -1  10  -2   61.46    2.82
  -1  10  -2   60.45    4.75
   1 -10   2   60.60    3.22
  -2  10  -2   35.82    1.70
  -2  10  -2   36.97    3.18
  -3  10  -2   10.70    1.41
  -3  10  -2    5.05    0.37
  -4  10  -2   30.49    3.00
   9   9  -2   22.44    1.95
   8   9  -2    0.57    0.77
   7   9  -2   36.05    2.25
   7   9  -2   30.91    3.11
  -7  -9   2   31.16    2.15
   6   9  -2   31.41    2.44
   6   9  -2   27.48    1.91
   6   9  -2   25.72    2.74
  -6  -9   2   27.90    1.92
   5   9  -2   14.47    1.47
   5   9  -2   12.64    1.11
   5   9  -2   13.71    1.79
  -5  -9   2   13.27    1.12
  -5  -9   2   11.14    1.12
   4   9  -2   84.63    4.73
   4   9  -2   90.53    6.50
   4   9  -2   92.52    6.40
  -4  -9   2   84.18    4.76
  -4  -9   2   88.83    4.76
   3   9  -2    0.36    0.75
   3   9  -2   -0.08    0.58
  -3  -9   2    0.90    0.45
  -3  -9   2    0.02    0.35
   2   9  -2   60.36    4.58
   2   9  -2   61.47    4.57
  -2  -9   2   59.59    3.31
  -2  -9   2   62.17    3.31
   1   9  -2   69.38    5.16
   1   9  -2   65.83    5.03
  -1  -9   2   70.78    3.70
  -1  -9   2   69.92    3.69
   0   9  -2   10.15    1.24
   0   9  -2    9.06    1.18
   0   9  -2    9.11    0.62
   0  -9   2    9.15    0.67
   0  -9   2    9.04    0.72
  -1   9  -2  164.02    7.14
  -1   9  -2  157.34   11.39
   1  -9   2  156.30    8.18
  -2   9  -2   21.51    2.15
   2  -9   2   21.95    1.20
  -3   9  -2   37.60    3.27
  -4   9  -2   42.23    3.67
  10   8  -2   13.17    1.54
   9   8  -2   12.95    1.42
   8   8  -2    9.38    1.14
   7   8  -2   39.05    2.48
   6   8  -2    6.96    0.95
   6   8  -2    6.19    0.80
  -6  -8   2    6.06    0.80
   5   8  -2   94.41    6.25
   5   8  -2   79.64    6.35
   5   8  -2   86.11    4.68
  -5  -8   2   82.36    4.69
  -5  -8   2   86.23    4.69
   4   8  -2  106.19    5.73
   4   8  -2  112.13    7.71
   4   8  -2  105.40    7.73
  -4  -8   2  105.63    5.75
  -4  -8   2  110.38    5.76
   3   8  -2   14.06    1.66
   3   8  -2   13.69    1.38
   3   8  -2   13.08    0.99
  -3  -8   2   14.08    1.05
  -3  -8   2   14.94    1.00
   2   8  -2  226.34   16.12
   2   8  -2  247.96   16.84
   2   8  -2  243.59   12.38
  -2  -8   2  244.63   12.41
  -2  -8   2  241.16   12.40
   1   8  -2   59.97    2.84
   1   8  -2   61.49    4.46
   1   8  -2   63.10    4.54
  -1  -8   2   58.96    3.25
  -1  -8   2   61.43    3.25
  -1  -8   2   60.65    3.24
   0   8  -2  155.62   10.70
   0   8  -2  156.31   11.20
   0   8  -2  164.09    7.10
   0  -8   2  158.16    8.14
   0  -8   2  148.12    8.14
   0  -8   2  163.18    8.14
   0  -8   2  160.63    9.22
  -1   8  -2  111.21    8.13
  -1   8  -2  114.55    7.79
   1  -8   2  114.53    5.80
   1  -8   2  110.47    5.81
  -2   8  -2    5.29    0.96
   2  -8   2    4.89    0.36
   2  -8   2    4.92    0.37
  -3   8  -2   95.91    7.12
  -4   8  -2   23.91    2.40
   5  -8   2   22.83    1.26
   5  -8   2   23.31    1.27
   6  -8   2   36.91    2.01
   6  -8   2   36.61    2.01
  10   7  -2   21.09    1.96
   9   7  -2    0.29    0.80
   8   7  -2   50.79    3.10
   7   7  -2   58.72    3.43
   6   7  -2    4.29    0.76
   6   7  -2    4.33    0.69
  -6  -7   2    3.37    0.66
   5   7  -2  151.66    8.22
   5   7  -2  167.21   11.01
  -5  -7   2  150.62    8.23
   4   7  -2   17.95    2.04
   4   7  -2   19.97    1.26
   4   7  -2   18.82    1.28
   4   7  -2   20.72    1.69
  -4  -7   2   21.44    1.31
  -4  -7   2   18.46    1.31
   3   7  -2  121.78    6.54
   3   7  -2  129.38    8.76
   3   7  -2  129.94    8.84
  -3  -7   2  126.21    6.56
  -3  -7   2  120.26    6.55
   2   7  -2  220.15   14.85
   2   7  -2  228.73   15.45
   2   7  -2  216.62    9.94
   2   7  -2  222.94   11.39
  -2  -7   2  226.05   11.40
  -2  -7   2  209.86   11.40
  -2  -7   2  226.92   11.41
   1   7  -2    3.65    0.62
   1   7  -2    3.40    0.68
   1   7  -2    3.14    0.33
  -1  -7   2    3.23    0.36
  -1  -7   2    4.52    0.38
  -1  -7   2    2.59    0.34
  -1  -7   2    3.45    0.39
   0   7  -2  212.36    9.17
   0   7  -2  202.98   13.70
   0   7  -2  205.04   14.37
   0  -7   2  206.78   10.50
   0  -7   2  206.05   10.50
   0  -7   2  195.62   10.52
   0  -7   2  207.34   10.51
  -1   7  -2   44.73    3.49
  -1   7  -2   43.44    3.37
   1  -7   2   45.29    2.39
   1  -7   2   45.76    2.37
   1  -7   2   46.26    2.38
  -2   7  -2   67.62    5.05
   2  -7   2   66.46    3.46
   2  -7   2   67.88    3.51
   2  -7   2   67.72    3.48
  -3   7  -2  174.68   12.43
  -4   7  -2   -0.12    0.76
   4  -7   2    0.41    0.16
  -5   7  -2   69.99    4.12
   5  -7   2   63.22    3.46
  -6   7  -2   22.73    1.56
  -6   7  -2   23.12    1.54
   6  -7   2   21.74    1.33
   6  -7   2   22.72    1.32
  -7   7  -2    6.81    0.79
  -7   7  -2    7.54    0.83
   7  -7   2    8.16    0.70
   7  -7   2    7.01    0.64
  10   6  -2   13.54    1.55
   9   6  -2    1.77    0.84
   8   6  -2   56.45    3.38
   7   6  -2   44.54    2.71
   6   6  -2   19.15    1.41
  -6  -6   2   19.66    1.42
   5   6  -2  115.93    7.78
   5   6  -2  109.07    5.85
   5   6  -2  110.01    5.83
  -5  -6   2  104.19    5.84
   4   6  -2    7.28    0.65
   4   6  -2    6.50    0.63
   4   6  -2    7.25    0.86
  -4  -6   2    6.75    0.64
  -4  -6   2    6.70    0.65
   3   6  -2  274.92   18.50
   3   6  -2  266.82   13.70
   3   6  -2  270.28   13.70
   3   6  -2  257.06   17.86
  -3  -6   2  273.61   13.73
  -3  -6   2  257.73   13.71
   2   6  -2   87.44    4.44
   2   6  -2   85.12    5.98
   2   6  -2   83.56    4.44
   2   6  -2   86.41    6.03
   2   6  -2   82.87    3.88
  -2  -6   2   86.06    4.46
  -2  -6   2   85.41    4.46
  -2  -6   2   81.08    4.45
   1   6  -2  100.85    6.83
   1   6  -2  101.60    7.05
   1   6  -2   97.07    4.50
  -1  -6   2  102.37    5.16
  -1  -6   2   94.98    5.16
  -1  -6   2   97.08    5.15
  -1  -6   2  101.54    5.16
   0   6  -2  313.70   22.14
   0   6  -2  309.07   21.03
   0  -6   2  329.34   16.27
   0  -6   2  322.62   16.29
   0  -6   2  312.54   16.30
   0  -6   2  327.84   16.28
  -1   6  -2   29.17    2.31
  -1   6  -2   27.96    2.34
   1  -6   2   31.47    1.56
   1  -6   2   27.98    1.59
   1  -6   2   29.13    1.56
  -2   6  -2  136.69    9.86
  -2   6  -2  139.09    8.43
   2  -6   2  141.49    7.19
   2  -6   2  146.72    7.10
   2  -6   2  129.31    7.18
  -3   6  -2  103.96    7.25
   3  -6   2   99.13    5.12
   3  -6   2   95.96    5.15
  -4   6  -2   26.05    2.35
  -4   6  -2   24.90    1.61
   4  -6   2   24.73    1.35
   4  -6   2   25.70    1.35
  -5   6  -2  116.61    7.14
   5  -6   2  112.61    6.03
   5  -6   2  121.97    6.03
  -6   6  -2   10.89    0.90
  -6   6  -2    9.19    0.86
   6  -6   2   10.92    0.79
   6  -6   2    9.85    0.73
  -7   6  -2   40.59    2.58
  -7   6  -2   37.33    2.51
   7  -6   2   37.08    2.16
   7  -6   2   36.17    2.12
  -8   6  -2   24.67    1.78
  -8   6  -2   18.56    1.59
  10   5  -2    5.84    1.20
   9   5  -2   21.12    1.76
   8   5  -2   43.47    2.72
   7   5  -2    2.08    0.63
   6   5  -2  137.16    7.00
   6   5  -2  126.59    6.98
   5   5  -2   55.63    3.04
   5   5  -2   53.18    3.04
  -5  -5   2   54.82    3.05
   4   5  -2  183.34    9.47
   4   5  -2  190.71   12.71
   4   5  -2  183.08    9.48
   4   5  -2  170.33    9.47
  -4  -5   2  192.88   11.20
  -4  -5   2  177.04    9.47
   3   5  -2  366.78   19.04
   3   5  -2  362.71   19.05
   3   5  -2  382.97   25.70
   3   5  -2  375.00   19.05
  -3  -5   2  368.38   19.04
  -3  -5   2  378.90   19.06
   2   5  -2   25.07    2.08
   2   5  -2   23.32    1.21
   2   5  -2   24.73    1.37
   2   5  -2   24.35    1.84
   2   5  -2   24.10    1.38
  -2  -5   2   23.01    1.38
  -2  -5   2   24.20    1.39
  -2  -5   2   24.40    1.38
   1   5  -2  321.47   14.16
   1   5  -2  300.44   20.92
   1   5  -2  333.38   16.25
   1   5  -2  325.69   16.23
   1   5  -2  320.19   21.98
  -1  -5   2  318.56   16.23
  -1  -5   2  308.24   16.24
  -1  -5   2  316.47   16.22
  -1  -5   2  315.83   16.22
   0   5  -2  269.95   16.34
   0   5  -2  306.14   21.07
   0   5  -2  325.96   22.20
   0  -5   2  328.69   16.35
   0  -5   2  331.87   16.39
   0  -5   2  347.59   16.35
   0  -5   2  335.36   16.36
  -1   5  -2  101.93    7.24
  -1   5  -2  102.57    7.59
  -1   5  -2  108.50    6.52
   1  -5   2  102.84    6.26
   1  -5   2  108.55    5.50
   1  -5   2  117.64    5.52
  -2   5  -2  243.23   16.39
  -2   5  -2  307.48   18.89
   2  -5   2  262.93   13.84
  -3   5  -2    5.23    0.45
  -3   5  -2    5.07    0.83
   3  -5   2    6.39    0.40
   3  -5   2    6.39    0.39
   3  -5   2    5.19    0.34
  -4   5  -2  155.89    9.29
   4  -5   2  153.46    7.85
   4  -5   2  146.64    7.85
   4  -5   2  157.64    7.85
  -5   5  -2   86.96    5.35
   5  -5   2   85.90    4.52
   5  -5   2   88.46    4.53
  -6   5  -2    7.50    0.73
   6  -5   2    7.53    0.70
   6  -5   2    6.87    0.61
  -7   5  -2   52.48    3.55
   7  -5   2   53.09    3.02
   7  -5   2   57.85    3.06
   7  -5   2   58.47    3.06
  -8   5  -2    6.63    0.85
  -8   5  -2    5.53    0.75
   8  -5   2    6.26    0.74
   8  -5   2    5.82    0.73
  10   4  -2   -0.11    0.85
   9   4  -2   40.40    2.66
   8   4  -2   26.91    1.91
   7   4  -2   30.59    2.13
   7   4  -2   37.16    2.14
   6   4  -2  191.73    9.57
   6   4  -2  173.89    9.55
   5   4  -2    0.43    0.30
   5   4  -2    0.56    0.37
   5   4  -2    0.08    0.32
   4   4  -2  308.79   15.70
   4   4  -2  305.35   15.68
  -4  -4   2  302.71   15.68
   3   4  -2  126.60    6.59
   3   4  -2  132.31    8.83
   3   4  -2  127.34    6.58
   3   4  -2  126.21    6.60
  -3  -4   2  129.74    6.60
  -3  -4   2  127.61    7.78
  -3  -4   2  118.49    6.58
   2   4  -2    3.16    0.37
   2   4  -2    2.23    0.30
   2   4  -2    2.64    0.29
   2   4  -2    2.72    0.27
   2   4  -2    2.85    0.29
   2   4  -2    3.04    0.37
  -2  -4   2    2.93    0.35
  -2  -4   2    2.76    0.34
  -2  -4   2    3.58    0.33
  -2  -4   2    3.42    0.32
  -2  -4   2    2.95    0.31
   1   4  -2  313.41   15.51
   1   4  -2  315.79   20.96
   1   4  -2  296.99   15.49
   1   4  -2  293.20   17.59
   1   4  -2  298.42   15.49
   1   4  -2  304.49   13.51
   1   4  -2  296.81   19.98
  -1  -4   2  306.93   15.48
  -1  -4   2  313.06   15.50
  -1  -4   2  301.17   17.58
  -1  -4   2  308.08   15.49
  -1  -4   2  292.58   15.51
   0   4  -2    2.14    0.43
   0   4  -2    3.58    0.43
   0   4  -2    2.34    0.27
   0   4  -2    3.65    0.36
   0  -4   2    2.38    0.24
   0  -4   2    2.33    0.27
   0  -4   2    2.19    0.26
   0  -4   2    3.08    0.26
  -1   4  -2  429.03   28.48
  -1   4  -2  441.95   30.07
  -1   4  -2  440.00   26.27
   1  -4   2  473.61   22.21
   1  -4   2  417.40   25.22
   1  -4   2  411.80   22.26
  -2   4  -2  277.83   17.14
  -2   4  -2  280.26   19.68
   2  -4   2  297.72   14.46
   2  -4   2  276.73   14.88
  -3   4  -2    8.37    0.54
  -3   4  -2    9.51    1.06
  -3   4  -2    8.77    0.62
   3  -4   2    7.74    0.49
   3  -4   2    8.28    0.52
   3  -4   2    8.86    0.54
  -4   4  -2  223.09   12.84
  -4   4  -2  221.96   13.37
  -4   4  -2  223.76   12.88
   4  -4   2  221.02   11.31
   4  -4   2  224.02   11.30
   4  -4   2  214.43   11.31
  -5   4  -2   15.56    1.09
  -5   4  -2   17.01    1.08
   5  -4   2   15.06    0.95
   5  -4   2   15.20    0.97
  -6   4  -2   59.28    3.61
  -6   4  -2   59.74    3.76
   6  -4   2   56.86    3.17
   6  -4   2   61.97    3.21
  -7   4  -2   49.77    3.35
  -7   4  -2   52.31    3.24
   7  -4   2   52.01    2.86
   7  -4   2   54.07    2.90
  -8   4  -2    0.64    0.51
  -8   4  -2    0.58    0.49
   8  -4   2    0.32    0.53
   8  -4   2    0.26    0.49
  -9   4  -2   26.89    2.08
  -9   4  -2   22.55    1.75
  -9   4  -2   21.22    1.82
   9  -4   2   25.49    1.73
  10   3  -2    8.43    1.20
   9   3  -2   52.05    3.21
   8   3  -2    0.75    0.63
   7   3  -2  104.91    5.55
   7   3  -2  100.12    5.55
   6   3  -2   74.61    4.20
   6   3  -2   79.33    4.20
   5   3  -2   83.54    4.45
   5   3  -2   82.74    4.45
   5   3  -2   82.63    4.43
   4   3  -2  329.36   16.91
   4   3  -2  319.40   16.92
   4   3  -2  344.47   16.92
  -4  -3   2  326.71   19.19
   3   3  -2   58.23    3.60
   3   3  -2   59.90    3.15
   3   3  -2   57.91    3.17
   3   3  -2   60.31    3.16
  -3  -3   2   57.39    3.15
  -3  -3   2   59.11    3.72
  -3  -3   2   58.78    3.16
  -3  -3   2   61.48    3.59
   2   3  -2  372.62   19.65
   2   3  -2  375.31   19.65
   2   3  -2  385.51   19.64
   2   3  -2  385.68   22.32
   2   3  -2  379.39   17.12
  -2  -3   2  401.22   23.21
  -2  -3   2  391.40   19.64
  -2  -3   2  390.99   22.30
  -2  -3   2  385.09   19.66
   0   3  -2  224.86   12.70
   0   3  -2  215.99   11.18
   0   3  -2  218.32   15.14
   0   3  -2  218.16   13.23
   0   3  -2  205.23   14.38
   0   3  -2  205.94   11.20
   0  -3   2  221.05   12.70
   0  -3   2  239.40   11.20
   1  -3   2  577.24   29.39
  -2   3  -2   40.66    2.40
  -2   3  -2   32.05    2.32
  -2   3  -2   39.68    2.90
   2  -3   2   40.08    2.02
   2  -3   2   41.27    2.03
  -3   3  -2  233.46   14.16
  -3   3  -2  232.12   13.63
   3  -3   2  245.49   11.99
   3  -3   2  226.27   11.98
   3  -3   2  236.51   11.96
  -4   3  -2  292.66   16.98
  -4   3  -2  299.57   16.95
   4  -3   2  294.83   14.93
   4  -3   2  284.35   14.93
   4  -3   2  292.03   14.91
  -5   3  -2    2.02    0.34
  -5   3  -2    1.15    0.34
   5  -3   2    2.26    0.30
   5  -3   2    1.27    0.31
  -6   3  -2  143.40    8.30
  -6   3  -2  137.01    8.30
   6  -3   2  137.18    7.30
   6  -3   2  146.09    7.33
  -7   3  -2   43.49    2.82
   7  -3   2   46.78    2.54
   7  -3   2   43.26    2.48
  -8   3  -2   17.26    1.54
  -8   3  -2   19.61    1.50
   8  -3   2   22.21    1.44
   8  -3   2   20.17    1.44
  -9   3  -2   35.10    2.50
  -9   3  -2   34.21    2.60
   9  -3   2   38.25    2.37
   9  -3   2   41.39    2.35
  10   2  -2   20.22    1.79
   9   2  -2   20.85    1.69
   8   2  -2   16.16    1.39
   8   2  -2   17.54    1.37
   7   2  -2  123.35    6.80
   7   2  -2  131.73    6.81
   6   2  -2   43.68    2.34
   6   2  -2   38.18    2.33
   6   2  -2   37.33    2.31
  -6  -2   2   40.93    2.65
   5   2  -2  125.90    6.61
   5   2  -2  123.03    6.59
   5   2  -2  128.73    6.60
  -5  -2   2  125.52    7.49
   4   2  -2  311.39   15.95
   4   2  -2  308.21   15.97
   4   2  -2  309.86   15.95
  -4  -2   2  319.56   18.11
  -4  -2   2  307.40   13.88
   3   2  -2   14.86    0.92
   3   2  -2   14.14    0.88
   3   2  -2   14.56    0.91
   3   2  -2   14.31    1.02
  -3  -2   2   14.15    0.76
  -3  -2   2   13.99    1.01
   1   2  -2  252.24   12.62
   1   2  -2  241.11   14.92
   1   2  -2  241.08   12.62
   1   2  -2  247.10   14.34
   1   2  -2  252.28   12.63
   1   2  -2  231.79   11.00
  -1  -2   2  244.14   14.32
  -1  -2   2  257.49   14.91
  -1  -2   2  251.59   17.05
  -1  -2   2  249.57   12.64
   0   2  -2  484.42   28.09
   0   2  -2  380.94   21.93
   0  -2   2  426.22   25.90
  -1   2  -2  227.34   16.08
  -1   2  -2  222.03   14.05
   1  -2   2  233.67   13.50
   1  -2   2  233.66   14.05
   1  -2   2  244.60   11.88
  -2   2  -2    1.21    0.20
  -2   2  -2    0.12    0.14
  -2   2  -2    0.51    0.08
   2  -2   2    0.24    0.12
  -3   2  -2  468.24   27.33
   3  -2   2  472.41   24.02
   3  -2   2  477.02   24.06
  -4   2  -2  261.96   14.98
   4  -2   2  256.84   13.16
   4  -2   2  256.16   13.18
   4  -2   2  256.48   13.17
  -5   2  -2   62.38    3.58
  -5   2  -2   57.62    3.58
   5  -2   2   59.09    3.14
   5  -2   2   56.87    3.13
   5  -2   2   59.92    3.16
  -6   2  -2  146.31    8.85
  -6   2  -2  154.61    8.85
   6  -2   2  153.41    7.81
   6  -2   2  146.42    7.78
  -7   2  -2    3.23    0.56
   7  -2   2    3.33    0.54
   7  -2   2    2.94    0.47
  -8   2  -2   42.25    2.91
   8  -2   2   47.82    2.67
  -9   2  -2   15.89    1.38
  -9   2  -2   13.20    1.37
   9  -2   2   16.67    1.39
   9  -2   2   16.32    1.35
 -10   2  -2    3.14    0.78
  10  -2   2    4.03    0.87
  10  -2   2    4.77    0.86
  10   1  -2   30.75    2.31
   9   1  -2    8.11    1.09
   8   1  -2   55.82    3.18
   8   1  -2   52.77    3.18
   7   1  -2  125.66    6.42
   7   1  -2  113.95    6.41
  -7  -1   2  120.83    7.58
   6   1  -2    4.35    0.60
   6   1  -2    5.48    0.59
   6   1  -2    3.84    0.56
  -6  -1   2    5.22    0.71
   5   1  -2  366.74   18.48
   5   1  -2  358.56   18.47
   5   1  -2  357.44   18.49
  -5  -1   2  360.54   20.97
  -5  -1   2  358.46   16.07
   4   1  -2   40.78    2.30
   4   1  -2   41.90    2.32
   4   1  -2   41.88    2.29
  -4  -1   2   42.30    2.60
   3   1  -2  374.02   22.25
   3   1  -2  387.58   19.59
   3   1  -2  391.35   19.59
   3   1  -2  379.34   19.61
   3   1  -2  379.73   26.40
  -3  -1   2  384.70   22.24
  -3  -1   2  390.45   23.14
   1   1  -2   17.09    0.88
   1   1  -2   16.38    1.15
   1   1  -2   17.13    1.02
  -1  -1   2   19.08    1.15
  -1   1  -2  274.16   14.16
  -1   1  -2  273.23   18.11
  -1   1  -2  273.24   16.10
  -1   1  -2  278.89   16.73
  -1   1  -2  287.12   14.15
   1  -1   2  250.87   19.13
   1  -1   2  260.74   18.08
   1  -1   2  292.06   16.09
   1  -1   2  292.76   16.73
   1  -1   2  290.90   14.14
  -2   1  -2   36.18    1.87
  -2   1  -2   35.42    2.16
  -2   1  -2   36.69    2.24
   2  -1   2   35.77    1.89
   2  -1   2   35.33    1.88
  -4   1  -2    1.84    0.31
   4  -1   2    1.76    0.28
   4  -1   2    1.75    0.24
   4  -1   2    1.31    0.24
  -5   1  -2  306.74   18.23
   5  -1   2  318.43   16.06
   5  -1   2  316.29   16.05
  -6   1  -2   52.86    3.32
   6  -1   2   57.05    2.96
   6  -1   2   51.60    2.90
  -7   1  -2   17.18    1.38
   7  -1   2   20.12    1.33
   7  -1   2   18.75    1.23
  -8   1  -2   63.39    4.20
   8  -1   2   72.28    3.82
  -9   1  -2    0.96    0.62
  -9   1  -2    1.36    0.64
   9  -1   2    1.57    0.75
   9  -1   2    2.03    0.67
  10  -1   2   22.30    1.76
  10  -1   2   20.59    1.75
  10   0  -2   20.78    1.86
   9   0  -2    1.08    0.70
   8   0  -2   49.53    2.92
   8   0  -2   47.56    2.86
   7   0  -2   22.56    1.60
   7   0  -2   25.32    1.59
  -7   0   2   23.69    1.88
   6   0  -2   75.27    4.19
   6   0  -2   77.18    4.16
   6   0  -2   78.03    4.19
  -6   0   2   75.42    3.60
  -6   0   2   78.84    4.92
   5   0  -2  278.26   14.70
   5   0  -2  284.74   14.69
   5   0  -2  284.65   14.68
  -5   0   2  277.56   16.66
  -5   0   2  290.55   12.77
  -5   0   2  298.74   17.36
   4   0  -2    0.80    0.27
   4   0  -2    2.07    0.33
   4   0  -2    0.86    0.30
  -4   0   2    0.36    0.19
  -4   0   2    1.34    0.31
   3   0  -2  466.95   23.85
   3   0  -2  450.73   27.09
  -3   0   2  469.64   27.08
  -3   0   2  483.70   28.19
  -3   0   2  468.87   20.77
  -2   0   2  480.68   24.47
   1   0  -2  268.89   13.45
   1   0  -2  259.77   11.71
   1   0  -2  254.47   13.45
   1   0  -2  263.26   15.29
  -1   0   2  274.84   15.89
  -1   0   2  259.08   13.45
   0   0  -2  113.01    7.34
   0   0   2  119.01    6.22
   0   0   2  127.56    6.22
  -1   0  -2   50.34    3.45
  -1   0  -2   49.93    2.71
  -1   0  -2   53.06    2.72
  -1   0  -2   51.99    3.21
  -1   0  -2   51.46    3.10
   1   0   2   46.86    3.44
   1   0   2   53.66    2.72
   1   0   2   52.30    3.10
   1   0   2   53.06    3.21
  -2   0  -2  429.97   25.86
   2   0   2  429.87   21.89
   3   0   2  537.63   27.33
  -4   0  -2  147.70    7.48
  -4   0  -2  145.29    7.48
   4   0   2  145.84    7.50
   4   0   2  142.24    7.48
  -5   0  -2  296.21   14.73
   5   0   2  283.29   14.73
   5   0   2  283.24   14.74
  -6   0  -2   27.99    1.97
  -6   0  -2   31.27    1.75
   6   0   2   28.88    1.71
   6   0   2   30.84    1.78
   7   0   2   75.62    4.16
   7   0   2   79.67    4.24
  -8   0  -2   68.31    4.58
   8   0   2   80.75    4.16
  -9   0  -2    3.67    0.73
   9   0   2    3.78    0.81
   9   0   2    4.20    0.76
  10   0   2   31.12    2.17
  10   0   2   27.07    2.07
   9  -1  -2    9.56    1.13
   9  -1  -2   10.18    1.09
   8  -1  -2   79.77    4.37
   8  -1  -2   77.64    4.41
   7  -1  -2    0.24    0.46
   7  -1  -2    0.31    0.54
  -7   1   2   -0.12    0.50
   6  -1  -2  220.46   11.70
   6  -1  -2  233.84   11.69
   6  -1  -2  218.60   11.68
  -6   1   2  228.98   13.80
  -6   1   2  226.43   10.15
   5  -1  -2  116.64    5.99
   5  -1  -2  109.07    6.00
   5  -1  -2  116.55    5.98
  -5   1   2  109.44    6.79
  -5   1   2  113.09    5.18
  -5   1   2  119.07    7.08
   4  -1  -2  126.31    6.58
   4  -1  -2  122.03    7.46
   4  -1  -2  128.63    6.59
  -4   1   2  124.80    7.48
  -4   1   2  127.49    7.77
  -4   1   2  130.52    5.71
  -3   1   2  634.43   43.72
   2  -1  -2   76.41    3.85
   2  -1  -2   73.70    3.83
   2  -1  -2   74.57    4.37
  -2   1   2   75.50    4.54
  -2   1   2   70.76    3.81
  -2   1   2   72.60    5.19
  -2   1   2   70.78    4.37
  -2   1   2   72.09    3.32
   0  -1  -2  365.88   23.83
   0  -1  -2  399.29   20.18
   0   1   2  421.46   23.85
  -1  -1  -2  281.11   14.83
  -1  -1  -2  283.76   17.52
  -1  -1  -2  298.75   16.86
   1   1   2  287.22   14.82
   1   1   2  299.92   16.85
  -3  -1  -2  354.44   20.55
  -3  -1  -2  353.61   21.37
  -3  -1  -2  361.82   18.11
  -3  -1  -2  356.71   18.09
   3   1   2  345.17   18.09
   3   1   2  355.65   18.10
  -4  -1  -2  489.11   24.40
  -4  -1  -2  481.02   24.38
   4   1   2  485.85   24.39
   4   1   2  458.16   24.38
  -5  -1  -2  157.43    8.05
  -5  -1  -2  160.91    8.05
   5   1   2  153.50    8.05
   5   1   2  149.47    8.03
  -6  -1  -2    4.66    0.53
   6   1   2    3.99    0.46
   6   1   2    4.13    0.52
  -7  -1  -2  157.39    8.38
   7   1   2  153.42    8.34
   7   1   2  169.63    8.42
   8   1   2   21.20    1.58
  -9  -1  -2   26.61    2.13
   9   1   2   33.86    2.10
   9   1   2   30.00    2.08
 -10  -1  -2   29.98    2.31
  10   1   2   32.26    2.23
   9  -2  -2   35.00    2.34
   9  -2  -2   37.42    2.45
   8  -2  -2   30.81    1.99
   8  -2  -2   28.58    2.03
  -8   2   2   30.66    2.37
   7  -2  -2   37.15    2.29
   7  -2  -2   38.30    2.25
  -7   2   2   37.26    2.68
   6  -2  -2  164.82    8.90
   6  -2  -2  167.37    8.88
   6  -2  -2  167.38    8.89
  -6   2   2  178.22   10.51
  -6   2   2  174.38    7.72
   5  -2  -2   22.10    1.40
   5  -2  -2   21.89    1.36
  -5   2   2   23.44    1.65
  -5   2   2   22.35    1.17
   4  -2  -2  242.42   12.65
   4  -2  -2  248.07   12.66
  -4   2   2  244.86   17.23
  -4   2   2  252.31   14.96
  -4   2   2  245.68   11.01
   3  -2  -2  365.30   18.82
   3  -2  -2  358.67   21.36
   3  -2  -2  376.92   18.82
  -3   2   2  381.63   22.24
  -3   2   2  361.32   25.52
  -3   2   2  369.32   16.38
   2  -2  -2   64.26    3.73
   2  -2  -2   62.68    3.27
   2  -2  -2   63.94    3.29
  -2   2   2   61.56    3.87
  -2   2   2   61.58    4.48
  -2   2   2   60.61    2.83
   0  -2  -2  242.21   13.50
   0  -2  -2  204.41   11.87
   0  -2  -2  241.50   11.90
   0   2   2  242.90   14.05
   0   2   2  192.43   11.85
   0   2   2  243.10   16.07
   0   2   2  255.91   13.50
  -1  -2  -2  390.09   19.90
  -1  -2  -2  381.76   23.51
   1   2   2  414.50   23.52
   1   2   2  375.71   19.88
  -2  -2  -2  537.64   32.57
   2   2   2  545.68   27.58
  -3  -2  -2    8.17    0.58
  -3  -2  -2    8.73    0.69
  -3  -2  -2    9.46    0.70
  -3  -2  -2    8.02    0.59
   3   2   2    7.92    0.56
   3   2   2    8.50    0.61
  -4  -2  -2  104.77    5.50
  -4  -2  -2  107.23    5.50
   4   2   2  104.04    5.48
   4   2   2  105.00    5.50
  -5  -2  -2   52.33    2.99
  -5  -2  -2   58.00    3.01
   5   2   2   55.80    3.01
   5   2   2   54.81    2.97
  -6  -2  -2   72.10    3.89
  -6  -2  -2   73.13    3.88
   6   2   2   68.01    3.84
   6   2   2   73.78    3.90
  -7  -2  -2  174.98    9.02
   7   2   2  162.21    8.96
   7   2   2  179.81    9.04
   8   2   2    0.56    0.55
  -9  -2  -2   42.51    3.20
   9   2   2   53.34    3.03
   9   2   2   52.86    3.05
 -10  -2  -2   10.75    1.28
  10   2   2   15.47    1.42
  11   2   2    2.77    0.99
   9  -3  -2   35.78    2.40
   9  -3  -2   34.43    2.27
   8  -3  -2    0.99    0.68
   8  -3  -2    1.26    0.61
  -8   3   2    1.57    0.73
   7  -3  -2   52.79    2.94
   7  -3  -2   49.03    2.97
  -7   3   2   51.82    3.49
   6  -3  -2  110.57    6.04
   6  -3  -2  113.17    6.04
   6  -3  -2  113.35    6.01
  -6   3   2  115.71    7.12
  -6   3   2  116.07    5.22
   5  -3  -2    1.11    0.37
   5  -3  -2    1.07    0.42
  -5   3   2    2.76    0.50
  -5   3   2    2.00    0.32
  -5   3   2    2.01    0.46
   4  -3  -2  234.56   12.14
   4  -3  -2  234.35   12.15
   4  -3  -2  250.27   12.16
  -4   3   2  231.11   16.57
  -4   3   2  239.08   14.35
  -4   3   2  237.11   10.55
  -4   3   2  228.31   13.83
   3  -3  -2   70.24    3.65
   3  -3  -2   72.45    3.68
   3  -3  -2   65.42    4.13
  -3   3   2   70.74    3.16
  -3   3   2   73.02    4.33
  -3   3   2   64.56    4.20
  -3   3   2   69.82    5.08
   2  -3  -2  199.54   10.25
   2  -3  -2  211.66   10.28
   2  -3  -2  205.60   11.65
  -2   3   2  202.74   13.98
  -2   3   2  205.33    8.91
  -2   3   2  170.03   11.69
  -2   3   2  206.45   12.14
  -1   3   2  601.22   36.19
   0  -3  -2    3.73    0.37
   0  -3  -2    4.10    0.43
   0  -3  -2    5.08    0.42
   0  -3  -2    4.12    0.43
   0   3   2    4.04    0.58
   0   3   2    3.33    0.32
   0   3   2    3.86    0.43
   0   3   2    2.96    0.32
  -2  -3  -2  122.26    6.27
  -2  -3  -2  116.21    7.39
  -2  -3  -2  126.48    6.28
  -2  -3  -2  122.57    7.12
   2   3   2  109.36    7.94
   2   3   2  121.74    6.26
   2   3   2  122.95    6.26
   2   3   2  129.10    7.42
  -3  -3  -2  209.51   11.89
  -3  -3  -2  201.66   10.48
  -3  -3  -2  203.07   10.47
  -3  -3  -2  195.60   12.35
   3   3   2  205.34   10.46
   3   3   2  207.54   10.47
  -4  -3  -2  420.12   26.20
  -4  -3  -2  431.43   22.19
   4   3   2  439.39   22.19
   4   3   2  447.73   22.20
  -5  -3  -2    6.46    0.57
  -5  -3  -2    4.17    0.47
   5   3   2    4.22    0.48
   5   3   2    4.30    0.44
  -6  -3  -2  267.39   13.28
  -6  -3  -2  255.92   13.26
   6   3   2  249.30   13.23
   6   3   2  255.00   13.27
  -7  -3  -2  106.35    5.68
   7   3   2  105.01    5.68
  -8  -3  -2   18.09    1.41
   8   3   2   18.25    1.44
   9   3   2   50.63    3.10
 -10  -3  -2    0.94    0.69
  10   3   2    1.64    0.82
  11   3   2   17.40    1.70
   8  -4  -2    3.44    0.68
   8  -4  -2    2.88    0.76
  -8   4   2    3.34    0.87
   7  -4  -2   58.39    3.56
   7  -4  -2   63.56    3.53
  -7   4   2   67.77    4.22
   6  -4  -2   34.33    2.08
   6  -4  -2   36.66    2.14
   6  -4  -2   34.22    2.14
  -6   4   2   36.42    2.51
  -6   4   2   36.95    1.81
   5  -4  -2  101.27    5.51
   5  -4  -2  104.14    5.48
  -5   4   2  107.69    4.76
  -5   4   2  105.54    7.69
  -5   4   2  102.36    6.49
   4  -4  -2  181.82    8.97
   4  -4  -2  171.05    8.92
  -4   4   2  145.12   10.20
  -4   4   2  178.68   12.31
  -4   4   2  179.85   10.57
  -4   4   2  181.55    7.76
   3  -4  -2   15.51    0.98
   3  -4  -2   13.93    0.89
   3  -4  -2   14.26    0.99
  -3   4   2   13.50    1.44
  -3   4   2   15.68    0.76
  -3   4   2   14.28    1.16
  -3   4   2   14.60    1.10
   2  -4  -2  395.29   22.06
   2  -4  -2  383.04   19.44
   2  -4  -2  368.45   19.47
  -2   4   2  376.43   23.00
  -2   4   2  380.16   16.91
  -2   4   2  380.74   26.42
  -2   4   2  382.62   22.14
   1  -4  -2   97.54    5.71
   1  -4  -2  117.40    5.70
   1  -4  -2  101.22    6.45
  -1   4   2  122.21    7.81
  -1   4   2  114.73    5.61
  -1   4   2  104.16    6.73
   0  -4  -2  443.71   23.34
   0  -4  -2  466.66   26.48
   0  -4  -2  449.39   23.31
   0   4   2  465.48   27.54
   0   4   2  460.63   31.59
  -1  -4  -2  625.84   34.44
  -1  -4  -2  590.89   30.31
  -1  -4  -2  572.54   35.81
  -1  -4  -2  612.06   30.28
  -1  -4  -2  586.57   38.71
   1   4   2  578.00   41.08
   1   4   2  574.99   30.33
   1   4   2  621.61   35.83
  -2  -4  -2   16.37    0.97
  -2  -4  -2   15.57    1.12
  -2  -4  -2   15.56    0.96
  -2  -4  -2   16.37    1.09
   2   4   2   16.87    1.15
   2   4   2   15.19    1.12
   2   4   2   15.56    0.95
   2   4   2   14.80    0.94
  -3  -4  -2  406.52   23.38
  -3  -4  -2  395.92   24.30
  -3  -4  -2  396.27   20.58
  -3  -4  -2  404.17   20.60
   3   4   2  401.75   20.57
   3   4   2  413.85   20.59
  -4  -4  -2  192.27    9.56
  -4  -4  -2  181.24    9.54
  -4  -4  -2  175.13   11.24
   4   4   2  190.66    9.54
   4   4   2  184.07    9.52
  -5  -4  -2   84.02    5.45
  -5  -4  -2   85.62    4.65
   5   4   2   91.72    4.63
   5   4   2   87.39    4.65
  -6  -4  -2  203.98   10.80
  -6  -4  -2  215.67   10.82
   6   4   2  206.64   10.77
   6   4   2  205.44   10.81
  -7  -4  -2    4.37    0.69
   7   4   2    4.94    0.65
  -8  -4  -2   69.94    3.94
   8   4   2   68.56    3.95
  -9  -4  -2   24.19    1.88
   9   4   2   27.94    1.95
 -10  -4  -2    2.33    0.80
  10   4   2    4.49    0.97
  11   4   2   19.23    1.82
   8  -5  -2   19.53    1.59
  -8   5   2   21.59    1.81
  -8   5   2   16.62    1.41
   7  -5  -2   45.64    2.81
   7  -5  -2   46.98    2.74
  -7   5   2   49.70    3.30
   6  -5  -2    1.22    0.43
   6  -5  -2    0.63    0.52
   6  -5  -2    0.85    0.48
  -6   5   2    1.17    0.57
  -6   5   2    1.18    0.40
   5  -5  -2  152.78    8.36
   5  -5  -2  158.05    8.41
  -5   5   2  168.65    7.27
  -5   5   2  165.69   11.66
  -5   5   2  160.78    9.92
   4  -5  -2   62.31    3.25
   4  -5  -2   59.33    3.18
  -4   5   2   59.81    4.60
  -4   5   2   61.96    3.81
  -4   5   2   61.02    2.74
  -4   5   2   51.05    3.69
   3  -5  -2   90.79    4.74
   3  -5  -2   90.25    4.82
   3  -5  -2   88.64    5.32
  -3   5   2   96.26    5.48
  -3   5   2   88.28    5.66
  -3   5   2   88.67    6.65
  -3   5   2   93.15    4.10
   2  -5  -2  408.49   20.54
   2  -5  -2  410.04   23.26
   2  -5  -2  363.81   20.57
  -2   5   2  438.40   23.33
  -2   5   2  377.49   24.29
  -2   5   2  410.35   17.85
  -2   5   2  405.49   27.93
   1  -5  -2    2.61    0.37
   1  -5  -2    2.78    0.38
   1  -5  -2    2.18    0.35
  -1   5   2    2.43    0.33
  -1   5   2    2.58    0.56
  -1   5   2    2.86    0.42
   0  -5  -2  394.74   20.39
   0  -5  -2  400.13   23.17
   0  -5  -2  402.60   20.42
   0   5   2  386.50   27.68
   0   5   2  403.16   24.09
   0   5   2  409.49   23.13
  -1  -5  -2  239.17   11.96
  -1  -5  -2  233.74   11.92
  -1  -5  -2  233.99   13.58
  -1  -5  -2  226.80   11.96
   1   5   2  244.28   14.13
   1   5   2  225.43   11.90
   1   5   2  228.13   16.27
  -2  -5  -2   31.65    1.64
  -2  -5  -2   31.24    1.86
  -2  -5  -2   29.06    1.63
  -2  -5  -2   26.96    1.90
   2   5   2   26.55    1.98
   2   5   2   27.02    1.60
   2   5   2   29.65    1.61
  -3  -5  -2  545.79   27.44
  -3  -5  -2  551.27   27.47
  -3  -5  -2  525.41   32.40
  -3  -5  -2  562.47   31.16
   3   5   2  542.91   27.44
   3   5   2  547.66   27.42
   3   5   2  490.88   35.01
  -4  -5  -2   39.40    2.62
  -4  -5  -2   41.20    2.28
  -4  -5  -2   39.84    2.26
   4   5   2   40.09    2.23
   4   5   2   40.52    2.26
  -5  -5  -2  148.38    8.01
  -5  -5  -2  163.92    8.03
  -5  -5  -2  144.94    9.41
   5   5   2  147.92    7.97
   5   5   2  161.56    8.02
  -6  -5  -2  131.96    8.45
  -6  -5  -2  136.06    7.21
   6   5   2  141.69    7.22
   6   5   2  136.18    7.16
  -7  -5  -2    8.05    0.87
   7   5   2    9.65    0.94
  -8  -5  -2   86.01    4.93
   8   5   2   91.80    4.97
  -9  -5  -2   10.42    1.13
   9   5   2   10.45    1.16
 -10  -5  -2    8.30    1.18
  10   5   2   11.40    1.30
  11   5   2   19.43    1.85
   7  -6  -2   31.43    2.19
   7  -6  -2   32.78    2.05
  -7   6   2   35.85    2.55
   6  -6  -2   11.77    1.04
   6  -6  -2   13.10    0.97
   6  -6  -2   11.68    1.07
  -6   6   2   12.23    0.86
  -6   6   2   10.76    1.24
   5  -6  -2   93.40    5.26
   5  -6  -2   97.45    5.18
  -5   6   2   99.90    6.21
  -5   6   2  101.64    4.49
  -5   6   2   96.72    7.40
   4  -6  -2    1.84    0.36
   4  -6  -2    1.19    0.48
  -4   6   2    1.04    0.28
  -4   6   2    1.81    0.42
  -4   6   2    1.23    0.49
  -4   6   2    1.53    0.82
   3  -6  -2  153.64    7.84
   3  -6  -2  142.52    7.92
  -3   6   2  147.44    9.32
  -3   6   2  152.51    6.77
  -3   6   2  149.75   10.85
  -3   6   2  159.88    8.85
   2  -6  -2  160.43    8.85
   2  -6  -2  168.47    9.92
   2  -6  -2  168.63    8.90
  -2   6   2  184.33    9.98
  -2   6   2  171.82   12.16
  -2   6   2  171.97   10.48
   1  -6  -2   13.68    1.01
   1  -6  -2   12.53    1.08
   1  -6  -2   19.15    1.04
  -1   6   2   14.38    1.52
  -1   6   2   18.79    1.19
  -1   6   2   15.68    1.06
   0  -6  -2  272.43   15.97
   0  -6  -2  284.46   14.05
   0  -6  -2  283.59   14.07
   0   6   2  256.11   13.95
   0   6   2  267.10   19.14
   0   6   2  281.65   16.59
  -1  -6  -2   51.08    2.80
  -1  -6  -2   51.15    2.81
  -1  -6  -2   54.34    3.20
  -1  -6  -2   56.14    2.79
   1   6   2   53.13    3.31
   1   6   2   51.14    3.95
   1   6   2   48.05    2.73
  -2  -6  -2  293.15   14.70
  -2  -6  -2  298.80   16.70
  -2  -6  -2  289.57   14.71
   2   6   2  281.96   18.73
   2   6   2  280.69   14.66
   2   6   2  276.02   20.01
  -3  -6  -2  300.10   17.17
  -3  -6  -2  312.50   15.15
  -3  -6  -2  283.64   17.84
  -3  -6  -2  295.48   15.13
   3   6   2  294.91   15.10
   3   6   2  281.86   19.24
  -4  -6  -2   10.48    0.91
  -4  -6  -2   10.52    0.78
  -4  -6  -2   10.54    0.89
  -4  -6  -2    9.64    0.79
   4   6   2    9.54    0.94
   4   6   2    9.47    0.81
  -5  -6  -2  138.21    7.18
  -5  -6  -2  122.41    8.39
  -5  -6  -2  146.72    7.19
   5   6   2  140.70    7.17
   5   6   2  133.72    7.13
  -6  -6  -2   20.20    1.40
  -6  -6  -2   18.90    1.31
   6   6   2   18.46    1.34
  -7  -6  -2   56.77    3.41
   7   6   2   62.16    3.44
  -8  -6  -2   56.22    3.32
   8   6   2   55.64    3.33
  -9  -6  -2    0.02    0.68
   9   6   2   -0.34    0.72
 -10  -6  -2   21.86    2.04
  10   6   2   27.37    2.13
  11   6   2    7.43    1.39
  -7   7   2    1.72    0.77
   6  -7  -2   36.51    2.23
   6  -7  -2   31.57    2.34
   6  -7  -2   37.47    2.25
  -6   7   2   40.29    2.78
  -6   7   2   41.57    1.94
   5  -7  -2   30.39    2.07
   5  -7  -2   32.68    1.92
  -5   7   2   32.32    2.35
  -5   7   2   28.84    3.03
  -5   7   2   33.29    1.63
   4  -7  -2   20.05    1.27
   4  -7  -2   16.35    1.42
  -4   7   2   20.78    1.04
  -4   7   2   20.10    2.24
  -4   7   2   17.98    1.57
   3  -7  -2  105.80    5.74
   3  -7  -2  107.11    5.68
  -3   7   2  106.45    7.94
  -3   7   2  109.97    6.74
   2  -7  -2   20.36    1.25
   2  -7  -2   16.39    1.21
  -2   7   2   18.21    1.91
  -2   7   2   19.52    1.41
   1  -7  -2  169.43    8.53
   1  -7  -2  170.07    8.50
   1  -7  -2  156.41    9.60
  -1   7   2  162.86   11.73
  -1   7   2  162.60   10.02
   0  -7  -2  247.63   12.78
   0  -7  -2  247.61   12.76
   0  -7  -2  238.00   14.51
   0   7   2  253.16   17.47
   0   7   2  256.63   15.07
  -1  -7  -2   12.80    0.88
  -1  -7  -2   14.19    0.92
  -1  -7  -2   13.10    1.04
  -1  -7  -2   12.04    0.88
   1   7   2   14.22    1.06
   1   7   2   14.35    1.48
  -2  -7  -2  266.91   13.58
  -2  -7  -2  262.95   13.57
  -2  -7  -2  271.19   15.41
   2   7   2  265.62   18.52
   2   7   2  254.89   17.29
   2   7   2  262.76   13.51
  -3  -7  -2   33.40    1.88
  -3  -7  -2   33.82    1.87
  -3  -7  -2   31.97    2.09
   3   7   2   27.05    2.65
   3   7   2   31.87    1.82
   3   7   2   30.11    2.26
   3   7   2   34.04    1.82
  -4  -7  -2  107.62    6.56
  -4  -7  -2  109.40    5.81
  -4  -7  -2  102.10    5.79
   4   7   2  118.59    5.79
   4   7   2  103.02    7.29
   4   7   2  116.44    5.80
  -5  -7  -2  118.50    7.37
  -5  -7  -2  119.97    6.53
  -5  -7  -2  125.02    6.53
   5   7   2  133.68    6.54
   5   7   2  125.64    6.53
   5   7   2  116.10    8.26
  -6  -7  -2    0.73    0.52
  -6  -7  -2    1.11    0.43
   6   7   2    1.33    0.53
  -7  -7  -2   99.66    5.61
   7   7   2  105.85    5.63
  -8  -7  -2   31.85    2.20
   8   7   2   33.28    2.21
  -9  -7  -2    5.22    0.92
  -9  -7  -2    4.82    0.94
   9   7   2    5.93    1.02
 -10  -7  -2   20.61    1.85
 -10  -7  -2   14.81    1.72
  10   7   2   17.95    1.69
  11   7   2   -0.20    1.00
   6  -8  -2   42.64    2.25
  -6   8   2   32.54    2.70
   5  -8  -2    8.87    0.86
  -5   8   2    9.56    1.67
  -5   8   2    8.23    1.01
   4  -8  -2   49.99    3.15
   4  -8  -2   58.61    3.21
  -4   8   2   54.10    4.65
  -4   8   2   61.88    3.75
   3  -8  -2   91.85    4.65
   3  -8  -2   79.17    4.68
  -3   8   2   93.07    5.47
  -3   8   2   81.05    6.60
   2  -8  -2   16.64    1.09
  -2   8   2   13.55    1.80
  -2   8   2   16.16    1.22
   1  -8  -2  247.15   12.77
   1  -8  -2  249.11   12.73
  -1   8   2  252.88   15.04
  -1   8   2  242.02   17.52
   0  -8  -2   27.97    2.04
   0  -8  -2   31.62    1.79
   0  -8  -2   31.92    1.79
   0   8   2   30.63    2.73
   0   8   2   33.17    2.10
  -1  -8  -2   82.77    4.53
  -1  -8  -2   89.45    4.55
  -1  -8  -2   86.46    5.18
   1   8   2   83.70    6.36
  -2  -8  -2  110.61    5.79
  -2  -8  -2  114.52    6.58
  -2  -8  -2  113.90    5.80
   2   8   2  107.92    5.71
   2   8   2  104.27    7.33
   2   8   2  108.73    8.01
  -3  -8  -2    1.02    0.40
  -3  -8  -2    1.54    0.39
  -3  -8  -2    0.93    0.39
   3   8   2    0.74    0.70
   3   8   2    1.52    0.35
   3   8   2    1.20    0.39
  -4  -8  -2  137.79    8.07
  -4  -8  -2  136.99    7.13
  -4  -8  -2  135.77    7.13
   4   8   2  132.33    8.98
   4   8   2  132.27    9.79
   4   8   2  135.77    7.10
  -5  -8  -2   52.02    2.95
  -5  -8  -2   51.48    2.97
  -5  -8  -2   51.10    3.30
   5   8   2   50.02    3.64
   5   8   2   53.61    2.96
  -6  -8  -2   30.05    1.87
  -6  -8  -2   29.16    1.90
  -6  -8  -2   26.34    2.02
   6   8   2   27.08    2.26
   6   8   2   29.56    1.88
  -7  -8  -2   81.05    4.61
   7   8   2   82.84    4.61
  -8  -8  -2    0.53    0.70
  -8  -8  -2    1.20    0.64
   8   8   2    0.73    0.72
  -9  -8  -2   16.46    1.58
  -9  -8  -2   13.55    1.54
   9   8   2   17.26    1.62
 -10  -8  -2    3.77    1.05
 -10  -8  -2    4.98    1.09
  10   8   2    5.70    1.17
   5  -9  -2    5.71    0.83
  -5   9   2    6.24    1.59
  -5   9   2    6.11    0.73
   4  -9  -2   50.02    3.33
  -4   9   2   64.28    3.79
  -4   9   2   63.45    5.02
   3  -9  -2   19.38    1.26
   3  -9  -2   19.71    1.36
  -3   9   2   19.49    1.43
  -3   9   2   19.63    2.30
   2  -9  -2   33.80    1.95
   2  -9  -2   35.19    2.01
  -2   9   2   35.10    2.28
  -2   9   2   31.88    3.03
   1  -9  -2  110.35    5.89
   1  -9  -2  113.35    5.86
  -1   9   2  109.20    8.29
  -1   9   2  114.87    6.93
   0  -9  -2    0.11    0.33
   0  -9  -2    0.15    0.35
   0   9   2   -0.04    0.74
  -1  -9  -2  150.42    7.60
  -1  -9  -2  144.01    7.60
   1   9   2  142.36   10.54
  -2  -9  -2   65.30    3.58
  -2  -9  -2   67.69    3.60
   2   9   2   64.27    5.08
  -3  -9  -2   49.40    2.77
  -3  -9  -2   50.58    3.14
  -3  -9  -2   49.51    2.76
   3   9   2   46.49    3.43
   3   9   2   47.11    2.69
   3   9   2   50.78    3.98
  -4  -9  -2  125.66    6.34
  -4  -9  -2  113.14    6.31
  -4  -9  -2  119.74    7.15
   4   9   2  119.43    8.72
   4   9   2  119.04    6.28
   4   9   2  115.12    7.93
  -5  -9  -2    1.62    0.50
  -5  -9  -2    0.98    0.54
  -5  -9  -2    2.54    0.59
   5   9   2    0.56    0.85
   5   9   2    1.53    0.51
   5   9   2    1.96    0.51
  -6  -9  -2   60.15    3.98
  -6  -9  -2   65.79    3.58
  -6  -9  -2   57.70    3.55
   6   9   2   60.14    4.37
   6   9   2   66.05    3.57
  -7  -9  -2   27.57    1.99
  -7  -9  -2   28.55    2.18
   7   9   2   28.84    2.00
  -8  -9  -2    4.43    0.85
  -8  -9  -2    3.90    0.84
   8   9   2    5.53    0.94
  -9  -9  -2   22.02    1.97
  -9  -9  -2   23.55    1.95
   9   9   2   23.73    1.97
 -10  -9  -2    3.24    1.04
 -10  -9  -2    1.14    0.85
  10   9   2    2.60    1.06
  -5  10   2   11.67    2.05
   4 -10  -2   52.25    3.01
  -4  10   2   53.72    4.73
   3 -10  -2    1.18    0.45
  -3  10   2    0.50    1.18
  -3  10   2    0.42    0.36
   2 -10  -2   78.36    4.06
   2 -10  -2   77.32    4.13
  -2  10   2   73.17    6.04
   1 -10  -2   40.40    2.40
   1 -10  -2   44.94    2.40
  -1  10   2   43.45    3.74
   0 -10  -2   32.08    1.83
   0 -10  -2   30.27    1.82
   0  10   2   30.02    2.90
  -1 -10  -2   83.01    4.49
  -1 -10  -2   84.20    4.49
   1  10   2   83.98    6.42
  -2 -10  -2    4.28    0.60
  -2 -10  -2    2.32    0.49
   2  10   2    2.05    0.94
  -3 -10  -2   80.10    4.19
  -3 -10  -2   74.94    4.16
   3  10   2   76.54    5.23
   3  10   2   72.58    5.84
  -4 -10  -2   81.84    4.37
  -4 -10  -2   75.63    4.33
   4  10   2   79.50    5.41
   4  10   2   78.39    6.07
  -5 -10  -2    7.92    0.94
  -5 -10  -2    9.58    0.93
   5  10   2   10.23    0.94
   5  10   2    8.91    1.07
   5  10   2    8.66    1.45
  -6 -10  -2   75.92    4.22
   6  10   2   71.33    4.18
   6  10   2   75.39    5.88
  -7 -10  -2    3.39    0.84
   7  10   2    4.37    0.83
   7  10   2    2.96    1.35
  -8 -10  -2   18.97    1.74
   8  10   2   21.07    1.77
  -9 -10  -2   17.72    1.76
   9  10   2   18.67    1.76
 -10 -10  -2    0.58    0.95
  10  10   2    0.26    0.98
  -4  11   2    3.75    1.53
   3 -11  -2   17.91    1.24
  -3  11   2   19.47    2.52
   2 -11  -2   59.79    3.32
  -2  11   2   62.58    5.13
   1 -11  -2    6.29    0.62
   1 -11  -2    6.33    0.65
  -1  11   2    5.68    1.40
   0 -11  -2   55.87    3.07
   0 -11  -2   56.14    3.06
   0  11   2   52.54    4.58
  -1 -11  -2   32.86    1.98
  -1 -11  -2   32.84    1.99
   1  11   2   33.81    3.13
  -2 -11  -2   11.07    0.98
  -2 -11  -2   11.43    0.98
   2  11   2   10.09    1.57
  -3 -11  -2   86.26    4.74
  -3 -11  -2   91.78    4.76
   3  11   2   81.64    6.62
  -4 -11  -2    6.64    0.79
  -4 -11  -2    5.70    0.75
   4  11   2    5.89    0.84
   4  11   2    5.83    1.24
  -5 -11  -2   39.24    2.36
  -5 -11  -2   36.41    2.34
   5  11   2   34.62    3.39
  -6 -11  -2   18.84    1.56
   6  11   2   19.12    2.36
  -7 -11  -2    0.53    0.75
   7  11   2   -0.04    1.19
  -8 -11  -2   14.65    1.53
   8  11   2   19.36    2.51
  -9 -11  -2    4.99    1.12
   9  11   2    5.41    1.73
   9  11   2    5.38    1.15
  -3  12   2   16.62    2.39
  -2  12   2   43.24    4.07
   1 -12  -2    1.11    0.47
  -1  12   2    1.34    1.17
   0 -12  -2   34.85    2.09
   0 -12  -2   37.08    2.13
   0  12   2   34.48    3.41
  -1 -12  -2    4.22    0.68
  -1 -12  -2    5.21    0.67
   1  12   2    7.71    1.46
  -2 -12  -2   21.15    1.47
  -2 -12  -2   21.31    1.51
   2  12   2   20.56    2.42
  -3 -12  -2   46.32    2.79
  -3 -12  -2   48.53    2.79
   3  12   2   45.84    4.06
  -4 -12  -2    2.24    0.68
  -4 -12  -2    2.71    0.72
   4  12   2    1.04    1.02
  -5 -12  -2   34.71    2.23
  -5 -12  -2   32.48    2.21
   5  12   2   32.80    3.19
  -6 -12  -2   10.44    1.15
   6  12   2   11.44    1.82
  -7 -12  -2    6.98    1.10
   7  12   2    9.02    1.76
  -8 -12  -2   18.91    1.84
   8  12   2   23.49    2.78
  -9 -12  -2    1.04    0.98
  -1  13   2   23.65    2.83
   0 -13  -2   16.16    1.21
   0  13   2   13.74    2.10
  -1 -13  -2    1.88    0.60
  -1 -13  -2    2.84    0.61
   1  13   2    1.84    1.21
  -2 -13  -2   56.46    3.19
  -2 -13  -2   51.60    3.16
   2  13   2   57.57    4.76
  -3 -13  -2   13.64    1.24
  -3 -13  -2   14.77    1.33
   3  13   2   13.70    1.99
  -4 -13  -2   18.43    1.55
  -4 -13  -2   18.97    1.53
   4  13   2   19.14    2.39
  -5 -13  -2   24.40    1.88
   5  13   2   23.42    2.68
  -6 -13  -2    0.70    0.76
   6  13   2    0.15    1.15
  -7 -13  -2   19.04    1.80
   7  13   2   22.20    2.74
  -8 -13  -2    6.21    1.18
   8  13   2    6.82    1.81
   0  14   2    8.07    1.80
  -1 -14  -2    5.33    0.75
   1  14   2    5.28    1.57
  -2 -14  -2   29.42    1.96
  -2 -14  -2   29.67    1.98
   2  14   2   27.67    3.14
  -3 -14  -2    0.50    0.70
  -3 -14  -2    0.05    0.60
   3  14   2    0.28    1.33
  -4 -14  -2   10.96    1.17
  -4 -14  -2   11.05    1.19
   4  14   2    9.94    1.92
  -5 -14  -2    8.59    1.17
   5  14   2    9.37    1.85
  -6 -14  -2    0.56    0.82
   6  14   2    1.10    1.41
  -7 -14  -2   11.58    1.41
   7  14   2   12.82    2.12
   5  14  -3    8.83    1.82
   4  14  -3    7.10    1.69
   3  14  -3    4.39    1.23
   3  14  -3    3.81    1.45
   2  14  -3   16.33    2.10
   1  14  -3   -0.28    0.98
   7  13  -3    4.97    1.65
   6  13  -3    2.43    1.45
   5  13  -3   13.27    2.05
   4  13  -3   -0.07    0.91
   4  13  -3    0.39    1.19
   3  13  -3   20.13    2.21
   3  13  -3   20.24    2.52
   2  13  -3   19.22    2.48
   2  13  -3   20.77    2.24
   1  13  -3    1.63    1.19
   1  13  -3    2.57    1.08
   0  13  -3   25.34    2.66
  -1  13  -3    3.36    1.20
   8  12  -3   11.38    2.06
   7  12  -3   -0.96    1.21
   6  12  -3   10.63    1.92
   5  12  -3   13.84    2.12
   4  12  -3    2.11    0.90
   4  12  -3    2.43    1.37
   3  12  -3   40.14    3.38
   3  12  -3   39.82    3.66
   2  12  -3   12.49    1.68
   2  12  -3   12.65    1.84
   1  12  -3   13.09    1.76
   1  12  -3   13.61    1.86
   0  12  -3   26.33    2.55
   0  12  -3   26.52    2.72
  -1  12  -3    1.39    0.99
  -2  12  -3   28.18    2.81
  -3  12  -3    8.28    1.65
   8  11  -3    5.56    1.71
   7  11  -3    0.52    1.32
   6  11  -3   23.80    2.72
   5  11  -3   10.13    1.26
   5  11  -3    8.27    1.65
   4  11  -3   24.74    2.26
   4  11  -3   24.90    2.73
   3  11  -3   41.19    3.38
   3  11  -3   42.21    3.71
   2  11  -3    3.27    0.85
   2  11  -3    2.36    1.12
   1  11  -3   64.33    4.93
   1  11  -3   61.48    4.82
   0  11  -3   12.94    1.62
   0  11  -3   12.16    1.61
  -1  11  -3   13.64    0.84
  -1  11  -3   12.35    1.62
  -2  11  -3   28.67    2.69
  -2  11  -3   27.02    1.39
  -3  11  -3    0.46    0.27
  -3  11  -3    0.98    1.02
   9  10  -3   11.33    1.53
   9  10  -3   12.82    2.26
   8  10  -3    2.59    1.43
   8  10  -3    3.82    0.99
   7  10  -3   14.88    1.46
   6  10  -3   46.20    4.13
   5  10  -3   -0.30    1.09
   5  10  -3   -0.03    0.66
   4  10  -3   59.45    4.81
   4  10  -3   60.27    4.45
  -4 -10   3   57.28    3.34
   3  10  -3   23.56    2.08
   3  10  -3   23.95    2.50
  -3 -10   3   22.08    1.53
  -3 -10   3   22.39    1.50
   2  10  -3   30.79    2.56
   2  10  -3   29.53    2.80
  -2 -10   3   28.67    1.77
   1  10  -3   85.91    6.32
   1  10  -3   85.74    4.00
   1  10  -3   85.61    6.33
  -1 -10   3   86.09    4.57
   0  10  -3    0.88    0.87
   0  10  -3    1.55    0.36
   0  10  -3    2.28    0.80
  -1  10  -3   51.01    2.41
  -1  10  -3   50.34    4.05
  -1  10  -3   50.77    4.03
  -2  10  -3   37.63    3.32
  -2  10  -3   39.67    1.87
  -3  10  -3   11.48    1.60
   9   9  -3   15.72    1.61
   8   9  -3    0.28    0.78
   7   9  -3   34.75    2.34
   7   9  -3   34.58    3.42
   6   9  -3   16.80    1.35
   6   9  -3   10.37    1.81
   5   9  -3   23.49    2.67
   5   9  -3   25.60    1.74
   5   9  -3   27.85    2.21
   4   9  -3   66.87    5.39
   4   9  -3   67.83    3.81
   4   9  -3   73.46    5.10
  -4  -9   3   67.34    3.82
   3   9  -3    0.87    0.58
   3   9  -3    0.79    0.89
  -3  -9   3    0.57    0.42
  -3  -9   3    0.47    0.38
   2   9  -3  100.29    7.21
   2   9  -3  104.27    7.26
  -2  -9   3   98.61    5.30
  -2  -9   3   98.50    5.29
   1   9  -3   45.26    3.51
   1   9  -3   40.40    3.32
   1   9  -3   44.56    2.09
  -1  -9   3   42.07    2.38
  -1  -9   3   41.55    2.35
   0   9  -3   15.24    0.91
   0   9  -3   16.00    1.71
   0   9  -3   16.73    1.62
   0  -9   3   15.27    0.98
   0  -9   3   14.68    0.99
  -1   9  -3  102.71    7.49
  -1   9  -3  106.81    4.68
  -1   9  -3  100.58    7.25
   1  -9   3   99.24    5.33
  -2   9  -3   11.32    1.46
   2  -9   3    9.45    0.66
  -3   9  -3   37.78    3.10
   3  -9   3   33.78    1.85
   9   8  -3   11.53    1.39
   8   8  -3    6.20    1.01
   7   8  -3   42.82    2.69
   6   8  -3    2.41    0.65
   5   8  -3   79.28    4.38
   5   8  -3   86.10    5.75
   5   8  -3   70.53    5.99
   4   8  -3   57.98    4.80
   4   8  -3   59.68    3.39
   4   8  -3   66.39    4.49
  -4  -8   3   58.51    3.41
   3   8  -3   34.98    3.00
   3   8  -3   28.90    1.90
   3   8  -3   36.03    2.59
  -3  -8   3   31.38    1.93
   2   8  -3  141.85    6.60
   2   8  -3  151.79   10.25
   2   8  -3  146.23    7.57
   2   8  -3  154.58   10.12
  -2  -8   3  140.66    7.55
  -2  -8   3  141.65    7.56
  -2  -8   3  141.35    7.58
   1   8  -3   53.33    2.53
   1   8  -3   52.48    4.00
   1   8  -3   57.48    4.12
  -1  -8   3   49.83    2.88
  -1  -8   3   53.89    2.87
   0   8  -3   37.82    1.80
   0   8  -3   35.53    2.90
   0   8  -3   36.64    2.99
   0  -8   3   35.86    2.04
   0  -8   3   37.16    2.01
  -1   8  -3   74.39    5.50
  -1   8  -3   77.93    5.65
   1  -8   3   76.05    4.01
  -2   8  -3   14.88    1.58
   2  -8   3   13.47    0.87
  -3   8  -3   89.12    6.36
   3  -8   3   81.33    4.42
   4  -8   3   12.27    0.78
   5  -8   3   23.11    1.31
   6  -8   3   36.97    1.90
   6  -8   3   32.19    1.92
  10   7  -3   25.70    2.21
   9   7  -3    1.13    0.88
   8   7  -3   40.21    2.65
   7   7  -3   25.82    1.85
   6   7  -3   17.69    1.38
   5   7  -3  122.29    6.82
   5   7  -3  134.31    9.03
   4   7  -3    1.81    0.47
   4   7  -3    1.30    0.46
   4   7  -3    0.53    0.81
   4   7  -3    1.20    0.36
   3   7  -3  126.27    6.68
   3   7  -3  136.44    8.97
   3   7  -3  121.95    8.97
  -3  -7   3  123.10    6.69
  -3  -7   3  127.93    6.69
   2   7  -3  200.02   13.13
   2   7  -3  202.00   13.46
   2   7  -3  186.77    8.69
   2   7  -3  193.01    9.96
  -2  -7   3  196.14    9.96
  -2  -7   3  180.11    9.96
  -2  -7   3  192.25    9.95
   1   7  -3    4.63    0.90
   1   7  -3    3.69    0.65
   1   7  -3    4.34    0.41
  -1  -7   3    3.88    0.43
  -1  -7   3    4.03    0.42
   0   7  -3  318.53   13.71
   0   7  -3  305.16   20.35
   0   7  -3  297.57   21.31
   0  -7   3  316.26   15.68
   0  -7   3  302.74   15.68
   0  -7   3  300.33   15.71
  -1   7  -3    2.10    0.63
  -1   7  -3    2.57    0.73
   1  -7   3    2.06    0.33
   1  -7   3    2.19    0.29
  -2   7  -3  230.59   15.53
  -2   7  -3  231.69   14.80
   2  -7   3  201.82   11.33
  -3   7  -3  137.99    9.78
  -3   7  -3  134.98    8.25
   3  -7   3  139.01    6.97
   3  -7   3  131.64    7.00
   4  -7   3    0.88    0.23
  -5   7  -3   71.32    3.96
  -5   7  -3   56.04    3.98
   5  -7   3   65.38    3.38
  -6   7  -3   15.66    1.16
  -6   7  -3   16.30    1.12
   6  -7   3   14.11    0.99
  -7   7  -3    8.78    0.89
  -7   7  -3    9.59    0.88
   7  -7   3    7.89    0.77
  10   6  -3   11.50    1.45
   9   6  -3    5.48    1.05
   8   6  -3   29.07    2.09
   7   6  -3    6.52    0.87
   6   6  -3   96.57    5.26
   5   6  -3  154.82    8.47
   5   6  -3  170.43   11.24
   5   6  -3  158.25    8.45
   4   6  -3   16.94    1.39
   4   6  -3   18.25    1.14
   4   6  -3   15.69    1.17
   3   6  -3  211.44   10.28
   3   6  -3  209.22   13.80
   3   6  -3  198.58   10.27
   3   6  -3  178.27   13.50
  -3  -6   3  192.66   10.29
   2   6  -3   88.11    6.40
   2   6  -3   89.94    4.72
   2   6  -3   86.23    4.12
   2   6  -3   92.19    6.34
   2   6  -3   92.14    4.71
  -2  -6   3   87.73    4.73
   1   6  -3  205.91    9.35
   1   6  -3  209.34   13.97
   1   6  -3  211.99   14.49
   1   6  -3  206.11   10.72
  -1  -6   3  207.82   10.73
   0   6  -3  260.62   17.69
   0   6  -3  253.68   13.61
   0   6  -3  263.31   18.52
   0  -6   3  267.16   13.68
   0  -6   3  287.91   13.65
  -1   6  -3    0.55    0.48
  -1   6  -3    0.83    0.47
  -1   6  -3    0.40    0.26
   1  -6   3    0.93    0.24
   1  -6   3    0.61    0.26
  -2   6  -3  118.23    8.60
  -2   6  -3  112.59    8.21
  -2   6  -3  124.70    7.36
   2  -6   3  106.91    6.23
   2  -6   3  139.08    6.25
  -3   6  -3  150.19    9.81
  -3   6  -3  120.93    8.33
   3  -6   3  137.54    7.02
   3  -6   3  140.05    7.07
  -4   6  -3   14.32    1.05
   4  -6   3   15.11    0.85
   4  -6   3   13.70    0.84
  -5   6  -3   91.61    5.69
   5  -6   3   93.84    4.78
   5  -6   3   91.49    4.79
  -6   6  -3    0.96    0.43
   6  -6   3    1.24    0.36
   6  -6   3    1.31    0.34
  -7   6  -3   32.74    2.24
   7  -6   3   32.38    1.89
  -8   6  -3   13.60    1.26
  -8   6  -3   15.47    1.37
   8  -6   3   13.29    1.09
  10   5  -3    3.44    1.04
   9   5  -3   17.95    1.67
   8   5  -3   47.26    2.94
   7   5  -3    1.71    0.64
   6   5  -3  184.48    9.68
   5   5  -3   73.75    4.93
   5   5  -3   66.23    3.82
   5   5  -3   69.06    3.83
  -5  -5   3   68.89    4.49
   4   5  -3   49.40    3.40
   4   5  -3   49.20    2.65
   4   5  -3   46.47    2.67
   4   5  -3   44.21    2.65
  -4  -5   3   48.44    3.14
   3   5  -3  313.46   15.69
   3   5  -3  317.85   21.11
   3   5  -3  294.24   15.69
  -3  -5   3  304.86   18.53
  -3  -5   3  298.99   15.71
   2   5  -3   15.45    0.99
   2   5  -3   14.42    1.62
   2   5  -3   14.89    0.86
   2   5  -3   15.68    1.24
   2   5  -3   14.67    1.11
   2   5  -3   15.80    0.97
  -2  -5   3   14.96    0.98
   1   5  -3  534.87   28.14
   1   5  -3  546.10   36.20
   1   5  -3  550.95   31.93
   1   5  -3  552.20   24.53
   1   5  -3  548.38   28.12
   1   5  -3  574.30   38.02
  -1  -5   3  556.48   28.15
   0   5  -3  130.52    9.34
   0   5  -3  132.68    7.81
   0   5  -3  131.23    8.15
   0   5  -3  127.47    9.00
   0  -5   3  130.85    6.92
   0  -5   3  147.08    6.91
  -1   5  -3   91.00    5.35
  -1   5  -3   86.94    6.26
  -1   5  -3   94.34    6.52
  -1   5  -3   91.67    5.62
   1  -5   3  105.87    4.79
   1  -5   3   78.01    4.77
  -2   5  -3  297.29   20.01
  -2   5  -3  249.79   17.38
  -2   5  -3  307.33   16.72
  -2   5  -3  296.79   19.01
   2  -5   3  290.71   14.73
   2  -5   3  284.83   14.70
  -3   5  -3    8.55    0.69
  -3   5  -3    8.48    1.11
   3  -5   3    7.60    0.52
   3  -5   3    9.45    0.62
  -4   5  -3  159.63    9.92
   4  -5   3  171.10    8.38
   4  -5   3  159.70    8.38
  -5   5  -3   46.58    3.06
   5  -5   3   47.65    2.57
   5  -5   3   50.26    2.58
  -6   5  -3   15.51    1.21
   6  -5   3   15.98    1.02
   6  -5   3   16.26    1.06
  -7   5  -3   68.28    4.45
   7  -5   3   68.30    3.76
   7  -5   3   73.94    3.80
  -8   5  -3    4.25    0.70
   8  -5   3    4.04    0.65
   8  -5   3    5.34    0.69
  10   4  -3   -1.02    0.84
   9   4  -3   38.63    2.61
   8   4  -3   25.44    1.87
   7   4  -3   38.37    2.40
   6   4  -3  128.36    6.90
   6   4  -3  130.90    6.88
   5   4  -3    0.78    0.37
   5   4  -3    1.33    0.44
   5   4  -3    1.99    0.41
  -5  -4   3    1.11    0.41
   4   4  -3  250.29   12.81
   4   4  -3  237.99   12.82
   4   4  -3  256.77   17.14
  -4  -4   3  248.11   15.12
   3   4  -3  189.57    9.77
   3   4  -3  191.62    9.76
   3   4  -3  190.12    9.78
   3   4  -3  184.42   11.11
   3   4  -3  197.02   13.06
  -3  -4   3  188.48   11.52
  -3  -4   3  181.91    9.77
   2   4  -3  145.56    7.59
   2   4  -3  152.85    7.60
   2   4  -3  143.24    7.59
   2   4  -3  152.65   10.17
   2   4  -3  147.68    6.63
   2   4  -3  144.44    8.64
  -2  -4   3  146.88    8.97
  -2  -4   3  140.36    7.60
   1   4  -3  352.47   18.00
   1   4  -3  334.75   17.98
   1   4  -3  355.13   18.02
   1   4  -3  351.42   20.44
   1   4  -3  345.17   21.28
   1   4  -3  353.56   23.24
   1   4  -3  352.32   15.71
   1   4  -3  360.42   24.30
  -1  -4   3  365.24   18.03
   0   4  -3    6.32    0.57
   0   4  -3    5.32    0.63
   0   4  -3    5.46    0.50
   0   4  -3    4.46    0.46
   0   4  -3    4.88    0.69
   0   4  -3    5.19    0.40
   0  -4   3    4.76    0.46
   0  -4   3    6.87    0.50
  -1   4  -3  290.88   15.07
  -1   4  -3  249.88   15.71
  -1   4  -3  271.03   18.00
  -1   4  -3  264.43   17.11
  -1   4  -3  277.65   13.36
   1  -4   3  227.90   13.28
   1  -4   3  277.38   13.31
   1  -4   3  217.98   15.05
  -2   4  -3  311.70   17.15
  -2   4  -3  291.59   20.49
  -2   4  -3  280.39   19.43
  -2   4  -3  275.21   17.83
   2  -4   3  317.12   15.10
  -3   4  -3   38.65    2.50
   3  -4   3   38.87    2.09
   3  -4   3   41.75    2.12
  -4   4  -3  267.39   16.47
  -4   4  -3  257.34   15.87
  -4   4  -3  285.59   15.80
   4  -4   3  265.88   13.93
   4  -4   3  279.02   13.93
   4  -4   3  281.35   13.94
  -5   4  -3   10.68    0.77
  -5   4  -3   11.00    0.86
  -5   4  -3   10.35    0.85
   5  -4   3    9.92    0.74
   5  -4   3    8.97    0.68
  -6   4  -3   69.97    4.40
  -6   4  -3   73.17    4.25
   6  -4   3   70.72    3.73
   6  -4   3   65.85    3.70
  -7   4  -3   47.75    3.11
  -7   4  -3   45.26    2.99
   7  -4   3   50.64    2.68
   7  -4   3   45.73    2.62
  -8   4  -3    3.56    0.67
  -8   4  -3    3.90    0.68
   8  -4   3    3.83    0.67
  -9   4  -3   20.87    1.73
   9  -4   3   22.37    1.62
  10   3  -3    5.19    1.09
   9   3  -3   31.20    2.28
   8   3  -3    0.42    0.70
   7   3  -3  101.59    5.70
   7   3  -3  108.20    5.69
   6   3  -3   81.05    4.25
   6   3  -3   74.10    4.25
   5   3  -3   62.68    3.60
   5   3  -3   69.06    3.60
   5   3  -3   66.00    3.63
   4   3  -3  303.08   18.24
   4   3  -3  322.09   16.06
   4   3  -3  317.83   16.06
   4   3  -3  305.57   21.52
   4   3  -3  315.35   16.09
   3   3  -3   16.15    1.06
   3   3  -3   16.40    1.06
   3   3  -3   16.00    1.21
   3   3  -3   16.78    1.18
  -3  -3   3   15.91    1.03
  -3  -3   3   16.28    1.20
   2   3  -3  496.39   25.37
   2   3  -3  492.21   25.40
   2   3  -3  480.15   22.13
   2   3  -3  508.61   25.39
   2   3  -3  496.34   28.83
  -2  -3   3  506.28   28.80
  -2  -3   3  517.83   29.98
  -2  -3   3  484.47   25.40
   1   3  -3  436.63   22.30
   1   3  -3  419.26   22.29
   1   3  -3  404.35   28.68
   1   3  -3  437.58   25.32
   1   3  -3  426.14   19.45
   1   3  -3  456.81   22.32
   1   3  -3  439.14   26.36
  -1  -3   3  441.58   25.30
  -1  -3   3  454.28   30.10
  -1  -3   3  458.89   26.35
  -1  -3   3  433.80   22.33
   0   3  -3   63.32    3.20
   0   3  -3   55.24    3.23
   0   3  -3   61.84    3.85
   0   3  -3   63.30    4.27
   0   3  -3   68.55    3.70
   0   3  -3   62.47    4.34
   0  -3   3   55.65    3.26
   0  -3   3   69.13    3.29
   0  -3   3   57.87    3.67
   0  -3   3   55.78    3.83
  -1   3  -3  523.93   32.06
  -1   3  -3  541.03   33.82
  -1   3  -3  426.81   29.55
   1  -3   3  470.00   28.39
  -2   3  -3   78.41    5.28
  -2   3  -3   88.86    6.03
  -2   3  -3   88.24    5.46
   2  -3   3   94.99    5.23
   2  -3   3   87.94    4.59
   2  -3   3   95.12    4.63
  -3   3  -3  390.98   23.96
  -3   3  -3  398.92   23.08
   3  -3   3  391.21   20.27
   3  -3   3  410.69   20.26
  -4   3  -3  298.62   18.36
  -4   3  -3  305.42   17.68
   4  -3   3  316.18   15.55
   4  -3   3  295.36   15.53
   4  -3   3  306.29   15.53
  -5   3  -3    5.78    0.63
  -5   3  -3    5.81    0.62
  -5   3  -3    6.33    0.61
   5  -3   3    6.49    0.58
   5  -3   3    5.98    0.51
  -6   3  -3  107.35    6.90
  -6   3  -3  111.58    6.66
   6  -3   3  110.72    5.83
   6  -3   3  117.73    5.87
  -7   3  -3   24.97    1.73
  -7   3  -3   23.05    1.75
   7  -3   3   25.41    1.56
   7  -3   3   23.53    1.48
  -8   3  -3   22.56    1.76
  -8   3  -3   22.92    1.80
   8  -3   3   26.62    1.65
  -9   3  -3   31.44    2.30
  -9   3  -3   31.93    2.40
   9  -3   3   35.94    2.20
  10   2  -3   23.96    2.08
   9   2  -3   19.78    1.75
   8   2  -3   27.13    1.92
   7   2  -3  145.59    7.87
   7   2  -3  150.77    7.86
   6   2  -3   19.72    1.33
   6   2  -3   19.33    1.39
  -6  -2   3   19.29    1.60
   5   2  -3  139.93    7.47
   5   2  -3  143.12    7.47
   5   2  -3  138.82    7.50
  -5  -2   3  151.05    8.83
  -5  -2   3  144.72    6.48
  -5  -2   3  138.01    8.47
   4   2  -3  256.90   17.45
   4   2  -3  257.81   13.07
   4   2  -3  245.03   14.81
   4   2  -3  253.91   13.04
   4   2  -3  251.61   13.03
  -4  -2   3  252.27   14.79
  -4  -2   3  243.10   11.32
  -4  -2   3  265.55   15.40
   3   2  -3   12.69    0.87
   3   2  -3   12.75    0.84
   3   2  -3   13.19    0.87
   3   2  -3   12.57    0.98
  -3  -2   3   12.07    0.84
  -3  -2   3   13.45    0.99
   1   2  -3  280.03   16.27
   1   2  -3  268.91   12.49
   1   2  -3  274.94   16.93
   1   2  -3  279.94   14.32
   1   2  -3  289.71   14.33
  -1  -2   3  279.82   14.34
  -1  -2   3  290.27   16.92
  -1  -2   3  280.88   19.30
  -1  -2   3  274.08   16.24
   0   2  -3  371.44   22.46
   0   2  -3  334.30   17.51
   0   2  -3  326.88   20.69
   0   2  -3  366.93   19.90
   0  -2   3  377.55   23.62
   0  -2   3  366.92   17.52
   0  -2   3  329.31   20.67
   0  -2   3  296.65   17.51
   0  -2   3  313.53   19.85
  -1   2  -3  589.64   36.63
   1  -2   3  627.51   35.20
  -2   2  -3    0.77    0.08
  -2   2  -3    0.39    0.21
  -2   2  -3    0.71    0.25
  -2   2  -3    0.38    0.29
   2  -2   3    1.06    0.17
   2  -2   3    0.45    0.20
   2  -2   3    0.77    0.18
  -3   2  -3  605.02   35.26
   3  -2   3  608.46   30.99
   3  -2   3  615.57   31.03
  -4   2  -3  112.36    6.92
  -4   2  -3  107.59    6.67
  -4   2  -3  114.11    5.81
   4  -2   3  116.75    5.85
   4  -2   3  110.87    5.84
   4  -2   3  116.91    5.88
  -5   2  -3   34.54    2.38
  -5   2  -3   35.95    2.33
   5  -2   3   37.52    2.02
   5  -2   3   39.61    2.07
  -6   2  -3  118.06    7.27
  -6   2  -3  123.35    7.55
  -6   2  -3  126.92    7.28
   6  -2   3  115.30    6.37
   6  -2   3  129.27    6.42
  -7   2  -3    0.56    0.43
  -7   2  -3    0.31    0.45
   7  -2   3    1.58    0.47
   7  -2   3    1.25    0.38
  -8   2  -3   64.94    4.22
  -8   2  -3   64.13    4.36
   8  -2   3   74.71    3.80
  -9   2  -3   14.56    1.36
  -9   2  -3   14.19    1.36
   9  -2   3   16.27    1.38
 -10   2  -3    3.75    0.85
  10  -2   3    5.51    0.93
  10  -2   3    5.98    0.98
  10   1  -3   27.11    2.19
   9   1  -3    5.17    0.99
   8   1  -3   40.19    2.62
   8   1  -3   42.63    2.58
   7   1  -3   73.70    4.17
   7   1  -3   75.72    4.15
   6   1  -3    5.11    0.60
   6   1  -3    4.07    0.66
  -6  -1   3    3.98    0.68
   5   1  -3  266.56   13.47
   5   1  -3  258.36   13.49
   5   1  -3  255.69   13.45
  -5  -1   3  258.90   15.28
  -5  -1   3  265.16   15.89
   4   1  -3  141.37    7.31
   4   1  -3  134.39    8.27
   4   1  -3  136.09    7.27
   4   1  -3  140.92    7.27
  -4  -1   3  142.92    8.59
  -4  -1   3  141.89    8.26
   3   1  -3  137.35    7.19
   3   1  -3  146.34    9.60
   3   1  -3  135.27    8.19
   3   1  -3  140.40    7.21
  -3  -1   3  134.85    7.19
  -3  -1   3  135.25    8.17
  -3  -1   3  142.27    8.50
   2   1  -3  368.42   18.73
   2   1  -3  371.52   21.29
   2   1  -3  366.61   18.73
   2   1  -3  361.70   16.32
  -2  -1   3  357.40   18.74
  -2  -1   3  375.04   21.27
   1   1  -3   37.33    2.15
   1   1  -3   34.68    1.63
   1   1  -3   32.69    1.87
   1   1  -3   34.65    2.22
   1   1  -3   30.10    1.84
  -1  -1   3   33.69    2.41
  -1  -1   3   32.59    2.11
  -1  -1   3   33.88    2.19
  -1  -1   3   35.28    1.88
   0   1  -3  449.17   28.33
   0   1  -3  488.28   27.25
   0   1  -3  497.94   24.00
   0  -1   3  431.92   27.20
   0  -1   3  488.67   28.33
   0  -1   3  461.59   23.99
  -1   1  -3  369.24   24.01
  -1   1  -3  373.84   18.77
  -1   1  -3  351.03   22.19
  -1   1  -3  329.77   21.35
  -1   1  -3  374.85   18.78
   1  -1   3  391.84   18.79
   1  -1   3  367.15   21.34
   1  -1   3  386.23   22.19
  -2   1  -3  154.72    9.64
  -2   1  -3  154.35   10.46
  -2   1  -3  159.47    8.14
  -2   1  -3  155.57    8.14
  -2   1  -3  155.22    9.29
   2  -1   3  161.48    8.15
   2  -1   3  162.31    9.62
   2  -1   3  167.88    9.28
  -3   1  -3  504.34   30.93
  -3   1  -3  522.42   26.16
  -3   1  -3  524.22   26.18
  -3   1  -3  494.81   29.75
   3  -1   3  531.76   26.16
   3  -1   3  519.09   26.18
   3  -1   3  502.22   26.19
  -4   1  -3    1.35    0.30
  -4   1  -3    2.24    0.27
  -4   1  -3    1.26    0.32
   4  -1   3    1.68    0.26
   4  -1   3    1.51    0.31
   4  -1   3    1.27    0.24
  -5   1  -3  191.94   11.42
  -5   1  -3  187.96   11.85
  -5   1  -3  204.72   10.03
   5  -1   3  202.29   10.07
   5  -1   3  188.55   10.03
  -6   1  -3   79.52    4.69
  -6   1  -3   72.46    4.83
   6  -1   3   77.52    4.09
   6  -1   3   79.25    4.15
  -7   1  -3   45.93    2.99
  -7   1  -3   45.07    3.08
   7  -1   3   49.53    2.69
   7  -1   3   46.72    2.61
  -8   1  -3   90.81    5.93
  -8   1  -3   90.60    5.71
   8  -1   3  100.22    5.12
  -9   1  -3    3.63    0.72
  -9   1  -3    3.50    0.72
   9  -1   3    2.72    0.75
  10  -1   3   14.18    1.45
  10  -1   3   16.85    1.50
   9   0  -3    2.86    0.82
   8   0  -3   58.92    3.54
   8   0  -3   62.66    3.53
   7   0  -3   21.29    1.47
   7   0  -3   21.06    1.55
  -7   0   3   19.35    1.73
   6   0  -3   73.92    4.06
   6   0  -3   74.16    4.10
   6   0  -3   71.65    4.11
  -6   0   3   78.49    4.83
   5   0  -3  238.48   12.48
   5   0  -3  232.64   12.51
   5   0  -3  248.06   12.48
  -5   0   3  240.44   10.84
  -5   0   3  240.10   14.16
  -5   0   3  249.56   14.74
   4   0  -3    9.83    0.88
   4   0  -3   12.91    0.79
   4   0  -3    9.07    0.78
  -4   0   3    9.69    0.62
  -4   0   3    9.42    0.89
  -4   0   3    9.38    0.87
   3   0  -3  388.84   25.68
   3   0  -3  373.06   19.07
   3   0  -3  365.46   19.06
   3   0  -3  367.95   21.66
  -3   0   3  352.94   19.04
  -3   0   3  391.72   22.53
  -3   0   3  368.41   21.65
  -3   0   3  374.84   16.59
   2   0  -3   50.83    2.36
   2   0  -3   52.01    2.74
   2   0  -3   50.01    2.72
   2   0  -3   52.38    3.57
   2   0  -3   50.08    3.12
  -2   0   3   50.55    3.11
  -2   0   3   52.70    3.22
  -2   0   3   50.62    3.60
  -2   0   3   49.83    2.72
   1   0  -3  328.11   14.47
   1   0  -3  340.04   16.61
   1   0  -3  323.70   19.64
   1   0  -3  321.96   16.61
  -1   0   3  326.83   22.43
  -1   0   3  333.35   19.62
  -1   0   3  296.37   18.84
  -1   0   3  328.69   16.62
   0   0  -3  533.97   33.17
   0   0  -3  559.85   28.08
   0   0   3  556.14   31.88
   0   0   3  550.86   28.09
  -1   0  -3   19.95    1.50
  -1   0  -3   20.17    1.20
  -1   0  -3   20.23    1.44
  -1   0  -3   20.65    1.41
  -1   0  -3   21.02    1.23
   1   0   3   22.13    1.24
   1   0   3   20.25    1.21
   1   0   3   22.32    1.45
   1   0   3   20.49    1.41
   2   0   3  568.65   32.57
   2   0   3  558.08   28.65
  -3   0  -3  308.03   15.31
  -3   0  -3  305.90   15.31
  -3   0  -3  298.99   18.09
  -3   0  -3  287.22   17.40
   3   0   3  294.20   15.31
   3   0   3  304.35   15.33
  -4   0  -3   46.36    2.76
  -4   0  -3   43.24    2.83
  -4   0  -3   44.49    2.39
  -4   0  -3   43.88    2.40
   4   0   3   44.15    2.39
   4   0   3   45.07    2.43
  -5   0  -3  230.46   11.82
  -5   0  -3  233.69   13.46
  -5   0  -3  219.22   13.96
   5   0   3  241.87   11.86
   5   0   3  226.04   11.82
  -6   0  -3   13.66    1.12
  -6   0  -3   15.94    1.01
  -6   0  -3   12.95    1.11
   6   0   3   14.28    0.95
   6   0   3   14.61    1.07
  -7   0  -3  100.09    6.35
  -7   0  -3   95.80    6.12
   7   0   3  103.11    5.38
   7   0   3  107.14    5.44
  -8   0  -3   56.65    3.91
  -8   0  -3   57.66    3.78
   8   0   3   65.29    3.44
  -9   0  -3    0.97    0.61
  -9   0  -3    0.33    0.56
   9   0   3    1.22    0.71
  10   0   3   20.02    1.69
  10   0   3   17.25    1.65
   9  -1  -3   17.08    1.61
   8  -1  -3   36.27    2.32
   8  -1  -3   38.33    2.42
   7  -1  -3    0.88    0.54
   7  -1  -3   -0.03    0.52
  -7   1   3    0.30    0.57
   6  -1  -3  126.46    6.38
   6  -1  -3  117.00    6.42
   6  -1  -3  114.77    6.38
  -6   1   3  122.36    7.53
   5  -1  -3   56.40    3.13
   5  -1  -3   59.13    3.10
  -5   1   3   58.14    3.66
  -5   1   3   56.50    2.66
  -5   1   3   51.20    3.51
   4  -1  -3  141.88    6.99
   4  -1  -3  137.47    7.01
   4  -1  -3  131.02    7.94
  -4   1   3  136.37    8.25
  -4   1   3  130.16    6.05
  -4   1   3  127.87    7.94
   3  -1  -3  392.98   19.84
   3  -1  -3  395.09   22.54
   3  -1  -3  381.87   19.83
  -3   1   3  398.49   23.43
  -3   1   3  386.97   17.25
  -3   1   3  378.97   22.53
  -3   1   3  382.21   26.81
   2  -1  -3   66.21    3.95
   2  -1  -3   65.10    3.46
   2  -1  -3   65.60    3.44
  -2   1   3   68.50    4.08
  -2   1   3   64.37    2.97
  -2   1   3   64.57    3.42
  -2   1   3   65.32    4.63
  -2   1   3   61.02    3.93
   1  -1  -3  583.23   31.73
  -1   1   3  511.58   31.68
   0  -1  -3  589.64   26.51
   0  -1  -3  473.99   30.05
   0  -1  -3  496.27   31.27
   0  -1  -3  510.29   26.47
   0   1   3  485.61   30.05
   0   1   3  560.11   31.28
   0   1   3  517.15   26.48
  -1  -1  -3  100.44    5.95
  -1  -1  -3  100.17    5.22
  -1  -1  -3   97.65    6.61
  -1  -1  -3   98.38    6.17
  -1  -1  -3   99.62    5.23
   1   1   3   99.51    5.94
   1   1   3  105.97    6.18
  -3  -1  -3   31.34    1.80
  -3  -1  -3   33.99    2.07
  -3  -1  -3   31.99    2.12
  -3  -1  -3   34.27    1.80
   3   1   3   32.58    1.78
   3   1   3   31.04    1.81
  -4  -1  -3  337.83   16.40
  -4  -1  -3  311.19   19.34
  -4  -1  -3  322.79   16.38
  -4  -1  -3  313.42   18.61
   4   1   3  319.12   16.39
   4   1   3  317.12   16.37
  -5  -1  -3  185.75    9.07
  -5  -1  -3  166.38   10.28
  -5  -1  -3  177.80    9.06
  -5  -1  -3  169.83   10.68
   5   1   3  179.54    9.09
   5   1   3  172.06    9.04
  -6  -1  -3   10.33    0.94
  -6  -1  -3   10.45    0.89
  -6  -1  -3   10.88    0.97
   6   1   3   12.78    0.84
   6   1   3   10.84    0.91
  -7  -1  -3  158.22    7.90
  -7  -1  -3  139.44    8.91
  -7  -1  -3  147.38    9.27
   7   1   3  158.71    7.93
   7   1   3  148.09    7.85
  -8  -1  -3   13.80    1.21
  -8  -1  -3   12.80    1.26
   8   1   3   15.43    1.23
  -9  -1  -3   23.57    1.92
  -9  -1  -3   25.39    2.02
   9   1   3   30.68    1.96
 -10  -1  -3   21.94    1.89
  10   1   3   26.95    1.97
   9  -2  -3   34.77    2.29
   9  -2  -3   33.39    2.37
   8  -2  -3   22.56    1.79
   8  -2  -3   26.28    1.74
   7  -2  -3   35.83    2.30
   7  -2  -3   37.62    2.26
  -7   2   3   37.72    2.69
   6  -2  -3  263.24   13.98
   6  -2  -3  262.43   13.99
   6  -2  -3  267.67   14.04
  -6   2   3  289.13   16.55
   5  -2  -3    6.01    0.61
   5  -2  -3    8.20    0.71
  -5   2   3    5.62    0.50
  -5   2   3    7.65    0.84
   4  -2  -3  248.57   12.88
   4  -2  -3  246.42   14.61
   4  -2  -3  256.04   12.87
  -4   2   3  250.34   11.19
  -4   2   3  247.87   17.49
  -4   2   3  259.89   15.22
  -4   2   3  242.59   14.64
   3  -2  -3  196.59   10.04
   3  -2  -3  197.81   11.39
   3  -2  -3  190.35   10.02
  -3   2   3  189.40   13.59
  -3   2   3  195.21    8.70
  -3   2   3  207.05   11.86
  -3   2   3  185.97   11.41
   2  -2  -3  115.80    6.58
   2  -2  -3  111.41    5.78
   2  -2  -3  112.65    5.76
  -2   2   3  108.65    7.81
  -2   2   3  111.71    6.81
  -2   2   3  103.02    6.58
  -2   2   3  112.03    4.99
   0  -2  -3   31.19    2.27
   0  -2  -3   36.98    1.95
   0  -2  -3   33.34    1.96
   0  -2  -3   34.46    2.21
   0   2   3   34.23    2.29
   0   2   3   34.99    1.92
   0   2   3   38.01    2.23
  -1  -2  -3  220.78   11.16
  -1  -2  -3  216.72   12.67
  -1  -2  -3  214.50   11.16
  -1  -2  -3  205.16   13.16
   1   2   3  219.19   12.66
   1   2   3  210.32   11.15
   1   2   3  233.76   13.19
  -2  -2  -3  528.60   32.44
  -2  -2  -3  529.28   27.48
   2   2   3  588.17   31.20
   2   2   3  510.78   27.46
  -3  -2  -3   86.91    5.17
  -3  -2  -3   83.56    4.55
  -3  -2  -3   86.78    5.36
  -3  -2  -3   87.96    4.56
   3   2   3   86.20    4.56
   3   2   3   88.93    4.54
  -4  -2  -3  609.44   30.55
  -4  -2  -3  592.80   34.70
  -4  -2  -3  621.86   30.58
  -4  -2  -3  579.35   36.08
   4   2   3  591.25   30.56
   4   2   3  603.23   30.55
  -5  -2  -3   57.23    3.18
  -5  -2  -3   56.46    3.60
  -5  -2  -3   56.58    3.72
  -5  -2  -3   62.17    3.20
   5   2   3   57.07    3.15
   5   2   3   62.93    3.22
  -6  -2  -3  104.59    5.06
  -6  -2  -3   91.00    5.90
  -6  -2  -3   86.92    5.67
  -6  -2  -3   94.18    5.03
   6   2   3   92.49    4.99
   6   2   3   97.99    5.06
  -7  -2  -3  123.68    7.70
  -7  -2  -3  125.65    8.00
  -7  -2  -3  132.85    6.83
   7   2   3  128.83    6.78
   7   2   3  133.26    6.86
  -8  -2  -3    2.33    0.60
  -8  -2  -3    2.41    0.60
   8   2   3    2.33    0.63
  -9  -2  -3   36.50    2.64
   9   2   3   40.87    2.51
 -10  -2  -3    8.83    1.10
  10   2   3   10.13    1.23
  11   2   3    5.42    1.19
   9  -3  -3   32.62    2.34
   8  -3  -3    0.75    0.72
   8  -3  -3    0.83    0.59
   7  -3  -3   62.36    3.62
   7  -3  -3   61.46    3.56
  -7   3   3   66.95    4.28
   6  -3  -3   52.99    3.00
   6  -3  -3   51.34    3.05
   6  -3  -3   53.22    3.08
  -6   3   3   56.80    3.60
   5  -3  -3    3.85    0.59
   5  -3  -3    4.53    0.54
  -5   3   3    4.99    0.47
  -5   3   3    5.98    0.71
   4  -3  -3   90.27    4.74
   4  -3  -3   88.97    5.38
   4  -3  -3   86.90    4.77
  -4   3   3   88.96    6.56
  -4   3   3   92.60    5.63
  -4   3   3   91.32    4.11
   3  -3  -3   18.10    1.23
   3  -3  -3   17.71    1.06
   3  -3  -3   17.18    1.12
  -3   3   3   17.79    0.90
  -3   3   3   17.37    1.29
  -3   3   3   15.27    1.53
   2  -3  -3  409.81   21.44
   2  -3  -3  410.98   21.42
   2  -3  -3  436.37   24.35
  -2   3   3  414.99   29.03
  -2   3   3  420.07   25.33
  -2   3   3  425.75   18.64
   1  -3  -3  412.47   26.79
   1  -3  -3  416.02   23.60
   1  -3  -3  506.62   23.62
  -1   3   3  468.67   27.89
  -1   3   3  506.79   31.94
   0  -3  -3   43.59    2.76
   0  -3  -3   46.08    2.46
   0  -3  -3   41.86    2.42
   0  -3  -3   38.46    2.83
   0   3   3   48.09    2.88
   0   3   3   37.98    2.38
   0   3   3   50.10    2.77
   0   3   3   46.98    3.30
  -1  -3  -3  559.59   34.91
  -1  -3  -3  577.24   29.58
  -1  -3  -3  596.20   29.56
   1   3   3  609.71   33.56
   1   3   3  555.77   29.56
  -2  -3  -3   93.06    5.81
  -2  -3  -3   93.32    5.60
  -2  -3  -3   95.08    4.94
  -2  -3  -3   91.40    4.93
   2   3   3  102.32    5.84
   2   3   3   90.61    4.91
   2   3   3   85.76    4.91
   2   3   3  102.67    5.62
  -3  -3  -3  222.58   13.91
  -3  -3  -3  230.27   13.39
  -3  -3  -3  231.17   11.80
  -3  -3  -3  236.04   11.81
   3   3   3  236.52   11.80
   3   3   3  220.57   11.78
  -4  -3  -3  130.89    7.67
  -4  -3  -3  126.40    6.75
  -4  -3  -3  125.97    7.95
   4   3   3  130.19    6.76
   4   3   3  133.95    6.74
  -5  -3  -3    5.09    0.51
  -5  -3  -3    4.28    0.50
  -5  -3  -3    5.26    0.57
  -5  -3  -3    4.21    0.53
   5   3   3    5.13    0.55
   5   3   3    5.02    0.49
  -6  -3  -3  168.15    8.21
  -6  -3  -3  151.14    9.62
  -6  -3  -3  154.47    8.18
  -6  -3  -3  145.66    9.25
   6   3   3  158.64    8.15
   6   3   3  160.64    8.20
  -7  -3  -3   70.06    4.57
  -7  -3  -3   75.17    3.96
  -7  -3  -3   64.83    4.39
   7   3   3   74.25    3.96
  -8  -3  -3   21.99    1.75
  -8  -3  -3   25.08    1.71
   8   3   3   22.83    1.67
  -9  -3  -3   37.95    2.77
   9   3   3   43.25    2.62
 -10  -3  -3    0.59    0.66
  10   3   3    1.18    0.82
  11   3   3   16.72    1.66
   8  -4  -3    3.56    0.71
   8  -4  -3    2.95    0.77
  -8   4   3    2.86    0.83
   7  -4  -3   52.14    3.11
   7  -4  -3   51.86    3.04
  -7   4   3   54.13    3.65
   6  -4  -3   11.23    1.05
   6  -4  -3   11.14    0.97
  -6   4   3   12.11    1.20
   5  -4  -3  111.14    6.06
   5  -4  -3  113.04    6.12
  -5   4   3  120.12    5.27
  -5   4   3  117.18    7.21
  -5   4   3  114.16    8.46
   4  -4  -3  229.35   11.78
   4  -4  -3  232.08   11.73
  -4   4   3  210.26   13.41
  -4   4   3  221.59   16.04
  -4   4   3  235.75   13.89
  -4   4   3  235.68   10.19
   3  -4  -3   26.84    1.56
   3  -4  -3   29.42    1.79
   3  -4  -3   25.53    1.63
  -3   4   3   27.57    2.32
  -3   4   3   27.60    1.33
  -3   4   3   25.85    1.91
  -3   4   3   27.31    1.90
   2  -4  -3  518.38   25.75
   2  -4  -3  544.34   29.24
  -2   4   3  513.67   34.92
  -2   4   3  477.28   30.43
  -2   4   3  468.04   29.29
   1  -4  -3  141.62    7.49
   1  -4  -3  125.70    8.44
   1  -4  -3  140.36    7.44
  -1   4   3  152.44   10.13
  -1   4   3  156.22    8.83
   0  -4  -3  124.84    6.29
   0  -4  -3  114.74    6.27
   0  -4  -3  112.48    7.11
   0   4   3  126.77    7.41
   0   4   3  119.50    6.20
   0   4   3  121.53    8.52
  -1  -4  -3  470.95   23.97
  -1  -4  -3  468.18   30.53
  -1  -4  -3  461.53   23.95
  -1  -4  -3  485.18   27.21
  -1  -4  -3  455.70   28.29
   1   4   3  494.49   28.30
   1   4   3  441.02   23.95
   1   4   3  453.36   23.91
   1   4   3  492.29   27.19
  -2  -4  -3    1.69    0.30
  -2  -4  -3    2.23    0.33
  -2  -4  -3    1.76    0.33
  -2  -4  -3    1.44    0.33
   2   4   3    2.53    0.37
   2   4   3    2.22    0.37
   2   4   3    2.16    0.30
   2   4   3    2.14    0.31
  -3  -4  -3  391.68   22.09
  -3  -4  -3  382.98   19.47
  -3  -4  -3  401.45   19.47
  -3  -4  -3  355.08   22.95
   3   4   3  381.88   19.45
   3   4   3  399.70   19.45
   3   4   3  350.46   24.80
  -4  -4  -3  162.68    8.21
  -4  -4  -3  158.11    8.20
  -4  -4  -3  156.31    9.29
  -4  -4  -3  155.29    9.65
   4   4   3  152.85    8.18
   4   4   3  160.85    8.18
  -5  -4  -3   91.90    5.59
  -5  -4  -3   90.14    5.79
  -5  -4  -3   94.05    4.95
   5   4   3   91.04    4.90
   5   4   3   96.70    4.96
  -6  -4  -3  255.85   16.28
  -6  -4  -3  285.60   13.86
  -6  -4  -3  266.97   13.83
  -6  -4  -3  259.74   15.67
   6   4   3  273.35   13.84
   6   4   3  264.33   13.79
  -7  -4  -3    0.09    0.45
  -7  -4  -3   -0.31    0.39
  -7  -4  -3    0.12    0.39
   7   4   3    1.00    0.54
  -8  -4  -3   63.48    3.65
  -8  -4  -3   59.14    4.03
   8   4   3   67.99    3.69
  -9  -4  -3   19.60    1.69
   9   4   3   20.75    1.68
 -10  -4  -3    2.62    0.83
  10   4   3    2.78    0.91
  11   4   3   22.78    2.04
   8  -5  -3   18.75    1.66
  -8   5   3   21.15    1.95
   7  -5  -3   38.27    2.38
   7  -5  -3   36.93    2.48
  -7   5   3   42.28    2.91
   6  -5  -3    3.18    0.56
   6  -5  -3    2.43    0.68
  -6   5   3    2.17    0.66
   5  -5  -3  166.25    8.95
   5  -5  -3  164.91    9.01
  -5   5   3  173.53   12.41
  -5   5   3  177.27    7.77
  -5   5   3  177.52   10.64
   4  -5  -3   33.38    1.92
   4  -5  -3   33.19    2.03
  -4   5   3   33.22    2.33
  -4   5   3   34.63    1.64
  -4   5   3   30.66    2.31
  -4   5   3   33.94    2.93
   3  -5  -3  106.42    6.03
   3  -5  -3  118.64    5.97
   3  -5  -3  112.37    6.71
  -3   5   3  109.65    7.09
  -3   5   3  114.77    6.89
  -3   5   3  120.56    5.15
  -3   5   3  113.45    8.26
   2  -5  -3  230.38   12.56
   2  -5  -3  237.51   12.49
   2  -5  -3  251.57   14.15
  -2   5   3  235.40   17.02
  -2   5   3  237.12   14.80
  -2   5   3  263.45   14.25
   1  -5  -3    0.29    0.28
   1  -5  -3    0.38    0.30
   1  -5  -3    0.12    0.31
  -1   5   3    0.26    0.33
  -1   5   3    0.94    0.19
  -1   5   3    1.83    0.58
  -1   5   3    0.72    0.32
   0  -5  -3  356.50   17.41
   0  -5  -3  319.15   19.74
   0  -5  -3  332.53   17.41
   0   5   3  363.94   20.56
   0   5   3  329.14   17.30
   0   5   3  334.80   23.60
  -1  -5  -3   42.31    2.33
  -1  -5  -3   41.85    2.34
  -1  -5  -3   41.76    2.65
   1   5   3   39.17    3.27
   1   5   3   44.60    2.75
   1   5   3   42.32    2.28
   1   5   3   42.77    2.64
  -2  -5  -3  268.58   16.70
  -2  -5  -3  278.90   14.16
  -2  -5  -3  269.19   14.15
  -2  -5  -3  281.37   16.07
   2   5   3  269.68   14.14
   2   5   3  274.72   14.12
   2   5   3  287.01   16.73
  -3  -5  -3  416.88   23.56
  -3  -5  -3  392.39   24.49
  -3  -5  -3  413.93   20.77
  -3  -5  -3  407.55   20.75
   3   5   3  402.21   20.74
   3   5   3  411.28   20.73
   3   5   3  395.12   26.40
  -4  -5  -3    4.27    0.49
  -4  -5  -3    4.28    0.53
  -4  -5  -3    4.74    0.57
   4   5   3    4.50    0.52
   4   5   3    5.63    0.50
  -5  -5  -3  195.35   11.49
  -5  -5  -3  197.53   11.93
  -5  -5  -3  190.68   10.14
  -5  -5  -3  199.34   10.15
   5   5   3  193.81   10.10
   5   5   3  192.99   10.13
  -6  -5  -3   70.72    3.86
  -6  -5  -3   66.64    4.31
  -6  -5  -3   65.44    4.45
   6   5   3   72.26    3.80
   6   5   3   73.40    3.87
  -7  -5  -3   22.90    1.60
  -7  -5  -3   21.64    1.72
   7   5   3   24.24    1.63
  -8  -5  -3   64.06    3.70
  -8  -5  -3   58.73    4.08
   8   5   3   69.70    3.74
  -9  -5  -3    4.77    0.89
  -9  -5  -3    5.99    0.97
   9   5   3    5.46    0.95
 -10  -5  -3   16.30    1.67
  10   5   3   20.27    1.76
  11   5   3   15.57    1.65
   7  -6  -3   17.60    1.36
   7  -6  -3   15.65    1.49
  -7   6   3   18.18    1.72
   6  -6  -3   20.78    1.65
   6  -6  -3   21.70    1.50
  -6   6   3   23.47    1.90
   5  -6  -3   91.08    5.37
   5  -6  -3   96.87    5.28
  -5   6   3  101.45    7.51
  -5   6   3  103.55    4.57
  -5   6   3  100.80    6.32
   4  -6  -3    1.25    0.55
   4  -6  -3    1.13    0.44
  -4   6   3    1.91    0.34
  -4   6   3    2.41    0.97
  -4   6   3    2.22    0.61
   3  -6  -3  171.03    9.17
   3  -6  -3  172.25    9.07
  -3   6   3  164.70   12.44
  -3   6   3  176.04   10.77
  -3   6   3  186.53   10.31
   2  -6  -3  146.38    8.45
   2  -6  -3  160.28    8.41
   2  -6  -3  167.41    9.44
  -2   6   3  158.14   11.51
  -2   6   3  151.92    9.94
  -2   6   3  180.29    9.51
   1  -6  -3   87.33    4.44
   1  -6  -3   67.84    4.37
  -1   6   3   87.88    5.20
  -1   6   3   80.78    6.08
  -1   6   3   86.20    4.92
   0  -6  -3  405.72   20.38
   0  -6  -3  370.40   23.14
   0  -6  -3  402.20   20.41
   0   6   3  383.61   27.68
   0   6   3  416.72   23.10
   0   6   3  408.97   24.07
  -1  -6  -3   15.11    1.03
  -1  -6  -3   16.42    1.05
  -1  -6  -3   15.21    1.17
   1   6   3   15.67    0.97
   1   6   3   16.50    1.21
   1   6   3   16.10    1.62
  -2  -6  -3  262.79   13.69
  -2  -6  -3  264.97   13.69
  -2  -6  -3  267.65   15.54
   2   6   3  269.10   13.64
   2   6   3  251.40   18.66
   2   6   3  279.64   16.18
  -3  -6  -3  307.71   17.20
  -3  -6  -3  294.22   15.16
  -3  -6  -3  298.95   15.15
  -3  -6  -3  278.09   17.85
   3   6   3  301.59   15.12
   3   6   3  287.48   19.19
  -4  -6  -3   25.55    1.59
  -4  -6  -3   28.12    1.83
  -4  -6  -3   28.36    1.61
  -4  -6  -3   25.71    1.79
   4   6   3   24.38    1.81
   4   6   3   24.21    1.56
  -5  -6  -3  260.05   12.69
  -5  -6  -3  244.20   14.35
  -5  -6  -3  246.22   12.67
  -5  -6  -3  226.65   14.89
   5   6   3  240.87   12.62
   5   6   3  249.53   12.66
  -6  -6  -3   26.36    1.72
  -6  -6  -3   26.00    1.88
  -6  -6  -3   26.70    1.70
   6   6   3   27.23    1.72
  -7  -6  -3   55.22    3.78
  -7  -6  -3   60.22    3.42
   7   6   3   61.99    3.43
  -8  -6  -3   57.63    3.36
  -8  -6  -3   53.02    3.68
   8   6   3   58.75    3.37
  -9  -6  -3    0.74    0.72
  -9  -6  -3    1.06    0.63
   9   6   3    0.36    0.74
 -10  -6  -3   23.70    2.14
  10   6   3   29.13    2.15
  11   6   3    4.84    1.19
  -7   7   3   -0.47    0.75
   6  -7  -3   71.85    4.01
   6  -7  -3   67.53    4.13
  -6   7   3   75.11    4.83
   5  -7  -3   37.91    2.23
   5  -7  -3   35.07    2.40
  -5   7   3   35.76    3.48
  -5   7   3   37.93    2.73
   4  -7  -3   19.17    1.57
   4  -7  -3   18.84    1.37
  -4   7   3   19.92    2.32
  -4   7   3   22.93    1.78
   3  -7  -3   97.71    5.76
   3  -7  -3  102.95    5.70
  -3   7   3  117.44    6.34
  -3   7   3  108.73    6.78
  -3   7   3  104.36    7.92
   2  -7  -3   22.66    1.52
   2  -7  -3   20.82    1.46
  -2   7   3   22.40    1.51
  -2   7   3   20.68    2.16
  -2   7   3   23.42    1.74
   1  -7  -3  199.50   10.34
   1  -7  -3  199.84   10.36
  -1   7   3  201.23   11.64
  -1   7   3  186.32   14.13
  -1   7   3  207.15   12.19
   0  -7  -3  211.78   10.23
   0  -7  -3  208.73   10.21
   0  -7  -3  178.96   11.58
   0   7   3  199.62   13.99
   0   7   3  176.95   10.04
   0   7   3  208.02   12.04
  -1  -7  -3   11.64    1.01
  -1  -7  -3   11.08    0.86
  -1  -7  -3   11.28    0.88
   1   7   3   12.07    1.00
   1   7   3   12.13    0.77
   1   7   3   11.46    1.45
  -2  -7  -3  291.56   15.40
  -2  -7  -3  304.97   17.49
  -2  -7  -3  297.99   15.39
   2   7   3  292.45   15.33
   2   7   3  318.65   18.21
   2   7   3  291.42   21.01
  -3  -7  -3   23.49    1.62
  -3  -7  -3   22.17    1.43
  -3  -7  -3   23.47    1.46
   3   7   3   22.56    1.63
   3   7   3   22.21    1.41
  -4  -7  -3  178.43    9.24
  -4  -7  -3  176.96   10.46
  -4  -7  -3  184.12    9.25
   4   7   3  176.88    9.21
   4   7   3  169.09   11.59
  -5  -7  -3  107.97    6.71
  -5  -7  -3  113.98    5.96
  -5  -7  -3  110.73    5.95
   5   7   3  116.48    5.95
   5   7   3  108.12    7.39
  -6  -7  -3    1.79    0.57
  -6  -7  -3    1.13    0.55
  -6  -7  -3    1.11    0.46
   6   7   3    1.62    0.55
  -7  -7  -3   59.34    4.01
  -7  -7  -3   65.26    3.64
   7   7   3   63.40    3.60
  -8  -7  -3   13.75    1.35
  -8  -7  -3   11.36    1.33
   8   7   3   14.99    1.36
  -9  -7  -3   11.46    1.28
  -9  -7  -3   13.73    1.43
   9   7   3   12.46    1.32
 -10  -7  -3   21.06    1.86
 -10  -7  -3   17.56    1.86
  10   7   3   22.80    1.92
  11   7   3   -0.53    0.99
  -6   8   3   49.24    3.53
   5  -8  -3    4.55    0.74
   5  -8  -3    3.26    0.80
  -5   8   3    3.86    0.89
  -5   8   3    5.10    1.42
   4  -8  -3   34.36    2.33
   4  -8  -3   35.56    2.26
  -4   8   3   36.19    3.39
  -4   8   3   38.23    2.68
   3  -8  -3   85.55    4.82
   3  -8  -3   91.62    4.84
  -3   8   3   78.82    6.72
  -3   8   3   93.75    5.66
   2  -8  -3   11.24    1.05
   2  -8  -3   14.34    1.07
  -2   8   3   12.20    1.60
  -2   8   3   12.09    1.17
   1  -8  -3  256.24   13.18
   1  -8  -3  262.18   13.22
  -1   8   3  260.23   15.55
  -1   8   3  241.30   18.06
   0  -8  -3   23.68    1.53
   0  -8  -3   24.18    1.52
   0   8   3   24.02    1.75
   0   8   3   26.35    2.33
  -1  -8  -3  100.01    5.52
  -1  -8  -3  102.67    5.52
  -1  -8  -3  105.84    6.30
   1   8   3  107.19    6.52
   1   8   3  106.03    7.72
  -2  -8  -3  144.78    7.41
  -2  -8  -3  139.76    7.40
  -2  -8  -3  141.51    8.41
   2   8   3  140.78   10.25
   2   8   3  139.49    7.32
  -3  -8  -3    1.76    0.46
  -3  -8  -3    1.52    0.45
  -3  -8  -3    1.69    0.46
   3   8   3    1.59    0.81
   3   8   3    2.01    0.38
   3   8   3    1.25    0.39
  -4  -8  -3  122.97    7.51
  -4  -8  -3  120.58    6.64
  -4  -8  -3  132.62    6.66
   4   8   3  121.20    8.27
   4   8   3  129.29    6.62
  -5  -8  -3   41.15    2.70
  -5  -8  -3   41.17    2.40
  -5  -8  -3   43.13    2.45
   5   8   3   39.10    2.39
   5   8   3   38.32    2.81
  -6  -8  -3   33.93    2.14
  -6  -8  -3   32.35    2.39
  -6  -8  -3   35.86    2.21
   6   8   3   38.09    2.21
   6   8   3   32.55    2.50
  -7  -8  -3   68.67    4.66
  -7  -8  -3   74.02    4.23
   7   8   3   79.98    4.24
  -8  -8  -3    0.35    0.71
  -8  -8  -3    0.11    0.59
   8   8   3   -0.01    0.67
  -9  -8  -3   29.91    2.48
  -9  -8  -3   37.01    2.44
   9   8   3   35.42    2.43
 -10  -8  -3   10.12    1.37
 -10  -8  -3    7.80    1.26
  10   8   3   10.11    1.34
  -5   9   3    7.82    1.02
  -5   9   3    7.96    1.83
   4  -9  -3   53.33    3.36
  -4   9   3   62.93    3.88
  -4   9   3   55.17    4.90
   3  -9  -3   26.62    1.68
   3  -9  -3   21.57    1.69
  -3   9   3   26.17    1.92
  -3   9   3   26.94    2.74
   2  -9  -3   59.03    3.29
   2  -9  -3   62.22    3.37
  -2   9   3   60.61    3.86
  -2   9   3   53.96    4.81
   1  -9  -3  108.81    5.60
   1  -9  -3   99.44    5.54
  -1   9   3  102.33    7.87
  -1   9   3  107.43    6.54
   0  -9  -3    6.75    0.69
   0  -9  -3    6.64    0.67
   0   9   3    7.86    0.86
   0   9   3    6.68    1.26
  -1  -9  -3  103.17    5.67
  -1  -9  -3  106.14    5.67
   1   9   3  112.86    6.71
   1   9   3  105.15    7.95
  -2  -9  -3   28.74    1.78
  -2  -9  -3   30.22    1.81
   2   9   3   28.49    2.73
  -3  -9  -3   80.63    4.96
  -3  -9  -3   79.45    4.37
  -3  -9  -3   80.44    4.37
   3   9   3   81.53    6.20
   3   9   3   79.89    4.31
  -4  -9  -3  133.40    7.96
  -4  -9  -3  138.07    7.05
  -4  -9  -3  134.49    7.05
   4   9   3  127.34    9.75
   4   9   3  128.86    8.76
   4   9   3  132.54    6.99
  -5  -9  -3    0.37    0.51
  -5  -9  -3   -0.27    0.44
  -5  -9  -3    2.22    0.55
   5   9   3    0.47    0.38
   5   9   3    1.04    0.56
  -6  -9  -3   72.21    4.49
  -6  -9  -3   67.78    4.00
  -6  -9  -3   68.84    3.98
   6   9   3   72.24    4.00
  -7  -9  -3   32.83    2.14
  -7  -9  -3   27.30    2.25
   7   9   3   31.37    2.11
  -8  -9  -3    8.22    1.13
  -8  -9  -3    9.27    1.13
   8   9   3    8.25    1.11
  -9  -9  -3   23.93    2.05
  -9  -9  -3   23.70    2.01
   9   9   3   25.70    2.04
 -10  -9  -3    0.89    0.81
 -10  -9  -3    0.10    0.93
  10   9   3    0.98    1.04
  -4  10   3   49.81    4.54
  -4  10   3   48.22    3.20
   3 -10  -3    0.19    0.55
  -3  10   3    0.01    0.48
  -3  10   3    1.47    1.19
   2 -10  -3   78.98    4.39
   2 -10  -3   85.21    4.49
  -2  10   3   78.22    6.45
  -2  10   3   83.52    5.18
   1 -10  -3   22.40    1.53
   1 -10  -3   23.56    1.53
  -1  10   3   25.79    1.78
  -1  10   3   21.13    2.51
   0 -10  -3   19.59    1.41
   0 -10  -3   22.16    1.46
   0  10   3   21.98    2.41
   0  10   3   23.33    1.68
  -1 -10  -3   92.77    5.02
  -1 -10  -3   93.41    5.02
   1  10   3   94.17    7.15
  -2 -10  -3    6.94    0.76
  -2 -10  -3    7.15    0.75
   2  10   3   10.40    1.45
  -3 -10  -3  148.38    7.58
  -3 -10  -3  141.33    7.56
   3  10   3  138.29   10.49
  -4 -10  -3  103.66    5.52
  -4 -10  -3  102.41    5.51
   4  10   3   99.64    6.79
   4  10   3  100.12    7.70
  -5 -10  -3    1.55    0.61
  -5 -10  -3    1.90    0.61
   5  10   3    2.01    0.62
   5  10   3    1.28    1.04
  -6 -10  -3   47.60    2.88
   6  10   3   48.53    2.86
   6  10   3   43.16    4.08
  -7 -10  -3    3.37    0.85
   7  10   3    4.56    0.86
  -8 -10  -3   22.28    1.89
   8  10   3   23.33    1.90
  -9 -10  -3   13.85    1.50
   9  10   3   14.19    1.50
 -10 -10  -3    0.67    0.98
  10  10   3    1.94    1.06
  -4  11   3   20.59    2.68
  -3  11   3   11.38    1.98
   2 -11  -3   51.48    2.94
  -2  11   3   50.78    4.54
   1 -11  -3   -0.01    0.45
   1 -11  -3    0.08    0.45
  -1  11   3    0.51    1.12
   0 -11  -3   50.23    2.95
   0 -11  -3   54.29    2.95
   0  11   3   51.41    4.49
  -1 -11  -3   53.16    2.99
  -1 -11  -3   50.69    2.98
   1  11   3   54.09    4.50
  -2 -11  -3   10.69    1.01
  -2 -11  -3   10.78    1.04
   2  11   3   11.52    1.68
  -3 -11  -3   62.72    3.54
  -3 -11  -3   61.95    3.54
   3  11   3   62.02    5.10
  -4 -11  -3    3.61    0.74
  -4 -11  -3    2.83    0.64
   4  11   3    1.90    1.10
  -5 -11  -3   22.36    1.67
  -5 -11  -3   22.42    1.69
   5  11   3   23.90    2.67
  -6 -11  -3   18.06    1.54
   6  11   3   17.95    2.32
  -7 -11  -3    6.98    1.05
   7  11   3    8.24    1.77
  -8 -11  -3   25.87    2.24
   8  11   3   28.97    2.21
   8  11   3   32.59    3.31
  -9 -11  -3    3.90    1.15
   9  11   3    3.09    1.06
  -2  12   3    5.61    1.64
   1 -12  -3    3.60    0.61
  -1  12   3    3.79    1.45
   0 -12  -3   38.22    2.33
   0 -12  -3   39.01    2.32
   0  12   3   40.89    3.77
  -1 -12  -3   10.68    1.01
  -1 -12  -3   10.67    0.98
   1  12   3    8.64    1.72
  -2 -12  -3   27.12    1.82
  -2 -12  -3   28.40    1.86
   2  12   3   26.71    2.92
  -3 -12  -3   29.22    1.94
  -3 -12  -3   29.65    1.93
   3  12   3   26.72    2.93
  -4 -12  -3    2.77    0.76
  -4 -12  -3    3.79    0.75
   4  12   3    3.42    1.26
  -5 -12  -3   38.04    2.49
  -5 -12  -3   36.71    2.49
   5  12   3   42.97    3.74
  -6 -12  -3    5.20    0.99
   6  12   3    5.58    1.51
  -7 -12  -3    8.61    1.23
   7  12   3    9.07    1.90
  -8 -12  -3   14.45    1.59
   8  12   3   20.15    2.59
  -9 -12  -3    0.35    0.98
   9  12   3    1.67    1.68
  -1  13   3   26.94    3.15
   0 -13  -3   30.35    2.01
   0 -13  -3   33.55    2.01
   0  13   3   30.98    3.39
  -1 -13  -3    5.15    0.76
  -1 -13  -3    4.35    0.73
   1  13   3    2.54    1.42
  -2 -13  -3   41.68    2.53
  -2 -13  -3   42.08    2.52
   2  13   3   37.70    3.86
  -3 -13  -3    7.30    0.97
  -3 -13  -3    6.94    0.91
   3  13   3    7.32    1.72
  -4 -13  -3   13.58    1.27
  -4 -13  -3   13.86    1.31
   4  13   3   12.69    1.99
  -5 -13  -3   21.85    1.69
   5  13   3   18.08    2.42
  -6 -13  -3   -0.25    0.74
   6  13   3   -0.05    1.22
  -7 -13  -3   15.54    1.53
   7  13   3   15.01    2.37
  -8 -13  -3    5.45    1.22
   8  13   3    4.14    1.80
  -1 -14  -3    6.21    0.84
   1  14   3    5.54    1.69
  -2 -14  -3   17.95    1.43
  -2 -14  -3   17.29    1.46
   2  14   3   16.21    2.41
  -3 -14  -3    0.41    0.73
  -3 -14  -3    0.27    0.65
   3  14   3    1.59    1.33
  -4 -14  -3   15.12    1.43
  -4 -14  -3   15.57    1.48
   4  14   3   16.66    2.32
  -5 -14  -3    7.40    1.08
   5  14   3    7.17    1.81
  -6 -14  -3    2.97    0.94
   6  14   3    1.81    1.53
  -7 -14  -3   10.85    1.39
   7  14   3   12.36    2.23
   4  14  -4    5.08    1.83
   3  14  -4    5.70    1.76
   2  14  -4   11.68    1.72
   2  14  -4   13.65    2.23
   1  14  -4   -0.03    1.04
   6  13  -4    3.20    1.70
   5  13  -4   20.03    2.66
   4  13  -4    1.91    1.44
   3  13  -4   19.61    2.10
   3  13  -4   19.34    2.58
   2  13  -4   12.69    2.10
   2  13  -4   11.93    1.62
   1  13  -4    3.41    1.15
   1  13  -4    4.14    1.51
   0  13  -4   20.04    2.24
  -1  13  -4    0.70    1.11
   7  12  -4   -0.14    1.37
   6  12  -4   12.81    2.12
   5  12  -4    8.11    1.87
   4  12  -4    7.64    1.81
   3  12  -4   24.92    2.34
   3  12  -4   24.97    2.94
   2  12  -4    2.40    1.38
   2  12  -4    2.52    0.95
   1  12  -4   14.03    1.80
   1  12  -4   14.29    2.08
   0  12  -4   25.20    2.78
   0  12  -4   24.24    2.41
  -1  12  -4    0.80    0.44
  -1  12  -4    0.54    0.93
  -2  12  -4   24.39    1.34
  -2  12  -4   24.48    2.55
  -3  12  -4    2.28    0.41
   8  11  -4    2.84    1.67
   7  11  -4    3.95    1.62
   6  11  -4   22.04    2.76
   5  11  -4    4.04    1.49
   4  11  -4   24.59    2.27
   4  11  -4   26.60    2.97
   3  11  -4   30.84    3.33
   3  11  -4   34.17    2.79
   2  11  -4    0.91    1.17
   2  11  -4    1.42    0.80
   1  11  -4   54.56    4.64
   1  11  -4   54.12    2.76
   1  11  -4   58.98    4.40
   0  11  -4    9.50    1.63
   0  11  -4    9.06    1.30
   0  11  -4    9.21    0.76
  -1  11  -4   24.20    2.41
  -1  11  -4   25.01    1.39
  -1  11  -4   25.92    2.66
  -2  11  -4   22.78    2.28
  -2  11  -4   20.10    1.18
  -3  11  -4    1.71    0.41
   8  10  -4    0.78    1.54
   7  10  -4   11.37    1.99
   6  10  -4   36.27    3.64
   5  10  -4    1.29    1.24
   4  10  -4   77.00    5.47
   4  10  -4   69.50    5.89
   3  10  -4   14.46    1.53
   3  10  -4   14.91    2.06
   2  10  -4   36.59    3.05
   2  10  -4   40.74    3.57
   1  10  -4   79.59    5.97
   1  10  -4   83.25    3.84
   1  10  -4   86.15    6.21
  -1 -10   4   76.65    4.37
   0  10  -4   -0.38    0.91
   0  10  -4    0.94    0.41
   0  10  -4    0.29    0.69
   0 -10   4    0.90    0.40
  -1  10  -4   68.09    5.22
  -1  10  -4   72.25    3.25
  -1  10  -4   69.58    5.27
   1 -10   4   63.87    3.65
  -2  10  -4   27.52    2.53
  -2  10  -4   29.76    1.46
   2 -10   4   24.54    1.53
  -3  10  -4    9.33    1.42
   3 -10   4    7.35    0.58
   9   9  -4   15.74    1.62
   8   9  -4    0.63    0.83
   7   9  -4   35.93    2.53
   7   9  -4   42.52    3.77
   6   9  -4   17.81    1.45
   6   9  -4   15.32    2.14
   5   9  -4   42.99    2.49
   5   9  -4   36.34    3.64
   4   9  -4   82.13    4.56
   4   9  -4   78.90    6.41
   4   9  -4   86.74    6.02
   3   9  -4    3.43    0.73
   3   9  -4    2.85    1.17
   2   9  -4   69.76    5.37
   2   9  -4   70.37    5.04
   2   9  -4   69.30    3.29
  -2  -9   4   64.03    3.74
   1   9  -4   56.93    4.25
   1   9  -4   58.09    2.74
   1   9  -4   56.73    4.51
  -1  -9   4   53.72    3.11
   0   9  -4   25.98    2.28
   0   9  -4   28.18    2.59
   0   9  -4   27.42    1.44
   0  -9   4   24.85    1.58
  -1   9  -4   83.92    3.76
  -1   9  -4   80.80    5.93
  -1   9  -4   78.82    5.94
   1  -9   4   76.42    4.25
  -2   9  -4    3.36    0.93
   2  -9   4    3.31    0.44
  -3   9  -4   49.50    3.90
   3  -9   4   45.94    2.56
   4  -9   4   24.28    1.40
   5  -9   4    2.67    0.40
   9   8  -4    4.85    1.17
   8   8  -4    7.82    1.14
   7   8  -4   43.71    2.78
   6   8  -4    0.39    0.60
   5   8  -4   67.41    3.59
   5   8  -4   55.73    4.96
   4   8  -4   36.64    2.20
   4   8  -4   29.65    3.22
   4   8  -4   39.12    2.78
   3   8  -4   13.73    1.82
   3   8  -4   13.71    1.30
   3   8  -4   13.28    1.05
  -3  -8   4   11.81    1.03
   2   8  -4  125.17    8.80
   2   8  -4  123.98    8.69
   2   8  -4  119.44    6.47
   2   8  -4  126.15    5.67
  -2  -8   4  119.44    6.49
   1   8  -4    0.95    0.55
   1   8  -4    1.30    0.39
   1   8  -4    2.89    0.97
  -1  -8   4    1.11    0.38
   0   8  -4   95.28    6.85
   0   8  -4   93.06    6.88
   0   8  -4   99.37    4.42
   0  -8   4   93.00    5.04
  -1   8  -4   54.80    4.30
  -1   8  -4   56.30    4.28
   1  -8   4   57.24    3.08
  -2   8  -4    8.80    1.15
  -2   8  -4    7.59    1.17
   2  -8   4    8.05    0.72
  -3   8  -4  128.79    8.15
   3  -8   4   95.65    5.78
   4  -8   4   13.36    0.94
   5  -8   4   20.12    1.25
   6  -8   4   21.17    1.32
   9   7  -4    2.47    0.98
   8   7  -4   27.39    2.08
   7   7  -4   30.20    2.10
   6   7  -4   16.32    1.36
   5   7  -4   75.87    4.20
   4   7  -4    7.77    0.83
   4   7  -4    5.14    1.25
   4   7  -4    6.91    0.72
   3   7  -4  110.12    5.09
   3   7  -4  102.81    7.89
   3   7  -4  116.20    7.72
   3   7  -4  108.68    5.80
  -3  -7   4  107.47    5.83
   2   7  -4  177.64   12.10
   2   7  -4  183.95   12.01
   2   7  -4  169.17    9.00
   2   7  -4  172.43    7.87
  -2  -7   4  164.81    9.02
   1   7  -4   23.10    1.60
   1   7  -4   26.29    2.16
   1   7  -4   26.88    1.43
   1   7  -4   33.27    2.60
  -1  -7   4   29.40    1.65
   0   7  -4  268.38   18.96
   0   7  -4  273.86   18.24
   0  -7   4  275.29   14.04
  -1   7  -4   58.59    4.46
  -1   7  -4   62.11    3.79
  -1   7  -4   57.34    4.41
   1  -7   4   59.94    3.26
  -2   7  -4   91.14    6.56
  -2   7  -4   97.34    6.79
  -2   7  -4  101.49    5.76
   2  -7   4   81.48    4.91
  -3   7  -4  103.55    5.86
   3  -7   4   85.45    4.98
  -4   7  -4    5.32    0.60
   4  -7   4    5.29    0.53
   4  -7   4    5.72    0.50
  -5   7  -4   46.19    3.18
   5  -7   4   52.63    2.68
  -6   7  -4   11.42    1.02
   6  -7   4   11.02    0.85
  -7   7  -4   14.81    1.13
  -7   7  -4   13.87    1.22
   7  -7   4   12.93    1.03
   9   6  -4    6.16    1.18
   8   6  -4   46.16    2.94
   7   6  -4    0.40    0.65
   6   6  -4  108.80    5.89
   5   6  -4  109.17    5.87
   4   6  -4    4.67    0.60
   4   6  -4    5.27    0.62
   4   6  -4    4.19    0.54
  -4  -6   4    3.63    0.56
   3   6  -4  213.35   13.74
   3   6  -4  207.30   10.28
   3   6  -4  192.76   11.69
   3   6  -4  163.78   13.46
   3   6  -4  197.29   10.28
   3   6  -4  206.11    8.99
  -3  -6   4  201.12   10.31
   2   6  -4   38.47    2.23
   2   6  -4   43.24    1.99
   2   6  -4   40.22    2.89
   2   6  -4   36.46    2.52
   2   6  -4   42.15    3.35
  -2  -6   4   36.64    2.23
   1   6  -4  162.90    9.24
   1   6  -4  180.44   12.45
   1   6  -4  178.13   10.48
   1   6  -4  181.10    8.08
   1   6  -4  188.89   12.19
  -1  -6   4  181.30    9.28
   0   6  -4  229.54   13.78
   0   6  -4  221.86   15.75
   0   6  -4  214.25   13.19
   0   6  -4  222.80   15.17
   0  -6   4  251.51   11.67
   0  -6   4  218.09   11.69
  -1   6  -4    3.03    0.47
  -1   6  -4    3.94    0.79
  -1   6  -4    2.99    0.62
  -1   6  -4    3.31    0.39
   1  -6   4    2.36    0.42
   1  -6   4    3.67    0.44
  -2   6  -4  172.96   10.43
  -2   6  -4  172.18   12.02
  -2   6  -4  166.07   11.50
  -2   6  -4  172.16    9.90
   2  -6   4  194.55    8.86
   2  -6   4  144.70    8.81
  -3   6  -4   31.54    2.16
   3  -6   4   31.84    1.77
  -4   6  -4   47.60    3.17
   4  -6   4   46.79    2.62
   4  -6   4   52.97    2.63
  -5   6  -4   95.65    5.82
   5  -6   4   95.65    4.86
   5  -6   4   89.13    4.88
  -6   6  -4    0.15    0.43
   6  -6   4    0.53    0.34
   6  -6   4    0.40    0.36
  -7   6  -4   35.49    2.48
   7  -6   4   36.01    2.06
  -8   6  -4    9.71    1.11
  10   5  -4    1.14    0.99
   9   5  -4   18.89    1.75
   8   5  -4   22.43    1.80
   7   5  -4    1.34    0.68
   6   5  -4   93.15    5.10
   5   5  -4   92.46    5.01
   4   5  -4   27.94    2.07
   4   5  -4   30.06    1.77
   4   5  -4   28.44    1.80
   4   5  -4   30.85    2.12
  -4  -5   4   28.22    1.80
  -4  -5   4   30.39    2.11
   3   5  -4  166.88   10.19
   3   5  -4  180.66   11.92
   3   5  -4  173.60    8.96
   3   5  -4  171.19    8.94
   3   5  -4  174.82    7.84
  -3  -5   4  165.76    8.97
   2   5  -4    3.53    0.84
   2   5  -4    3.33    0.51
   2   5  -4    3.50    0.43
   2   5  -4    3.59    0.41
   2   5  -4    3.36    0.40
   2   5  -4    2.97    0.42
  -2  -5   4    2.98    0.43
   1   5  -4  363.55   21.72
   1   5  -4  355.83   18.38
   1   5  -4  352.90   20.84
   1   5  -4  337.68   18.36
   1   5  -4  362.86   24.75
   1   5  -4  373.64   23.80
   1   5  -4  355.76   16.03
  -1  -5   4  367.73   18.40
   0   5  -4   64.82    4.68
   0   5  -4   65.02    4.14
   0   5  -4   57.66    3.48
   0   5  -4   66.71    3.94
   0  -5   4   63.43    3.52
   0  -5   4   73.94    3.54
  -1   5  -4   79.79    5.98
  -1   5  -4   85.92    4.31
  -1   5  -4   85.77    4.97
  -1   5  -4   81.83    5.24
  -1   5  -4   81.18    5.82
   1  -5   4   76.01    4.44
   1  -5   4   94.79    4.49
  -2   5  -4  237.62   15.46
  -2   5  -4  267.09   14.79
  -2   5  -4  249.27   16.89
  -2   5  -4  252.60   17.73
   2  -5   4  239.72   13.06
   2  -5   4  280.69   13.14
  -3   5  -4   29.13    2.11
  -3   5  -4   33.20    1.94
   3  -5   4   34.78    1.84
   3  -5   4   29.47    1.73
  -4   5  -4   99.22    5.74
  -4   5  -4   95.13    6.05
   4  -5   4   94.24    5.08
   4  -5   4  102.64    5.11
  -5   5  -4   65.85    3.72
  -5   5  -4   61.50    3.99
   5  -5   4   60.71    3.34
   5  -5   4   63.62    3.36
  -6   5  -4   11.50    1.04
   6  -5   4   12.11    0.91
   6  -5   4   11.66    0.85
  -7   5  -4   54.08    3.73
   7  -5   4   61.24    3.17
   7  -5   4   57.20    3.14
  -8   5  -4    2.88    0.68
   8  -5   4    3.82    0.64
  10   4  -4    2.18    1.07
   9   4  -4   35.03    2.48
   8   4  -4   13.31    1.28
   7   4  -4   28.27    1.95
   6   4  -4   97.56    5.31
   5   4  -4   11.90    0.94
   5   4  -4   11.19    1.02
   4   4  -4  228.77   11.55
   4   4  -4  216.22   11.50
   4   4  -4  217.68   13.09
  -4  -4   4  227.83   13.58
  -4  -4   4  219.85   11.51
   3   4  -4   76.56    4.08
   3   4  -4   83.67    4.08
   3   4  -4   69.58    4.02
   3   4  -4   73.17    4.63
   3   4  -4   75.53    3.55
   3   4  -4   74.90    5.25
  -3  -4   4   77.61    4.77
  -3  -4   4   74.16    4.07
   2   4  -4  204.39    9.21
   2   4  -4  208.40   14.10
   2   4  -4  200.92   11.98
   2   4  -4  207.04   10.54
   2   4  -4  198.52   10.54
   2   4  -4  204.26   10.54
  -2  -4   4  209.90   12.44
  -2  -4   4  199.58   10.56
   1   4  -4  488.66   21.95
   1   4  -4  501.52   33.92
   1   4  -4  495.62   29.75
   1   4  -4  473.94   25.17
   1   4  -4  480.70   25.16
   1   4  -4  497.96   32.42
   1   4  -4  512.06   28.58
  -1  -4   4  491.68   25.20
   0   4  -4   11.62    0.84
   0   4  -4   11.97    0.80
   0   4  -4   12.50    1.05
   0   4  -4   12.10    0.93
   0   4  -4   13.71    1.29
   0   4  -4   12.17    1.02
   0  -4   4   10.17    0.84
  -1   4  -4  207.95   13.78
  -1   4  -4  209.87   14.41
  -1   4  -4  192.08   12.63
  -1   4  -4  228.31   12.13
   1  -4   4  185.70   10.68
   1  -4   4  218.95   10.73
  -2   4  -4  271.57   18.00
  -2   4  -4  241.90   16.51
  -2   4  -4  292.30   15.90
   2  -4   4  285.79   14.01
   2  -4   4  271.24   13.96
  -3   4  -4   69.82    4.49
  -3   4  -4   71.84    4.62
   3  -4   4   83.72    3.94
   3  -4   4   71.65    3.88
  -4   4  -4  218.72   12.84
  -4   4  -4  188.46   12.37
   4  -4   4  209.63   10.84
   4  -4   4  228.40   10.87
  -5   4  -4    0.74    0.42
  -5   4  -4    1.38    0.39
   5  -4   4    0.84    0.29
   5  -4   4    1.25    0.35
  -6   4  -4   68.65    4.38
  -6   4  -4   69.32    4.25
   6  -4   4   71.31    3.72
   6  -4   4   67.15    3.68
  -7   4  -4   42.39    2.94
  -7   4  -4   48.39    2.89
   7  -4   4   45.63    2.52
   7  -4   4   40.60    2.45
  -8   4  -4    2.88    0.68
  -8   4  -4    4.08    0.72
   8  -4   4    4.32    0.69
  -9   4  -4   21.81    1.86
   9  -4   4   25.02    1.73
  10   3  -4   14.83    1.57
   9   3  -4   25.25    1.99
   8   3  -4   -0.14    0.67
   7   3  -4   81.24    4.55
   6   3  -4   48.59    2.78
   6   3  -4   47.74    2.83
   5   3  -4   58.10    3.77
   5   3  -4   62.61    3.38
   5   3  -4   58.00    3.32
   5   3  -4   58.89    3.28
   4   3  -4  216.54   11.09
   4   3  -4  226.27   11.16
   4   3  -4  211.64   12.63
   4   3  -4  210.14   11.09
  -4  -3   4  206.68   11.09
   3   3  -4    1.56    0.39
   3   3  -4    3.11    0.51
   3   3  -4    2.07    0.34
   3   3  -4    2.71    0.40
  -3  -3   4    3.24    0.39
  -3  -3   4    1.98    0.40
   2   3  -4  426.40   26.00
   2   3  -4  452.04   19.97
   2   3  -4  455.77   22.92
   2   3  -4  446.79   22.89
   2   3  -4  449.65   22.89
  -2  -3   4  444.83   22.92
  -2  -3   4  460.17   27.03
   1   3  -4  174.76   10.71
   1   3  -4  178.21    9.05
   1   3  -4  180.54    9.03
   1   3  -4  170.82    7.90
   1   3  -4  179.16   10.28
   1   3  -4  167.25    9.04
  -1  -3   4  169.59    9.07
  -1  -3   4  178.42   10.68
   0   3  -4    9.44    0.76
   0   3  -4   10.73    1.10
   0   3  -4   10.62    0.68
   0   3  -4    9.96    0.72
   0   3  -4   10.37    0.85
   0   3  -4    9.07    0.88
   0  -3   4   12.49    0.80
  -1   3  -4  182.97   10.73
  -1   3  -4  183.24   12.12
  -1   3  -4  191.63    9.36
  -1   3  -4  193.89    9.40
  -1   3  -4  161.50   11.14
   1  -3   4  167.11    9.42
   1  -3   4  196.18    9.47
  -2   3  -4   20.19    1.44
  -2   3  -4   19.18    1.65
  -2   3  -4   19.37    1.42
   2  -3   4   22.60    1.25
  -3   3  -4  299.62   18.89
  -3   3  -4  328.09   15.95
  -3   3  -4  306.65   18.23
   3  -3   4  304.38   15.97
   3  -3   4  324.85   15.99
  -4   3  -4  132.23    7.82
  -4   3  -4  125.50    8.07
   4  -3   4  136.14    6.86
   4  -3   4  131.97    6.81
   4  -3   4  134.12    6.84
  -5   3  -4    3.82    0.55
  -5   3  -4    4.08    0.52
   5  -3   4    3.95    0.41
   5  -3   4    4.00    0.48
  -6   3  -4   95.65    6.15
  -6   3  -4   98.58    5.96
   6  -3   4   97.34    5.19
   6  -3   4  103.99    5.24
  -7   3  -4   14.86    1.31
  -7   3  -4   16.42    1.34
   7  -3   4   15.74    1.11
   7  -3   4   17.01    1.22
  -8   3  -4   24.72    1.93
  -8   3  -4   25.19    1.96
   8  -3   4   29.30    1.78
  -9   3  -4   17.51    1.60
  -9   3  -4   19.43    1.62
   9  -3   4   19.90    1.56
   9   2  -4   17.85    1.71
   8   2  -4   14.78    1.40
   7   2  -4  103.26    5.76
   7   2  -4  107.87    5.74
   6   2  -4    2.33    0.54
   6   2  -4    2.73    0.53
   5   2  -4  177.52    9.46
   5   2  -4  177.04   10.79
   5   2  -4  180.81    9.54
   5   2  -4  184.59    9.50
  -5  -2   4  188.31   11.20
   4   2  -4  122.97    7.46
   4   2  -4  129.00    6.61
   4   2  -4  122.67    6.52
   4   2  -4  123.72    6.55
  -4  -2   4  119.68    6.53
  -4  -2   4  128.70    7.72
   3   2  -4   97.10    4.38
   3   2  -4   95.31    5.00
   3   2  -4   93.04    5.01
   3   2  -4   98.09    5.74
  -3  -2   4   93.06    5.01
  -3  -2   4   92.91    5.68
   2   2  -4  504.51   28.81
   2   2  -4  500.08   22.10
   2   2  -4  491.75   25.34
  -2  -2   4  487.13   28.75
  -2  -2   4  502.78   29.93
  -2  -2   4  491.70   25.37
   1   2  -4   30.73    1.87
   1   2  -4   33.14    2.24
   1   2  -4   34.11    2.17
   1   2  -4   34.41    1.87
   1   2  -4   30.94    1.64
  -1  -2   4   33.58    2.20
  -1  -2   4   33.43    1.90
  -1  -2   4   30.70    2.09
  -1  -2   4   34.73    2.37
   0   2  -4  362.92   22.33
   0   2  -4  331.79   17.39
   0   2  -4  306.92   20.55
   0   2  -4  379.05   17.41
   0   2  -4  367.09   19.80
   0  -2   4  319.42   17.41
   0  -2   4  296.03   19.71
   0  -2   4  354.08   20.55
  -1   2  -4  622.42   37.99
   1  -2   4  638.66   36.50
  -2   2  -4   54.26    3.49
  -2   2  -4   53.46    2.91
  -2   2  -4   56.42    3.84
  -2   2  -4   54.02    3.41
  -2   2  -4   57.51    2.89
   2  -2   4   57.87    2.97
   2  -2   4   52.48    2.92
  -3   2  -4  507.99   29.61
  -3   2  -4  497.42   30.75
   3  -2   4  536.11   26.02
   3  -2   4  501.47   26.02
  -4   2  -4   19.99    1.38
  -4   2  -4   20.11    1.38
   4  -2   4   18.34    1.13
   4  -2   4   20.15    1.22
   4  -2   4   19.41    1.17
  -5   2  -4  105.33    5.35
  -5   2  -4  100.16    6.18
  -5   2  -4   99.41    6.38
   5  -2   4  109.42    5.45
   5  -2   4  102.29    5.39
  -6   2  -4  146.50    8.86
  -6   2  -4  147.15    9.18
   6  -2   4  157.18    7.81
   6  -2   4  147.09    7.75
  -7   2  -4    0.46    0.47
  -7   2  -4    0.81    0.50
   7  -2   4    0.04    0.35
   7  -2   4    2.05    0.50
  -8   2  -4   57.54    4.00
  -8   2  -4   60.34    3.90
   8  -2   4   66.44    3.49
  -9   2  -4   12.38    1.32
  -9   2  -4   12.87    1.34
   9  -2   4   16.68    1.38
 -10   2  -4    5.02    0.94
  10  -2   4    7.29    1.05
   9   1  -4    2.11    0.93
   8   1  -4   46.13    2.88
   7   1  -4   41.02    2.54
   7   1  -4   40.96    2.48
   6   1  -4   34.35    2.14
   6   1  -4   34.40    2.08
  -6  -1   4   34.10    2.48
   5   1  -4  233.00   12.01
   5   1  -4  230.85   13.60
   5   1  -4  228.29   11.96
   5   1  -4  230.37   11.94
  -5  -1   4  229.91   13.57
  -5  -1   4  230.54   14.10
   4   1  -4   67.89    4.02
   4   1  -4   63.18    3.50
   4   1  -4   60.99    3.46
  -4  -1   4   60.41    3.94
  -4  -1   4   68.33    4.13
   3   1  -4  135.95    7.13
   3   1  -4  136.01    7.15
   3   1  -4  140.61    8.15
  -3  -1   4  137.48    6.19
  -3  -1   4  137.33    8.42
  -3  -1   4  131.61    8.10
  -3  -1   4  139.82    7.14
   2   1  -4  442.11   26.78
   2   1  -4  451.35   19.74
   2   1  -4  456.41   22.65
   2   1  -4  449.81   25.75
   2   1  -4  429.01   22.64
  -2  -1   4  431.61   25.70
  -2  -1   4  442.28   22.66
   1   1  -4   34.79    1.72
   1   1  -4   35.79    2.35
   1   1  -4   34.28    1.96
   1   1  -4   33.02    1.93
   1   1  -4   36.64    2.27
  -1  -1   4   29.58    2.18
  -1  -1   4   39.29    2.32
  -1  -1   4   34.32    1.97
   0   1  -4  857.09   48.76
   0   1  -4  827.49   50.71
  -1   1  -4  207.87   10.28
  -1   1  -4  209.25   13.12
  -1   1  -4  181.24   12.12
  -1   1  -4  212.46   10.26
  -1   1  -4  175.90   11.68
   1  -1   4  215.18   12.14
   1  -1   4  191.35   11.67
  -2   1  -4  319.93   21.00
  -2   1  -4  317.48   18.68
  -2   1  -4  323.39   16.40
  -2   1  -4  315.39   19.40
  -2   1  -4  322.36   16.40
   2  -1   4  331.06   18.65
   2  -1   4  310.49   16.40
   2  -1   4  327.57   19.37
  -3   1  -4  228.12   11.60
  -3   1  -4  216.00   13.21
  -3   1  -4  226.96   13.73
  -3   1  -4  238.62   11.59
   3  -1   4  221.53   11.60
  -4   1  -4    3.64    0.36
  -4   1  -4    2.73    0.42
  -4   1  -4    2.83    0.43
   4  -1   4    2.88    0.34
   4  -1   4    4.12    0.42
  -5   1  -4  165.26   10.71
  -5   1  -4  183.89    9.06
  -5   1  -4  168.24   10.33
   5  -1   4  182.72    9.12
   5  -1   4  178.23    9.06
  -6   1  -4  103.52    6.53
  -6   1  -4  108.09    6.76
   6  -1   4  116.13    5.78
   6  -1   4  108.40    5.71
  -7   1  -4   25.68    1.84
  -7   1  -4   24.10    1.78
   7  -1   4   26.39    1.65
   7  -1   4   23.48    1.51
  -8   1  -4   57.83    3.73
  -8   1  -4   56.48    3.85
   8  -1   4   61.29    3.36
  -9   1  -4    1.08    0.62
  -9   1  -4    0.74    0.58
   9  -1   4   -0.14    0.65
  10  -1   4   15.00    1.45
   9   0  -4    5.30    0.99
   8   0  -4   54.58    3.28
   7   0  -4   17.46    1.29
   7   0  -4   15.16    1.39
   6   0  -4   85.91    4.83
   6   0  -4   89.87    4.88
  -6   0   4   92.46    5.74
   5   0  -4  207.84   10.66
   5   0  -4  206.50   10.69
   5   0  -4  203.59   12.14
  -5   0   4  194.30   12.11
  -5   0   4  214.41   12.61
   4   0  -4    7.93    0.69
   4   0  -4    8.06    0.76
   4   0  -4    8.14    0.86
  -4   0   4    9.07    0.87
  -4   0   4    6.64    0.76
  -4   0   4    7.54    0.59
   3   0  -4  533.01   31.36
   3   0  -4  556.94   37.17
   3   0  -4  532.97   27.59
   3   0  -4  542.87   27.60
  -3   0   4  521.83   31.33
  -3   0   4  555.47   32.60
   2   0  -4   90.79    4.75
   2   0  -4   89.78    4.12
   2   0  -4   89.48    4.73
   2   0  -4   89.08    5.62
   2   0  -4   90.83    5.43
  -2   0   4   85.74    5.38
  -2   0   4   88.05    6.27
  -2   0   4   94.37    4.75
  -2   0   4   91.34    5.59
   1   0  -4  535.46   26.33
   1   0  -4  510.68   31.11
   1   0  -4  530.45   22.94
   1   0  -4  510.04   26.31
  -1   0   4  530.15   26.34
  -1   0   4  476.74   29.86
   0   0  -4  443.28   22.33
   0   0  -4  436.23   22.33
   0   0  -4  409.34   26.37
   0   0  -4  443.62   25.39
   0   0   4  473.92   26.38
   0   0   4  429.77   25.34
   0   0   4  417.96   22.33
  -1   0  -4    1.51    0.31
  -1   0  -4    1.33    0.32
  -1   0  -4    1.27    0.26
  -1   0  -4    1.27    0.29
  -1   0  -4    0.57    0.31
   1   0   4    1.24    0.31
   1   0   4    1.87    0.28
   1   0   4    0.56    0.27
  -2   0  -4  503.35   25.34
  -2   0  -4  505.64   25.33
  -2   0  -4  465.15   29.92
  -2   0  -4  489.24   28.79
   2   0   4  514.20   28.78
   2   0   4  524.30   29.93
   2   0   4  474.92   25.33
  -3   0  -4  207.94   10.55
  -3   0  -4  208.74   10.55
  -3   0  -4  204.15   12.01
  -3   0  -4  197.96   12.46
   3   0   4  217.33   12.47
   3   0   4  204.24   10.57
   3   0   4  196.88   10.54
  -4   0  -4   50.26    3.16
  -4   0  -4   50.88    2.75
  -4   0  -4   49.88    3.25
  -4   0  -4   53.40    2.75
   4   0   4   51.24    2.74
   4   0   4   50.38    2.79
  -5   0  -4  251.69   15.13
  -5   0  -4  261.05   13.30
  -5   0  -4  255.06   15.71
   5   0   4  254.17   13.29
   5   0   4  272.98   13.35
  -6   0  -4    3.69    0.54
  -6   0  -4    3.29    0.54
  -6   0  -4    3.59    0.50
   6   0   4    4.62    0.58
   6   0   4    3.51    0.44
  -7   0  -4  122.93    7.90
  -7   0  -4  126.36    7.63
   7   0   4  126.18    6.68
   7   0   4  133.90    6.77
  -8   0  -4   23.03    1.79
  -8   0  -4   22.31    1.83
   8   0   4   26.38    1.71
  -9   0  -4    7.00    0.97
  -9   0  -4    8.39    0.99
   9   0   4    8.71    1.03
  10   0   4   25.31    1.99
   9  -1  -4   24.38    1.98
   8  -1  -4   46.31    2.82
   8  -1  -4   46.58    2.91
   7  -1  -4    0.92    0.51
   6  -1  -4   98.78    5.48
   6  -1  -4   98.21    5.43
  -6   1   4  106.45    6.46
   5  -1  -4   40.01    2.66
   5  -1  -4   38.87    2.29
   5  -1  -4   38.57    2.35
  -5   1   4   40.06    1.98
  -5   1   4   42.54    2.75
   4  -1  -4  126.35    6.53
   4  -1  -4  122.62    6.55
   4  -1  -4  129.72    7.46
  -4   1   4  115.56    7.42
  -4   1   4  123.80    5.65
  -4   1   4  128.76    7.72
   3  -1  -4  385.96   19.86
   3  -1  -4  393.70   22.59
   3  -1  -4  385.10   19.87
  -3   1   4  370.24   22.56
  -3   1   4  385.37   26.81
  -3   1   4  406.02   23.47
  -3   1   4  389.65   17.27
   2  -1  -4    1.51    0.36
   2  -1  -4    0.27    0.24
   2  -1  -4    1.86    0.38
   2  -1  -4    0.43    0.29
  -2   1   4    0.03    0.26
  -2   1   4    0.21    0.23
  -2   1   4    0.36    0.29
  -2   1   4    0.23    0.28
   1  -1  -4  435.71   27.69
   1  -1  -4  500.99   24.37
   1  -1  -4  476.28   28.80
   1  -1  -4  458.72   24.36
   1  -1  -4  494.56   21.21
  -1   1   4  498.43   32.88
  -1   1   4  434.11   27.65
  -1   1   4  494.52   28.78
  -1   1   4  496.65   24.37
   0  -1  -4  295.11   18.97
   0  -1  -4  363.06   16.73
   0  -1  -4  339.12   16.73
   0  -1  -4  316.65   19.73
   0   1   4  314.04   16.69
   0   1   4  325.00   18.97
  -1  -1  -4   76.10    3.93
  -1  -1  -4   68.55    4.47
  -1  -1  -4   74.41    3.95
  -1  -1  -4   72.63    4.64
   1   1   4   69.22    3.91
   1   1   4   78.68    4.66
   1   1   4   78.30    4.50
  -2  -1  -4  339.12   16.96
  -2  -1  -4  337.71   21.60
  -2  -1  -4  335.60   19.27
  -2  -1  -4  339.55   16.96
  -2  -1  -4  325.45   20.02
   2   1   4  350.12   20.03
   2   1   4  343.89   19.27
   2   1   4  317.10   16.94
   2   1   4  292.47   21.56
  -3  -1  -4   19.17    1.29
  -3  -1  -4   18.06    1.13
  -3  -1  -4   17.78    1.11
  -3  -1  -4   17.58    1.30
   3   1   4   20.45    1.11
   3   1   4   19.55    1.33
   3   1   4   17.31    1.28
   3   1   4   17.21    1.14
  -4  -1  -4  294.58   17.34
  -4  -1  -4  288.81   18.01
  -4  -1  -4  311.73   15.26
  -4  -1  -4  299.32   15.25
   4   1   4  295.84   15.24
   4   1   4  295.12   15.27
  -5  -1  -4  185.80   10.85
  -5  -1  -4  184.91    9.55
  -5  -1  -4  194.22    9.56
  -5  -1  -4  180.17   11.26
   5   1   4  187.27    9.57
   5   1   4  174.24    9.51
  -6  -1  -4   28.89    2.10
  -6  -1  -4   30.13    1.83
  -6  -1  -4   31.33    2.07
   6   1   4   30.48    1.78
   6   1   4   32.00    1.87
  -7  -1  -4  125.77    7.97
  -7  -1  -4  128.85    8.28
  -7  -1  -4  137.49    7.06
   7   1   4  135.24    7.02
   7   1   4  140.23    7.09
  -8  -1  -4    6.47    0.87
  -8  -1  -4    6.68    0.83
   8   1   4    8.51    0.88
  -9  -1  -4   19.23    1.74
  -9  -1  -4   21.41    1.74
   9   1   4   23.17    1.68
 -10  -1  -4   25.29    2.07
  10   1   4   26.50    1.99
   9  -2  -4   28.82    2.19
   8  -2  -4   20.96    1.58
   8  -2  -4   21.04    1.71
   7  -2  -4   16.83    1.47
   7  -2  -4   18.74    1.39
   6  -2  -4  145.60    7.81
   6  -2  -4  149.18    7.78
  -6   2   4  146.86    9.19
   5  -2  -4    0.26    0.40
   5  -2  -4    0.30    0.43
  -5   2   4    0.09    0.30
  -5   2   4   -0.22    0.43
   4  -2  -4  335.30   18.73
   4  -2  -4  328.32   16.47
   4  -2  -4  321.16   16.48
  -4   2   4  329.42   19.46
  -4   2   4  294.28   18.71
  -4   2   4  313.15   22.29
  -4   2   4  321.40   14.31
   3  -2  -4  143.43    7.40
   3  -2  -4  140.26    7.36
   3  -2  -4  150.47    8.42
  -3   2   4  137.60    9.96
  -3   2   4  146.01    8.72
  -3   2   4  129.65    8.40
  -3   2   4  143.27    6.39
   2  -2  -4  164.11    8.07
   2  -2  -4  159.48    9.22
   2  -2  -4  155.37    8.10
  -2   2   4  159.19    9.55
  -2   2   4  136.31    9.19
  -2   2   4  158.35   10.90
   1  -2  -4  640.38   38.90
   1  -2  -4  679.72   40.44
  -1   2   4  719.01   34.22
  -1   2   4  688.12   38.90
  -1   2   4  628.08   40.42
   0  -2  -4   50.79    3.04
   0  -2  -4   53.36    3.57
   0  -2  -4   51.48    3.44
   0  -2  -4   61.24    3.05
   0   2   4   55.69    3.02
   0   2   4   57.18    3.46
   0   2   4   55.50    3.57
  -1  -2  -4  497.36   28.55
  -1  -2  -4  511.04   25.16
  -1  -2  -4  468.15   29.68
  -1  -2  -4  489.36   25.15
   1   2   4  519.35   28.56
   1   2   4  467.40   25.13
  -2  -2  -4  404.46   20.11
  -2  -2  -4  401.67   20.10
  -2  -2  -4  371.43   22.82
  -2  -2  -4  392.75   25.68
  -2  -2  -4  376.21   23.73
   2   2   4  379.47   20.08
   2   2   4  423.61   23.76
   2   2   4  402.06   22.83
   2   2   4  385.78   20.09
  -3  -2  -4  173.68    9.08
  -3  -2  -4  172.72    9.08
  -3  -2  -4  171.54   10.71
  -3  -2  -4  175.55   10.32
   3   2   4  185.25   10.74
   3   2   4  170.86    9.06
   3   2   4  166.80    9.08
   3   2   4  200.39   10.36
   3   2   4  165.06   11.46
  -4  -2  -4  984.25   56.66
  -4  -2  -4  957.75   58.93
  -4  -2  -4 1000.00   49.92
  -5  -2  -4  128.13    6.56
  -5  -2  -4  121.61    7.43
  -5  -2  -4  123.85    7.71
  -5  -2  -4  125.27    6.55
   5   2   4  125.55    6.52
   5   2   4  124.72    6.57
  -6  -2  -4  161.15    7.85
  -6  -2  -4  143.24    7.81
  -6  -2  -4  144.40    9.19
  -6  -2  -4  143.28    8.86
   6   2   4  155.06    7.85
   6   2   4  148.92    7.78
  -7  -2  -4   87.26    4.56
  -7  -2  -4   81.83    5.29
  -7  -2  -4   79.04    5.10
   7   2   4   84.79    4.57
  -8  -2  -4    2.92    0.64
  -8  -2  -4    3.34    0.67
   8   2   4    3.35    0.72
  -9  -2  -4   42.20    3.04
   9   2   4   48.44    2.88
 -10  -2  -4    6.29    1.05
  10   2   4   11.35    1.25
  11   2   4   12.29    1.49
   8  -3  -4    0.09    0.77
   8  -3  -4    0.32    0.63
   7  -3  -4   58.05    3.35
   7  -3  -4   57.25    3.41
  -7   3   4   58.76    3.99
   6  -3  -4   65.00    3.72
   6  -3  -4   66.11    3.79
  -6   3   4   70.19    4.45
   5  -3  -4   78.69    4.19
   5  -3  -4   73.88    4.22
  -5   3   4   77.93    3.61
  -5   3   4   77.29    4.95
   4  -3  -4  270.86   15.80
   4  -3  -4  270.79   13.91
   4  -3  -4  267.04   13.94
  -4   3   4  259.24   18.89
  -4   3   4  279.46   12.08
  -4   3   4  271.40   16.44
   3  -3  -4   40.28    2.49
   3  -3  -4   38.90    2.15
   3  -3  -4   36.52    2.20
  -3   3   4   38.30    2.57
  -3   3   4   31.78    2.48
  -3   3   4   36.10    2.96
  -3   3   4   43.28    1.85
   2  -3  -4  249.30   14.02
   2  -3  -4  219.34   12.33
   2  -3  -4  249.56   12.32
  -2   3   4  232.69   14.55
  -2   3   4  241.84   14.06
  -2   3   4  240.74   16.67
   1  -3  -4  369.82   22.24
   1  -3  -4  377.76   19.59
   1  -3  -4  384.44   19.57
  -1   3   4  408.24   23.13
  -1   3   4  354.56   22.24
  -1   3   4  394.54   26.44
   0  -3  -4   60.90    3.99
   0  -3  -4   58.02    4.12
   0  -3  -4   63.03    3.54
   0  -3  -4   67.40    3.52
   0   3   4   60.70    3.46
   0   3   4   71.81    4.03
   0   3   4   69.56    4.77
   0   3   4   65.90    4.15
  -1  -3  -4  633.02   40.28
  -1  -3  -4  694.29   34.12
  -1  -3  -4  664.48   38.73
  -1  -3  -4  694.58   34.14
   1   3   4  687.43   38.72
   1   3   4  709.97   40.31
   1   3   4  598.76   34.09
  -2  -3  -4  145.58    7.59
  -2  -3  -4  138.97    7.57
  -2  -3  -4  143.89    8.94
  -2  -3  -4  145.96    8.61
   2   3   4  146.14    7.56
   2   3   4  142.68    7.57
   2   3   4  156.59    8.62
  -3  -3  -4  210.75   12.73
  -3  -3  -4  213.98   13.23
  -3  -3  -4  208.66   11.21
  -3  -3  -4  219.86   11.23
   3   3   4  228.67   13.26
   3   3   4  228.89   12.76
   3   3   4  209.77   11.19
   3   3   4  219.96   11.22
  -4  -3  -4  241.04   15.08
  -4  -3  -4  247.05   12.80
  -4  -3  -4  259.26   14.54
   4   3   4  237.99   16.17
   4   3   4  249.08   12.77
   4   3   4  256.18   12.80
  -5  -3  -4    1.21    0.36
  -5  -3  -4    1.54    0.35
  -5  -3  -4    1.14    0.40
  -5  -3  -4    1.30    0.39
   5   3   4    1.11    0.29
   5   3   4    1.66    0.38
  -6  -3  -4   89.23    4.89
  -6  -3  -4   88.47    5.52
  -6  -3  -4   92.72    4.90
  -6  -3  -4   90.03    5.72
   6   3   4   92.46    4.91
   6   3   4   91.76    4.84
  -7  -3  -4   18.16    1.49
  -7  -3  -4   19.00    1.54
  -7  -3  -4   19.60    1.39
   7   3   4   20.39    1.44
  -8  -3  -4   32.74    2.04
  -8  -3  -4   29.19    2.18
   8   3   4   30.14    2.04
  -9  -3  -4   41.94    3.10
   9   3   4   51.88    2.94
 -10  -3  -4   -0.14    0.66
  10   3   4    0.64    0.86
  11   3   4   18.00    1.79
   8  -4  -4    2.13    0.86
   8  -4  -4    3.40    0.77
   7  -4  -4   59.62    3.60
   7  -4  -4   59.60    3.53
  -7   4   4   66.17    4.24
   6  -4  -4    2.58    0.67
   6  -4  -4    2.98    0.59
  -6   4   4    3.09    0.74
   5  -4  -4   89.70    5.09
   5  -4  -4   96.94    5.04
  -5   4   4   89.91    7.00
  -5   4   4   95.07    4.35
  -5   4   4   96.52    5.99
   4  -4  -4  114.19    6.45
   4  -4  -4  126.59    6.41
  -4   4   4  126.11    7.60
  -4   4   4  110.88    8.77
  -4   4   4  128.34    5.55
   3  -4  -4   12.10    1.00
   3  -4  -4   12.68    1.05
   3  -4  -4   12.70    0.91
  -3   4   4   12.07    1.39
  -3   4   4   11.31    1.10
   2  -4  -4  266.82   14.70
   2  -4  -4  255.32   12.92
   2  -4  -4  228.56   12.95
  -2   4   4  258.15   17.55
  -2   4   4  243.21   15.28
   1  -4  -4   80.62    4.34
   1  -4  -4   72.99    4.86
   1  -4  -4   79.46    4.28
  -1   4   4   77.31    5.79
  -1   4   4   81.12    5.06
  -1   4   4   85.75    4.92
   0  -4  -4  220.65   12.40
   0  -4  -4  244.46   12.44
   0  -4  -4  223.81   14.07
   0   4   4  253.36   14.67
   0   4   4  233.91   16.79
   0   4   4  240.14   12.34
   0   4   4  264.64   14.10
  -1  -4  -4  485.97   32.02
  -1  -4  -4  509.54   25.18
  -1  -4  -4  517.51   25.19
  -1  -4  -4  446.57   29.70
  -1  -4  -4  518.48   28.59
   1   4   4  498.05   28.56
   1   4   4  531.59   29.74
   1   4   4  479.30   25.11
   1   4   4  444.45   25.15
  -2  -4  -4    0.19    0.28
  -2  -4  -4    0.18    0.28
  -2  -4  -4    0.74    0.28
  -2  -4  -4    0.63    0.29
   2   4   4    0.35    0.27
   2   4   4    0.36    0.25
   2   4   4    0.36    0.31
  -3  -4  -4  430.02   21.99
  -3  -4  -4  408.38   25.94
  -3  -4  -4  437.83   24.96
  -3  -4  -4  443.70   22.00
   3   4   4  446.85   21.98
   3   4   4  411.09   21.96
  -4  -4  -4   58.98    3.81
  -4  -4  -4   62.97    3.71
  -4  -4  -4   59.78    3.27
  -4  -4  -4   64.36    3.28
   4   4   4   57.04    3.25
   4   4   4   56.53    3.92
  -5  -4  -4   72.04    4.66
  -5  -4  -4   69.93    4.50
  -5  -4  -4   74.05    4.02
   5   4   4   76.91    3.96
   5   4   4   75.25    4.01
  -6  -4  -4  170.92   10.94
  -6  -4  -4  181.00   10.56
  -6  -4  -4  187.06    9.35
  -6  -4  -4  174.99    9.32
   6   4   4  184.58    9.34
   6   4   4  171.00    9.26
  -7  -4  -4    0.88    0.50
  -7  -4  -4    0.94    0.52
  -7  -4  -4    1.00    0.53
   7   4   4    1.00    0.55
  -8  -4  -4   92.21    4.94
  -8  -4  -4   77.90    5.43
   8   4   4   96.36    4.95
  -9  -4  -4   29.14    2.24
   9   4   4   33.10    2.20
 -10  -4  -4    5.37    0.96
  10   4   4    4.84    1.03
  11   4   4   20.76    1.95
   7  -5  -4   40.16    2.41
   7  -5  -4   36.06    2.51
  -7   5   4   37.40    2.85
   6  -5  -4    3.71    0.78
   6  -5  -4    4.27    0.66
  -6   5   4    3.87    0.83
   5  -5  -4   86.88    5.18
   5  -5  -4   97.47    5.12
  -5   5   4   95.93    6.09
  -5   5   4   98.82    4.42
  -5   5   4   94.47    7.17
   4  -5  -4   43.86    2.41
   4  -5  -4   37.91    2.46
  -4   5   4   40.52    2.87
  -4   5   4   43.33    3.50
   3  -5  -4  126.34    6.15
   3  -5  -4  107.14    6.20
  -3   5   4  122.44    8.46
  -3   5   4  112.30    7.27
  -3   5   4  110.82    7.07
   2  -5  -4  268.34   14.89
   2  -5  -4  291.48   14.98
   2  -5  -4  290.53   16.90
  -2   5   4  276.73   20.23
  -2   5   4  304.25   17.01
  -2   5   4  303.68   17.65
   1  -5  -4   27.37    1.94
   1  -5  -4   35.17    1.93
   1  -5  -4   29.74    2.14
  -1   5   4   35.28    2.67
  -1   5   4   30.98    2.23
   0  -5  -4  314.96   20.17
   0  -5  -4  337.78   17.79
   0  -5  -4  356.33   17.81
   0   5   4  369.14   21.01
   0   5   4  339.94   17.68
   0   5   4  340.53   24.11
   0   5   4  361.96   20.17
  -1  -5  -4  100.36    5.16
  -1  -5  -4   97.76    5.16
  -1  -5  -4   99.96    5.85
   1   5   4  102.51    6.08
   1   5   4   98.90    5.82
   1   5   4   90.31    5.07
   1   5   4   87.98    7.06
  -2  -5  -4  195.82   10.03
  -2  -5  -4  186.23   11.82
  -2  -5  -4  192.51   10.03
  -2  -5  -4  190.05   12.62
  -2  -5  -4  186.57   11.37
   2   5   4  207.61   11.85
   2   5   4  188.07    9.98
   2   5   4  200.70   11.38
  -3  -5  -4  364.96   18.06
  -3  -5  -4  350.53   20.48
  -3  -5  -4  354.42   18.05
  -3  -5  -4  320.37   21.27
   3   5   4  336.26   18.02
   3   5   4  375.61   21.34
   3   5   4  359.46   18.03
  -4  -5  -4    2.74    0.48
  -4  -5  -4    2.72    0.48
  -4  -5  -4    3.64    0.44
  -4  -5  -4    2.68    0.48
   4   5   4    3.05    0.26
   4   5   4    2.73    0.46
   4   5   4    1.92    0.36
  -5  -5  -4  171.87    8.99
  -5  -5  -4  175.43    9.00
  -5  -5  -4  167.01   10.16
  -5  -5  -4  165.49   10.55
   5   5   4  178.50    8.95
   5   5   4  172.42    8.98
  -6  -5  -4   92.79    6.12
  -6  -5  -4   97.84    5.27
  -6  -5  -4   93.61    5.91
   6   5   4  105.46    5.29
  -7  -5  -4   34.90    2.50
  -7  -5  -4   38.59    2.33
   7   5   4   38.16    2.34
  -8  -5  -4   59.02    4.22
  -8  -5  -4   65.66    3.85
   8   5   4   77.47    3.92
  -9  -5  -4    1.64    0.71
  -9  -5  -4    1.29    0.72
   9   5   4    1.53    0.78
 -10  -5  -4   14.24    1.53
  10   5   4   21.06    1.75
  11   5   4   11.34    1.46
   7  -6  -4    2.75    0.85
  -7   6   4    3.84    0.93
   6  -6  -4   38.51    2.29
   6  -6  -4   33.99    2.41
  -6   6   4   36.88    2.77
   5  -6  -4   60.63    3.78
   5  -6  -4   67.86    3.70
  -5   6   4   71.19    5.33
  -5   6   4   64.42    4.42
   4  -6  -4    0.63    0.60
   4  -6  -4    1.38    0.50
  -4   6   4    2.17    0.94
  -4   6   4    1.28    0.63
   3  -6  -4  169.61    9.34
   3  -6  -4  180.33    9.46
  -3   6   4  173.98   12.80
  -3   6   4  190.96   11.12
   2  -6  -4   80.44    4.34
   2  -6  -4   72.99    4.40
  -2   6   4   87.54    4.94
  -2   6   4   79.69    5.14
  -2   6   4   75.52    5.96
   1  -6  -4   94.60    5.12
   1  -6  -4  101.22    5.20
   1  -6  -4   86.92    5.76
  -1   6   4   95.51    7.02
  -1   6   4   87.45    4.92
  -1   6   4   99.12    5.76
  -1   6   4  102.66    6.07
   0  -6  -4  287.09   18.92
   0  -6  -4  338.43   16.72
   0  -6  -4  336.68   16.72
   0   6   4  357.74   19.73
   0   6   4  313.31   16.56
   0   6   4  312.20   22.67
  -1  -6  -4   13.57    0.95
  -1  -6  -4   10.89    0.93
  -1  -6  -4   12.04    1.08
   1   6   4   11.50    1.47
   1   6   4   13.74    0.87
   1   6   4   11.38    1.01
   1   6   4   11.97    1.06
  -2  -6  -4  257.34   13.60
  -2  -6  -4  263.97   17.22
  -2  -6  -4  263.42   15.45
  -2  -6  -4  263.47   13.61
   2   6   4  264.30   13.56
   2   6   4  269.59   16.07
  -3  -6  -4  131.71    7.30
  -3  -6  -4  127.85    8.59
  -3  -6  -4  143.76    8.30
  -3  -6  -4  138.39    7.31
   3   6   4  148.43    8.65
   3   6   4  145.53    7.29
  -4  -6  -4   30.42    1.81
  -4  -6  -4   30.89    2.02
  -4  -6  -4   29.20    1.83
  -4  -6  -4   27.08    2.06
   4   6   4   30.57    1.81
   4   6   4   29.41    1.96
  -5  -6  -4  198.67   13.13
  -5  -6  -4  228.13   11.21
  -5  -6  -4  225.19   12.68
  -5  -6  -4  220.80   11.20
   5   6   4  220.34   11.18
   5   6   4  198.54   14.02
  -6  -6  -4   17.66    1.29
  -6  -6  -4   16.37    1.36
  -6  -6  -4   15.91    1.26
   6   6   4   18.14    1.34
  -7  -6  -4   63.09    3.55
  -7  -6  -4   59.13    3.93
   7   6   4   61.79    3.55
  -8  -6  -4   36.48    2.71
  -8  -6  -4   38.50    2.50
   8   6   4   41.84    2.52
  -9  -6  -4    0.60    0.62
  -9  -6  -4    0.86    0.81
   9   6   4    0.63    0.77
 -10  -6  -4   28.48    2.31
  10   6   4   29.34    2.25
  11   6   4    3.72    1.14
   6  -7  -4   53.52    3.28
   6  -7  -4   55.57    3.48
  -6   7   4   59.43    3.99
   5  -7  -4   51.76    3.14
   5  -7  -4   47.89    2.93
  -5   7   4   46.09    4.28
  -5   7   4   53.92    3.61
   4  -7  -4   10.23    1.04
   4  -7  -4   11.02    1.18
  -4   7   4   12.79    1.41
  -4   7   4   12.44    1.73
   3  -7  -4  117.76    6.28
   3  -7  -4  113.20    6.36
  -3   7   4  124.65    7.47
  -3   7   4  110.06    8.62
   2  -7  -4    8.65    0.84
   2  -7  -4    6.75    0.86
  -2   7   4    7.53    0.80
  -2   7   4    7.02    1.21
  -2   7   4    7.23    0.94
   1  -7  -4  183.08   10.03
   1  -7  -4  193.72   10.05
  -1   7   4  189.02   11.27
  -1   7   4  183.22   13.68
  -1   7   4  207.47   11.84
   0  -7  -4  145.43    7.42
   0  -7  -4  122.73    8.37
   0  -7  -4  146.49    7.42
   0   7   4  153.05    8.73
   0   7   4  133.70   10.14
  -1  -7  -4   14.87    1.03
  -1  -7  -4   13.58    1.18
  -1  -7  -4   12.92    1.04
   1   7   4   12.64    1.56
   1   7   4   13.46    1.17
   1   7   4   12.17    0.89
  -2  -7  -4  208.05   10.75
  -2  -7  -4  208.50   10.75
  -2  -7  -4  207.53   12.20
   2   7   4  203.98   10.67
   2   7   4  217.19   12.69
   2   7   4  194.59   14.73
  -3  -7  -4   33.65    2.04
  -3  -7  -4   33.50    2.06
  -3  -7  -4   33.55    2.31
   3   7   4   38.81    2.45
   3   7   4   33.62    2.01
  -4  -7  -4  130.85    7.83
  -4  -7  -4  130.05    6.93
  -4  -7  -4  129.84    6.92
   4   7   4  131.99    6.90
  -5  -7  -4  138.86    6.92
  -5  -7  -4  124.20    7.76
  -5  -7  -4  129.40    6.90
   5   7   4  136.20    6.89
   5   7   4  120.82    8.47
  -6  -7  -4    4.55    0.68
  -6  -7  -4    3.33    0.68
  -6  -7  -4    3.81    0.71
   6   7   4    4.89    0.70
  -7  -7  -4   63.67    4.26
  -7  -7  -4   69.20    3.87
   7   7   4   68.75    3.86
  -8  -7  -4    7.16    0.94
  -8  -7  -4    7.93    1.05
   8   7   4    8.79    1.04
  -9  -7  -4   20.39    1.72
  -9  -7  -4   17.44    1.71
   9   7   4   17.80    1.67
 -10  -7  -4   22.16    1.94
 -10  -7  -4   19.44    1.94
  10   7   4   24.44    2.00
  11   7   4    0.22    1.00
  -6   8   4   43.31    3.29
   5  -8  -4    0.96    0.64
   5  -8  -4    0.17    0.76
  -5   8   4   -0.65    0.77
  -5   8   4    0.15    1.23
   4  -8  -4   42.29    3.02
   4  -8  -4   53.16    2.99
  -4   8   4   49.32    3.52
  -4   8   4   49.90    4.33
   3  -8  -4   49.15    2.90
   3  -8  -4   42.91    2.90
  -3   8   4   54.13    3.43
  -3   8   4   43.07    4.03
   2  -8  -4   21.97    1.59
   2  -8  -4   21.76    1.63
  -2   8   4   22.21    2.37
  -2   8   4   22.83    1.85
   1  -8  -4  125.34    6.72
   1  -8  -4  130.95    6.76
  -1   8   4  131.28    7.91
  -1   8   4  114.91    9.26
   0  -8  -4    5.78    0.71
   0  -8  -4    6.20    0.68
   0   8   4    5.68    0.77
   0   8   4    5.75    1.16
  -1  -8  -4   98.99    5.19
  -1  -8  -4   94.06    5.18
  -1  -8  -4   95.46    5.91
   1   8   4   93.38    7.25
   1   8   4   99.93    6.10
  -2  -8  -4  172.64    9.39
  -2  -8  -4  171.36    9.38
  -2  -8  -4  184.57   10.68
   2   8   4  181.62    9.30
   2   8   4  192.38   11.10
   2   8   4  175.32   12.97
  -3  -8  -4    6.89    0.79
  -3  -8  -4    6.44    0.71
  -3  -8  -4    6.44    0.68
   3   8   4    5.79    1.17
   3   8   4    6.72    0.66
  -4  -8  -4  147.65    7.89
  -4  -8  -4  150.31    7.90
  -4  -8  -4  151.13    8.94
   4   8   4  148.18    7.85
  -5  -8  -4   13.36    1.25
  -5  -8  -4   14.85    1.21
  -5  -8  -4   13.88    1.10
   5   8   4   12.58    1.14
  -6  -8  -4   42.09    2.81
  -6  -8  -4   40.27    2.56
  -6  -8  -4   41.36    2.53
   6   8   4   42.62    2.56
  -7  -8  -4   50.73    3.03
  -7  -8  -4   46.45    3.27
   7   8   4   51.05    3.00
  -8  -8  -4   -0.03    0.67
  -8  -8  -4   -0.06    0.71
   8   8   4    0.78    0.74
  -9  -8  -4   32.25    2.30
  -9  -8  -4   27.88    2.32
   9   8   4   32.15    2.29
 -10  -8  -4    9.91    1.37
 -10  -8  -4   11.59    1.47
  10   8   4   11.75    1.41
  -5   9   4    4.79    1.58
  -5   9   4    6.22    1.10
   4  -9  -4   47.92    3.05
   4  -9  -4   50.20    3.10
  -4   9   4   47.82    4.52
  -4   9   4   53.91    3.61
   3  -9  -4   19.48    1.49
   3  -9  -4   15.87    1.45
  -3   9   4   15.69    2.20
  -3   9   4   19.27    1.70
   2  -9  -4   67.39    3.77
   2  -9  -4   65.48    3.71
  -2   9   4   68.52    4.34
  -2   9   4   58.25    5.27
   1  -9  -4   85.43    4.65
   1  -9  -4   82.33    4.61
  -1   9   4   81.64    6.55
  -1   9   4   86.40    5.41
   0  -9  -4   13.14    1.08
   0  -9  -4   12.01    1.08
   0   9   4   12.65    1.72
   0   9   4   12.16    1.21
  -1  -9  -4  162.61    8.64
  -1  -9  -4  169.34    8.66
   1   9   4  153.15   11.93
   1   9   4  172.12   10.21
  -2  -9  -4   35.22    2.15
  -2  -9  -4   32.00    2.09
   2   9   4   34.60    3.22
   2   9   4   38.35    2.51
  -3  -9  -4   60.25    3.35
  -3  -9  -4   60.55    3.38
   3   9   4   57.65    3.27
   3   9   4   59.28    4.88
  -4  -9  -4   58.36    3.30
  -4  -9  -4   59.56    3.27
  -4  -9  -4   55.18    3.66
   4   9   4   51.20    4.71
   4   9   4   59.19    3.23
  -5  -9  -4   -0.14    0.48
  -5  -9  -4   -0.33    0.51
  -5  -9  -4    0.19    0.53
   5   9   4    0.13    0.48
  -6  -9  -4   50.56    3.50
  -6  -9  -4   56.40    3.19
   6   9   4   52.44    3.14
  -7  -9  -4   27.69    2.14
  -7  -9  -4   26.06    1.97
   7   9   4   28.00    1.98
  -8  -9  -4   11.24    1.28
  -8  -9  -4   11.51    1.25
   8   9   4   11.34    1.25
  -9  -9  -4   27.21    2.19
  -9  -9  -4   25.26    2.26
   9   9   4   30.08    2.20
 -10  -9  -4    1.04    0.93
 -10  -9  -4    0.31    0.94
  10   9   4    0.74    0.95
  -4  10   4   26.15    3.26
  -4  10   4   30.19    2.25
   3 -10  -4    6.28    0.87
   3 -10  -4    7.33    0.96
  -3  10   4    5.36    1.55
  -3  10   4    6.49    0.94
   2 -10  -4   89.27    4.67
   2 -10  -4   79.51    4.54
  -2  10   4   76.82    6.57
  -2  10   4   84.07    5.34
   1 -10  -4   13.35    1.18
   1 -10  -4   15.09    1.22
  -1  10   4   11.87    1.88
  -1  10   4   14.28    1.33
   0 -10  -4   27.97    1.81
   0 -10  -4   26.83    1.78
   0  10   4   28.49    2.06
   0  10   4   23.88    2.80
  -1 -10  -4   83.73    4.56
  -1 -10  -4   85.28    4.58
   1  10   4   83.83    5.38
   1  10   4   80.21    6.53
  -2 -10  -4    0.34    0.51
  -2 -10  -4    0.41    0.47
   2  10   4    0.50    1.01
  -3 -10  -4   81.47    4.57
  -3 -10  -4   84.25    4.58
   3  10   4   83.64    6.56
  -4 -10  -4   28.16    1.88
  -4 -10  -4   29.74    1.87
   4  10   4   24.63    2.84
  -5 -10  -4   21.65    1.59
  -5 -10  -4   20.89    1.55
   5  10   4   21.16    1.58
   5  10   4   17.67    2.43
  -6 -10  -4   64.56    3.75
   6  10   4   63.45    3.73
  -7 -10  -4    0.93    0.73
   7  10   4    0.38    0.71
  -8 -10  -4   22.87    1.97
   8  10   4   26.20    2.00
  -9 -10  -4   10.00    1.35
   9  10   4   10.76    1.34
 -10 -10  -4    1.79    1.02
  10  10   4    0.98    1.01
  -3  11   4   10.01    1.15
  -3  11   4   12.05    2.07
   2 -11  -4   55.17    3.13
   2 -11  -4   50.84    3.02
  -2  11   4   50.55    4.69
  -2  11   4   52.96    3.53
   1 -11  -4   -0.02    0.55
   1 -11  -4    0.39    0.53
  -1  11   4   -0.01    0.57
  -1  11   4    0.08    1.15
   0 -11  -4   59.31    3.44
   0 -11  -4   59.97    3.45
   0  11   4   60.46    5.18
   0  11   4   62.29    4.04
  -1 -11  -4   39.83    2.35
  -1 -11  -4   35.94    2.31
   1  11   4   37.87    3.63
  -2 -11  -4   19.48    1.50
  -2 -11  -4   19.10    1.42
   2  11   4   19.61    2.40
  -3 -11  -4   59.76    3.42
  -3 -11  -4   60.11    3.43
   3  11   4   57.12    4.98
  -4 -11  -4    0.36    0.55
  -4 -11  -4    0.30    0.64
   4  11   4    1.55    1.18
  -5 -11  -4   37.50    2.29
  -5 -11  -4   34.63    2.27
   5  11   4   29.63    3.35
  -6 -11  -4   31.95    2.18
   6  11   4   29.38    3.25
  -7 -11  -4    2.57    0.85
   7  11   4    2.71    1.45
  -8 -11  -4   22.15    2.00
   8  11   4   26.72    2.05
  -9 -11  -4    2.37    1.03
   9  11   4    2.59    1.04
  -2  12   4    4.15    1.61
   1 -12  -4   20.27    1.49
   1 -12  -4   18.13    1.44
  -1  12   4   18.95    2.56
   0 -12  -4   47.31    2.86
   0 -12  -4   49.76    2.90
   0  12   4   49.41    4.51
  -1 -12  -4    5.45    0.79
  -1 -12  -4    4.84    0.77
   1  12   4    5.74    1.56
  -2 -12  -4   41.71    2.53
  -2 -12  -4   40.96    2.51
   2  12   4   38.33    3.86
  -3 -12  -4   24.50    1.73
  -3 -12  -4   21.56    1.64
   3  12   4   23.39    2.73
  -4 -12  -4    6.22    0.93
  -4 -12  -4    6.57    0.86
   4  12   4    4.55    1.47
  -5 -12  -4   33.87    2.25
   5  12   4   31.04    3.37
  -6 -12  -4    4.61    0.99
   6  12   4    3.75    1.48
  -7 -12  -4   13.39    1.52
   7  12   4   17.88    2.42
  -8 -12  -4    9.02    1.30
   8  12   4    8.74    2.08
  -9 -12  -4   -0.48    1.06
   9  12   4    1.07    1.67
  -1  13   4   12.72    2.30
   0 -13  -4   31.45    2.04
   0  13   4   30.16    3.46
  -1 -13  -4    0.25    0.66
  -1 -13  -4    0.65    0.62
   1  13   4   -0.31    1.28
  -2 -13  -4   32.00    2.05
  -2 -13  -4   28.05    2.05
   2  13   4   29.53    3.32
  -3 -13  -4    3.64    0.81
  -3 -13  -4    2.87    0.76
   3  13   4    2.26    1.39
  -4 -13  -4   12.91    1.20
  -4 -13  -4   11.36    1.22
   4  13   4   10.52    1.95
  -5 -13  -4   24.16    1.89
   5  13   4   20.82    2.81
  -6 -13  -4    0.84    0.89
   6  13   4   -0.18    1.32
  -7 -13  -4   15.73    1.60
   7  13   4   17.86    2.56
  -8 -13  -4    2.37    1.06
   8  13   4    2.81    1.75
  -1 -14  -4   18.29    1.57
   1  14   4   23.20    2.89
  -2 -14  -4   12.16    1.22
  -2 -14  -4   14.05    1.33
   2  14   4    9.55    2.10
  -3 -14  -4    2.90    0.87
  -3 -14  -4    2.79    0.84
   3  14   4    2.53    1.50
  -4 -14  -4   27.51    2.03
  -4 -14  -4   26.59    2.04
   4  14   4   25.50    3.28
  -5 -14  -4    9.66    1.19
   5  14   4    7.72    1.91
  -6 -14  -4    7.49    1.16
   6  14   4    5.56    1.90
   7  14   4    8.46    2.07
   5  13  -5   16.77    2.62
   4  13  -5    3.12    1.71
   3  13  -5   13.25    2.40
   2  13  -5   10.83    1.51
   2  13  -5   10.77    2.21
   1  13  -5    4.22    1.16
   1  13  -5    4.20    1.71
   0  13  -5   17.65    2.52
   0  13  -5   17.00    2.03
  -1  13  -5    0.99    1.03
   6  12  -5   11.89    2.28
   5  12  -5   10.18    2.09
   4  12  -5    4.09    1.73
   3  12  -5   19.87    2.74
   2  12  -5    0.09    0.82
   2  12  -5   -0.09    1.32
   1  12  -5   24.18    2.41
   1  12  -5   25.30    3.06
   0  12  -5   24.98    2.98
   0  12  -5   23.81    2.42
   0  12  -5   23.37    1.47
  -1  12  -5    1.76    0.57
  -1  12  -5    2.08    1.02
  -2  12  -5   23.08    1.39
   7  11  -5    3.15    1.65
   6  11  -5   22.95    2.89
   5  11  -5    2.50    1.47
   4  11  -5   16.02    2.40
   3  11  -5   18.81    2.56
   3  11  -5   18.81    1.89
   2  11  -5    1.75    1.36
   2  11  -5    1.82    0.86
   1  11  -5   46.34    4.30
   1  11  -5   47.95    3.80
   1  11  -5   47.37    2.45
   0  11  -5   15.52    1.11
   0  11  -5   14.96    1.73
   0  11  -5   17.70    2.25
   0 -11   5   13.54    1.14
  -1  11  -5   13.78    1.65
  -1  11  -5   13.09    1.87
  -1  11  -5   11.64    0.97
   1 -11   5   11.08    0.96
  -2  11  -5   23.51    1.32
   2 -11   5   19.19    1.30
  -3  11  -5    0.71    0.49
   3 -11   5    0.33    0.31
   8  10  -5    2.16    1.69
   7  10  -5   16.13    2.48
   6  10  -5   12.47    2.12
   5  10  -5    2.26    1.40
   4  10  -5   35.37    3.59
   3  10  -5   15.67    2.19
   3  10  -5   15.91    1.60
   2  10  -5   24.93    2.92
   2  10  -5   25.79    1.53
   2  10  -5   25.57    2.26
   1  10  -5   56.91    4.38
   1  10  -5   61.75    4.89
   1  10  -5   58.96    2.86
  -1 -10   5   53.47    3.23
   0  10  -5    4.48    1.27
   0  10  -5    4.80    0.95
   0  10  -5    4.59    0.60
   0 -10   5    3.98    0.61
  -1  10  -5   70.71    5.17
  -1  10  -5   62.55    4.87
  -1  10  -5   65.73    3.11
   1 -10   5   57.69    3.46
  -2  10  -5   15.30    1.77
   2 -10   5   11.05    0.94
   3 -10   5    8.77    0.74
   4 -10   5   16.35    1.03
   8   9  -5    1.44    0.91
   7   9  -5   24.17    1.93
   6   9  -5    7.87    1.72
   6   9  -5    6.33    0.94
   5   9  -5   23.32    1.66
   5   9  -5   21.33    2.66
   4   9  -5   60.24    5.01
   3   9  -5    0.80    0.59
   3   9  -5    0.30    1.08
   2   9  -5   86.02    6.61
   2   9  -5   87.14    4.09
   2   9  -5   83.15    6.16
   1   9  -5   23.56    2.06
   1   9  -5   22.21    1.39
   1   9  -5   24.66    2.55
  -1  -9   5   22.71    1.55
   0   9  -5   32.84    1.79
   0   9  -5   35.39    3.17
   0   9  -5   31.56    2.73
   0  -9   5   34.33    2.04
  -1   9  -5   73.27    5.43
  -1   9  -5   68.52    5.26
   1  -9   5   69.24    3.83
  -2   9  -5    3.62    1.05
  -2   9  -5    2.14    0.87
   2  -9   5    2.42    0.51
   3  -9   5   35.96    2.11
   4  -9   5   23.58    1.50
   5  -9   5    3.88    0.56
   9   8  -5    3.13    1.08
   8   8  -5   15.39    1.52
   7   8  -5   32.33    2.28
   6   8  -5    1.24    0.66
   5   8  -5   57.09    3.53
   5   8  -5   69.97    5.16
   4   8  -5   16.52    1.24
   4   8  -5   10.77    1.83
   3   8  -5   34.54    2.54
   3   8  -5   29.81    3.17
   3   8  -5   31.45    2.03
   3   8  -5   33.71    1.84
   2   8  -5   98.16    6.92
   2   8  -5  101.28    7.29
   2   8  -5   97.03    4.58
  -2  -8   5   92.35    5.23
   1   8  -5    0.11    0.51
   1   8  -5   -0.22    0.91
   1   8  -5    0.38    0.40
  -1  -8   5    0.29    0.43
   0   8  -5   92.63    6.71
   0   8  -5   89.61    6.61
   0   8  -5   90.53    4.31
   0  -8   5   93.49    4.95
  -1   8  -5   51.61    4.12
  -1   8  -5   52.07    3.97
   1  -8   5   50.82    2.91
  -2   8  -5    8.19    1.29
  -2   8  -5    8.90    1.17
  -2   8  -5    9.80    0.90
   2  -8   5    7.40    0.78
  -3   8  -5   79.81    4.77
   3  -8   5   71.63    4.14
  -4   8  -5    4.97    0.58
   4  -8   5    5.56    0.65
  -5   8  -5   24.39    1.56
   5  -8   5   22.57    1.51
   6  -8   5   13.26    1.04
   9   7  -5    0.45    1.01
   8   7  -5   25.44    2.04
   7   7  -5   19.09    1.64
   6   7  -5   12.05    1.15
   5   7  -5   69.49    3.92
   4   7  -5    4.05    1.19
   4   7  -5    4.50    0.65
   3   7  -5   98.41    4.33
   3   7  -5   86.97    4.88
   3   7  -5   76.95    6.67
   3   7  -5   97.61    6.41
  -3  -7   5   88.97    4.94
   2   7  -5   91.85    5.71
   2   7  -5   95.83    6.65
   2   7  -5  100.19    6.99
   2   7  -5   98.51    4.44
   2   7  -5   87.34    5.02
  -2  -7   5   90.61    5.07
   1   7  -5   43.29    3.19
   1   7  -5   44.69    3.58
   1   7  -5   40.72    2.73
   1   7  -5   40.12    2.43
   1   7  -5   42.38    2.16
  -1  -7   5   43.39    2.48
   0   7  -5  152.52    9.52
   0   7  -5  165.10   11.17
   0   7  -5  159.93   11.36
   0   7  -5  164.79    9.98
   0  -7   5  166.85    8.49
  -1   7  -5   38.93    3.13
  -1   7  -5   36.97    2.36
  -1   7  -5   38.68    2.58
  -1   7  -5   38.13    2.97
   1  -7   5   35.66    2.22
  -2   7  -5   32.19    2.72
  -2   7  -5   30.00    1.90
  -2   7  -5   32.93    2.18
   2  -7   5   27.82    1.86
  -3   7  -5   55.74    3.54
   3  -7   5   51.97    3.01
  -4   7  -5    7.51    0.91
   4  -7   5   10.47    0.78
   4  -7   5    9.86    0.79
  -5   7  -5   49.33    3.31
   5  -7   5   50.16    2.75
  -6   7  -5    6.70    0.84
   6  -7   5    8.14    0.78
  -7   7  -5   11.27    1.18
   7  -7   5   12.35    1.00
   9   6  -5    6.72    1.18
   8   6  -5   47.78    3.08
   7   6  -5    3.69    0.83
   6   6  -5   82.86    4.64
   5   6  -5   40.41    2.46
   4   6  -5   24.22    1.60
   4   6  -5   23.63    1.82
   3   6  -5  160.40    8.26
   3   6  -5  157.51    9.44
   3   6  -5  161.56   10.94
   3   6  -5  154.74    8.27
   3   6  -5  154.53    7.25
   3   6  -5  155.63   11.00
  -3  -6   5  159.04    8.32
   2   6  -5    3.58    0.48
   2   6  -5    3.32    0.58
   2   6  -5    3.15    0.49
   2   6  -5    3.10    0.93
   2   6  -5    3.24    0.51
  -2  -6   5    3.92    0.54
   1   6  -5  180.55   12.60
   1   6  -5  168.66    8.22
   1   6  -5  181.46   10.69
   1   6  -5  191.16   12.44
  -1  -6   5  184.10    9.47
   0   6  -5  150.94    8.91
   0   6  -5  152.63   10.37
   0   6  -5  151.56    9.32
   0   6  -5  147.02   10.57
   0  -6   5  151.45    7.93
  -1   6  -5    2.76    0.55
  -1   6  -5    1.29    0.38
  -1   6  -5    1.01    0.72
  -1   6  -5    1.20    0.57
   1  -6   5    1.65    0.43
  -2   6  -5  212.95   13.67
  -2   6  -5  229.62   15.02
  -2   6  -5  230.71   13.02
   2  -6   5  219.81   11.59
  -3   6  -5    6.71    0.78
  -3   6  -5    4.76    0.94
  -3   6  -5    6.60    0.55
   3  -6   5    5.62    0.58
  -4   6  -5  118.90    7.93
   4  -6   5  127.51    6.66
   4  -6   5  135.93    6.66
  -5   6  -5   65.05    4.29
   5  -6   5   69.43    3.56
   5  -6   5   64.60    3.56
  -6   6  -5    0.29    0.49
   6  -6   5    0.00    0.39
   6  -6   5    0.17    0.40
  -7   6  -5   34.36    2.39
   7  -6   5   31.22    1.95
  -8   6  -5    7.03    0.98
   9   5  -5   21.35    1.92
   8   5  -5   24.69    1.96
   7   5  -5   10.96    1.15
   6   5  -5   55.81    3.28
   5   5  -5    3.19    0.65
   4   5  -5  134.40    8.16
   4   5  -5  130.66    7.14
   4   5  -5  139.74    7.12
   3   5  -5  285.65   12.61
   3   5  -5  267.10   14.40
   3   5  -5  287.15   16.42
   3   5  -5  287.80   14.41
  -3  -5   5  269.08   14.45
   2   5  -5   14.93    1.03
   2   5  -5   15.62    1.22
   2   5  -5   11.56    1.54
   2   5  -5   14.74    1.15
   2   5  -5   13.76    1.03
   2   5  -5   14.48    0.94
  -2  -5   5   12.93    1.05
   1   5  -5  258.49   14.83
   1   5  -5  245.09   15.44
   1   5  -5  235.33   11.39
   1   5  -5  266.13   17.05
   1   5  -5  254.14   17.50
  -1  -5   5  259.22   13.11
   0   5  -5   65.75    3.82
   0   5  -5   64.79    4.57
   0   5  -5   60.94    3.36
   0   5  -5   59.49    3.99
   0  -5   5   56.45    3.38
  -1   5  -5  125.50    8.70
  -1   5  -5  133.79    7.54
  -1   5  -5  117.16    7.88
   1  -5   5  121.47    6.69
   1  -5   5  135.45    6.73
  -2   5  -5  256.04   13.72
  -2   5  -5  235.52   14.34
  -2   5  -5  233.58   15.63
   2  -5   5  211.59   12.09
  -3   5  -5    1.27    0.68
  -3   5  -5    1.00    0.43
  -3   5  -5    1.35    0.41
   3  -5   5    1.87    0.34
  -4   5  -5   69.15    4.41
  -4   5  -5   74.61    4.65
   4  -5   5   76.83    3.91
   4  -5   5   71.40    3.87
  -5   5  -5   55.56    3.93
  -5   5  -5   68.39    4.18
   5  -5   5   72.53    3.52
   5  -5   5   64.25    3.48
  -6   5  -5    4.13    0.64
  -6   5  -5    2.63    0.47
   6  -5   5    5.14    0.57
   6  -5   5    3.53    0.51
  -7   5  -5   44.93    3.10
   7  -5   5   49.08    2.62
   7  -5   5   43.42    2.58
  -8   5  -5    0.55    0.59
   8  -5   5    0.64    0.58
   9   4  -5   34.31    2.49
   8   4  -5    6.93    1.06
   7   4  -5   33.29    2.24
   6   4  -5   87.37    4.84
   5   4  -5    1.06    0.56
   5   4  -5    0.53    0.38
   5   4  -5    1.43    0.56
   4   4  -5  284.70   16.86
   4   4  -5  281.91   14.80
   4   4  -5  292.12   14.87
  -4  -4   5  297.94   17.47
  -4  -4   5  275.82   14.82
   3   4  -5  131.47    7.11
   3   4  -5  142.78    7.18
   3   4  -5  137.49    6.24
   3   4  -5  133.61    7.09
   3   4  -5  133.99    8.13
  -3  -4   5  138.79    8.39
  -3  -4   5  129.55    7.14
   2   4  -5   82.77    5.17
   2   4  -5   82.64    4.33
   2   4  -5   80.98    4.96
   2   4  -5   73.56    4.32
   2   4  -5   82.22    3.82
  -2  -4   5   84.84    5.11
  -2  -4   5   77.92    4.37
   1   4  -5  242.18   13.75
   1   4  -5  259.53   17.84
   1   4  -5  270.21   13.77
   1   4  -5  260.03   12.03
   1   4  -5  285.54   15.67
   1   4  -5  279.04   16.32
  -1  -4   5  273.26   13.82
   0   4  -5    9.80    0.82
   0   4  -5    9.49    0.77
   0   4  -5   10.22    1.26
   0   4  -5    9.83    0.92
   0   4  -5   12.47    1.02
   0  -4   5    8.31    0.79
  -1   4  -5  400.25   21.76
  -1   4  -5  393.62   24.61
  -1   4  -5  378.82   19.08
  -1   4  -5  347.71   22.63
   1  -4   5  345.39   19.15
  -2   4  -5  121.47    7.19
  -2   4  -5  128.29    6.18
  -2   4  -5  124.68    8.19
  -2   4  -5  104.03    7.43
   2  -4   5  119.86    6.28
  -3   4  -5   77.79    5.49
  -3   4  -5   74.42    4.93
  -3   4  -5   79.26    4.81
   3  -4   5   74.30    4.13
   3  -4   5   86.18    4.22
  -4   4  -5  151.87    9.46
  -4   4  -5  158.32    9.78
   4  -4   5  166.10    8.28
   4  -4   5  160.57    8.24
  -5   4  -5    6.11    0.72
  -5   4  -5    7.60    0.80
   5  -4   5    8.10    0.74
   5  -4   5    6.28    0.63
  -6   4  -5   82.68    5.01
  -6   4  -5   78.40    5.14
   6  -4   5   84.39    4.36
   6  -4   5   79.23    4.32
  -7   4  -5   24.87    1.91
  -7   4  -5   27.05    1.92
   7  -4   5   25.25    1.58
   7  -4   5   25.27    1.66
  -8   4  -5    8.94    1.03
  -8   4  -5   10.61    1.08
   8  -4   5    9.46    0.94
  -9   4  -5   20.78    1.86
   9  -4   5   25.38    1.73
   9   3  -5   33.30    2.43
   8   3  -5    0.24    0.76
   7   3  -5   71.59    4.12
   6   3  -5   50.15    2.98
   5   3  -5   69.93    4.56
   5   3  -5   72.75    3.96
   5   3  -5   73.03    4.01
   4   3  -5  180.41   10.96
   4   3  -5  191.72    9.60
   4   3  -5  195.97    9.71
   4   3  -5  178.14    9.61
  -4  -3   5  184.28   11.33
  -4  -3   5  174.45    9.61
   3   3  -5    6.29    0.77
   3   3  -5    6.40    0.68
   3   3  -5    6.01    0.56
   3   3  -5    4.99    0.62
  -3  -3   5    8.23    0.72
  -3  -3   5    6.19    0.73
   2   3  -5  324.81   19.84
   2   3  -5  301.80   16.73
   2   3  -5  330.61   19.07
   2   3  -5  321.79   14.62
   2   3  -5  344.03   16.75
  -2  -3   5  324.65   16.79
  -2  -3   5  334.06   19.77
   1   3  -5  146.31    8.47
   1   3  -5  165.93    8.49
   1   3  -5  151.56    7.41
   1   3  -5  166.29   10.07
   1   3  -5  176.42    9.69
  -1  -3   5  168.63   11.32
  -1  -3   5  162.41   10.01
  -1  -3   5  165.77    8.53
   0   3  -5  127.01    7.07
   0   3  -5  115.83    6.19
   0   3  -5  102.90    7.30
   0   3  -5  128.01    6.18
   0   3  -5  121.43    8.04
   0  -3   5  108.76    6.19
  -1   3  -5  322.68   20.14
  -1   3  -5  315.74   19.37
  -1   3  -5  350.84   21.85
  -1   3  -5  341.93   17.00
  -1   3  -5  355.04   16.97
   1  -3   5  301.50   17.02
  -2   3  -5    2.06    0.47
  -2   3  -5    1.53    0.28
  -2   3  -5    1.12    0.38
  -2   3  -5    1.34    0.50
   2  -3   5    1.09    0.28
   2  -3   5    1.73    0.36
  -3   3  -5  209.63   10.53
  -3   3  -5  180.53   12.10
  -3   3  -5  200.39   12.55
  -3   3  -5  213.48   13.70
   3  -3   5  198.11   10.59
   3  -3   5  232.74   10.65
  -4   3  -5  112.44    7.12
  -4   3  -5  118.69    6.93
   4  -3   5  111.54    5.99
   4  -3   5  118.24    6.05
  -5   3  -5   19.67    1.47
  -5   3  -5   17.51    1.42
   5  -3   5   19.38    1.26
   5  -3   5   18.83    1.17
  -6   3  -5  124.63    7.42
  -6   3  -5  120.04    7.65
   6  -3   5  118.75    6.44
   6  -3   5  129.70    6.50
  -7   3  -5    5.10    0.74
  -7   3  -5    5.31    0.79
   7  -3   5    5.37    0.69
   7  -3   5    4.71    0.59
  -8   3  -5   25.35    1.97
  -8   3  -5   25.19    1.98
   8  -3   5   27.01    1.76
  -9   3  -5   16.11    1.53
  -9   3  -5   15.11    1.51
   9  -3   5   18.24    1.47
   9   2  -5    8.38    1.20
   8   2  -5    7.08    1.05
   7   2  -5   53.01    3.19
   6   2  -5    0.63    0.49
   6   2  -5   -0.16    0.48
   5   2  -5  173.30   10.39
   5   2  -5  171.97    9.11
   5   2  -5  167.41    9.07
  -5  -2   5  180.44   10.74
   4   2  -5  125.40    6.31
   4   2  -5  109.54    6.19
   4   2  -5  120.84    7.11
   4   2  -5  112.64    6.17
   3   2  -5   54.71    2.95
   3   2  -5   53.94    2.61
   3   2  -5   54.89    3.43
   3   2  -5   51.20    2.96
  -3  -2   5   52.55    2.98
   2   2  -5  447.61   25.02
   2   2  -5  421.87   26.01
   2   2  -5  427.85   19.18
   2   2  -5  407.56   21.96
  -2  -2   5  432.64   22.02
  -2  -2   5  437.37   25.95
   1   2  -5   13.89    1.20
   1   2  -5   14.39    1.23
   1   2  -5   13.29    0.98
   1   2  -5   15.06    0.99
  -1  -2   5   14.19    1.16
  -1  -2   5   14.83    1.03
  -1  -2   5   14.24    1.12
   0   2  -5  418.98   21.66
   0   2  -5  474.32   21.68
   0   2  -5  399.94   25.61
   0   2  -5  421.37   27.76
   0   2  -5  398.14   24.62
   0  -2   5  451.65   25.59
   0  -2   5  393.88   21.67
  -1   2  -5  304.02   21.19
  -1   2  -5  343.04   17.94
  -1   2  -5  379.63   22.99
  -1   2  -5  380.03   17.93
  -1   2  -5  374.22   20.47
   1  -2   5  318.39   17.94
  -2   2  -5   31.34    2.22
  -2   2  -5   35.26    2.46
  -2   2  -5   33.87    1.85
  -2   2  -5   35.29    1.82
  -2   2  -5   28.61    2.16
   2  -2   5   31.46    1.84
  -3   2  -5  348.78   22.55
  -3   2  -5  352.59   17.54
  -3   2  -5  340.54   20.02
  -3   2  -5  338.49   20.77
   3  -2   5  335.55   17.56
  -4   2  -5   29.50    1.94
  -4   2  -5   28.42    1.95
   4  -2   5   27.36    1.62
   4  -2   5   28.53    1.71
  -5   2  -5  128.36    8.02
  -5   2  -5  128.06    7.76
   5  -2   5  138.05    6.83
   5  -2   5  125.38    6.75
  -6   2  -5  139.97    8.52
  -6   2  -5  138.50    8.80
   6  -2   5  141.69    7.43
   6  -2   5  150.64    7.50
  -7   2  -5    1.57    0.59
  -7   2  -5    1.33    0.52
   7  -2   5    1.28    0.42
   7  -2   5    2.30    0.56
  -8   2  -5   44.95    3.18
  -8   2  -5   46.53    3.13
   8  -2   5   49.14    2.81
  -9   2  -5    8.72    1.11
  -9   2  -5    8.88    1.05
   9  -2   5   10.00    1.08
 -10   2  -5    6.93    1.05
  10  -2   5    7.19    1.08
   9   1  -5    1.21    0.88
   8   1  -5   43.00    2.81
   7   1  -5   46.23    2.85
   6   1  -5   47.14    2.74
   6   1  -5   45.98    2.79
   5   1  -5  249.06   14.74
   5   1  -5  240.08   12.93
   5   1  -5  251.01   12.91
  -5  -1   5  255.85   15.26
   4   1  -5   37.50    2.48
   4   1  -5   35.49    2.11
   4   1  -5   34.92    2.16
  -4  -1   5   36.88    2.49
   3   1  -5  186.40   10.10
   3   1  -5  199.58   11.53
   3   1  -5  194.13    8.80
   3   1  -5  197.98   10.08
  -3  -1   5  185.36   11.45
  -3  -1   5  194.16   10.11
  -3  -1   5  203.89   11.92
   2   1  -5  357.56   18.31
   2   1  -5  371.07   15.98
   2   1  -5  373.66   20.87
   2   1  -5  337.79   18.30
   2   1  -5  371.08   21.70
  -2  -1   5  337.17   20.77
  -2  -1   5  350.99   18.34
   1   1  -5   27.34    1.53
   1   1  -5   30.93    2.06
   1   1  -5   32.77    1.79
   1   1  -5   29.65    2.11
  -1  -1   5   31.46    2.07
  -1  -1   5   30.53    1.78
  -1  -1   5   25.85    1.94
   0   1  -5  647.84   33.62
   0   1  -5  625.26   39.74
   0   1  -5  714.14   33.65
   0   1  -5  668.64   38.24
   0  -1   5  714.60   39.73
   0  -1   5  621.28   33.64
   0  -1   5  618.28   38.15
  -1   1  -5  178.75   12.51
  -1   1  -5  202.45   12.09
  -1   1  -5  208.03   10.62
  -1   1  -5  222.49   10.60
  -1   1  -5  226.80   13.56
   1  -1   5  203.45   10.61
   1  -1   5  222.49   12.54
   1  -1   5  174.22   12.02
  -2   1  -5  302.77   18.31
  -2   1  -5  321.24   20.56
  -2   1  -5  327.15   16.07
  -2   1  -5  318.63   16.08
  -2   1  -5  305.29   19.01
   2  -1   5  306.39   16.08
  -3   1  -5  401.27   25.26
  -3   1  -5  377.08   23.32
  -3   1  -5  390.60   19.71
  -3   1  -5  398.69   19.71
  -3   1  -5  378.81   22.45
   3  -1   5  367.94   19.72
  -4   1  -5    2.39    0.36
  -4   1  -5    1.92    0.39
  -4   1  -5    1.92    0.44
   4  -1   5    1.88    0.33
   4  -1   5    2.15    0.42
  -5   1  -5  210.56   12.57
  -5   1  -5  211.59   13.03
  -5   1  -5  222.87   11.01
   5  -1   5  216.67   11.07
   5  -1   5  206.42   11.00
  -6   1  -5   56.94    3.71
  -6   1  -5   57.72    3.81
   6  -1   5   63.94    3.31
   6  -1   5   58.09    3.21
  -7   1  -5   27.59    2.04
  -7   1  -5   27.59    2.03
   7  -1   5   28.30    1.73
   7  -1   5   30.61    1.86
  -8   1  -5   39.52    2.81
  -8   1  -5   41.70    2.89
   8  -1   5   43.92    2.57
  -9   1  -5    0.03    0.55
  -9   1  -5    0.28    0.60
   9  -1   5    0.33    0.68
  10  -1   5   22.82    1.87
   9   0  -5    3.31    1.03
   8   0  -5   49.82    3.14
   7   0  -5   10.57    1.09
   7   0  -5    9.77    0.99
   6   0  -5   66.93    3.84
   6   0  -5   68.50    3.79
   5   0  -5  100.07    6.26
   5   0  -5   95.25    5.47
   5   0  -5  107.62    5.47
  -5   0   5  103.26    6.44
   4   0  -5    8.86    0.80
   4   0  -5    8.49    0.80
   4   0  -5    9.50    1.02
  -4   0   5    8.31    0.94
  -4   0   5    8.54    0.90
   3   0  -5  320.91   17.13
   3   0  -5  343.31   17.12
   3   0  -5  351.52   19.53
  -3   0   5  313.01   19.44
  -3   0   5  338.15   20.22
   2   0  -5  192.46    8.56
   2   0  -5  196.77    9.82
   2   0  -5  194.09   11.23
   2   0  -5  179.45    9.82
   2   0  -5  195.04   11.66
  -2   0   5  174.57   11.14
  -2   0   5  187.36   13.10
  -2   0   5  190.72   11.59
  -2   0   5  193.52    9.84
   1   0  -5  115.84    5.17
   1   0  -5  118.84    5.92
   1   0  -5  111.75    7.03
   1   0  -5  113.16    6.79
  -1   0   5  116.10    5.94
  -1   0   5   98.18    6.70
   0   0  -5  281.59   18.08
   0   0  -5  336.42   15.32
   0   0  -5  290.66   17.41
   0   0  -5  291.66   15.31
   0   0   5  273.74   17.35
   0   0   5  283.60   15.30
   0   0   5  321.47   18.08
  -1   0  -5    9.86    0.85
  -1   0  -5    8.63    0.66
  -1   0  -5    8.76    0.85
  -1   0  -5    7.53    0.72
  -1   0  -5    9.09    0.84
   1   0   5    7.31    0.67
   1   0   5    8.78    0.81
   1   0   5    8.04    0.83
  -2   0  -5  502.82   31.91
  -2   0  -5  491.69   24.99
  -2   0  -5  457.53   28.40
  -2   0  -5  462.82   29.52
  -2   0  -5  509.32   25.00
   2   0   5  525.88   29.54
   2   0   5  474.28   24.99
  -3   0  -5  111.90    5.73
  -3   0  -5  105.83    6.78
  -3   0  -5  113.14    7.31
  -3   0  -5  110.24    5.74
  -3   0  -5  109.84    6.56
   3   0   5  106.32    5.72
  -4   0  -5   68.34    4.26
  -4   0  -5   71.24    3.73
  -4   0  -5   73.44    3.71
  -4   0  -5   64.88    4.38
   4   0   5   67.65    3.75
   4   0   5   70.90    3.70
  -5   0  -5  201.92   12.56
  -5   0  -5  196.51   12.10
  -5   0  -5  213.61   10.64
   5   0   5  200.96   10.61
   5   0   5  216.05   10.69
  -6   0  -5    0.82    0.45
  -6   0  -5    1.09    0.40
  -6   0  -5    1.36    0.46
   6   0   5    1.00    0.34
   6   0   5    0.78    0.47
  -7   0  -5   87.68    5.34
  -7   0  -5   81.75    5.48
   7   0   5   94.54    4.76
   7   0   5   83.04    4.63
  -8   0  -5   22.31    1.79
  -8   0  -5   20.84    1.71
   8   0   5   24.66    1.65
  -9   0  -5   10.37    1.18
  -9   0  -5   10.58    1.20
   9   0   5   11.17    1.15
  10   0   5   34.96    2.45
   9  -1  -5   16.91    1.63
   8  -1  -5   25.36    1.98
   7  -1  -5    1.40    0.69
   7  -1  -5    2.34    0.64
   6  -1  -5  103.93    5.58
   6  -1  -5  102.01    5.62
   5  -1  -5   30.70    2.08
   5  -1  -5   33.58    2.04
  -5   1   5   36.56    2.45
   4  -1  -5   97.72    5.13
   4  -1  -5   94.63    5.16
   4  -1  -5   98.28    5.90
  -4   1   5   95.63    4.43
  -4   1   5   97.35    6.05
  -4   1   5   91.85    5.85
   3  -1  -5  296.86   15.68
   3  -1  -5  317.46   17.86
   3  -1  -5  322.20   15.67
  -3   1   5  310.14   18.50
  -3   1   5  284.44   17.79
  -3   1   5  295.73   21.07
   2  -1  -5    8.60    0.85
   2  -1  -5    6.72    0.67
   2  -1  -5    9.56    0.93
   2  -1  -5    7.66    0.68
  -2   1   5    7.16    0.81
  -2   1   5    8.31    0.83
  -2   1   5    6.46    0.74
   1  -1  -5  396.67   24.80
   1  -1  -5  423.00   23.89
   1  -1  -5  416.40   20.97
   1  -1  -5  420.74   18.27
  -1   1   5  410.23   23.83
  -1   1   5  411.39   28.25
  -1   1   5  385.51   24.74
  -1   1   5  407.81   20.97
   0  -1  -5   52.04    2.53
   0  -1  -5   40.91    2.85
   0  -1  -5   42.01    2.95
   0  -1  -5   43.55    2.53
   0   1   5   44.57    2.86
   0   1   5   41.56    2.48
  -1  -1  -5  212.46   10.92
  -1  -1  -5  191.11   12.37
  -1  -1  -5  192.46   12.85
  -1  -1  -5  217.60   10.89
   1   1   5  221.86   12.88
   1   1   5  205.36   10.88
   1   1   5  232.10   12.42
  -2  -1  -5  523.62   26.48
  -2  -1  -5  484.38   30.06
  -2  -1  -5  529.13   26.48
  -2  -1  -5  525.06   33.74
  -2  -1  -5  498.18   31.26
   2   1   5  512.45   26.47
   2   1   5  555.29   31.29
   2   1   5  516.27   30.07
  -3  -1  -5    6.19    0.61
  -3  -1  -5    5.73    0.65
  -3  -1  -5    6.71    0.58
  -3  -1  -5    6.88    0.69
   3   1   5    6.68    0.71
   3   1   5    5.57    0.59
   3   1   5    6.81    0.57
  -4  -1  -5  242.66   12.53
  -4  -1  -5  235.32   14.78
  -4  -1  -5  265.32   12.54
  -4  -1  -5  228.40   14.23
   4   1   5  242.85   12.55
   4   1   5  244.03   12.51
  -5  -1  -5  160.26    9.70
  -5  -1  -5  160.05    8.52
  -5  -1  -5  158.40   10.05
  -5  -1  -5  178.07    8.55
   5   1   5  162.86    8.50
   5   1   5  163.06    8.56
  -6  -1  -5   24.02    1.80
  -6  -1  -5   24.73    1.78
  -6  -1  -5   25.07    1.58
   6   1   5   26.37    1.64
   6   1   5   24.37    1.52
  -7  -1  -5  104.75    6.70
  -7  -1  -5   98.68    6.46
  -7  -1  -5  111.42    5.73
   7   1   5  112.29    5.77
  -8  -1  -5    2.48    0.68
  -8  -1  -5    2.76    0.68
   8   1   5    3.50    0.71
  -9  -1  -5   29.01    2.27
   9   1   5   33.81    2.20
  10   1   5   23.27    1.87
   8  -2  -5   12.82    1.33
   7  -2  -5   32.56    2.10
   7  -2  -5   31.68    2.16
   6  -2  -5   84.32    4.84
   6  -2  -5   89.27    4.80
  -6   2   5   88.24    5.67
   5  -2  -5    3.27    0.63
   5  -2  -5    2.69    0.54
  -5   2   5    3.16    0.65
   4  -2  -5  148.56    8.56
   4  -2  -5  147.00    7.48
   4  -2  -5  138.22    7.51
  -4   2   5  147.39    8.84
  -4   2   5  130.12   10.07
   3  -2  -5   65.03    3.67
   3  -2  -5   75.03    4.23
   3  -2  -5   70.04    3.64
  -3   2   5   69.24    4.31
  -3   2   5   63.14    4.85
  -3   2   5   58.66    4.15
   2  -2  -5  145.34    8.41
   2  -2  -5  126.94    7.34
   2  -2  -5  150.86    7.34
  -2   2   5  139.44    8.66
  -2   2   5  140.92    9.86
  -2   2   5  136.49    8.37
   1  -2  -5  347.79   18.54
   1  -2  -5  343.32   21.91
   1  -2  -5  375.51   21.14
  -1   2   5  354.49   18.53
  -1   2   5  383.02   21.12
  -1   2   5  363.12   25.00
  -1   2   5  360.02   21.90
   0  -2  -5   45.77    3.24
   0  -2  -5   48.90    3.37
   0  -2  -5   51.09    2.90
   0  -2  -5   57.77    2.88
   0   2   5   45.50    3.23
   0   2   5   54.10    3.38
   0   2   5   52.87    2.84
  -1  -2  -5  403.59   20.33
  -1  -2  -5  383.10   23.05
  -1  -2  -5  416.18   20.32
  -1  -2  -5  372.81   23.96
   1   2   5  419.93   23.08
   1   2   5  378.95   20.29
  -2  -2  -5  502.01   26.15
  -2  -2  -5  481.13   30.86
  -2  -2  -5  517.27   33.30
  -2  -2  -5  485.26   29.69
  -2  -2  -5  519.10   26.16
   2   2   5  545.39   29.71
   2   2   5  483.68   26.13
   2   2   5  558.93   30.91
  -3  -2  -5   66.94    3.46
  -3  -2  -5   59.47    4.02
  -3  -2  -5   65.10    3.92
   3   2   5   69.43    4.07
   3   2   5   62.47    3.41
   3   2   5   57.01    4.19
   3   2   5   64.99    3.46
  -4  -2  -5  315.99   14.86
  -4  -2  -5  279.87   14.83
  -4  -2  -5  276.26   17.50
  -4  -2  -5  277.40   16.85
   4   2   5  287.01   14.85
   4   2   5  280.86   14.81
   4   2   5  300.90   17.54
  -5  -2  -5   11.49    1.02
  -5  -2  -5   13.13    0.95
  -5  -2  -5   11.46    1.02
  -5  -2  -5   10.98    0.89
   5   2   5   11.70    0.96
   5   2   5   10.66    0.83
  -6  -2  -5  130.83    7.14
  -6  -2  -5  131.29    8.10
  -6  -2  -5  130.42    8.39
  -6  -2  -5  148.58    7.18
   6   2   5  142.77    7.19
   6   2   5  130.11    7.09
  -7  -2  -5   65.76    3.71
  -7  -2  -5   63.88    4.16
  -7  -2  -5   66.57    4.30
   7   2   5   68.20    3.74
  -8  -2  -5    4.20    0.75
  -8  -2  -5    4.39    0.76
   8   2   5    6.15    0.82
  -9  -2  -5   43.24    3.02
   9   2   5   45.93    2.82
 -10  -2  -5    7.02    1.06
  10   2   5    7.85    1.12
  11   2   5   11.70    1.48
   8  -3  -5   -0.57    0.74
   7  -3  -5   63.23    3.60
   7  -3  -5   60.86    3.67
   6  -3  -5   42.54    2.44
   6  -3  -5   35.48    2.46
  -6   3   5   40.01    2.88
   5  -3  -5   60.96    3.24
   5  -3  -5   51.81    3.26
  -5   3   5   58.30    3.84
   4  -3  -5  299.07   16.23
   4  -3  -5  324.93   16.20
  -4   3   5  301.19   21.93
  -4   3   5  331.39   19.17
   3  -3  -5   26.23    1.50
   3  -3  -5   20.87    1.56
   3  -3  -5   26.55    1.81
  -3   3   5   23.64    2.04
  -3   3   5   20.72    1.75
  -3   3   5   23.08    1.77
   2  -3  -5  295.45   14.74
   2  -3  -5  285.96   16.78
  -2   3   5  265.25   17.38
  -2   3   5  282.16   19.90
  -2   3   5  299.89   16.82
   1  -3  -5  190.66   11.31
   1  -3  -5  192.19    9.92
   1  -3  -5  192.05    9.97
  -1   3   5  179.04   13.35
  -1   3   5  200.75   11.73
  -1   3   5  187.96   11.31
   0  -3  -5   98.88    4.83
   0  -3  -5   80.30    5.45
   0  -3  -5   86.33    5.67
   0  -3  -5   85.90    4.84
   0   3   5   83.95    6.47
   0   3   5   86.69    4.77
   0   3   5   95.02    5.50
   0   3   5   98.23    5.70
  -1  -3  -5  546.73   35.80
  -1  -3  -5  591.02   30.34
  -1  -3  -5  582.16   34.44
  -1  -3  -5  610.89   30.36
   1   3   5  649.74   35.85
   1   3   5  641.24   34.46
   1   3   5  531.59   30.30
  -2  -3  -5   33.15    2.20
  -2  -3  -5   30.62    2.23
  -2  -3  -5   30.64    1.92
  -2  -3  -5   36.42    1.93
  -2  -3  -5   33.07    2.19
   2   3   5   30.60    1.91
   2   3   5   32.49    1.89
   2   3   5   35.17    2.21
  -3  -3  -5  188.47    9.81
  -3  -3  -5  182.37   11.12
  -3  -3  -5  190.35    9.80
  -3  -3  -5  179.24   11.54
   3   3   5  200.90   11.59
   3   3   5  183.74    9.77
   3   3   5  179.78    9.79
   3   3   5  205.46   11.16
  -4  -3  -5  184.31   11.56
  -4  -3  -5  182.82    9.81
  -4  -3  -5  187.82   11.14
   4   3   5  216.86   11.64
   4   3   5  174.22   12.31
   4   3   5  191.55    9.79
   4   3   5  186.83    9.82
  -5  -3  -5   14.25    1.01
  -5  -3  -5   13.15    1.13
  -5  -3  -5   13.29    1.04
  -5  -3  -5   12.85    1.09
   5   3   5   12.72    0.94
   5   3   5   13.12    1.05
  -6  -3  -5  223.45   14.02
  -6  -3  -5  241.71   12.39
  -6  -3  -5  255.83   12.41
  -6  -3  -5  232.20   14.57
   6   3   5  236.93   12.33
   6   3   5  241.45   12.40
  -7  -3  -5   22.39    1.72
  -7  -3  -5   23.66    1.61
  -7  -3  -5   22.06    1.75
   7   3   5   21.99    1.60
  -8  -3  -5   29.41    2.22
  -8  -3  -5   34.39    2.14
   8   3   5   31.30    2.11
  -9  -3  -5   39.87    2.92
   9   3   5   45.92    2.76
 -10  -3  -5    0.06    0.69
  10   3   5   -0.33    0.86
  11   3   5   15.45    1.67
   7  -4  -5   56.07    3.21
   7  -4  -5   50.62    3.26
   6  -4  -5    1.01    0.53
   6  -4  -5    0.86    0.65
  -6   4   5    1.38    0.72
   5  -4  -5   87.56    4.60
   5  -4  -5   80.52    4.64
  -5   4   5   82.86    5.44
  -5   4   5   83.27    6.33
   4  -4  -5   55.03    3.35
   4  -4  -5   65.02    3.32
  -4   4   5   54.30    4.53
  -4   4   5   60.01    3.93
   3  -4  -5    3.71    0.56
   3  -4  -5    3.52    0.62
   3  -4  -5    2.00    0.58
  -3   4   5    5.57    0.90
  -3   4   5    5.06    0.78
  -3   4   5    3.47    0.66
   2  -4  -5  121.68    7.22
   2  -4  -5  111.24    6.30
  -2   4   5  124.21    7.29
  -2   4   5  121.92    7.48
  -2   4   5  116.96    8.57
   1  -4  -5   13.23    1.08
   1  -4  -5   16.96    1.30
   1  -4  -5   16.16    1.19
  -1   4   5   18.16    1.33
  -1   4   5   12.23    1.24
  -1   4   5   11.52    1.46
   0  -4  -5  274.91   14.86
   0  -4  -5  250.81   16.81
   0  -4  -5  294.17   14.84
   0   4   5  327.21   16.89
   0   4   5  294.96   17.52
   0   4   5  280.09   20.06
  -1  -4  -5  362.62   18.62
  -1  -4  -5  365.47   21.12
  -1  -4  -5  312.42   21.91
  -1  -4  -5  379.06   18.62
   1   4   5  382.90   21.12
   1   4   5  340.95   18.54
   1   4   5  388.63   21.98
  -2  -4  -5   17.80    1.25
  -2  -4  -5   18.43    1.43
  -2  -4  -5   18.17    1.21
  -2  -4  -5   19.21    1.41
   2   4   5   17.61    1.36
   2   4   5   16.79    1.20
   2   4   5   17.64    1.19
   2   4   5   19.63    1.42
  -3  -4  -5  332.41   16.50
  -3  -4  -5  322.15   18.72
  -3  -4  -5  326.24   16.50
  -3  -4  -5  301.00   19.44
   3   4   5  308.29   16.47
   3   4   5  320.22   16.47
   3   4   5  332.89   18.74
  -4  -4  -5   68.39    3.60
  -4  -4  -5   62.88    3.60
  -4  -4  -5   62.54    4.20
  -4  -4  -5   63.28    4.06
   4   4   5   70.63    4.26
   4   4   5   64.35    3.55
   4   4   5   66.52    3.60
  -5  -4  -5   77.46    4.26
  -5  -4  -5   77.36    4.81
  -5  -4  -5   80.37    4.98
   5   4   5   75.60    5.14
   5   4   5   80.77    4.27
  -6  -4  -5   80.29    5.23
  -6  -4  -5   87.70    4.68
  -6  -4  -5   82.07    5.42
  -6  -4  -5   92.89    4.68
   6   4   5   85.72    4.67
   6   4   5   83.86    4.58
  -7  -4  -5    0.11    0.45
  -7  -4  -5    0.18    0.55
   7   4   5    0.07    0.47
  -8  -4  -5   44.28    2.75
  -8  -4  -5   42.52    3.01
   8   4   5   47.69    2.80
  -9  -4  -5   22.11    1.89
   9   4   5   25.25    1.87
 -10  -4  -5    6.88    1.08
  10   4   5    9.31    1.26
  11   4   5   16.06    1.72
   7  -5  -5   36.27    2.38
   7  -5  -5   37.05    2.51
   6  -5  -5    6.09    0.94
   6  -5  -5    5.98    0.83
  -6   5   5    5.22    0.96
   5  -5  -5   69.01    3.75
  -5   5   5   64.28    5.25
  -5   5   5   65.51    4.46
   4  -5  -5    9.34    0.92
  -4   5   5    9.27    1.37
  -4   5   5    9.60    1.07
   3  -5  -5  114.28    6.04
  -3   5   5  103.59    8.23
  -3   5   5  121.06    7.19
   2  -5  -5  309.79   16.32
   2  -5  -5  324.61   16.41
   2  -5  -5  301.99   18.51
  -2   5   5  344.00   19.33
  -2   5   5  299.54   22.11
   1  -5  -5   36.39    2.05
   1  -5  -5   31.18    2.28
   1  -5  -5   32.20    2.10
  -1   5   5   30.99    1.92
  -1   5   5   30.66    2.73
  -1   5   5   33.00    2.38
  -1   5   5   35.63    2.34
   0  -5  -5  401.50   21.72
   0  -5  -5  434.90   21.77
   0  -5  -5  374.37   24.62
   0   5   5  473.58   24.69
   0   5   5  404.24   21.62
   0   5   5  407.60   29.41
   0   5   5  462.29   25.68
  -1  -5  -5  121.29    6.18
  -1  -5  -5  116.13    6.19
  -1  -5  -5  115.08    6.99
   1   5   5  105.89    6.08
   1   5   5  122.96    6.99
   1   5   5  101.14    8.41
   1   5   5  127.72    7.29
  -2  -5  -5   75.22    4.19
  -2  -5  -5   75.30    4.16
  -2  -5  -5   78.91    5.05
  -2  -5  -5   74.75    4.90
  -2  -5  -5   78.60    4.75
   2   5   5   76.37    4.72
   2   5   5   72.39    4.12
   2   5   5   81.75    4.92
  -3  -5  -5  234.04   15.38
  -3  -5  -5  264.25   13.08
  -3  -5  -5  256.84   14.83
  -3  -5  -5  250.66   13.07
   3   5   5  233.67   13.02
   3   5   5  274.25   14.86
   3   5   5  267.45   15.44
   3   5   5  239.57   13.03
  -4  -5  -5   -0.25    0.39
  -4  -5  -5    0.21    0.36
  -4  -5  -5    0.31    0.35
  -4  -5  -5   -0.02    0.34
   4   5   5    0.35    0.37
   4   5   5    0.34    0.32
  -5  -5  -5  165.68    9.70
  -5  -5  -5  165.03    8.57
  -5  -5  -5  158.61   10.04
  -5  -5  -5  167.24    8.56
   5   5   5  157.58    8.54
  -6  -5  -5   56.20    3.98
  -6  -5  -5   63.85    3.91
  -6  -5  -5   65.23    3.51
   6   5   5   60.32    3.47
  -7  -5  -5   31.10    2.28
  -7  -5  -5   31.69    2.09
   7   5   5   33.46    2.12
  -8  -5  -5   86.72    4.80
  -8  -5  -5   78.58    5.32
   8   5   5   90.94    4.83
  -9  -5  -5    0.15    0.67
  -9  -5  -5    0.49    0.78
   9   5   5    1.33    0.77
 -10  -5  -5   22.42    1.99
  10   5   5   24.26    2.00
  11   5   5    7.75    1.31
   7  -6  -5    5.66    1.04
   6  -6  -5   30.51    2.33
   6  -6  -5   35.23    2.23
  -6   6   5   35.31    2.68
   5  -6  -5   48.42    2.85
  -5   6   5   49.78    3.46
  -5   6   5   45.45    4.12
   4  -6  -5    0.90    0.72
   4  -6  -5    0.80    0.53
  -4   6   5    0.98    0.96
  -4   6   5    1.33    0.71
   3  -6  -5  224.47   11.18
   3  -6  -5  188.86   11.01
  -3   6   5  187.45   14.99
  -3   6   5  244.64   13.14
   2  -6  -5   47.35    2.85
   2  -6  -5   46.17    2.73
  -2   6   5   41.14    3.75
  -2   6   5   50.90    3.29
   1  -6  -5  156.18    8.83
   1  -6  -5  162.81    9.95
   1  -6  -5  180.75    8.82
  -1   6   5  157.35   11.91
  -1   6   5  173.97   10.39
   0  -6  -5  115.58    8.16
   0  -6  -5  143.90    7.30
   0  -6  -5  138.20    7.25
   0   6   5  128.97    9.86
   0   6   5  144.61    8.20
   0   6   5  126.46    7.09
   0   6   5  157.86    8.59
  -1  -6  -5    2.07    0.46
  -1  -6  -5    2.44    0.54
  -1  -6  -5    0.91    0.45
   1   6   5    1.07    0.37
   1   6   5    1.08    0.47
   1   6   5    1.53    0.46
   1   6   5    2.22    0.76
  -2  -6  -5  213.30   13.51
  -2  -6  -5  203.64   10.77
  -2  -6  -5  201.71   12.21
  -2  -6  -5  213.62   10.77
   2   6   5  209.17   12.70
   2   6   5  209.55   12.20
   2   6   5  194.26   10.69
  -3  -6  -5   43.30    2.62
  -3  -6  -5   43.78    2.93
  -3  -6  -5   43.43    3.02
  -3  -6  -5   45.08    2.60
   3   6   5   48.90    3.08
   3   6   5   47.14    2.59
  -4  -6  -5  121.47    6.22
  -4  -6  -5  109.53    7.27
  -4  -6  -5  120.57    6.24
  -4  -6  -5  116.71    7.03
   4   6   5  114.24    6.19
  -5  -6  -5  151.94    9.62
  -5  -6  -5  166.52    8.54
  -5  -6  -5  160.47    8.53
   5   6   5  167.93    8.52
  -6  -6  -5    3.64    0.63
  -6  -6  -5    3.08    0.61
  -6  -6  -5    3.56    0.68
   6   6   5    3.65    0.66
  -7  -6  -5   74.92    4.15
  -7  -6  -5   69.35    4.58
   7   6   5   74.35    4.12
  -8  -6  -5   25.25    2.02
  -8  -6  -5   27.08    1.93
   8   6   5   25.17    1.92
  -9  -6  -5    5.22    0.96
  -9  -6  -5    5.20    0.96
   9   6   5    4.84    0.95
 -10  -6  -5   17.43    1.77
  10   6   5   19.93    1.83
  11   6   5    2.55    1.16
   6  -7  -5   37.04    2.70
  -6   7   5   40.93    3.09
   5  -7  -5   16.37    1.47
   5  -7  -5   17.12    1.75
  -5   7   5   22.16    1.94
  -5   7   5   20.09    2.46
   4  -7  -5   23.03    1.76
   4  -7  -5   26.08    2.01
  -4   7   5   29.40    2.21
  -4   7   5   21.00    2.55
   3  -7  -5  141.51    7.49
   3  -7  -5  139.11    7.60
  -3   7   5  120.99   10.18
  -3   7   5  155.56    8.93
   2  -7  -5    3.74    0.72
   2  -7  -5    2.76    0.75
  -2   7   5    2.71    0.76
  -2   7   5    5.17    1.11
   1  -7  -5  165.57    8.41
   1  -7  -5  150.12    8.32
  -1   7   5  170.17    9.85
  -1   7   5  140.67   11.32
   0  -7  -5   97.32    7.06
   0  -7  -5  126.12    6.32
   0  -7  -5  122.06    6.32
   0   7   5  104.60    8.57
   0   7   5  134.06    7.43
  -1  -7  -5   31.60    1.96
  -1  -7  -5   28.48    2.13
  -1  -7  -5   31.19    1.90
   1   7   5   30.28    2.84
   1   7   5   32.94    2.24
   1   7   5   27.89    2.08
   1   7   5   29.11    1.78
  -2  -7  -5  332.02   19.40
  -2  -7  -5  344.00   17.11
  -2  -7  -5  311.01   17.07
   2   7   5  353.92   20.19
   2   7   5  310.43   23.35
   2   7   5  333.57   17.01
  -3  -7  -5    5.31    0.68
  -3  -7  -5    5.96    0.67
  -3  -7  -5    5.31    0.74
   3   7   5    5.83    0.63
   3   7   5    5.83    0.77
  -4  -7  -5  122.20    7.49
  -4  -7  -5  121.07    6.63
  -4  -7  -5  124.09    6.62
   4   7   5  128.84    6.61
  -5  -7  -5  102.13    5.67
  -5  -7  -5  100.59    6.37
  -5  -7  -5  107.63    5.67
   5   7   5  107.67    5.65
  -6  -7  -5    8.36    0.93
  -6  -7  -5    9.03    0.95
   6   7   5    7.31    0.89
  -7  -7  -5   88.02    5.71
  -7  -7  -5   92.96    5.14
   7   7   5   95.17    5.13
  -8  -7  -5    9.89    1.16
  -8  -7  -5   10.20    1.15
   8   7   5    9.21    1.11
  -9  -7  -5   14.01    1.55
  -9  -7  -5   15.52    1.47
   9   7   5   15.49    1.47
 -10  -7  -5   17.09    1.82
 -10  -7  -5   21.74    1.98
  10   7   5   19.27    1.86
  11   7   5    0.75    1.01
   5  -8  -5   -0.66    0.82
   5  -8  -5    0.60    0.70
  -5   8   5   -1.52    1.18
  -5   8   5   -0.41    0.83
   4  -8  -5   83.45    5.33
   4  -8  -5  103.11    5.29
  -4   8   5   82.41    7.26
  -4   8   5  103.97    6.30
   3  -8  -5   67.92    3.52
   3  -8  -5   54.23    3.53
  -3   8   5   62.52    4.12
  -3   8   5   46.30    4.69
   2  -8  -5   29.33    1.97
   2  -8  -5   28.01    2.05
  -2   8   5   30.19    2.31
  -2   8   5   23.99    2.73
   1  -8  -5  107.34    5.97
   1  -8  -5  109.85    5.98
  -1   8   5  103.01    8.20
  -1   8   5  115.43    7.02
   0  -8  -5   18.32    1.46
   0  -8  -5   19.62    1.43
   0   8   5   16.06    2.09
   0   8   5   20.85    1.66
  -1  -8  -5  141.99    7.43
  -1  -8  -5  138.07    7.42
   1   8   5  143.20    8.73
   1   8   5  133.34   10.27
  -2  -8  -5  145.95    8.24
  -2  -8  -5  131.24    7.22
  -2  -8  -5  135.80    7.22
   2   8   5  123.71   10.01
   2   8   5  143.05    8.52
   2   8   5  133.33    7.12
  -3  -8  -5   18.43    1.49
  -3  -8  -5   16.97    1.33
  -3  -8  -5   16.77    1.28
   3   8   5   17.58    1.24
   3   8   5   19.70    1.55
   3   8   5   14.41    2.04
  -4  -8  -5  116.27    6.48
  -4  -8  -5  122.37    7.33
  -4  -8  -5  122.08    6.48
   4   8   5  121.71    6.44
  -5  -8  -5   15.31    1.37
  -5  -8  -5   15.07    1.25
  -5  -8  -5   16.06    1.30
   5   8   5   13.23    1.23
  -6  -8  -5   61.22    4.11
  -6  -8  -5   65.29    3.72
   6   8   5   65.61    3.70
  -7  -8  -5   48.12    3.03
  -7  -8  -5   50.44    3.35
   7   8   5   48.73    3.02
  -8  -8  -5    0.71    0.76
  -8  -8  -5    0.67    0.72
   8   8   5    1.47    0.77
  -9  -8  -5   21.18    1.97
  -9  -8  -5   22.81    1.94
   9   8   5   22.96    1.92
 -10  -8  -5    4.11    1.08
 -10  -8  -5    3.97    1.12
  10   8   5    6.14    1.17
  -5   9   5    6.08    1.23
  -5   9   5    8.41    1.88
   4  -9  -5   62.53    3.53
   4  -9  -5   51.44    3.47
  -4   9   5   55.18    5.01
  -4   9   5   58.10    4.10
   3  -9  -5    6.53    1.01
   3  -9  -5    4.54    0.96
  -3   9   5    7.82    1.18
  -3   9   5    6.24    1.47
   2  -9  -5   43.51    2.89
   2  -9  -5   46.73    2.90
  -2   9   5   53.42    3.41
  -2   9   5   40.50    4.09
   1  -9  -5   76.61    4.18
   1  -9  -5   66.58    4.12
  -1   9   5   64.74    5.78
  -1   9   5   80.77    4.87
   0  -9  -5    6.53    0.83
   0  -9  -5    7.04    0.85
   0   9   5    7.62    0.96
   0   9   5    6.62    1.42
  -1  -9  -5  179.73    9.09
  -1  -9  -5  166.10    9.05
   1   9   5  161.70   12.52
   1   9   5  176.82   10.68
  -2  -9  -5   17.40    1.38
  -2  -9  -5   19.62    1.48
   2   9   5   20.88    1.66
   2   9   5   19.29    2.35
  -3  -9  -5   65.57    3.65
  -3  -9  -5   63.18    3.67
   3   9   5   63.94    3.57
   3   9   5   57.16    5.27
   3   9   5   70.03    4.33
  -4  -9  -5   65.07    3.72
  -4  -9  -5   67.50    3.71
   4   9   5   58.46    5.38
   4   9   5   67.16    3.68
  -5  -9  -5    0.02    0.56
  -5  -9  -5    0.04    0.52
  -5  -9  -5    0.92    0.60
   5   9   5    0.50    0.52
  -6  -9  -5   56.47    3.69
  -6  -9  -5   55.60    3.35
   6   9   5   55.66    3.32
  -7  -9  -5   14.43    1.42
  -7  -9  -5   14.46    1.42
   7   9   5   15.09    1.42
  -8  -9  -5   10.56    1.28
  -8  -9  -5   11.57    1.22
   8   9   5   10.58    1.24
  -9  -9  -5   21.17    2.01
  -9  -9  -5   21.20    1.96
   9   9   5   25.04    1.98
 -10  -9  -5   -0.05    0.95
 -10  -9  -5    0.46    0.81
  10   9   5    0.56    0.97
  -4  10   5   13.45    1.49
  -4  10   5   12.78    2.24
   3 -10  -5    3.71    0.90
   3 -10  -5    3.96    0.90
  -3  10   5    4.24    0.99
  -3  10   5    5.58    1.54
   2 -10  -5   65.87    3.92
   2 -10  -5   69.43    3.99
  -2  10   5   73.60    4.60
  -2  10   5   58.51    5.57
   1 -10  -5   21.24    1.64
   1 -10  -5   24.26    1.71
  -1  10   5   18.05    2.53
  -1  10   5   21.07    1.85
   0 -10  -5   41.34    2.63
   0 -10  -5   44.08    2.67
   0  10   5   43.19    3.99
   0  10   5   42.84    3.05
  -1 -10  -5   85.44    4.84
  -1 -10  -5   89.88    4.85
   1  10   5   81.06    6.87
   1  10   5   91.47    5.69
  -2 -10  -5    4.00    0.71
  -2 -10  -5    4.09    0.71
   2  10   5    3.17    1.27
   2  10   5    5.31    0.83
  -3 -10  -5   67.03    3.61
  -3 -10  -5   60.42    3.59
   3  10   5   59.26    5.21
  -4 -10  -5   11.92    1.13
  -4 -10  -5   11.87    1.17
   4  10   5   10.10    1.82
  -5 -10  -5   27.51    1.96
  -5 -10  -5   28.46    1.90
   5  10   5   20.87    2.90
   5  10   5   28.44    1.87
  -6 -10  -5   63.17    3.76
   6  10   5   63.78    3.72
  -7 -10  -5    0.36    0.73
   7  10   5   -0.20    0.77
  -8 -10  -5   27.46    2.15
   8  10   5   26.93    2.12
  -9 -10  -5   10.74    1.41
   9  10   5   11.75    1.43
 -10 -10  -5    2.32    1.11
  10  10   5    2.01    1.08
  -3  11   5   22.08    3.00
  -3  11   5   25.51    2.06
   2 -11  -5   48.41    3.07
   2 -11  -5   57.26    3.23
  -2  11   5   47.96    4.68
  -2  11   5   51.63    3.59
   1 -11  -5    0.10    0.62
   1 -11  -5    0.75    0.67
  -1  11   5    0.27    0.68
  -1  11   5    0.11    1.21
   0 -11  -5   58.97    3.41
   0 -11  -5   57.39    3.42
   0  11   5   56.81    5.11
   0  11   5   58.13    3.97
  -1 -11  -5   22.77    1.66
  -1 -11  -5   20.89    1.61
   1  11   5   17.53    2.53
   1  11   5   23.09    1.91
  -2 -11  -5   17.53    1.39
  -2 -11  -5   16.63    1.42
   2  11   5   15.78    2.24
  -3 -11  -5   52.81    3.09
  -3 -11  -5   51.22    3.08
   3  11   5   48.72    4.58
  -4 -11  -5    4.52    0.80
  -4 -11  -5    4.74    0.77
   4  11   5    1.30    1.28
  -5 -11  -5   53.85    3.12
   5  11   5   46.02    4.56
  -6 -11  -5   43.33    2.73
   6  11   5   38.83    4.08
  -7 -11  -5    1.09    0.85
   7  11   5    2.73    1.63
  -8 -11  -5   16.78    1.64
  -9 -11  -5    1.36    1.01
   9  11   5    1.42    1.06
  -2  12   5   15.42    2.47
  -2  12   5   16.72    1.59
   1 -12  -5    6.67    0.93
   1 -12  -5    5.96    0.91
  -1  12   5    6.87    1.02
  -1  12   5    7.03    1.92
   0 -12  -5   38.21    2.45
   0 -12  -5   37.15    2.42
   0  12   5   38.87    3.95
  -1 -12  -5    0.59    0.65
  -1 -12  -5    0.73    0.68
   1  12   5    0.93    1.41
  -2 -12  -5   37.94    2.47
  -2 -12  -5   37.97    2.42
   2  12   5   36.76    3.83
  -3 -12  -5   28.13    2.03
  -3 -12  -5   29.66    2.02
   3  12   5   27.77    3.22
  -4 -12  -5    4.20    0.84
  -4 -12  -5    4.30    0.86
   4  12   5    4.32    1.53
  -5 -12  -5   35.36    2.37
   5  12   5   30.34    3.53
  -6 -12  -5    0.74    0.79
   6  12   5    0.59    1.39
  -7 -12  -5   10.01    1.36
   7  12   5   11.60    2.34
  -8 -12  -5    7.23    1.25
   8  12   5    9.28    2.20
  -9 -12  -5    1.26    1.06
   9  12   5    2.91    1.94
   0 -13  -5    5.17    0.90
   0  13   5    6.69    1.93
  -1 -13  -5    3.87    0.83
  -1 -13  -5    3.53    0.82
   1  13   5    2.80    1.63
  -2 -13  -5   25.97    1.95
  -2 -13  -5   28.09    1.97
   2  13   5   27.00    3.29
  -3 -13  -5    6.82    0.97
  -3 -13  -5    4.84    0.94
   3  13   5    4.15    1.62
  -4 -13  -5   13.25    1.29
  -4 -13  -5   13.55    1.37
   4  13   5   12.48    2.20
  -5 -13  -5   15.97    1.54
   5  13   5   16.33    2.54
  -6 -13  -5    1.46    0.88
   6  13   5   -0.45    1.56
  -7 -13  -5   14.42    1.54
   7  13   5   14.32    2.52
  -8 -13  -5    2.60    1.09
   8  13   5    3.39    1.94
  -2 -14  -5   22.10    1.82
   2  14   5   22.09    3.04
  -3 -14  -5    1.02    0.84
  -3 -14  -5    1.67    0.81
   3  14   5    0.32    1.50
  -4 -14  -5   21.01    1.82
   4  14   5   18.29    2.73
  -5 -14  -5    4.26    1.07
   5  14   5    3.75    1.83
  -6 -14  -5    6.63    1.16
   6  14   5    4.94    1.93
   4  13  -6    0.85    1.75
   3  13  -6   19.85    3.02
   2  13  -6    7.54    2.22
   1  13  -6    5.04    1.97
   1  13  -6    5.41    1.25
   0  13  -6   13.44    2.48
   6  12  -6   12.50    2.47
   5  12  -6    4.65    1.82
   4  12  -6    4.25    1.87
   3  12  -6   26.17    3.30
   2  12  -6    1.76    1.64
   1  12  -6   21.00    2.21
   1  12  -6   23.30    1.54
   1  12  -6   20.75    2.91
   0  12  -6   12.69    1.65
   0  12  -6   11.96    2.30
   0  12  -6   13.50    1.10
  -1  12  -6    1.41    0.66
  -1  12  -6    2.55    1.58
  -2  12  -6   17.90    1.22
   2 -12   6   13.73    1.11
   7  11  -6    5.77    2.10
   6  11  -6   14.33    2.42
   5  11  -6   -0.03    1.38
   4  11  -6   13.47    2.21
   3  11  -6   11.76    2.26
   2  11  -6   10.21    1.28
   2  11  -6   10.33    0.98
   2  11  -6    9.76    2.09
   1  11  -6   26.35    3.31
   1  11  -6   28.43    2.54
   1  11  -6   28.98    1.73
   0  11  -6    2.36    1.46
   0  11  -6    1.68    0.64
   0  11  -6    1.71    0.92
  -1  11  -6   16.36    2.26
  -1  11  -6   13.34    1.12
   1 -11   6   11.83    1.10
  -2  11  -6   21.03    1.35
   2 -11   6   18.48    1.34
  -3  11  -6   -0.13    0.58
   3 -11   6    0.19    0.41
   7  10  -6   11.44    2.26
   6  10  -6    6.39    1.86
   5  10  -6    2.21    1.50
   4  10  -6   30.86    3.41
   3  10  -6    5.18    1.55
   2  10  -6   30.85    1.83
   2  10  -6   30.53    2.58
   2  10  -6   29.96    3.28
   1  10  -6   37.72    3.77
   1  10  -6   35.35    2.99
   1  10  -6   37.86    2.06
   0  10  -6    0.81    0.81
   0  10  -6    1.75    0.62
   0  10  -6    1.29    1.30
   0 -10   6    2.48    0.59
  -1  10  -6   52.75    4.42
  -1  10  -6   46.35    2.57
   1 -10   6   50.68    2.91
  -2  10  -6    8.26    1.70
   2 -10   6    8.97    0.87
   3 -10   6   15.68    1.22
   4 -10   6   12.69    1.01
   8   9  -6    3.66    1.05
   7   9  -6   21.80    1.85
   6   9  -6    2.14    1.47
   5   9  -6   28.86    3.19
   4   9  -6   33.22    3.44
   3   9  -6    1.99    1.21
   3   9  -6    0.65    0.59
   2   9  -6   93.73    4.62
   2   9  -6   96.82    6.90
   2   9  -6   97.31    7.39
   1   9  -6   22.76    2.63
   1   9  -6   16.63    1.24
   1   9  -6   19.56    1.77
  -1  -9   6   17.27    1.42
   0   9  -6   41.19    3.33
   0   9  -6   44.08    3.86
   0   9  -6   41.53    2.24
   0  -9   6   41.24    2.53
  -1   9  -6   69.47    5.46
   1  -9   6   68.38    3.90
  -2   9  -6    0.41    1.05
   2  -9   6    0.16    0.53
   3  -9   6   47.57    2.79
   4  -9   6   12.29    1.08
   5  -9   6    4.28    0.65
   8   8  -6   13.81    1.49
   7   8  -6   27.77    2.11
   6   8  -6    0.41    0.66
   5   8  -6   63.80    4.72
   5   8  -6   49.13    3.21
   4   8  -6   26.11    1.85
   4   8  -6   28.08    2.83
   3   8  -6   54.26    2.67
   3   8  -6   46.82    2.92
   3   8  -6   50.57    4.40
   2   8  -6  122.94    5.74
   2   8  -6  120.45    8.96
   2   8  -6  124.50    8.61
   2   8  -6  118.43    7.40
   1   8  -6    0.45    0.52
   1   8  -6    0.58    0.48
   1   8  -6    1.20    1.11
   1   8  -6    0.39    0.54
  -1  -8   6    1.62    0.57
   0   8  -6   52.03    2.76
   0   8  -6   53.09    3.45
   0   8  -6   53.67    4.13
   0   8  -6   62.45    4.62
   0  -8   6   55.23    3.20
  -1   8  -6   47.47    3.03
  -1   8  -6   50.80    3.31
  -1   8  -6   48.59    3.99
   1  -8   6   46.30    2.84
  -2   8  -6   13.53    1.70
  -2   8  -6   13.66    1.27
   2  -8   6   11.33    1.11
  -3   8  -6   62.80    4.01
   3  -8   6   58.90    3.47
   4  -8   6    2.65    0.61
   4  -8   6    2.03    0.49
  -5   8  -6   24.51    1.77
   5  -8   6   22.51    1.60
  -6   8  -6   15.76    1.24
   6  -8   6   16.06    1.26
   8   7  -6   20.29    1.83
   7   7  -6   10.26    1.20
   6   7  -6   16.53    1.48
   5   7  -6   66.51    3.82
   4   7  -6    1.67    0.56
   4   7  -6    1.89    1.03
   3   7  -6   84.41    6.86
   3   7  -6   91.28    5.75
   3   7  -6   90.68    5.01
   3   7  -6  100.44    4.46
   2   7  -6   41.22    3.68
   2   7  -6   40.60    2.16
   2   7  -6   42.55    2.78
   2   7  -6   37.37    2.39
  -2  -7   6   41.74    2.50
   1   7  -6   18.54    1.47
   1   7  -6   17.10    1.20
   1   7  -6   18.85    2.24
  -1  -7   6   18.72    1.38
   0   7  -6  113.16    7.63
   0   7  -6  102.90    6.29
   0   7  -6  104.47    6.63
   0  -7   6   97.42    5.63
  -1   7  -6    4.78    0.64
  -1   7  -6    5.59    0.82
  -1   7  -6    4.96    1.16
   1  -7   6    4.40    0.66
  -2   7  -6   99.09    6.25
  -2   7  -6   97.00    7.04
  -2   7  -6   98.79    5.83
   2  -7   6   95.27    5.31
  -3   7  -6   42.66    3.11
  -3   7  -6   44.92    3.69
  -3   7  -6   45.72    2.73
   3  -7   6   46.09    2.66
  -4   7  -6    9.96    1.12
   4  -7   6    7.83    0.81
  -5   7  -6   59.20    3.93
   5  -7   6   59.46    3.18
   5  -7   6   56.11    3.26
  -6   7  -6    6.08    0.90
   6  -7   6    6.60    0.73
  -7   7  -6   10.29    1.20
   7  -7   6    9.93    0.99
   9   6  -6    5.60    1.19
   8   6  -6   23.36    1.95
   7   6  -6    1.79    0.79
   6   6  -6   42.36    2.68
   5   6  -6   47.59    2.86
   4   6  -6   21.05    1.76
   4   6  -6   19.66    1.47
   3   6  -6  112.20    6.36
   3   6  -6  125.25    5.64
   3   6  -6  121.50    7.32
   2   6  -6    7.62    1.37
   2   6  -6    9.33    0.87
   2   6  -6   10.23    0.84
   2   6  -6   10.33    1.08
  -2  -6   6    8.86    0.88
   1   6  -6  108.10    5.39
   1   6  -6  123.56    7.03
   1   6  -6  126.53    8.36
   1   6  -6  108.37    6.15
   1   6  -6  117.53    7.33
  -1  -6   6  111.70    6.21
   0   6  -6  175.02   11.11
   0   6  -6  166.16    9.96
   0   6  -6  155.62    8.35
   0   6  -6  156.34    9.48
   0  -6   6  146.34    8.41
  -1   6  -6   19.37    1.68
  -1   6  -6   20.76    2.12
  -1   6  -6   21.08    1.55
   1  -6   6   20.61    1.46
  -2   6  -6  226.93   12.91
  -2   6  -6  229.53   14.88
  -2   6  -6  203.17   13.53
   2  -6   6  219.69   11.48
  -3   6  -6   31.42    2.74
  -3   6  -6   32.85    2.06
  -3   6  -6   31.37    2.34
   3  -6   6   28.85    1.90
  -4   6  -6   40.63    2.96
  -4   6  -6   43.29    2.62
   4  -6   6   42.53    2.43
  -5   6  -6   46.02    3.26
   5  -6   6   48.56    2.68
   5  -6   6   48.06    2.69
  -6   6  -6    2.49    0.70
   6  -6   6    0.78    0.50
   6  -6   6    2.11    0.50
  -7   6  -6   29.91    2.18
   7  -6   6   25.24    1.74
  -8   6  -6    4.57    0.90
   9   5  -6   15.78    1.63
   8   5  -6   16.81    1.64
   7   5  -6    7.99    1.05
   6   5  -6   82.92    4.68
   5   5  -6    0.62    0.68
   5   5  -6    0.73    0.58
   4   5  -6  160.44    8.75
   4   5  -6  171.91   10.04
   3   5  -6  163.63    9.71
   3   5  -6  167.22    7.46
   3   5  -6  151.46    8.47
   3   5  -6  162.61    8.46
  -3  -5   6  160.97    8.54
   2   5  -6    6.37    1.13
   2   5  -6    5.29    0.65
   2   5  -6    6.57    0.65
   2   5  -6    5.68    0.82
   2   5  -6    7.78    0.66
  -2  -5   6    5.21    0.69
   1   5  -6  180.83   10.12
   1   5  -6  209.20   11.56
   1   5  -6  179.07    8.85
   1   5  -6  206.85   13.31
   1   5  -6  201.68   12.04
  -1  -5   6  189.71   10.19
   0   5  -6   35.65    2.13
   0   5  -6   37.06    2.60
   0   5  -6   37.17    2.44
   0   5  -6   37.39    3.00
   0  -5   6   31.60    2.14
  -1   5  -6  134.64    8.88
  -1   5  -6  132.44    7.69
  -1   5  -6  119.58    8.02
   1  -5   6  124.51    6.80
  -2   5  -6  165.50   11.42
  -2   5  -6  174.26   10.48
  -2   5  -6  181.23   10.03
   2  -5   6  152.27    8.81
  -3   5  -6    4.16    0.65
  -3   5  -6    2.87    0.63
  -3   5  -6    3.42    0.81
   3  -5   6    3.20    0.49
  -4   5  -6   87.25    5.50
  -4   5  -6   92.32    5.75
   4  -5   6   90.05    4.79
  -5   5  -6   17.70    1.53
  -5   5  -6   21.81    1.65
   5  -5   6   20.30    1.32
   5  -5   6   21.62    1.39
  -6   5  -6   27.90    1.92
  -6   5  -6   20.64    1.70
   6  -5   6   22.64    1.53
   6  -5   6   26.22    1.61
  -7   5  -6   30.80    2.40
  -7   5  -6   43.60    2.79
   7  -5   6   44.33    2.31
   7  -5   6   37.59    2.25
  -8   5  -6   -0.14    0.64
   8  -5   6   -0.04    0.59
   9   4  -6   19.52    1.87
   8   4  -6    3.15    0.93
   7   4  -6   33.57    2.31
   6   4  -6   40.35    2.55
   5   4  -6    1.88    0.74
   5   4  -6    1.11    0.59
   4   4  -6  104.93    5.84
   4   4  -6  112.42    6.74
   3   4  -6  138.52    7.35
   3   4  -6  146.91    8.48
   3   4  -6  144.02    6.49
   3   4  -6  131.33    7.36
  -3  -4   6  138.91    7.43
  -3  -4   6  138.06    8.67
   2   4  -6   44.97    3.17
   2   4  -6   46.40    2.33
   2   4  -6   44.29    2.59
   2   4  -6   43.96    2.61
   2   4  -6   46.37    3.03
  -2  -4   6   47.67    2.69
   1   4  -6  202.61   11.37
   1   4  -6  177.33    8.69
   1   4  -6  186.26   12.94
   1   4  -6  187.01   11.81
   1   4  -6  211.74    9.97
  -1  -4   6  179.24    9.99
   0   4  -6    2.73    0.77
   0   4  -6    1.49    0.53
   0   4  -6    0.69    0.49
   0   4  -6    2.05    0.47
   0  -4   6    0.68    0.40
  -1   4  -6  267.10   14.28
  -1   4  -6  280.04   16.99
  -1   4  -6  274.83   16.32
  -1   4  -6  289.02   18.47
   1  -4   6  275.81   14.37
  -2   4  -6   63.48    3.95
  -2   4  -6   57.68    4.05
  -2   4  -6   64.79    4.51
   2  -4   6   61.07    3.41
  -3   4  -6   71.21    4.98
  -3   4  -6   74.43    4.40
  -3   4  -6   64.82    4.45
   3  -4   6   66.59    3.72
  -4   4  -6  131.33    7.43
  -4   4  -6  115.90    7.59
   4  -4   6  119.07    6.38
  -5   4  -6   15.62    1.45
  -5   4  -6   16.68    1.42
   5  -4   6   17.03    1.15
   5  -4   6   18.77    1.24
  -6   4  -6   46.52    3.22
  -6   4  -6   47.11    3.17
   6  -4   6   51.33    2.75
   6  -4   6   45.90    2.68
  -7   4  -6   29.70    2.27
  -7   4  -6   31.97    2.26
   7  -4   6   33.26    1.98
   7  -4   6   28.51    1.88
  -8   4  -6    3.83    0.84
  -8   4  -6    4.86    0.86
   8  -4   6    5.27    0.79
  -9   4  -6   19.28    1.82
   9  -4   6   21.45    1.69
   9   3  -6   12.49    1.50
   8   3  -6    2.47    0.88
   7   3  -6   64.10    3.80
   6   3  -6   27.09    2.18
   6   3  -6   26.38    1.89
   5   3  -6   43.74    2.98
   5   3  -6   40.74    2.56
   4   3  -6  171.78    9.94
   4   3  -6  158.38    8.65
   4   3  -6  163.31    8.62
   3   3  -6   13.03    0.94
   3   3  -6   11.68    1.23
   3   3  -6   11.56    1.03
  -3  -3   6   12.96    1.06
  -3  -3   6   13.02    1.14
   2   3  -6  290.81   16.11
   2   3  -6  312.07   16.11
   2   3  -6  305.94   19.12
   2   3  -6  312.01   14.10
   2   3  -6  332.43   18.41
  -2  -3   6  323.09   19.04
  -2  -3   6  313.72   16.19
   1   3  -6   44.87    3.19
   1   3  -6   44.76    2.35
   1   3  -6   48.66    2.66
   1   3  -6   51.73    3.12
  -1  -3   6   45.71    3.11
  -1  -3   6   45.30    2.71
   0   3  -6  134.96    7.15
   0   3  -6  134.36    9.25
   0   3  -6  127.10    8.46
   0   3  -6  132.24    8.16
   0   3  -6  155.54    7.15
   0  -3   6  126.88    7.16
  -1   3  -6  426.91   20.90
  -1   3  -6  436.32   26.88
  -1   3  -6  403.87   24.80
  -1   3  -6  420.56   23.88
  -1   3  -6  371.70   20.91
   1  -3   6  389.24   20.97
  -2   3  -6   12.05    1.25
  -2   3  -6   10.52    0.84
  -2   3  -6    9.17    1.00
  -2   3  -6   12.14    1.10
   2  -3   6   10.85    0.86
  -3   3  -6  136.18    8.16
  -3   3  -6  129.30    8.39
  -3   3  -6  145.09    9.20
   3  -3   6  131.36    7.07
  -4   3  -6  105.49    6.57
  -4   3  -6  110.41    6.77
   4  -3   6  107.84    5.68
  -5   3  -6   22.95    1.73
  -5   3  -6   22.62    1.73
   5  -3   6   23.56    1.51
   5  -3   6   21.73    1.40
  -6   3  -6  116.46    7.44
  -6   3  -6  123.04    7.25
   6  -3   6  115.36    6.26
   6  -3   6  120.57    6.31
  -7   3  -6    0.62    0.57
  -7   3  -6    0.15    0.61
   7  -3   6   -0.17    0.53
   7  -3   6   -0.04    0.39
  -8   3  -6   29.93    2.29
  -8   3  -6   29.23    2.29
   8  -3   6   32.23    2.04
  -9   3  -6   12.34    1.45
  -9   3  -6   15.00    1.53
   9  -3   6   15.85    1.40
   9   2  -6    1.28    0.93
   8   2  -6   26.60    2.11
   7   2  -6   51.37    3.19
   6   2  -6    0.09    0.61
   6   2  -6    0.50    0.72
   5   2  -6  135.28    7.48
   5   2  -6  137.93    7.43
   5   2  -6  148.00    8.61
   4   2  -6   67.75    3.69
   4   2  -6   61.89    3.69
   4   2  -6   70.30    4.31
   3   2  -6   83.84    5.14
   3   2  -6   82.57    3.90
   3   2  -6   82.76    4.42
   3   2  -6   75.37    4.43
  -3  -2   6   84.31    5.22
  -3  -2   6   81.19    4.47
   2   2  -6  180.01   10.20
   2   2  -6  197.62    8.94
   2   2  -6  203.38   11.70
   2   2  -6  203.71   12.16
  -2  -2   6  194.43   10.26
  -2  -2   6  198.51   12.05
   1   2  -6    1.81    0.53
   1   2  -6    1.96    0.56
   1   2  -6    1.89    0.40
  -1  -2   6    1.33    0.40
  -1  -2   6    3.64    0.51
  -1  -2   6    2.46    0.39
   0   2  -6  297.47   20.24
   0   2  -6  287.38   18.68
   0   2  -6  283.85   17.97
   0   2  -6  298.77   15.79
   0   2  -6  344.05   15.81
   0  -2   6  337.11   18.66
   0  -2   6  292.78   15.81
  -1   2  -6  191.41   10.81
  -1   2  -6  192.59   12.80
  -1   2  -6  219.15   12.39
  -1   2  -6  227.94   10.81
  -1   2  -6  222.52   13.88
   1  -2   6  196.65   10.83
  -2   2  -6   30.45    2.19
  -2   2  -6   25.83    1.96
  -2   2  -6   23.28    1.94
  -2   2  -6   28.68    1.67
  -2   2  -6   29.65    1.61
   2  -2   6   26.63    1.65
  -3   2  -6  139.60    8.89
  -3   2  -6  124.70    8.15
  -3   2  -6  135.77    6.87
  -3   2  -6  128.65    7.91
   3  -2   6  128.87    6.88
  -4   2  -6   12.23    0.88
  -4   2  -6   12.81    1.14
  -4   2  -6   11.41    1.09
   4  -2   6   13.06    0.91
  -5   2  -6  108.62    6.54
  -5   2  -6  103.30    6.72
   5  -2   6  105.97    5.66
   5  -2   6  112.46    5.75
  -6   2  -6   64.53    4.40
  -6   2  -6   69.29    4.32
   6  -2   6   72.83    3.80
   6  -2   6   66.41    3.69
  -7   2  -6    4.67    0.81
  -7   2  -6    3.58    0.70
   7  -2   6    4.33    0.58
   7  -2   6    4.29    0.73
  -8   2  -6   29.98    2.36
  -8   2  -6   31.35    2.40
   8  -2   6   37.44    2.20
  -9   2  -6    7.87    1.07
  -9   2  -6    7.11    1.06
   9  -2   6    9.07    1.07
   9   1  -6   -0.36    0.94
   8   1  -6   36.51    2.53
   7   1  -6   36.47    2.43
   6   1  -6   24.77    1.79
   5   1  -6  158.61    8.04
   5   1  -6  156.65    9.25
   5   1  -6  139.83    8.04
   4   1  -6    2.55    0.50
   4   1  -6    1.76    0.61
   4   1  -6    2.48    0.57
  -4  -1   6    2.05    0.52
   3   1  -6  208.00   12.01
   3   1  -6  184.64   10.48
   3   1  -6  207.80   10.48
  -3  -1   6  205.23   10.52
   2   1  -6  158.57    9.06
   2   1  -6  173.46    9.05
   2   1  -6  171.34    7.93
   2   1  -6  185.31   10.42
   2   1  -6  176.65   10.79
  -2  -1   6  177.21    9.11
   1   1  -6   61.22    3.03
   1   1  -6   63.78    4.02
   1   1  -6   61.48    4.14
  -1  -1   6   66.65    4.08
  -1  -1   6   59.86    3.48
   0   1  -6  473.64   27.29
   0   1  -6  436.56   28.34
   0   1  -6  510.68   23.98
   0   1  -6  449.87   23.96
   0  -1   6  496.63   28.31
   0  -1   6  436.03   23.97
  -1   1  -6   29.76    1.87
  -1   1  -6   35.44    2.39
  -1   1  -6   30.14    2.18
  -1   1  -6   33.20    2.24
  -1   1  -6   31.63    1.83
   1  -1   6   26.19    1.83
   1  -1   6   30.29    2.17
  -2   1  -6  280.09   14.41
  -2   1  -6  300.92   18.46
  -2   1  -6  260.96   16.44
  -2   1  -6  269.72   17.07
  -2   1  -6  292.84   14.45
   2  -1   6  276.21   14.44
  -3   1  -6  323.28   18.89
  -3   1  -6  307.08   19.58
  -3   1  -6  325.81   16.56
  -3   1  -6  334.78   16.55
  -3   1  -6  337.62   21.20
   3  -1   6  307.05   16.56
  -4   1  -6    9.12    0.78
  -4   1  -6    9.87    0.96
  -4   1  -6    9.32    0.95
   4  -1   6   11.00    0.93
   4  -1   6    9.67    0.76
  -5   1  -6  219.88   11.16
  -5   1  -6  211.33   13.20
  -5   1  -6  213.27   12.75
   5  -1   6  212.47   11.21
   5  -1   6  221.91   11.16
  -6   1  -6   15.22    1.33
  -6   1  -6   16.01    1.35
   6  -1   6   14.99    1.07
   6  -1   6   15.87    1.20
  -7   1  -6   45.08    3.04
  -7   1  -6   42.95    3.07
   7  -1   6   48.65    2.73
  -8   1  -6   47.54    3.34
  -8   1  -6   47.42    3.28
   8  -1   6   51.83    2.96
  -9   1  -6    0.29    0.63
  -9   1  -6    0.08    0.66
   9  -1   6    0.19    0.70
  10  -1   6   26.52    2.12
   8   0  -6   45.46    2.96
   7   0  -6    6.61    1.03
   6   0  -6   97.32    5.13
   6   0  -6   88.42    5.17
   5   0  -6   57.93    3.24
   5   0  -6   58.87    3.82
   5   0  -6   53.05    3.27
   4   0  -6   43.68    2.75
   4   0  -6   47.18    3.21
   4   0  -6   48.01    2.72
  -4   0   6   49.61    3.23
   3   0  -6  282.85   15.21
   3   0  -6  298.08   15.20
   3   0  -6  312.19   17.39
  -3   0   6  304.09   17.96
  -3   0   6  276.06   17.26
   2   0  -6   63.67    3.77
   2   0  -6   72.46    4.53
   2   0  -6   75.72    4.41
   2   0  -6   69.43    3.29
   2   0  -6   71.50    3.76
  -2   0   6   68.14    4.42
  -2   0   6   69.39    4.84
  -2   0   6   60.00    4.25
   1   0  -6  139.65    6.84
   1   0  -6  159.56    9.36
   1   0  -6  152.25    9.01
   1   0  -6  157.50    7.86
  -1   0   6  146.91    7.87
  -1   0   6  141.48    8.90
   0   0  -6  316.34   16.96
   0   0  -6  328.24   20.06
   0   0  -6  331.68   19.32
   0   0   6  319.34   16.96
   0   0   6  356.32   20.03
   0   0   6  320.98   19.24
  -1   0  -6   10.58    1.09
  -1   0  -6   10.48    1.08
  -1   0  -6   11.96    0.97
  -1   0  -6   12.04    0.90
  -1   0  -6   13.49    1.14
   1   0   6   12.45    1.11
   1   0   6   12.46    0.93
  -2   0  -6  569.58   35.54
  -2   0  -6  555.00   27.87
  -2   0  -6  517.80   31.66
  -2   0  -6  505.50   32.90
  -2   0  -6  578.13   27.86
   2   0   6  572.21   32.91
   2   0   6  513.99   27.84
  -3   0  -6   82.93    5.46
  -3   0  -6   90.65    4.61
  -3   0  -6   86.33    4.63
  -3   0  -6   91.84    5.86
  -3   0  -6   83.88    5.29
   3   0   6   82.99    4.60
  -4   0  -6  116.72    7.09
  -4   0  -6  123.01    6.19
  -4   0  -6  115.16    7.33
  -4   0  -6  123.68    6.22
   4   0   6  116.46    6.25
   4   0   6  111.68    6.17
  -5   0  -6  132.92    7.99
  -5   0  -6  132.57    6.98
  -5   0  -6  127.37    8.24
   5   0   6  133.01    6.96
   5   0   6  139.36    7.05
  -6   0  -6    1.41    0.52
  -6   0  -6    1.27    0.49
  -6   0  -6    0.76    0.43
   6   0   6    1.38    0.41
   6   0   6    1.33    0.50
  -7   0  -6   68.72    4.40
  -7   0  -6   65.81    4.50
   7   0   6   74.27    3.94
  -8   0  -6   29.63    2.18
  -8   0  -6   25.11    2.07
   8   0   6   31.00    1.96
  -9   0  -6    6.85    0.98
  -9   0  -6    6.04    0.90
   9   0   6    5.69    0.97
  10   0   6   23.48    1.95
   8  -1  -6   25.15    1.99
   7  -1  -6    9.43    1.11
   6  -1  -6   91.38    5.31
   6  -1  -6  100.53    5.29
   5  -1  -6   14.75    1.33
   5  -1  -6   18.83    1.35
  -5   1   6   17.33    1.55
   4  -1  -6   75.43    4.56
   4  -1  -6   82.11    4.52
   4  -1  -6   90.90    5.28
  -4   1   6   84.32    5.35
   3  -1  -6  231.46   12.45
   3  -1  -6  254.21   12.44
   3  -1  -6  262.19   14.25
  -3   1   6  252.33   14.70
  -3   1   6  210.97   14.10
  -3   1   6  229.26   16.64
   2  -1  -6   10.12    1.10
   2  -1  -6    9.91    1.03
   2  -1  -6   11.07    0.84
   2  -1  -6    9.07    0.89
  -2   1   6    9.74    0.98
  -2   1   6    9.24    0.94
  -2   1   6    7.63    0.90
   1  -1  -6  445.05   21.19
   1  -1  -6  465.48   28.80
   1  -1  -6  490.21   24.35
   1  -1  -6  518.09   27.76
  -1   1   6  490.03   27.66
  -1   1   6  489.13   28.74
  -1   1   6  455.12   32.77
  -1   1   6  445.70   24.34
   0  -1  -6   86.61    5.73
   0  -1  -6   99.83    4.86
   0  -1  -6   88.23    4.87
   0  -1  -6   84.39    5.52
   0   1   6   89.53    5.51
   0   1   6   88.09    4.83
  -1  -1  -6  250.95   15.44
  -1  -1  -6  258.02   13.61
  -1  -1  -6  247.12   16.04
   1   1   6  251.60   13.57
   1   1   6  280.99   15.48
   1   1   6  286.88   16.07
  -2  -1  -6  333.57   21.70
  -2  -1  -6  323.77   19.42
  -2  -1  -6  317.85   20.17
  -2  -1  -6  338.49   17.08
  -2  -1  -6  334.99   17.10
   2   1   6  306.94   17.05
   2   1   6  368.46   20.21
  -3  -1  -6    1.48    0.40
  -3  -1  -6    0.94    0.32
  -3  -1  -6    1.33    0.43
  -3  -1  -6    1.72    0.36
  -3  -1  -6    1.15    0.41
   3   1   6    1.03    0.40
   3   1   6    0.63    0.31
  -4  -1  -6  168.14   10.46
  -4  -1  -6  170.91   10.85
  -4  -1  -6  193.51    9.21
  -4  -1  -6  180.46    9.21
   4   1   6  170.96    9.23
   4   1   6  175.55    9.17
  -5  -1  -6  101.80    5.20
  -5  -1  -6   96.04    5.19
  -5  -1  -6   94.82    6.11
  -5  -1  -6   94.03    5.92
   5   1   6   98.84    5.25
   5   1   6   97.47    5.16
  -6  -1  -6   26.71    2.02
  -6  -1  -6   26.63    1.99
  -6  -1  -6   30.42    1.80
   6   1   6   28.35    1.82
  -7  -1  -6   96.93    5.87
  -7  -1  -6   88.18    6.02
   7   1   6  100.42    5.23
  -8  -1  -6    1.77    0.64
  -8  -1  -6    0.85    0.64
   8   1   6    1.67    0.66
  -9  -1  -6   30.12    2.41
   9   1   6   37.96    2.36
  10   1   6   11.04    1.32
   8  -2  -6    4.55    1.04
   7  -2  -6   40.20    2.66
   6  -2  -6   69.72    4.28
   6  -2  -6   80.18    4.25
   5  -2  -6    0.06    0.47
   5  -2  -6    0.81    0.56
  -5   2   6    0.31    0.62
   4  -2  -6  135.56    7.62
   4  -2  -6  116.09    6.63
   4  -2  -6  128.40    6.61
  -4   2   6  114.71    8.83
  -4   2   6  126.42    7.81
   3  -2  -6   71.26    4.25
   3  -2  -6   62.47    3.67
   3  -2  -6   69.71    3.64
  -3   2   6   67.97    4.30
  -3   2   6   60.33    4.15
  -3   2   6   62.67    4.80
   2  -2  -6  161.05    8.16
   2  -2  -6  157.38    9.36
  -2   2   6  151.01   10.91
  -2   2   6  150.96    9.61
  -2   2   6  155.64    9.30
   1  -2  -6  321.57   17.80
   1  -2  -6  354.85   17.80
   1  -2  -6  317.65   21.02
   1  -2  -6  373.98   20.32
  -1   2   6  366.28   20.25
  -1   2   6  363.02   21.02
  -1   2   6  320.70   23.94
   0  -2  -6    1.32    0.47
   0  -2  -6    2.07    0.52
   0  -2  -6    0.88    0.43
   0  -2  -6    0.38    0.37
   0   2   6    0.89    0.45
   0   2   6    1.35    0.37
   0   2   6    0.79    0.43
  -1  -2  -6  286.39   18.99
  -1  -2  -6  316.20   16.14
  -1  -2  -6  326.59   16.11
  -1  -2  -6  302.84   18.29
   1   2   6  294.11   16.08
   1   2   6  345.86   18.34
  -2  -2  -6  215.05   10.67
  -2  -2  -6  190.88   10.61
  -2  -2  -6  207.01   13.39
  -2  -2  -6  195.98   12.54
  -2  -2  -6  202.09   12.09
   2   2   6  195.57   10.60
   2   2   6  224.79   12.59
  -3  -2  -6   44.35    2.44
  -3  -2  -6   40.84    2.78
  -3  -2  -6   41.53    2.47
  -3  -2  -6   44.02    2.90
  -3  -2  -6   43.44    2.87
   3   2   6   45.08    2.90
   3   2   6   41.21    2.41
   3   2   6   40.54    2.47
  -4  -2  -6  169.78   11.10
  -4  -2  -6  181.03   10.73
  -4  -2  -6  182.27    9.44
  -4  -2  -6  189.96    9.44
   4   2   6  166.34    9.43
   4   2   6  200.05   11.17
   4   2   6  176.81    9.39
  -5  -2  -6    0.44    0.44
  -5  -2  -6    0.33    0.36
  -5  -2  -6    0.60    0.42
  -5  -2  -6    0.57    0.41
   5   2   6    0.45    0.43
   5   2   6    0.49    0.29
  -6  -2  -6  140.79    8.61
  -6  -2  -6  148.86    7.60
  -6  -2  -6  140.59    8.91
   6   2   6  143.97    7.62
  -7  -2  -6   54.88    3.63
  -7  -2  -6   51.24    3.11
  -7  -2  -6   51.16    3.50
   7   2   6   59.82    3.22
  -8  -2  -6    6.63    0.92
  -8  -2  -6    7.84    0.95
   8   2   6    7.14    0.97
  -9  -2  -6   37.92    2.93
   9   2   6   49.44    2.84
  10   2   6    3.49    1.00
   7  -3  -6   64.15    3.67
   7  -3  -6   60.20    3.74
   6  -3  -6   35.03    2.16
   6  -3  -6   30.96    2.20
   5  -3  -6   29.98    2.12
   5  -3  -6   32.48    2.03
  -5   3   6   32.85    2.43
   4  -3  -6  147.54    8.27
   4  -3  -6  172.74    8.26
  -4   3   6  147.49   11.09
  -4   3   6  155.84    9.73
   3  -3  -6    0.14    0.49
   3  -3  -6    1.19    0.47
   3  -3  -6    0.83    0.59
  -3   3   6    1.73    0.65
  -3   3   6    0.33    0.45
   2  -3  -6  338.60   20.92
   2  -3  -6  353.18   18.38
  -2   3   6  395.75   20.98
  -2   3   6  348.38   24.79
  -2   3   6  348.19   21.69
   1  -3  -6  107.16    5.83
   1  -3  -6  105.39    5.89
   1  -3  -6  113.19    6.73
  -1   3   6  116.15    6.73
  -1   3   6   99.75    7.82
  -1   3   6  114.37    6.92
   0  -3  -6  100.44    6.42
   0  -3  -6  114.41    5.65
   0  -3  -6  101.74    6.65
   0  -3  -6  101.88    5.68
   0   3   6   96.21    6.40
   0   3   6  113.06    6.66
  -1  -3  -6  452.81   22.92
  -1  -3  -6  475.24   22.91
  -1  -3  -6  412.52   25.97
  -1  -3  -6  391.31   26.98
   1   3   6  418.92   22.86
   1   3   6  488.03   27.06
   1   3   6  480.54   26.02
  -2  -3  -6   41.79    2.87
  -2  -3  -6   44.74    2.58
  -2  -3  -6   43.52    2.95
  -2  -3  -6   45.05    2.54
  -2  -3  -6   43.16    2.98
   2   3   6   42.12    2.50
   2   3   6   47.62    2.91
  -3  -3  -6  282.17   14.96
  -3  -3  -6  270.34   17.62
  -3  -3  -6  286.15   16.98
  -3  -3  -6  308.71   14.97
   3   3   6  285.83   14.93
   3   3   6  273.05   14.94
   3   3   6  321.30   17.70
  -4  -3  -6  168.10    8.87
  -4  -3  -6  162.69   10.05
  -4  -3  -6  163.85   10.43
   4   3   6  188.51   10.50
   4   3   6  166.04    8.81
   4   3   6  166.36    8.87
  -5  -3  -6   54.31    2.88
  -5  -3  -6   51.25    2.89
  -5  -3  -6   47.59    3.33
  -5  -3  -6   48.81    3.23
   5   3   6   51.07    2.90
   5   3   6   49.03    2.81
  -6  -3  -6  267.62   13.68
  -6  -3  -6  266.46   15.52
  -6  -3  -6  254.84   16.09
   6   3   6  265.04   13.69
  -7  -3  -6   26.32    2.02
  -7  -3  -6   28.07    1.84
  -7  -3  -6   25.65    2.05
   7   3   6   30.62    1.90
  -8  -3  -6   33.72    2.25
  -8  -3  -6   32.62    2.38
   8   3   6   35.24    2.27
  -9  -3  -6   31.19    2.39
   9   3   6   33.84    2.29
 -10  -3  -6    0.92    0.73
  10   3   6    0.66    0.91
  11   3   6   13.77    1.63
   7  -4  -6   42.16    2.87
   7  -4  -6   45.18    2.78
   6  -4  -6    1.36    0.74
   6  -4  -6    0.09    0.57
   5  -4  -6   57.12    3.65
   5  -4  -6   63.38    3.60
  -5   4   6   65.37    4.30
  -5   4   6   65.62    4.99
   4  -4  -6   83.14    4.31
  -4   4   6   75.09    5.08
  -4   4   6   74.32    5.85
   3  -4  -6   57.83    3.76
   3  -4  -6   72.66    3.75
  -3   4   6   65.90    5.07
  -3   4   6   70.53    4.44
   2  -4  -6  332.12   21.70
   2  -4  -6  374.23   19.16
   2  -4  -6  361.78   19.09
  -2   4   6  414.34   21.83
  -2   4   6  392.48   22.58
  -2   4   6  349.26   25.80
   1  -4  -6   29.12    1.75
   1  -4  -6   28.76    2.05
   1  -4  -6   26.48    1.81
  -1   4   6   27.62    2.05
  -1   4   6   22.90    2.27
  -1   4   6   25.59    2.02
   0  -4  -6  142.66    9.01
   0  -4  -6  166.43    7.96
   0  -4  -6  137.90    7.95
   0   4   6  135.39   10.70
   0   4   6  163.07    9.06
   0   4   6  152.61    9.36
  -1  -4  -6  256.19   18.26
  -1  -4  -6  301.78   15.56
  -1  -4  -6  292.39   17.61
  -1  -4  -6  290.38   15.51
   1   4   6  326.26   18.35
   1   4   6  332.86   17.66
  -2  -4  -6   46.39    3.07
  -2  -4  -6   47.73    2.74
  -2  -4  -6   48.21    2.69
  -2  -4  -6   45.96    3.15
   2   4   6   41.15    2.64
   2   4   6   45.62    3.05
   2   4   6   44.82    2.66
   2   4   6   53.61    3.22
  -3  -4  -6  345.70   17.30
  -3  -4  -6  332.60   19.62
  -3  -4  -6  348.43   17.29
  -3  -4  -6  332.17   20.38
   3   4   6  341.98   17.26
   3   4   6  309.63   17.25
  -4  -4  -6   36.83    2.56
  -4  -4  -6   41.05    2.29
  -4  -4  -6   36.23    2.63
  -4  -4  -6   37.80    2.30
   4   4   6   38.21    2.29
   4   4   6   40.20    2.68
  -5  -4  -6   70.17    4.71
  -5  -4  -6   70.23    4.57
  -5  -4  -6   78.25    4.09
   5   4   6   73.11    4.07
   5   4   6   75.56    4.00
  -6  -4  -6  101.87    6.49
  -6  -4  -6  112.80    5.79
  -6  -4  -6  102.07    6.72
   6   4   6  110.23    5.78
  -7  -4  -6    0.63    0.55
  -7  -4  -6    0.65    0.51
   7   4   6    0.29    0.56
  -8  -4  -6   34.10    2.50
  -8  -4  -6   34.90    2.31
   8   4   6   35.83    2.34
  -9  -4  -6    7.27    1.05
   9   4   6    9.01    1.11
 -10  -4  -6    9.74    1.21
  10   4   6   10.22    1.28
  11   4   6   14.23    1.60
   7  -5  -6   22.68    1.81
   6  -5  -6    5.93    0.87
   6  -5  -6    5.16    0.95
   5  -5  -6   65.57    4.18
   5  -5  -6   73.66    4.11
  -5   5   6   76.17    4.91
  -5   5   6   74.18    5.70
   4  -5  -6    4.37    0.86
   4  -5  -6    9.01    0.89
  -4   5   6    9.20    1.33
  -4   5   6    8.78    1.07
   3  -5  -6  125.10    6.75
   3  -5  -6  124.13    6.65
  -3   5   6  134.99    7.91
  -3   5   6  111.84    9.00
   2  -5  -6  124.63    6.67
   2  -5  -6  126.46    6.78
  -2   5   6  110.22    9.01
  -2   5   6  136.55    7.93
   1  -5  -6    3.76    0.72
   1  -5  -6    5.02    0.70
   1  -5  -6    5.23    0.78
  -1   5   6    2.44    0.86
  -1   5   6    5.19    0.81
  -1   5   6    5.22    0.83
   0  -5  -6  140.78    9.07
   0  -5  -6  141.29    8.04
   0  -5  -6  162.16    8.03
   0   5   6  160.01    9.47
   0   5   6  137.02   10.84
   0   5   6  166.96    9.15
   0   5   6  147.37    7.94
  -1  -5  -6   89.95    5.61
  -1  -5  -6   93.74    5.00
  -1  -5  -6   91.87    4.95
   1   5   6   96.07    5.63
   1   5   6   85.07    4.88
   1   5   6   77.71    6.77
   1   5   6   98.14    5.85
  -2  -5  -6  185.79    9.99
  -2  -5  -6  202.40   12.47
  -2  -5  -6  176.28   11.76
  -2  -5  -6  189.57   10.02
  -2  -5  -6  188.38   11.34
   2   5   6  180.44    9.95
   2   5   6  207.70   11.83
   2   5   6  194.32   11.35
  -3  -5  -6  212.44   11.84
  -3  -5  -6  231.31   13.46
  -3  -5  -6  212.33   13.94
  -3  -5  -6  236.61   11.86
   3   5   6  248.56   14.02
   3   5   6  238.50   13.47
   3   5   6  213.65   11.81
  -4  -5  -6    0.39    0.47
  -4  -5  -6    0.52    0.37
  -4  -5  -6    0.59    0.40
  -4  -5  -6    0.77    0.43
   4   5   6    0.89    0.45
   4   5   6    0.29    0.36
  -5  -5  -6  172.10    8.95
  -5  -5  -6  171.32   10.12
  -5  -5  -6  156.63   10.45
  -5  -5  -6  185.16    8.96
   5   5   6  162.51    8.90
  -6  -5  -6   37.60    2.57
  -6  -5  -6   37.65    2.35
   6   5   6   37.47    2.34
  -7  -5  -6   30.38    2.22
  -7  -5  -6   32.09    2.08
   7   5   6   30.14    2.02
  -8  -5  -6   48.51    3.46
  -8  -5  -6   53.08    3.17
   8   5   6   54.67    3.20
  -9  -5  -6    1.27    0.75
  -9  -5  -6    0.90    0.75
   9   5   6    0.99    0.77
 -10  -5  -6   24.74    2.12
  10   5   6   26.10    2.09
  11   5   6    7.90    1.33
   6  -6  -6   18.30    1.78
   6  -6  -6   19.68    1.57
   5  -6  -6   46.65    3.02
   5  -6  -6   49.53    3.20
  -5   6   6   53.23    3.67
  -5   6   6   52.74    4.40
   4  -6  -6    2.62    0.65
   4  -6  -6    1.85    0.78
  -4   6   6    1.50    1.02
  -4   6   6    2.31    0.82
   3  -6  -6  125.11    6.69
   3  -6  -6  128.03    6.82
  -3   6   6  138.12    7.98
  -3   6   6  104.73    9.03
   2  -6  -6   42.24    2.47
   2  -6  -6   40.08    2.58
  -2   6   6   43.49    2.95
  -2   6   6   31.34    3.32
   1  -6  -6  108.59    6.35
   1  -6  -6  130.80    6.33
  -1   6   6  100.40    8.46
  -1   6   6  123.67    7.45
   0  -6  -6  250.89   13.37
   0  -6  -6  239.98   15.10
   0  -6  -6  257.29   13.33
   0   6   6  277.15   15.15
   0   6   6  282.06   15.77
   0   6   6  240.46   13.19
   0   6   6  239.26   18.08
  -1  -6  -6   13.75    1.29
  -1  -6  -6   14.67    1.15
  -1  -6  -6   13.77    1.22
   1   6   6   13.37    1.29
   1   6   6   11.72    1.66
   1   6   6   15.30    1.37
   1   6   6   12.68    1.08
  -2  -6  -6  284.86   17.19
  -2  -6  -6  298.39   19.04
  -2  -6  -6  308.94   15.17
  -2  -6  -6  278.89   15.15
   2   6   6  304.67   17.89
   2   6   6  298.95   17.19
   2   6   6  269.04   15.07
  -3  -6  -6   40.70    2.83
  -3  -6  -6   42.49    2.96
  -3  -6  -6   42.22    2.52
  -3  -6  -6   40.13    2.52
   3   6   6   43.56    2.88
   3   6   6   44.11    2.51
   3   6   6   44.26    2.99
  -4  -6  -6   58.39    3.77
  -4  -6  -6   58.00    3.33
  -4  -6  -6   58.67    3.38
   4   6   6   63.41    3.97
   4   6   6   55.98    3.31
  -5  -6  -6  146.42    7.59
  -5  -6  -6  143.30    7.60
  -5  -6  -6  137.27    8.55
   5   6   6  141.85    7.56
  -6  -6  -6    1.83    0.59
  -6  -6  -6    1.72    0.62
   6   6   6    0.49    0.54
  -7  -6  -6   65.87    3.79
  -7  -6  -6   63.42    4.20
   7   6   6   65.78    3.78
  -8  -6  -6   27.89    2.28
  -8  -6  -6   31.44    2.17
   8   6   6   32.95    2.20
  -9  -6  -6    8.28    1.13
  -9  -6  -6    8.05    1.12
   9   6   6    7.93    1.15
 -10  -6  -6   19.09    1.90
  10   6   6   23.51    1.95
  11   6   6    0.46    1.02
   6  -7  -6   33.25    2.51
   5  -7  -6    4.88    1.08
   5  -7  -6    4.52    0.87
  -5   7   6    4.82    1.44
  -5   7   6    6.18    1.17
   4  -7  -6   51.05    3.16
   4  -7  -6   46.39    2.94
  -4   7   6   53.59    3.58
  -4   7   6   40.31    4.05
   3  -7  -6  103.86    6.13
   3  -7  -6  107.12    5.99
  -3   7   6  115.49    7.15
   2  -7  -6    2.95    0.73
   2  -7  -6    1.83    0.78
  -2   7   6    2.34    1.00
  -2   7   6    1.61    0.80
   1  -7  -6  163.20    8.25
   1  -7  -6  149.54    8.29
  -1   7   6  166.18    9.73
  -1   7   6  133.68   11.12
   0  -7  -6   58.83    3.54
   0  -7  -6   60.77    3.51
   0   7   6   54.24    4.81
   0   7   6   65.30    4.12
  -1  -7  -6   55.27    3.25
  -1  -7  -6   52.58    3.59
  -1  -7  -6   56.98    3.21
   1   7   6   51.59    3.05
   1   7   6   48.40    4.49
   1   7   6   61.51    3.77
  -2  -7  -6  190.74   10.24
  -2  -7  -6  201.18   11.63
  -2  -7  -6  203.04   10.25
   2   7   6  207.84   12.09
   2   7   6  203.93   11.61
   2   7   6  186.33   10.14
   2   7   6  166.22   14.05
  -3  -7  -6    3.69    0.69
  -3  -7  -6    4.59    0.67
  -3  -7  -6    3.92    0.74
   3   7   6    4.55    0.63
   3   7   6    5.28    0.74
  -4  -7  -6   93.31    5.56
  -4  -7  -6  101.77    5.57
  -4  -7  -6  102.66    6.32
   4   7   6  112.31    6.63
   4   7   6  103.73    5.56
  -5  -7  -6   74.92    4.00
  -5  -7  -6   69.65    4.46
  -5  -7  -6   67.34    3.99
   5   7   6   69.26    3.96
  -6  -7  -6   14.11    1.26
  -6  -7  -6   14.59    1.34
   6   7   6   15.18    1.32
  -7  -7  -6   77.32    4.42
  -7  -7  -6   76.46    4.92
   7   7   6   77.47    4.41
  -8  -7  -6    5.65    0.97
  -8  -7  -6    4.71    0.87
   8   7   6    5.52    0.97
  -9  -7  -6   17.90    1.75
  -9  -7  -6   19.31    1.75
   9   7   6   17.49    1.70
 -10  -7  -6   13.01    1.55
 -10  -7  -6   12.39    1.47
  10   7   6   13.32    1.55
   5  -8  -6   -0.68    0.92
  -5   8   6    0.00    1.01
  -5   8   6    0.20    1.30
   4  -8  -6   72.96    4.29
   4  -8  -6   68.36    4.44
  -4   8   6   78.24    5.17
   3  -8  -6   69.62    3.77
   3  -8  -6   58.71    3.85
  -3   8   6   66.48    4.47
  -3   8   6   54.16    5.08
   2  -8  -6   12.46    1.42
   2  -8  -6   15.74    1.40
  -2   8   6   15.84    1.69
  -2   8   6   13.11    1.87
   1  -8  -6   96.74    5.37
   1  -8  -6   95.08    5.31
  -1   8   6  107.14    6.29
  -1   8   6   78.70    7.20
   0  -8  -6   14.16    1.29
   0  -8  -6   13.43    1.27
   0   8   6   15.68    1.52
   0   8   6   10.16    1.70
  -1  -8  -6  139.35    7.00
  -1  -8  -6  128.72    6.97
   1   8   6  112.67    9.59
   1   8   6  132.62    8.18
  -2  -8  -6   99.20    5.68
  -2  -8  -6  114.61    5.72
   2   8   6   93.85    7.98
   2   8   6  115.06    6.72
   2   8   6   96.28    5.55
  -3  -8  -6   16.85    1.55
  -3  -8  -6   16.26    1.39
  -3  -8  -6   18.34    1.37
   3   8   6   19.22    1.35
   3   8   6   13.98    2.15
   3   8   6   18.97    1.61
  -4  -8  -6  102.42    6.38
  -4  -8  -6   97.82    5.64
  -4  -8  -6  105.12    5.65
   4   8   6  109.62    6.69
   4   8   6  101.38    5.60
  -5  -8  -6   18.84    1.46
  -5  -8  -6   20.15    1.53
  -5  -8  -6   17.24    1.55
   5   8   6   19.20    1.48
  -6  -8  -6   49.92    3.03
  -6  -8  -6   48.02    3.31
   6   8   6   50.39    3.01
  -7  -8  -6   44.44    2.88
  -7  -8  -6   43.23    3.14
   7   8   6   48.84    2.90
  -8  -8  -6    1.33    0.81
  -8  -8  -6    1.49    0.71
   8   8   6    1.55    0.80
  -9  -8  -6   22.07    1.95
  -9  -8  -6   22.49    1.99
   9   8   6   21.10    1.89
 -10  -8  -6    2.38    0.91
 -10  -8  -6    4.06    1.20
  10   8   6    3.92    1.11
   4  -9  -6   35.28    2.85
   4  -9  -6   51.79    2.96
  -4   9   6   37.00    4.03
  -4   9   6   44.77    3.39
   3  -9  -6    0.49    0.84
   3  -9  -6   -0.66    0.76
  -3   9   6   -0.05    0.89
  -3   9   6    2.13    1.25
   2  -9  -6   67.00    3.95
   2  -9  -6   69.82    4.01
  -2   9   6   70.61    4.65
  -2   9   6   54.00    5.34
   1  -9  -6   40.84    2.61
   1  -9  -6   40.17    2.66
  -1   9   6   32.73    3.61
  -1   9   6   41.70    3.01
   0  -9  -6   11.70    1.18
   0  -9  -6   11.71    1.22
   0   9   6   11.82    1.86
   0   9   6   13.52    1.46
  -1  -9  -6  100.48    5.62
  -1  -9  -6  108.16    5.64
   1   9   6   90.39    7.82
   1   9   6  104.86    6.58
  -2  -9  -6    1.83    0.61
  -2  -9  -6    2.37    0.66
   2   9   6    1.29    1.15
   2   9   6    1.43    0.70
  -3  -9  -6   53.08    3.23
  -3  -9  -6   53.89    3.19
   3   9   6   58.03    3.78
   3   9   6   49.83    4.74
  -4  -9  -6   66.42    4.01
  -4  -9  -6   72.51    4.03
   4   9   6   71.72    3.98
  -5  -9  -6    0.43    0.56
  -5  -9  -6    1.21    0.66
  -5  -9  -6    0.14    0.57
   5   9   6    0.27    0.56
  -6  -9  -6   63.85    3.93
  -6  -9  -6   67.46    4.39
   6   9   6   70.41    3.94
  -7  -9  -6    5.67    0.97
  -7  -9  -6    5.21    0.95
   7   9   6    4.32    0.91
  -8  -9  -6   14.04    1.43
  -8  -9  -6   13.08    1.45
   8   9   6   13.03    1.38
  -9  -9  -6   13.23    1.58
  -9  -9  -6   16.75    1.62
   9   9   6   15.88    1.58
 -10  -9  -6   -0.57    0.76
 -10  -9  -6    0.40    1.02
  10   9   6    0.01    0.94
   3 -10  -6    6.02    1.11
   3 -10  -6    6.33    1.15
  -3  10   6    5.52    1.73
  -3  10   6    5.80    1.19
   2 -10  -6   42.57    2.91
   2 -10  -6   41.38    2.88
  -2  10   6   39.99    4.16
  -2  10   6   49.76    3.40
   1 -10  -6   13.30    1.40
   1 -10  -6   15.01    1.42
  -1  10   6   15.37    1.69
  -1  10   6   13.06    2.18
   0 -10  -6   41.44    2.70
   0 -10  -6   40.49    2.72
   0  10   6   40.35    4.00
   0  10   6   44.42    3.17
  -1 -10  -6   70.05    3.83
  -1 -10  -6   59.77    3.78
   1  10   6   69.77    4.48
   1  10   6   58.94    5.47
  -2 -10  -6    7.74    1.01
  -2 -10  -6    8.81    0.98
   2  10   6    8.65    1.11
   2  10   6    9.40    1.80
  -3 -10  -6   78.05    4.42
  -3 -10  -6   78.17    4.43
   3  10   6   83.16    5.23
   3  10   6   69.63    6.41
  -4 -10  -6   22.03    1.71
  -4 -10  -6   23.65    1.70
   4  10   6   19.99    2.75
  -5 -10  -6   21.85    1.67
   5  10   6   17.27    2.58
  -6 -10  -6   31.82    2.27
   6  10   6   33.00    2.26
  -7 -10  -6   -0.03    0.77
   7  10   6   -0.26    0.72
  -8 -10  -6   14.66    1.57
   8  10   6   18.95    1.72
  -9 -10  -6    8.83    1.37
   9  10   6   10.90    1.41
 -10 -10  -6    1.88    1.13
  10  10   6    1.43    1.08
   2 -11  -6   32.08    2.28
   2 -11  -6   27.43    2.14
  -2  11   6   24.33    3.24
  -2  11   6   30.37    2.46
   1 -11  -6    4.92    0.97
   1 -11  -6    5.19    0.96
  -1  11   6    3.57    1.61
  -1  11   6    4.54    1.07
   0 -11  -6   62.63    3.87
   0 -11  -6   70.61    3.97
   0  11   6   69.25    4.57
   0  11   6   60.26    5.72
  -1 -11  -6   11.57    1.19
  -1 -11  -6   10.63    1.21
   1  11   6    9.78    2.00
   1  11   6   12.39    1.37
  -2 -11  -6   20.99    1.70
  -2 -11  -6   21.95    1.74
   2  11   6   23.73    2.05
   2  11   6   20.56    2.81
  -3 -11  -6   40.43    2.57
  -3 -11  -6   39.02    2.57
   3  11   6   41.19    4.06
  -4 -11  -6    0.82    0.67
  -4 -11  -6    2.08    0.78
   4  11   6    1.15    1.34
  -5 -11  -6   34.64    2.28
   5  11   6   28.61    3.47
  -6 -11  -6    9.78    1.20
   6  11   6    9.33    2.08
  -7 -11  -6    9.06    1.23
  -8 -11  -6   23.61    2.07
  -9 -11  -6    0.17    0.99
   9  11   6    0.76    1.00
   1 -12  -6    9.77    1.18
  -1  12   6    8.88    1.31
  -1  12   6   11.02    2.19
   0 -12  -6   36.24    2.49
   0 -12  -6   35.62    2.48
   0  12   6   36.05    4.08
   0  12   6   38.90    2.90
  -1 -12  -6   -0.37    0.73
  -1 -12  -6    0.02    0.73
   1  12   6   -0.31    0.82
   1  12   6   -1.01    1.40
  -2 -12  -6   33.80    2.37
  -2 -12  -6   37.05    2.39
   2  12   6   32.07    3.75
  -3 -12  -6   20.20    1.65
  -3 -12  -6   22.80    1.76
   3  12   6   15.94    2.63
  -4 -12  -6    7.95    1.10
  -4 -12  -6    7.26    1.01
   4  12   6    5.63    1.78
  -5 -12  -6   31.35    2.22
   5  12   6   25.46    3.39
  -6 -12  -6   -0.03    0.88
   6  12   6   -0.75    1.45
  -7 -12  -6   14.83    1.57
   7  12   6   17.75    2.75
  -8 -12  -6   11.92    1.50
   8  12   6   14.64    2.66
   0 -13  -6    4.97    0.98
   0  13   6    3.88    1.89
  -1 -13  -6   10.96    1.27
  -1 -13  -6   13.13    1.33
   1  13   6   11.63    2.41
  -2 -13  -6   32.50    2.30
  -2 -13  -6   31.34    2.23
   2  13   6   28.24    3.65
  -3 -13  -6    2.16    0.85
  -3 -13  -6    1.59    0.90
   3  13   6    3.40    1.70
  -4 -13  -6   15.04    1.47
   4  13   6   16.26    2.57
  -5 -13  -6   13.14    1.42
   5  13   6    9.33    2.21
  -6 -13  -6    2.14    0.96
   6  13   6    1.42    1.74
  -7 -13  -6   10.71    1.41
   7  13   6   13.37    2.59
  -3 -14  -6    0.73    0.87
   3  14   6    1.56    1.71
  -4 -14  -6   13.44    1.48
   4  14   6   12.49    2.54
  -5 -14  -6    2.34    1.04
   5  14   6    0.97    1.64
   5  12  -7    6.02    2.15
   4  12  -7    3.45    1.91
   3  12  -7   25.84    3.44
   2  12  -7    2.18    1.88
   1  12  -7   16.39    1.40
   1  12  -7   21.35    3.03
   0  12  -7    9.16    1.06
   0  12  -7   12.49    2.45
  -1  12  -7    2.68    0.78
  -1  12  -7    2.41    1.79
   6  11  -7   14.14    2.54
   5  11  -7   -1.05    1.48
   4  11  -7   16.22    2.60
   3  11  -7    8.29    2.13
   2  11  -7    4.43    0.85
   2  11  -7    3.73    1.68
   1  11  -7   23.83    3.00
   1  11  -7   18.08    1.48
   0  11  -7    0.33    1.57
   0  11  -7    0.33    0.67
  -1  11  -7   19.40    1.52
  -1  11  -7   23.70    2.90
  -2  11  -7   24.53    2.96
  -2  11  -7   17.59    1.44
  -3  11  -7    0.55    0.68
   3 -11   7    1.27    0.56
   7  10  -7   15.10    2.55
   6  10  -7    8.63    2.12
   5  10  -7    4.09    1.63
   4  10  -7   26.60    3.24
   3  10  -7    3.47    1.68
   3  10  -7    6.39    0.92
   2  10  -7   27.47    1.72
   2  10  -7   24.17    3.12
   1  10  -7   21.76    2.82
   1  10  -7   19.73    1.51
   0  10  -7    1.95    0.69
   0  10  -7    1.33    1.45
  -1  10  -7   45.60    3.96
  -1  10  -7   34.40    2.17
  -2  10  -7   15.08    2.14
   2 -10   7    9.92    1.08
   3 -10   7    9.50    0.99
   4 -10   7   12.40    1.13
   7   9  -7   33.86    3.73
   6   9  -7    2.53    1.59
   5   9  -7   23.91    2.98
   4   9  -7   19.93    2.61
   3   9  -7    4.57    1.60
   3   9  -7    5.93    0.87
   2   9  -7   52.52    2.79
   2   9  -7   50.28    4.68
   1   9  -7   12.61    1.10
   1   9  -7   16.00    2.30
   0   9  -7   20.48    1.42
   0   9  -7   18.46    2.39
  -1   9  -7   57.49    4.67
   1  -9   7   50.48    3.19
  -2   9  -7    1.00    1.12
   2  -9   7    2.03    0.66
  -3   9  -7   50.57    3.44
  -4   9  -7    6.80    0.87
   4  -9   7    6.63    0.87
   5  -9   7    5.49    0.81
   8   8  -7   16.28    1.64
   7   8  -7   14.98    1.50
   6   8  -7    4.39    1.52
   6   8  -7    0.99    0.76
   5   8  -7   39.39    3.46
   5   8  -7   31.39    2.27
   4   8  -7   15.94    2.13
   4   8  -7   10.95    1.10
   3   8  -7   31.69    3.36
   3   8  -7   34.01    2.52
   3   8  -7   32.52    2.00
   2   8  -7   77.98    3.82
   2   8  -7   69.99    6.03
   2   8  -7   78.78    4.91
   1   8  -7   -0.46    1.17
   1   8  -7   -0.18    0.53
   1   8  -7    0.78    0.65
   0   8  -7   80.21    5.96
   0   8  -7   72.91    3.73
   0   8  -7   74.22    4.72
   0  -8   7   74.31    4.31
  -1   8  -7   25.41    2.72
  -1   8  -7   24.36    1.80
  -1   8  -7   25.78    2.08
   1  -8   7   22.69    1.78
  -2   8  -7   29.23    2.25
  -2   8  -7   26.92    1.88
  -2   8  -7   30.21    2.90
   2  -8   7   25.76    1.91
  -3   8  -7   41.50    3.10
  -3   8  -7   43.93    3.81
   3  -8   7   45.44    2.71
  -4   8  -7    1.60    0.73
   4  -8   7    2.16    0.70
  -5   8  -7   17.62    1.66
   5  -8   7   20.56    1.50
  -6   8  -7   11.15    1.25
   6  -8   7   14.07    1.22
   8   7  -7   15.07    1.62
   7   7  -7    3.91    0.96
   6   7  -7   15.66    1.50
   5   7  -7   51.01    3.10
   4   7  -7   -0.57    0.51
   4   7  -7    0.75    0.76
   4   7  -7    0.70    1.00
   3   7  -7   88.37    6.14
   3   7  -7   81.40    5.09
   3   7  -7   67.67    4.32
   3   7  -7   80.15    3.91
   2   7  -7   15.25    1.35
   2   7  -7   20.44    1.68
   2   7  -7   20.64    2.32
   2   7  -7   19.12    1.30
   1   7  -7   36.85    2.07
   1   7  -7   37.81    3.49
   1   7  -7   38.45    2.66
  -1  -7   7   35.18    2.38
   0   7  -7   85.60    5.36
   0   7  -7   91.46    6.57
   0   7  -7   84.23    5.66
   0  -7   7   83.56    4.82
  -1   7  -7    0.67    0.53
  -1   7  -7    0.65    1.00
  -1   7  -7    2.46    0.75
   1  -7   7    0.66    0.55
  -2   7  -7   66.53    4.70
  -2   7  -7   70.02    5.34
  -2   7  -7   71.65    4.35
   2  -7   7   71.45    4.01
  -3   7  -7   36.52    2.46
  -3   7  -7   39.30    3.36
  -3   7  -7   36.43    2.83
   3  -7   7   41.79    2.45
  -4   7  -7    2.99    0.42
  -4   7  -7    3.49    0.86
   4  -7   7    3.03    0.65
  -5   7  -7   44.48    3.13
   5  -7   7   42.78    2.49
   5  -7   7   41.00    2.57
  -6   7  -7    3.29    0.84
   6  -7   7    2.33    0.66
  -7   7  -7   13.48    1.47
   8   6  -7   17.05    1.66
   7   6  -7    0.18    0.78
   6   6  -7   47.49    2.99
   5   6  -7   28.06    1.96
   5   6  -7   28.10    2.37
   4   6  -7   18.06    1.48
   4   6  -7   21.55    1.87
   3   6  -7   81.86    5.11
   3   6  -7   98.43    4.59
   3   6  -7  104.41    6.03
   2   6  -7    4.21    0.86
   2   6  -7    5.21    1.29
   2   6  -7    3.68    0.62
   1   6  -7   80.05    4.87
   1   6  -7   73.77    3.72
   1   6  -7   76.48    5.09
   1   6  -7   75.51    4.22
   1   6  -7   77.79    5.80
  -1  -6   7   72.87    4.29
   0   6  -7   94.74    6.56
   0   6  -7   93.46    5.52
   0   6  -7   86.80    5.77
   0  -6   7   77.99    4.86
  -1   6  -7   28.89    2.60
  -1   6  -7   21.91    2.06
  -1   6  -7   26.31    1.95
   1  -6   7   26.66    1.78
  -2   6  -7  138.79    9.09
  -2   6  -7  142.53   10.02
  -2   6  -7  145.21    8.65
   2  -6   7  148.36    7.71
  -3   6  -7   14.29    1.31
  -3   6  -7   16.05    1.89
  -3   6  -7   15.53    1.53
   3  -6   7   14.67    1.21
  -4   6  -7   20.23    1.58
  -4   6  -7   22.07    1.86
   4  -6   7   20.71    1.47
  -5   6  -7   27.01    2.24
  -5   6  -7   28.63    1.91
   5  -6   7   28.83    1.84
   5  -6   7   29.24    1.83
  -6   6  -7    4.56    0.88
   6  -6   7    5.05    0.71
   6  -6   7    4.42    0.67
  -7   6  -7   26.09    2.18
   8   5  -7   11.47    1.38
   7   5  -7   11.78    1.31
   6   5  -7   75.83    4.38
   5   5  -7    5.77    0.87
   5   5  -7    7.38    1.10
   4   5  -7   91.41    5.33
   4   5  -7  104.24    6.21
   3   5  -7   58.45    2.84
   3   5  -7   55.46    3.70
   3   5  -7   49.82    3.12
   2   5  -7   29.21    2.03
   2   5  -7   34.62    2.47
   2   5  -7   31.83    2.56
   2   5  -7   31.63    1.85
   2   5  -7   42.07    3.09
   1   5  -7  134.82    7.58
   1   5  -7  137.63    6.67
   1   5  -7  156.88    8.75
   1   5  -7  142.69    9.08
   1   5  -7  156.69   10.11
  -1  -5   7  133.58    7.66
   0   5  -7    7.75    0.96
   0   5  -7    7.13    1.28
   0   5  -7    7.29    0.98
   0   5  -7    7.54    0.80
   0  -5   7    7.59    0.84
  -1   5  -7  141.40    7.98
  -1   5  -7  158.74    9.22
  -1   5  -7  158.52   10.53
  -1   5  -7  146.77    9.57
   1  -5   7  156.69    8.12
  -2   5  -7   99.65    6.20
  -2   5  -7   99.81    7.11
  -2   5  -7  102.17    6.47
   2  -5   7   98.51    5.44
  -3   5  -7    2.32    0.90
  -3   5  -7    2.15    0.66
  -3   5  -7    3.32    0.71
   3  -5   7    2.49    0.55
  -4   5  -7   88.70    6.12
  -4   5  -7  103.44    5.95
   4  -5   7   93.90    5.12
  -5   5  -7    9.23    1.08
  -5   5  -7   11.66    1.21
   5  -5   7    9.04    0.88
   5  -5   7    9.91    0.92
  -6   5  -7   54.17    3.49
  -6   5  -7   56.34    3.69
   6  -5   7   50.08    3.03
   6  -5   7   52.93    3.05
  -7   5  -7   28.62    2.33
  -7   5  -7   28.66    2.08
   7  -5   7   31.66    1.95
  -8   5  -7    0.12    0.73
   8  -5   7   -0.04    0.64
   8   4  -7    1.92    0.93
   7   4  -7   33.73    2.38
   6   4  -7   44.55    2.86
   6   4  -7   47.01    3.36
   5   4  -7   12.49    1.25
   5   4  -7   14.49    1.60
   4   4  -7   74.56    4.40
   4   4  -7   84.40    5.16
   3   4  -7    2.10    0.55
   3   4  -7    1.45    0.73
   3   4  -7    3.36    0.58
   2   4  -7  156.58    8.12
   2   4  -7  152.82    7.15
   2   4  -7  160.90    9.73
   2   4  -7  141.32    8.11
   2   4  -7  160.66    9.37
  -2  -4   7  151.90    8.21
   1   4  -7  273.37   12.55
   1   4  -7  302.95   14.36
   1   4  -7  308.09   18.62
   1   4  -7  267.45   16.37
   1   4  -7  260.91   17.02
  -1  -4   7  248.60   14.39
   0   4  -7    3.36    0.74
   0   4  -7    3.59    0.95
   0   4  -7    3.68    0.75
   0   4  -7    4.39    0.64
   0  -4   7    4.28    0.63
  -1   4  -7  225.36   13.58
  -1   4  -7  233.07   14.79
  -1   4  -7  199.76   11.38
  -1   4  -7  219.44   13.06
   1  -4   7  218.57   11.47
  -2   4  -7   35.89    2.72
  -2   4  -7   39.03    3.05
  -2   4  -7   38.76    2.20
  -2   4  -7   39.81    2.70
   2  -4   7   35.10    2.26
  -3   4  -7   50.99    3.90
  -3   4  -7   60.51    4.39
  -3   4  -7   69.52    3.95
   3  -4   7   56.48    3.28
  -4   4  -7  107.20    7.20
  -4   4  -7  130.74    7.10
   4  -4   7  106.83    6.05
  -5   4  -7    0.78    0.60
  -5   4  -7    0.20    0.54
   5  -4   7    0.93    0.41
   5  -4   7    0.07    0.50
  -6   4  -7   47.25    3.31
  -6   4  -7   49.79    3.28
   6  -4   7   43.94    2.73
   6  -4   7   50.85    2.82
  -7   4  -7   22.04    1.89
  -7   4  -7   22.56    1.91
   7  -4   7   23.89    1.67
  -8   4  -7    2.01    0.77
  -8   4  -7    2.85    0.81
   8  -4   7    2.06    0.75
   8   3  -7    1.99    0.92
   7   3  -7   64.46    3.88
   6   3  -7   12.14    1.44
   6   3  -7   11.60    1.20
   5   3  -7   58.56    3.78
   5   3  -7   48.69    3.14
   4   3  -7   99.07    5.69
   4   3  -7  111.29    6.63
   3   3  -7    0.74    0.48
   3   3  -7    0.39    0.57
   2   3  -7  257.19   14.61
   2   3  -7  284.17   14.63
   2   3  -7  285.78   17.40
   2   3  -7  278.66   12.81
   2   3  -7  298.66   16.76
  -2  -3   7  283.28   17.26
  -2  -3   7  290.62   14.73
   1   3  -7  143.11    6.61
   1   3  -7  152.24    7.53
   1   3  -7  136.28    8.97
   1   3  -7  148.16    8.68
  -1  -3   7  130.61    7.57
   0   3  -7   68.87    4.76
   0   3  -7   66.11    4.59
   0   3  -7   73.21    4.00
   0   3  -7   68.68    5.21
   0   3  -7   81.79    3.99
   0  -3   7   71.67    4.02
  -1   3  -7  213.93   13.18
  -1   3  -7  190.17   11.07
  -1   3  -7  214.16   14.27
  -1   3  -7  237.53   12.76
   1  -3   7  209.58   11.13
  -2   3  -7    1.05    0.63
  -2   3  -7    1.85    0.65
  -2   3  -7    1.23    0.52
  -2   3  -7    1.10    0.41
   2  -3   7    1.31    0.41
  -3   3  -7  180.91   10.65
  -3   3  -7  184.54    9.21
  -3   3  -7  185.10   11.96
  -3   3  -7  157.91   10.95
   3  -3   7  177.58    9.26
  -4   3  -7   65.29    4.74
  -4   3  -7   67.11    4.29
  -4   3  -7   60.73    4.18
   4  -3   7   67.34    3.59
  -5   3  -7   33.56    2.36
  -5   3  -7   31.51    2.32
   5  -3   7   29.91    1.91
   5  -3   7   33.40    2.02
  -6   3  -7   73.66    5.01
  -6   3  -7   80.87    4.94
   6  -3   7   77.44    4.27
   6  -3   7   77.03    4.21
  -7   3  -7    1.72    0.76
  -7   3  -7    2.67    0.70
   7  -3   7    2.63    0.68
  -8   3  -7   29.03    2.23
  -8   3  -7   25.14    2.13
   8  -3   7   27.06    1.91
  -9   3  -7   11.28    1.35
   9  -3   7   13.55    1.29
   8   2  -7   19.30    1.87
   7   2  -7   58.62    3.59
   6   2  -7    0.48    0.68
   5   2  -7  108.87    6.58
   5   2  -7   97.46    5.62
   4   2  -7   83.55    5.12
   4   2  -7   78.64    4.33
   4   2  -7   73.56    4.34
   3   2  -7   87.67    5.36
   3   2  -7   80.57    4.59
   3   2  -7   83.06    4.56
   2   2  -7  193.02    9.31
   2   2  -7  190.27   10.64
   2   2  -7  225.56   12.27
   2   2  -7  203.84   12.69
  -2  -2   7  203.86   12.55
  -2  -2   7  208.56   10.73
   1   2  -7   17.26    1.49
   1   2  -7   16.81    1.13
   1   2  -7   14.75    1.52
   1   2  -7   19.08    1.23
  -1  -2   7   15.83    1.38
  -1  -2   7   15.99    1.24
  -1  -2   7   17.11    1.42
   0   2  -7  314.11   14.39
   0   2  -7  265.88   14.37
   0   2  -7  290.95   18.44
   0   2  -7  251.94   17.00
   0   2  -7  279.77   16.42
   0  -2   7  285.11   16.96
   0  -2   7  252.16   14.37
  -1   2  -7  108.63    6.04
  -1   2  -7  109.98    5.99
  -1   2  -7  110.93    7.17
  -1   2  -7  114.68    7.74
  -1   2  -7  122.07    6.98
   1  -2   7  110.78    6.05
  -2   2  -7   82.04    4.99
  -2   2  -7   81.53    4.29
  -2   2  -7   86.48    4.26
  -2   2  -7   83.75    5.53
  -2   2  -7   65.20    5.04
   2  -2   7   73.06    4.27
  -3   2  -7  179.71   11.78
  -3   2  -7  203.47   10.30
  -3   2  -7  197.12   12.22
  -3   2  -7  212.13   13.26
   3  -2   7  198.05   10.31
  -4   2  -7    3.97    0.68
  -4   2  -7    5.06    0.85
  -4   2  -7    5.89    0.60
  -4   2  -7    6.14    0.80
   4  -2   7    5.34    0.57
  -5   2  -7   93.46    5.69
  -5   2  -7   95.80    5.84
   5  -2   7   91.15    4.97
   5  -2   7   84.78    4.87
  -6   2  -7   48.81    3.27
  -6   2  -7   47.88    3.31
   6  -2   7   47.79    2.76
   6  -2   7   49.78    2.86
  -7   2  -7    9.10    1.09
  -7   2  -7   11.17    1.19
   7  -2   7   11.71    1.05
  -8   2  -7   35.96    2.77
  -8   2  -7   37.68    2.79
   8  -2   7   41.59    2.50
  -9   2  -7    2.14    0.86
  -9   2  -7    2.18    0.79
   9  -2   7    2.24    0.84
   8   1  -7   28.02    2.19
   7   1  -7   15.83    1.54
   6   1  -7   18.95    1.60
   5   1  -7   67.81    4.44
   5   1  -7   63.43    3.78
   4   1  -7   -0.25    0.51
   4   1  -7   -0.58    0.64
   4   1  -7    0.38    0.45
   3   1  -7  217.05   10.90
   3   1  -7  193.32   10.91
   3   1  -7  216.09   12.53
   2   1  -7  114.82    7.14
   2   1  -7  107.93    5.20
   2   1  -7   99.60    5.93
   2   1  -7  121.22    6.92
   2   1  -7  114.10    5.93
  -2  -1   7  109.60    5.98
  -2  -1   7  109.23    6.97
   1   1  -7   40.27    2.77
   1   1  -7   38.95    2.05
  -1  -1   7   40.03    2.71
  -1  -1   7   35.98    2.31
   0   1  -7  332.71   21.64
   0   1  -7  374.20   18.29
   0   1  -7  328.50   18.28
   0   1  -7  366.98   20.88
   0  -1   7  340.90   18.31
   0  -1   7  383.70   21.61
  -1   1  -7   26.42    1.78
  -1   1  -7   28.38    2.25
  -1   1  -7   27.59    2.06
  -1   1  -7   27.68    1.73
  -1   1  -7   27.05    2.11
   1  -1   7   29.44    2.10
   1  -1   7   27.83    1.75
  -2   1  -7  240.82   16.14
  -2   1  -7  273.15   13.65
  -2   1  -7  275.46   13.69
  -2   1  -7  234.45   15.55
  -2   1  -7  288.40   17.46
   2  -1   7  270.35   13.68
  -3   1  -7  175.28    8.67
  -3   1  -7  179.84   11.11
  -3   1  -7  162.99    8.68
  -3   1  -7  163.81    9.94
  -3   1  -7  157.24   10.27
   3  -1   7  156.41    8.66
  -4   1  -7   11.55    0.98
  -4   1  -7   10.83    1.14
  -4   1  -7   14.44    1.34
  -4   1  -7   12.02    1.16
   4  -1   7   13.03    0.99
  -5   1  -7  160.96    8.23
  -5   1  -7  152.19    9.44
  -5   1  -7  153.09    9.75
   5  -1   7  163.56    8.32
   5  -1   7  156.31    8.23
  -6   1  -7   11.58    1.18
  -6   1  -7   10.07    1.08
   6  -1   7    9.30    0.91
   6  -1   7   10.90    1.00
  -7   1  -7   43.71    3.09
  -7   1  -7   42.42    3.04
   7  -1   7   47.17    2.73
  -8   1  -7   41.12    2.99
  -8   1  -7   40.55    3.02
   8  -1   7   46.63    2.71
  -9   1  -7   -0.38    0.67
  -9   1  -7    0.30    0.77
   9  -1   7    0.60    0.76
  10  -1   7   18.60    1.73
   8   0  -7   35.75    2.61
   7   0  -7   -0.43    0.73
   6   0  -7   61.98    3.68
   5   0  -7   69.58    3.87
   5   0  -7   66.35    3.91
   4   0  -7   37.70    2.46
   4   0  -7   41.84    2.94
   4   0  -7   40.77    2.42
   3   0  -7  313.43   15.72
   3   0  -7  274.58   15.70
   3   0  -7  320.36   18.01
  -3   0   7  306.91   18.55
   2   0  -7   38.79    2.66
   2   0  -7   36.55    2.74
   2   0  -7   35.21    2.18
  -2   0   7   36.78    2.69
  -2   0   7   37.38    2.26
   1   0  -7  200.85   13.04
   1   0  -7  202.23    9.58
   1   0  -7  223.76   12.62
   1   0  -7  221.21   10.99
  -1   0   7  204.52   11.01
   0   0  -7  310.68   20.38
   0   0  -7  322.51   17.24
   0   0  -7  340.17   19.66
   0   0   7  333.52   17.25
   0   0   7  360.72   20.36
  -1   0  -7   26.17    2.08
  -1   0  -7   25.49    1.69
  -1   0  -7   29.74    2.16
  -1   0  -7   27.37    2.05
  -1   0  -7   27.21    1.79
   1   0   7   26.38    1.74
   1   0   7   29.39    2.09
  -2   0  -7  402.40   25.25
  -2   0  -7  355.58   22.54
  -2   0  -7  352.99   23.41
  -2   0  -7  406.78   19.83
  -2   0  -7  384.05   19.84
   2   0   7  425.64   23.45
   2   0   7  368.90   19.81
  -3   0  -7   62.83    4.15
  -3   0  -7   64.06    3.62
  -3   0  -7   70.09    4.55
  -3   0  -7   70.11    3.60
  -3   0  -7   61.53    4.26
   3   0   7   63.08    3.58
  -4   0  -7  112.95    7.36
  -4   0  -7  112.35    7.60
  -4   0  -7  129.88    6.48
  -4   0  -7  128.95    6.44
   4   0   7  124.24    6.43
  -5   0  -7  173.60   10.93
  -5   0  -7  178.50   10.57
  -5   0  -7  182.86    9.26
   5   0   7  177.47    9.31
   5   0   7  171.82    9.22
  -6   0  -7    2.47    0.55
  -6   0  -7    1.50    0.61
  -6   0  -7    1.94    0.57
   6   0   7    2.08    0.47
   6   0   7    2.41    0.60
  -7   0  -7   70.56    4.62
  -7   0  -7   69.10    4.73
   7   0   7   77.72    4.13
  -8   0  -7   18.99    1.71
  -8   0  -7   18.63    1.71
   8   0   7   20.56    1.57
  -9   0  -7   11.26    1.30
   9   0   7   11.66    1.21
  10   0   7   18.02    1.74
   8  -1  -7   19.45    1.81
   7  -1  -7    4.84    0.97
   6  -1  -7   71.78    4.18
   5  -1  -7   16.25    1.30
   5  -1  -7   13.79    1.34
   4  -1  -7   61.75    3.85
   4  -1  -7   73.20    4.54
   4  -1  -7   70.05    3.83
   3  -1  -7  134.71    6.60
   3  -1  -7  110.97    6.59
   3  -1  -7  130.24    7.63
  -3   1   7  124.29    7.76
  -3   1   7  117.07    8.65
   2  -1  -7   19.87    1.68
   2  -1  -7   13.23    1.28
   2  -1  -7   18.56    1.63
   2  -1  -7   19.13    1.29
  -2   1   7   17.99    1.52
  -2   1   7   18.04    1.49
   1  -1  -7  280.11   15.75
   1  -1  -7  300.19   18.68
   1  -1  -7  343.79   18.06
   1  -1  -7  325.69   15.77
  -1   1   7  290.89   15.76
  -1   1   7  274.31   21.11
  -1   1   7  319.71   18.61
   0  -1  -7  148.36    7.21
   0  -1  -7  127.72    7.22
   0  -1  -7  127.49    8.52
   0  -1  -7  138.85    8.26
   0   1   7  133.56    7.19
  -1  -1  -7   71.82    5.03
  -1  -1  -7   72.60    4.86
  -1  -1  -7   79.19    4.32
   1   1   7   77.34    4.25
   1   1   7   85.93    5.06
  -2  -1  -7  181.86   12.65
  -2  -1  -7  210.95   10.78
  -2  -1  -7  189.99   12.21
  -2  -1  -7  208.79   13.56
  -2  -1  -7  211.80   10.74
   2   1   7  234.47   12.74
   2   1   7  203.12   10.73
  -3  -1  -7    3.14    0.49
  -3  -1  -7    3.63    0.57
  -3  -1  -7    3.68    0.60
  -3  -1  -7    3.80    0.54
  -3  -1  -7    2.92    0.59
   3   1   7    4.17    0.64
   3   1   7    3.47    0.49
  -4  -1  -7  204.21   10.85
  -4  -1  -7  225.81   10.86
  -4  -1  -7  202.11   12.35
  -4  -1  -7  202.67   12.80
   4   1   7  208.76   10.89
   4   1   7  205.64   10.81
  -5  -1  -7   51.08    3.26
  -5  -1  -7   54.67    2.85
  -5  -1  -7   51.38    2.85
  -5  -1  -7   43.58    3.27
   5   1   7   47.33    2.77
   5   1   7   47.84    2.87
  -6  -1  -7   38.25    2.22
  -6  -1  -7   32.27    2.45
  -6  -1  -7   32.96    2.51
   6   1   7   39.25    2.29
  -7  -1  -7   66.65    4.35
  -7  -1  -7   63.38    4.22
   7   1   7   66.86    3.78
  -8  -1  -7    1.88    0.69
  -8  -1  -7    1.15    0.64
   8   1   7    2.48    0.78
  -9  -1  -7   24.85    2.07
   9   1   7   27.90    1.99
  10   1   7    9.96    1.24
   7  -2  -7   29.07    2.17
   6  -2  -7   27.03    1.99
   5  -2  -7    1.63    0.68
   5  -2  -7    2.28    0.64
   4  -2  -7   96.60    5.91
   4  -2  -7  119.64    5.93
  -4   2   7  110.62    6.97
   3  -2  -7   56.99    3.12
   3  -2  -7   57.38    3.70
  -3   2   7   52.94    3.66
  -3   2   7   50.45    4.02
   2  -2  -7  111.40    6.04
   2  -2  -7  122.10    7.03
  -2   2   7  103.18    8.00
  -2   2   7  116.16    6.93
  -2   2   7  112.47    7.13
   1  -2  -7  231.61   12.60
   1  -2  -7  237.90   14.91
   1  -2  -7  262.34   14.42
   1  -2  -7  261.27   12.59
  -1   2   7  245.42   14.32
  -1   2   7  205.92   16.83
  -1   2   7  248.53   14.84
   0  -2  -7    0.89    0.51
   0  -2  -7    0.80    0.49
   0  -2  -7    1.02    0.43
   0  -2  -7    1.29    0.57
   0   2   7    0.63    0.45
   0   2   7    0.44    0.43
   0   2   7    1.01    0.40
  -1  -2  -7  296.76   18.84
  -1  -2  -7  339.18   15.99
  -1  -2  -7  290.65   18.13
  -1  -2  -7  300.15   15.99
   1   2   7  313.58   15.96
  -2  -2  -7   55.96    3.71
  -2  -2  -7   49.61    3.76
  -2  -2  -7   57.39    3.28
  -2  -2  -7   59.20    3.90
   2   2   7   63.93    3.87
   2   2   7   57.13    3.22
  -3  -2  -7  135.12    7.42
  -3  -2  -7  145.54    9.24
  -3  -2  -7  126.56    8.71
  -3  -2  -7  134.86    8.43
  -3  -2  -7  150.55    7.43
   3   2   7  133.18    7.37
   3   2   7  154.37    8.80
  -4  -2  -7  216.76   11.40
  -4  -2  -7  214.90   12.95
  -4  -2  -7  232.41   11.39
  -4  -2  -7  214.78   13.43
   4   2   7  208.79   11.34
   4   2   7  231.98   13.47
   4   2   7  210.26   11.41
  -5  -2  -7    5.70    0.66
  -5  -2  -7    4.79    0.69
  -5  -2  -7    5.52    0.68
  -5  -2  -7    5.32    0.78
   5   2   7    4.92    0.71
   5   2   7    5.18    0.61
  -6  -2  -7   91.29    5.72
  -6  -2  -7   85.74    5.87
  -6  -2  -7   95.49    5.04
   6   2   7   96.46    5.08
  -7  -2  -7   52.21    3.50
  -7  -2  -7   54.46    3.13
  -7  -2  -7   51.41    3.58
   7   2   7   53.04    3.14
  -8  -2  -7    7.30    1.00
   8   2   7    8.04    1.00
  -9  -2  -7   34.08    2.68
   9   2   7   41.65    2.60
  10   2   7    0.70    0.86
   7  -3  -7   30.13    2.27
   6  -3  -7   11.09    1.24
   6  -3  -7   14.38    1.29
   5  -3  -7   29.93    2.26
   5  -3  -7   37.44    2.26
   4  -3  -7  139.40    7.11
  -4   3   7  124.24    8.34
  -4   3   7  132.75    9.50
   3  -3  -7    2.32    0.62
   3  -3  -7    3.43    0.58
  -3   3   7    3.59    0.70
  -3   3   7    2.62    0.77
   2  -3  -7  176.04   10.53
   2  -3  -7  181.68    9.20
   2  -3  -7  160.77    9.21
  -2   3   7  158.06   12.29
  -2   3   7  188.08   10.54
  -2   3   7  182.40   10.86
   1  -3  -7   46.22    2.74
   1  -3  -7   44.00    2.80
   1  -3  -7   47.16    3.23
  -1   3   7   47.50    3.17
  -1   3   7   47.97    3.25
   0  -3  -7   70.82    4.75
   0  -3  -7   73.87    4.94
   0  -3  -7   82.43    4.20
   0  -3  -7   70.65    4.21
   0   3   7   80.89    4.95
   0   3   7   69.78    4.74
  -1  -3  -7  318.88   15.36
  -1  -3  -7  283.27   17.42
  -1  -3  -7  278.12   15.36
  -1  -3  -7  268.06   18.07
   1   3   7  303.77   18.11
   1   3   7  312.68   17.46
   1   3   7  303.29   15.32
  -2  -3  -7   16.59    1.26
  -2  -3  -7   16.42    1.32
  -2  -3  -7   17.26    1.23
  -2  -3  -7   16.37    1.44
  -2  -3  -7   15.40    1.39
   2   3   7   16.23    1.21
  -3  -3  -7  223.48   13.84
  -3  -3  -7  210.19   11.09
  -3  -3  -7  203.89   13.03
  -3  -3  -7  201.20   12.55
  -3  -3  -7  220.31   11.07
   3   3   7  207.27   11.02
   3   3   7  231.98   13.10
   3   3   7  193.78   11.05
  -4  -3  -7  185.67   11.79
  -4  -3  -7  189.74   10.03
  -4  -3  -7  204.92   10.03
  -4  -3  -7  184.42   11.36
   4   3   7  177.32   10.00
   4   3   7  210.44   11.86
   4   3   7  184.98    9.96
  -5  -3  -7   13.49    1.30
  -5  -3  -7   15.15    1.19
  -5  -3  -7   14.00    1.22
  -5  -3  -7   18.94    1.39
   5   3   7   14.92    1.14
   5   3   7   16.25    1.27
  -6  -3  -7  108.70    6.65
  -6  -3  -7  111.63    5.88
  -6  -3  -7  104.64    6.85
   6   3   7  107.98    5.87
  -7  -3  -7    2.39    0.68
  -7  -3  -7    2.21    0.66
   7   3   7    2.39    0.68
  -8  -3  -7   38.96    2.51
  -8  -3  -7   36.61    2.77
   8   3   7   42.88    2.58
  -9  -3  -7   21.92    1.94
   9   3   7   24.91    1.94
  10   3   7    0.77    0.96
   6  -4  -7   -0.07    0.59
   6  -4  -7   -0.13    0.72
   5  -4  -7   75.00    4.26
   4  -4  -7   46.14    2.75
   4  -4  -7   44.04    2.85
  -4   4   7   45.75    3.26
  -4   4   7   46.01    3.74
   3  -4  -7   65.46    3.90
   3  -4  -7   66.78    3.82
  -3   4   7   75.62    4.56
  -3   4   7   62.41    5.11
   2  -4  -7  297.51   14.49
   2  -4  -7  279.02   14.53
   2  -4  -7  267.22   16.49
  -2   4   7  247.21   19.47
  -2   4   7  299.33   17.11
   1  -4  -7   26.47    1.90
   1  -4  -7   28.42    2.17
   1  -4  -7   29.42    1.83
  -1   4   7   23.04    2.39
  -1   4   7   28.99    2.16
  -1   4   7   27.56    2.17
   0  -4  -7  175.98    9.49
   0  -4  -7  191.03    9.45
   0  -4  -7  182.01   10.76
   0   4   7  196.40   11.17
   0   4   7  147.64   12.68
   0   4   7  178.82   10.76
  -1  -4  -7  167.04   11.33
  -1  -4  -7  179.98   10.95
  -1  -4  -7  176.06    9.68
  -1  -4  -7  179.53    9.62
   1   4   7  195.61   10.99
   1   4   7  197.46   11.39
  -2  -4  -7   66.21    3.86
  -2  -4  -7   65.75    4.33
  -2  -4  -7   74.30    4.51
  -2  -4  -7   71.30    3.82
  -2  -4  -7   59.28    4.41
   2   4   7   64.65    3.82
   2   4   7   72.54    4.50
   2   4   7   64.14    3.76
  -3  -4  -7  275.24   13.92
  -3  -4  -7  259.72   16.36
  -3  -4  -7  260.65   15.75
  -3  -4  -7  279.81   13.89
   3   4   7  259.25   13.87
  -4  -4  -7   14.82    1.21
  -4  -4  -7   14.81    1.15
  -4  -4  -7   12.64    1.24
  -4  -4  -7   13.69    1.31
   4   4   7   15.71    1.38
   4   4   7   12.45    1.17
  -5  -4  -7   82.67    4.83
  -5  -4  -7   89.69    5.49
  -5  -4  -7   88.73    5.66
  -5  -4  -7   96.86    4.86
   5   4   7   81.97    4.83
  -6  -4  -7   74.08    4.11
  -6  -4  -7   67.58    4.57
   6   4   7   76.34    4.13
  -7  -4  -7    3.63    0.74
  -7  -4  -7    6.22    0.84
   7   4   7    3.34    0.77
  -8  -4  -7   65.22    3.74
  -8  -4  -7   63.00    4.14
   8   4   7   60.96    3.73
  -9  -4  -7    8.92    1.16
   9   4   7    9.60    1.19
 -10  -4  -7    9.66    1.28
  10   4   7   11.06    1.34
  11   4   7   11.27    1.48
   6  -5  -7   13.28    1.30
   5  -5  -7   51.45    3.36
   5  -5  -7   57.05    3.29
   4  -5  -7    2.73    0.84
   4  -5  -7    2.45    0.66
  -4   5   7    2.68    1.06
  -4   5   7    2.78    0.84
   3  -5  -7   90.99    4.99
   3  -5  -7   91.50    5.10
  -3   5   7   98.52    5.94
  -3   5   7   78.71    6.70
   2  -5  -7   69.67    3.67
   2  -5  -7   63.40    3.75
  -2   5   7   50.87    4.84
  -2   5   7   68.82    4.32
   1  -5  -7    3.73    0.79
   1  -5  -7    5.95    0.76
   1  -5  -7    6.39    0.93
  -1   5   7    2.81    0.95
  -1   5   7    4.87    0.86
   0  -5  -7  103.13    6.23
   0  -5  -7  112.66    7.04
   0  -5  -7  125.24    6.22
   0   5   7  122.03    7.33
   0   5   7  119.02    7.10
   0   5   7  100.36    8.38
  -1  -5  -7   19.01    1.41
  -1  -5  -7   18.01    1.58
  -1  -5  -7   17.34    1.47
   1   5   7   18.38    1.64
   1   5   7   15.02    2.05
   1   5   7   16.57    1.40
   1   5   7   18.97    1.64
  -2  -5  -7  194.55   11.94
  -2  -5  -7  199.41   10.57
  -2  -5  -7  206.86   13.07
  -2  -5  -7  201.68   10.53
  -2  -5  -7  184.30   12.37
   2   5   7  216.22   12.45
   2   5   7  189.51   10.48
   2   5   7  206.65   11.97
  -3  -5  -7  132.81    7.38
  -3  -5  -7  129.24    8.33
  -3  -5  -7  155.94    7.41
  -3  -5  -7  128.80    8.63
   3   5   7  130.55    7.34
   3   5   7  150.21    8.71
  -4  -5  -7    3.16    0.67
  -4  -5  -7    4.09    0.65
  -4  -5  -7    4.50    0.76
   4   5   7    4.28    0.67
   4   5   7    2.84    0.51
  -5  -5  -7  120.01    7.75
  -5  -5  -7  142.43    6.91
  -5  -5  -7  127.51    6.89
   5   5   7  121.84    6.84
  -6  -5  -7   30.34    1.98
  -6  -5  -7   26.32    2.08
   6   5   7   29.60    1.96
  -7  -5  -7   28.85    1.96
  -7  -5  -7   23.80    2.07
   7   5   7   29.87    1.97
  -8  -5  -7   31.68    2.23
  -8  -5  -7   31.31    2.42
   8   5   7   34.13    2.28
  -9  -5  -7    0.80    0.79
  -9  -5  -7   -0.23    0.71
   9   5   7    0.42    0.80
 -10  -5  -7   14.03    1.54
  10   5   7   15.30    1.57
  11   5   7    8.27    1.36
   6  -6  -7   28.42    2.11
   6  -6  -7   30.82    2.36
   5  -6  -7   46.06    3.00
   5  -6  -7   51.69    3.22
   4  -6  -7    3.85    0.95
   4  -6  -7    3.00    0.77
  -4   6   7    4.39    0.99
  -4   6   7    3.35    1.17
   3  -6  -7  105.94    5.61
   3  -6  -7  105.58    5.74
  -3   6   7   82.95    7.51
  -3   6   7  110.71    6.66
   2  -6  -7    6.43    0.85
   2  -6  -7    7.44    1.06
  -2   6   7    4.69    1.13
  -2   6   7    8.35    1.10
   1  -6  -7  106.41    5.60
   1  -6  -7   92.51    5.66
  -1   6   7  102.72    6.59
   0  -6  -7  259.85   12.21
   0  -6  -7  220.00   12.21
   0  -6  -7  229.34   13.80
   0   6   7  250.88   14.39
   0   6   7  206.22   16.47
   0   6   7  220.61   12.06
  -1  -6  -7   12.23    1.21
  -1  -6  -7   13.39    1.17
  -1  -6  -7   11.94    1.29
   1   6   7   12.18    1.35
   1   6   7    9.70    1.61
   1   6   7   11.31    1.08
  -2  -6  -7  291.20   17.33
  -2  -6  -7  313.20   15.30
  -2  -6  -7  280.38   15.29
   2   6   7  268.83   15.19
   2   6   7  305.07   17.35
   2   6   7  301.17   18.02
  -3  -6  -7   48.32    3.23
  -3  -6  -7   50.03    2.85
  -3  -6  -7   47.34    2.88
   3   6   7   42.41    2.79
   3   6   7   49.12    3.33
  -4  -6  -7   26.77    1.80
  -4  -6  -7   26.00    1.85
  -4  -6  -7   25.32    2.02
   4   6   7   25.30    1.79
   4   6   7   28.70    2.14
  -5  -6  -7  119.99    6.32
  -5  -6  -7  116.92    6.33
  -5  -6  -7  112.56    7.10
   5   6   7  114.82    6.29
  -6  -6  -7    0.21    0.54
  -6  -6  -7    0.22    0.60
   6   6   7    0.82    0.59
  -7  -6  -7   59.57    4.08
  -7  -6  -7   63.57    3.70
   7   6   7   63.98    3.68
  -8  -6  -7   14.30    1.49
  -8  -6  -7   17.57    1.54
   8   6   7   16.83    1.55
  -9  -6  -7    6.28    1.01
  -9  -6  -7    7.30    1.11
   9   6   7    5.89    1.08
 -10  -6  -7   21.83    2.08
  10   6   7   25.44    2.09
   5  -7  -7   11.36    1.42
   5  -7  -7    8.99    1.20
   4  -7  -7   43.01    2.97
   4  -7  -7   45.02    2.83
  -4   7   7   37.15    3.88
  -4   7   7   49.76    3.44
   3  -7  -7   67.95    4.18
   3  -7  -7   67.58    4.02
  -3   7   7   70.08    4.82
   2  -7  -7    2.61    0.75
   2  -7  -7    3.72    0.96
  -2   7   7    1.77    1.10
  -2   7   7    2.13    0.92
   1  -7  -7  142.90    7.84
  -1   7   7  157.48    9.19
  -1   7   7  127.03   10.44
   0  -7  -7   53.64    3.17
   0  -7  -7   50.19    3.25
   0   7   7   47.76    4.35
   0   7   7   55.05    3.74
  -1  -7  -7  139.38    7.05
  -1  -7  -7  132.58    7.07
   1   7   7  119.58    6.87
   1   7   7  139.37    8.28
   1   7   7  113.19    9.62
  -2  -7  -7   94.89    4.81
  -2  -7  -7   84.92    4.81
  -2  -7  -7   85.79    5.40
   2   7   7   89.03    5.62
   2   7   7   70.66    6.69
   2   7   7   82.45    4.69
  -3  -7  -7    0.10    0.46
  -3  -7  -7   -0.05    0.58
  -3  -7  -7    0.76    0.61
   3   7   7    0.16    0.47
   3   7   7    1.17    0.64
  -4  -7  -7   68.50    3.97
  -4  -7  -7   71.31    3.93
  -4  -7  -7   69.19    4.43
   4   7   7   65.77    3.89
  -5  -7  -7   37.44    2.36
  -5  -7  -7   36.58    2.37
  -5  -7  -7   36.47    2.62
   5   7   7   34.85    2.31
  -6  -7  -7   35.46    2.67
  -6  -7  -7   39.20    2.50
   6   7   7   39.96    2.47
  -7  -7  -7   50.74    3.11
  -7  -7  -7   46.83    3.35
   7   7   7   51.68    3.10
  -8  -7  -7    1.51    0.82
  -8  -7  -7    2.24    0.81
   8   7   7    1.27    0.80
  -9  -7  -7   17.52    1.85
  -9  -7  -7   21.16    1.88
   9   7   7   22.29    1.88
 -10  -7  -7    9.86    1.39
  10   7   7   12.13    1.44
   4  -8  -7   51.08    3.43
   4  -8  -7   55.25    3.28
  -4   8   7   42.95    4.47
  -4   8   7   54.41    3.92
   3  -8  -7   19.30    1.81
   3  -8  -7   18.39    1.65
  -3   8   7   20.58    2.08
  -3   8   7   13.97    2.14
   2  -8  -7   32.95    2.12
   2  -8  -7   25.25    2.18
  -2   8   7   20.05    2.77
  -2   8   7   29.28    2.50
   1  -8  -7  101.49    6.11
   1  -8  -7  122.86    6.12
  -1   8   7  118.09    7.19
  -1   8   7   89.91    8.17
   0  -8  -7    2.11    0.71
   0  -8  -7    0.60    0.72
   0   8   7    0.90    1.04
   0   8   7    0.90    0.77
  -1  -8  -7  109.47    6.20
  -1  -8  -7  118.79    6.20
   1   8   7  121.95    7.28
   1   8   7   93.86    8.49
  -2  -8  -7   55.42    3.14
  -2  -8  -7   52.54    3.16
   2   8   7   48.60    2.99
   2   8   7   43.29    4.52
   2   8   7   54.75    3.67
  -3  -8  -7   10.66    1.08
  -3  -8  -7    9.95    1.04
  -3  -8  -7    9.56    1.15
   3   8   7    7.15    1.77
   3   8   7    9.34    0.97
   3   8   7    9.37    1.16
  -4  -8  -7  151.56    7.89
  -4  -8  -7  146.88    8.92
  -4  -8  -7  139.84    7.88
   4   8   7  146.72    7.83
  -5  -8  -7    8.19    0.99
  -5  -8  -7    7.26    0.98
   5   8   7    6.94    0.91
  -6  -8  -7   59.48    3.49
  -6  -8  -7   55.49    3.85
   6   8   7   58.08    3.46
  -7  -8  -7   26.59    2.18
  -7  -8  -7   29.05    2.12
   7   8   7   29.76    2.11
  -8  -8  -7    1.71    0.86
  -8  -8  -7    1.54    0.84
   8   8   7    1.28    0.83
  -9  -8  -7   28.16    2.24
  -9  -8  -7   25.41    2.28
   9   8   7   27.78    2.21
 -10  -8  -7    3.24    1.07
 -10  -8  -7    3.13    1.12
  10   8   7    3.24    1.12
   4  -9  -7   30.53    2.54
  -4   9   7   30.72    3.53
  -4   9   7   37.82    3.07
   3  -9  -7   -0.34    0.90
   3  -9  -7   -0.67    0.84
  -3   9   7    0.09    1.24
  -3   9   7   -1.70    0.95
   2  -9  -7   76.55    5.06
   2  -9  -7   97.56    5.13
  -2   9   7   71.93    6.79
  -2   9   7   98.94    6.01
   1  -9  -7   53.74    3.50
   1  -9  -7   55.35    3.45
  -1   9   7   62.98    4.10
  -1   9   7   45.51    4.76
   0  -9  -7   16.73    1.57
   0  -9  -7   15.39    1.48
   0   9   7   17.78    1.85
   0   9   7   14.51    2.18
  -1  -9  -7   93.13    4.99
  -1  -9  -7   87.32    4.98
   1   9   7   94.92    5.83
   1   9   7   68.14    6.83
  -2  -9  -7   10.69    1.13
  -2  -9  -7    8.53    1.12
   2   9   7    9.33    1.21
   2   9   7    8.70    1.82
  -3  -9  -7   70.18    3.77
  -3  -9  -7   61.72    3.74
   3   9   7   55.43    5.47
  -4  -9  -7   63.99    3.91
  -4  -9  -7   71.36    3.95
   4   9   7   65.57    3.86
  -5  -9  -7    8.79    1.10
   5   9   7   10.15    1.11
  -6  -9  -7   48.26    3.04
   6   9   7   47.38    3.01
  -7  -9  -7    3.76    0.92
  -7  -9  -7    4.92    0.98
   7   9   7    5.25    0.96
  -8  -9  -7   13.12    1.51
  -8  -9  -7   13.99    1.49
   8   9   7   14.53    1.48
  -9  -9  -7   16.05    1.79
  -9  -9  -7   15.84    1.68
   9   9   7   17.31    1.67
 -10  -9  -7    0.35    0.93
 -10  -9  -7    0.39    1.01
  10   9   7   -1.07    1.03
   3 -10  -7    4.14    1.12
  -3  10   7    4.38    1.71
  -3  10   7    5.99    1.34
   2 -10  -7   53.42    3.54
   2 -10  -7   55.82    3.48
  -2  10   7   44.63    4.77
  -2  10   7   57.19    4.03
   1 -10  -7    2.30    0.99
   1 -10  -7    4.09    1.09
  -1  10   7    3.02    1.48
  -1  10   7    4.21    1.12
   0 -10  -7   36.51    2.65
   0 -10  -7   38.67    2.63
   0  10   7   41.13    3.07
   0  10   7   33.62    3.80
  -1 -10  -7   45.65    3.12
  -1 -10  -7   55.46    3.20
   1  10   7   42.72    4.55
   1  10   7   54.79    3.73
  -2 -10  -7    5.17    0.94
  -2 -10  -7    5.09    0.98
   2  10   7    5.05    1.69
  -3 -10  -7   68.76    4.14
  -3 -10  -7   79.83    4.22
   3  10   7   61.37    6.05
  -4 -10  -7    9.58    1.12
  -4 -10  -7   11.95    1.20
   4  10   7    8.13    1.98
  -5 -10  -7   22.73    1.76
   5  10   7   17.43    2.74
  -6 -10  -7   27.58    2.13
   6  10   7   30.02    2.15
  -7 -10  -7    0.37    0.82
   7  10   7   -0.66    0.75
  -8 -10  -7   16.71    1.74
   8  10   7   19.27    1.81
  -9 -10  -7    4.63    1.21
   9  10   7    5.61    1.19
   2 -11  -7   14.24    1.54
  -2  11   7    9.46    2.24
  -2  11   7   13.54    1.72
   1 -11  -7    2.85    1.03
   1 -11  -7    2.95    1.02
  -1  11   7    2.95    1.10
  -1  11   7    4.22    1.78
   0 -11  -7   47.02    3.25
   0 -11  -7   59.53    3.42
   0  11   7   42.77    4.78
   0  11   7   54.50    3.85
  -1 -11  -7   16.73    1.56
  -1 -11  -7   15.95    1.53
   1  11   7   14.99    2.55
  -2 -11  -7   25.47    2.02
  -2 -11  -7   26.67    2.02
   2  11   7   23.05    3.19
  -3 -11  -7   45.94    2.90
  -3 -11  -7   45.33    2.84
   3  11   7   37.60    4.35
  -4 -11  -7   -0.24    0.72
   4  11   7   -0.20    1.32
  -5 -11  -7   32.25    2.19
   5  11   7   22.71    3.27
  -6 -11  -7    4.71    1.01
   6  11   7    4.66    1.88
  -7 -11  -7   10.20    1.33
  -8 -11  -7   18.57    1.80
  -9 -11  -7    0.78    1.06
  -1  12   7   13.64    2.61
  -1  12   7   20.70    2.04
   0 -12  -7   43.09    2.87
   0 -12  -7   41.32    2.85
   0  12   7   37.37    4.36
  -1 -12  -7    0.03    0.81
  -1 -12  -7    1.10    0.84
   1  12   7    0.77    1.75
  -2 -12  -7   31.98    2.40
  -2 -12  -7   36.16    2.42
   2  12   7   29.27    3.77
  -3 -12  -7   10.74    1.26
  -3 -12  -7   10.97    1.24
   3  12   7    9.76    2.21
  -4 -12  -7    8.65    1.20
   4  12   7    6.66    2.03
  -5 -12  -7   23.96    1.90
   5  12   7   17.56    2.91
  -6 -12  -7    0.93    0.95
   6  12   7   -0.58    1.57
  -7 -12  -7   15.93    1.68
   7  12   7   18.88    3.11
  -8 -12  -7   13.89    1.63
  -1 -13  -7    1.82    0.96
   1  13   7    2.97    1.93
  -2 -13  -7   22.23    1.91
  -2 -13  -7   22.71    1.99
   2  13   7   17.77    3.07
  -3 -13  -7   -0.10    0.86
   3  13   7    0.55    1.69
  -4 -13  -7   17.99    1.68
   4  13   7   14.46    2.71
  -5 -13  -7   11.84    1.47
   5  13   7   10.38    2.40
  -6 -13  -7    2.92    1.04
   6  13   7    2.61    1.92
  -7 -13  -7   11.45    1.50
   7  13   7   14.23    2.81
   3  12  -8    6.52    2.20
   2  12  -8    0.99    0.88
   2  12  -8    0.66    1.80
   1  12  -8   20.14    1.71
   1  12  -8   19.65    3.18
   0  12  -8    7.57    1.10
   0  12  -8    8.65    2.40
   5  11  -8   -1.10    1.63
   4  11  -8   24.57    3.20
   3  11  -8    7.36    2.11
   2  11  -8    8.50    2.28
   2  11  -8    9.95    1.17
   1  11  -8   24.39    1.84
   1  11  -8   24.07    3.29
   0  11  -8    2.27    0.86
   0  11  -8    2.18    1.78
  -1  11  -8   16.31    2.70
  -1  11  -8   16.55    1.40
  -2  11  -8    9.52    1.10
  -2  11  -8   10.02    2.20
   6  10  -8   10.25    2.33
   5  10  -8    6.68    2.01
   4  10  -8   23.70    3.05
   3  10  -8   -0.81    1.28
   2  10  -8   14.32    1.30
   2  10  -8   13.42    2.44
   1  10  -8   11.13    1.14
   1  10  -8   12.24    2.24
   0  10  -8    4.11    0.83
   0  10  -8    5.27    1.89
  -1  10  -8   24.50    1.74
  -1  10  -8   27.41    3.29
  -2  10  -8    1.66    1.37
   6   9  -8    3.06    1.72
   5   9  -8   16.84    2.50
   4   9  -8   15.18    2.39
   3   9  -8    7.61    0.98
   3   9  -8    3.88    1.70
   2   9  -8   41.21    4.27
   2   9  -8   45.77    2.63
   2   9  -8   51.58    3.39
   1   9  -8    9.91    2.02
   1   9  -8    8.45    1.00
   1   9  -8    8.68    1.17
   0   9  -8   27.77    2.14
   0   9  -8   27.08    1.79
   0   9  -8   29.91    3.30
  -1   9  -8   35.18    2.55
  -1   9  -8   39.89    3.79
  -1   9  -8   36.66    2.18
  -2   9  -8    0.76    1.31
  -2   9  -8    1.40    0.81
  -3   9  -8   28.66    3.16
  -3   9  -8   29.78    2.38
  -4   9  -8    7.10    1.03
   4  -9   8    6.13    0.97
   5  -9   8    8.04    1.03
   7   8  -8   12.43    1.48
   6   8  -8    8.95    1.88
   6   8  -8    5.48    1.08
   5   8  -8   53.27    4.67
   4   8  -8    2.55    1.46
   4   8  -8    2.73    0.93
   3   8  -8   46.83    4.11
   3   8  -8   39.68    3.10
   2   8  -8   47.11    2.64
   2   8  -8   44.48    4.29
   2   8  -8   48.53    3.41
   1   8  -8    1.77    0.76
   1   8  -8    1.90    0.68
   1   8  -8    1.39    1.25
   0   8  -8   87.16    4.27
   0   8  -8   79.72    5.41
   0   8  -8   90.69    6.74
   0   8  -8   86.61    5.79
  -1   8  -8   17.89    2.23
  -1   8  -8   16.89    1.55
  -1   8  -8   16.96    1.78
  -2   8  -8   32.20    3.18
  -2   8  -8   29.50    2.53
  -2   8  -8   29.89    2.21
   2  -8   8   32.31    2.21
  -3   8  -8   35.86    2.92
  -3   8  -8   39.65    3.53
  -3   8  -8   38.30    2.51
   3  -8   8   40.53    2.55
  -4   8  -8    0.05    0.77
   4  -8   8   -0.02    0.66
  -5   8  -8   25.59    2.18
   7   7  -8    2.62    0.96
   6   7  -8   18.24    1.73
   5   7  -8   37.92    2.51
   4   7  -8    0.37    0.89
   4   7  -8   -0.17    0.63
   4   7  -8    0.50    1.19
   3   7  -8   80.67    5.83
   3   7  -8   66.21    4.82
   2   7  -8   28.30    1.85
   2   7  -8   34.76    3.16
   2   7  -8   29.52    2.42
   1   7  -8   42.40    2.42
   1   7  -8   46.41    3.35
   1   7  -8   40.31    3.90
   1   7  -8   44.57    3.16
   0   7  -8  110.43    7.18
   0   7  -8  118.83    8.57
   0   7  -8  119.86    7.61
  -1   7  -8    0.74    0.66
  -1   7  -8    1.02    0.74
  -1   7  -8    0.99    1.11
   1  -7   8    1.05    0.68
  -2   7  -8   41.18    3.29
  -2   7  -8   46.72    3.91
  -2   7  -8   43.58    3.04
   2  -7   8   47.85    2.83
  -3   7  -8   24.51    2.53
  -3   7  -8   22.47    2.15
  -3   7  -8   23.48    1.83
   3  -7   8   27.75    1.87
  -4   7  -8    4.56    1.04
  -4   7  -8    3.77    0.65
   4  -7   8    5.18    0.85
  -5   7  -8   32.23    2.63
   5  -7   8   32.07    2.14
   5  -7   8   32.09    2.09
   8   6  -8   12.17    1.50
   7   6  -8    0.35    0.83
   6   6  -8   27.16    2.07
   5   6  -8   18.77    1.99
   5   6  -8   15.99    1.49
   4   6  -8   21.13    1.75
   4   6  -8   29.55    2.31
   3   6  -8   81.52    4.84
   3   6  -8   93.83    5.71
   2   6  -8   -0.20    0.51
   2   6  -8    0.39    0.73
   2   6  -8    0.33    1.12
   2   6  -8    0.36    0.49
   1   6  -8   97.63    6.70
   1   6  -8   89.43    5.67
   1   6  -8   84.60    4.31
   1   6  -8   85.71    5.90
   1   6  -8   85.61    4.88
   0   6  -8   41.66    3.50
   0   6  -8   41.99    2.90
   0   6  -8   34.09    2.95
   0  -6   8   39.60    2.54
  -1   6  -8   19.43    1.84
  -1   6  -8   15.85    1.58
  -1   6  -8   18.38    2.21
   1  -6   8   18.86    1.48
  -2   6  -8   65.75    5.30
  -2   6  -8   72.90    4.79
  -2   6  -8   68.01    4.51
   2  -6   8   70.61    4.00
  -3   6  -8    3.05    0.81
  -3   6  -8    2.63    1.11
  -3   6  -8    4.34    0.94
   3  -6   8    3.40    0.68
  -4   6  -8   53.83    3.65
  -4   6  -8   48.56    3.32
   4  -6   8   47.89    2.97
  -5   6  -8   33.19    2.55
  -5   6  -8   26.86    2.17
   5  -6   8   31.53    2.05
   5  -6   8   33.89    2.07
  -6   6  -8    4.45    0.65
  -6   6  -8    6.05    1.03
   6  -6   8    5.69    0.83
  -7   6  -8   26.50    2.29
   7  -6   8   26.18    1.84
   8   5  -8    9.74    1.37
   7   5  -8    7.99    1.19
   6   5  -8   39.42    2.78
   6   5  -8   47.55    3.47
   5   5  -8    0.36    0.91
   5   5  -8    1.00    0.69
   4   5  -8   59.36    3.91
   4   5  -8   51.10    3.24
   3   5  -8   44.06    2.74
   3   5  -8   46.57    3.28
   2   5  -8   16.68    1.47
   2   5  -8   22.06    1.45
   2   5  -8   20.11    1.92
   2   5  -8   27.70    2.45
   2   5  -8   20.77    1.88
   1   5  -8  118.57    5.75
   1   5  -8  119.93    7.54
   1   5  -8  115.52    6.52
   1   5  -8  141.47    8.78
   1   5  -8  114.18    7.84
   0   5  -8   19.42    1.62
   0   5  -8   11.92    1.76
   0   5  -8   15.36    1.63
   0   5  -8   15.26    1.29
   0  -5   8   15.22    1.33
  -1   5  -8  100.56    6.94
  -1   5  -8   96.65    6.26
  -1   5  -8   89.47    5.98
   1  -5   8   92.80    5.24
  -2   5  -8  103.45    6.69
  -2   5  -8   98.57    6.42
  -2   5  -8  104.34    7.36
   2  -5   8  102.98    5.63
  -3   5  -8    9.30    1.20
  -3   5  -8   12.05    1.27
  -3   5  -8   12.22    1.52
   3  -5   8    9.59    0.97
  -4   5  -8  106.63    7.47
  -4   5  -8  124.01    7.28
  -4   5  -8  124.08    8.30
   4  -5   8  113.64    6.29
  -5   5  -8   15.45    1.58
  -5   5  -8   17.83    1.61
   5  -5   8   15.34    1.36
   5  -5   8   14.35    1.24
  -6   5  -8   20.61    1.78
  -6   5  -8   19.57    1.82
   6  -5   8   18.76    1.53
  -7   5  -8   17.98    1.63
  -7   5  -8   20.43    1.83
   7  -5   8   17.32    1.52
  -8   5  -8   -0.28    0.80
   8  -5   8   -0.52    0.68
   8   4  -8    0.35    0.90
   7   4  -8   32.37    2.40
   6   4  -8   22.00    1.85
   6   4  -8   24.19    2.34
   5   4  -8   11.51    1.47
   5   4  -8    8.39    1.06
   4   4  -8   94.13    5.53
   4   4  -8  108.00    6.50
   3   4  -8    0.67    0.55
   3   4  -8    1.08    0.79
   2   4  -8  176.29   10.53
   2   4  -8  169.92    8.03
   2   4  -8  171.54   10.92
   1   4  -8  153.12    9.82
   1   4  -8  167.94    7.53
   1   4  -8  191.01   11.24
   1   4  -8  149.72   10.21
   1   4  -8  148.43    8.53
   0   4  -8    5.83    0.73
   0   4  -8    5.25    0.93
   0   4  -8    4.99    0.92
   0   4  -8    4.39    1.03
   0  -4   8    5.43    0.77
  -1   4  -8  166.89   11.41
  -1   4  -8  173.74   10.51
  -1   4  -8  157.65    8.77
  -1   4  -8  169.88   10.13
   1  -4   8  163.21    8.84
  -2   4  -8   18.06    1.97
  -2   4  -8   18.66    1.76
  -2   4  -8   21.75    1.76
  -2   4  -8   18.87    1.35
   2  -4   8   17.41    1.43
  -3   4  -8   70.25    4.15
  -3   4  -8   61.01    4.58
  -3   4  -8   56.15    4.13
   3  -4   8   57.55    3.46
  -4   4  -8   89.58    5.16
  -4   4  -8   69.16    5.15
  -4   4  -8   83.98    5.77
   4  -4   8   74.94    4.33
  -5   4  -8    0.49    0.62
  -5   4  -8    1.93    0.78
   5  -4   8    1.12    0.52
   5  -4   8    2.33    0.66
  -6   4  -8   49.44    3.64
  -6   4  -8   59.87    3.69
   6  -4   8   49.10    3.08
  -7   4  -8    8.28    1.15
  -7   4  -8    9.19    1.20
   7  -4   8    8.21    0.98
  -8   4  -8    9.98    1.27
  -8   4  -8    8.17    1.21
   8  -4   8    9.25    1.06
   8   3  -8    2.65    1.05
   7   3  -8   34.97    2.51
   6   3  -8    5.29    0.95
   5   3  -8   50.54    3.47
   5   3  -8   40.43    2.78
   4   3  -8   68.95    4.39
   4   3  -8   59.29    3.68
   3   3  -8    0.50    0.54
   3   3  -8    1.24    0.69
   2   3  -8   97.62    6.60
   2   3  -8  104.79    6.38
   2   3  -8   98.48    4.82
   1   3  -8  106.07    6.94
   1   3  -8  104.51    7.17
   1   3  -8  101.69    5.97
   1   3  -8  123.21    6.00
   1   3  -8  116.50    5.29
  -1  -3   8  112.08    6.08
   0   3  -8   38.16    2.47
   0   3  -8   40.19    3.01
   0   3  -8   44.38    3.35
   0   3  -8   38.89    2.90
   0   3  -8   43.68    2.46
   0  -3   8   39.33    2.51
  -1   3  -8  179.19   10.19
  -1   3  -8  163.28   11.37
  -1   3  -8  167.36    8.85
  -1   3  -8  164.70   10.51
   1  -3   8  161.55    8.86
  -2   3  -8    1.47    0.75
  -2   3  -8    0.88    0.48
  -2   3  -8    1.28    0.60
  -2   3  -8    1.03    0.67
   2  -3   8    1.14    0.47
  -3   3  -8  147.86    8.50
  -3   3  -8  145.02    9.49
  -3   3  -8  138.41    7.30
  -3   3  -8  121.95    8.68
   3  -3   8  138.38    7.35
  -4   3  -8   46.04    3.12
  -4   3  -8   47.85    3.49
  -4   3  -8   41.25    3.09
   4  -3   8   42.64    2.58
  -5   3  -8   33.41    2.50
  -5   3  -8   31.42    2.46
   5  -3   8   32.32    2.15
   5  -3   8   34.56    2.05
  -6   3  -8   59.49    3.92
  -6   3  -8   56.18    3.95
   6  -3   8   57.97    3.39
  -7   3  -8    4.15    0.95
  -7   3  -8    3.83    0.91
   7  -3   8    4.17    0.82
  -8   3  -8   17.86    1.79
  -8   3  -8   16.19    1.71
   8  -3   8   16.60    1.54
  -9   3  -8   10.64    1.34
   9  -3   8   12.19    1.27
   8   2  -8    6.99    1.23
   7   2  -8   17.93    1.71
   6   2  -8    4.04    0.90
   5   2  -8   79.77    4.81
   5   2  -8   91.52    5.71
   4   2  -8   38.40    2.84
   4   2  -8   35.19    2.35
   3   2  -8   39.83    2.55
   3   2  -8   43.73    3.06
   2   2  -8  182.07   11.06
   1   2  -8    5.37    0.70
   1   2  -8    6.43    0.70
   1   2  -8    6.76    1.00
   1   2  -8    6.36    0.72
   1   2  -8    6.48    0.96
  -1  -2   8    4.80    0.75
  -1  -2   8    6.44    0.85
   0   2  -8  333.32   15.64
   0   2  -8  331.97   20.05
   0   2  -8  290.87   18.53
   0   2  -8  295.92   17.85
   0   2  -8  275.40   15.61
   0  -2   8  279.15   15.64
  -1   2  -8   44.17    2.85
  -1   2  -8   35.05    2.27
  -1   2  -8   38.73    2.82
  -1   2  -8   36.74    3.01
  -1   2  -8   39.19    2.38
   1  -2   8   38.27    2.37
  -2   2  -8   88.64    5.39
  -2   2  -8   84.87    4.65
  -2   2  -8   89.24    5.96
  -2   2  -8   78.01    5.49
   2  -2   8   80.69    4.63
  -3   2  -8  200.97   10.00
  -3   2  -8  207.71   12.85
  -3   2  -8  179.80   11.44
  -3   2  -8  177.15   11.82
   3  -2   8  187.90    9.99
  -4   2  -8    7.31    0.94
  -4   2  -8    8.60    0.82
  -4   2  -8    8.06    1.08
  -4   2  -8    7.89    1.02
   4  -2   8    8.35    0.82
  -5   2  -8   68.76    4.78
  -5   2  -8   74.95    4.73
   5  -2   8   71.94    4.01
   5  -2   8   76.37    4.14
  -6   2  -8   37.64    2.65
  -6   2  -8   32.52    2.59
   6  -2   8   37.24    2.30
  -7   2  -8    7.36    1.12
  -7   2  -8    7.93    1.06
   7  -2   8    7.09    0.94
  -8   2  -8   40.43    2.98
  -8   2  -8   37.68    2.96
   8  -2   8   42.30    2.61
  -9   2  -8    0.14    0.80
   9  -2   8    0.34    0.79
   8   1  -8   16.72    1.67
   7   1  -8    2.48    0.92
   6   1  -8   34.97    2.43
   5   1  -8   63.19    3.74
   4   1  -8    0.04    0.58
   4   1  -8    0.57    0.80
   3   1  -8  172.43    8.68
   3   1  -8  168.00   10.03
   3   1  -8  150.53    8.66
   2   1  -8   69.23    4.30
   2   1  -8   67.48    3.59
   2   1  -8   53.83    3.56
   1   1  -8   71.45    4.44
   1   1  -8   86.15    5.23
   1   1  -8   84.82    5.40
   1   1  -8   81.89    3.93
  -1  -1   8   79.21    5.21
   0   1  -8  142.18    8.25
   0   1  -8  141.17    9.78
   0   1  -8  168.49    8.26
   0   1  -8  183.16   10.59
   0   1  -8  152.75    9.48
   0  -1   8  157.24    9.72
   0  -1   8  143.67    8.26
  -1   1  -8    3.54    0.70
  -1   1  -8    2.98    0.52
  -1   1  -8    3.66    0.65
  -1   1  -8    3.87    0.74
  -1   1  -8    3.49    0.72
   1  -1   8    2.93    0.54
  -2   1  -8  152.62    9.19
  -2   1  -8  125.82    9.43
  -2   1  -8  167.55   10.23
  -2   1  -8  149.23    8.04
  -2   1  -8  163.75    8.01
   2  -1   8  148.68    8.02
  -3   1  -8  119.27    6.31
  -3   1  -8  131.68    8.06
  -3   1  -8  110.75    7.22
  -3   1  -8  112.95    7.46
   3  -1   8  113.64    6.29
  -4   1  -8   16.80    1.53
  -4   1  -8   15.01    1.37
  -4   1  -8   13.48    1.34
  -4   1  -8   13.25    1.16
   4  -1   8   13.11    1.11
  -5   1  -8   78.48    5.16
  -5   1  -8   84.77    5.33
  -5   1  -8   85.97    4.49
   5  -1   8   84.06    4.58
   5  -1   8   75.16    4.43
  -6   1  -8    3.76    0.84
  -6   1  -8    4.33    0.79
   6  -1   8    4.96    0.81
  -7   1  -8   30.54    2.40
  -7   1  -8   33.14    2.46
   7  -1   8   32.13    2.17
  -8   1  -8   24.37    2.11
  -8   1  -8   23.80    2.09
   8  -1   8   27.75    1.94
   9  -1   8    0.93    0.82
   7   0  -8    1.26    0.85
   6   0  -8   51.19    3.22
   5   0  -8   43.29    2.76
   4   0  -8   20.71    2.00
   4   0  -8   21.46    1.63
   3   0  -8  175.89   10.70
   3   0  -8  175.10    9.27
   2   0  -8    0.00    0.50
   2   0  -8    0.38    0.44
   2   0  -8    0.50    0.60
  -2   0   8    0.78    0.37
   1   0  -8  161.20    8.18
   1   0  -8  165.99    9.47
   1   0  -8  141.27    8.18
   1   0  -8  151.31    9.76
  -1   0   8  151.60    9.62
   0   0  -8  165.24   10.45
   0   0  -8  169.29   10.85
   0   0  -8  165.98    9.15
   0   0   8  190.15   10.80
  -1   0  -8   21.72    1.66
  -1   0  -8   20.70    1.91
  -1   0  -8   21.34    1.89
  -1   0  -8   25.49    1.62
  -1   0  -8   25.22    1.97
   1   0   8   23.23    1.88
   1   0   8   27.39    1.67
  -2   0  -8  263.52   17.23
  -2   0  -8  287.82   15.19
  -2   0  -8  317.64   19.28
  -2   0  -8  321.61   15.18
  -2   0  -8  274.01   17.91
   2   0   8  287.37   15.16
  -3   0  -8   17.12    1.49
  -3   0  -8   15.37    1.26
  -3   0  -8   17.70    1.49
  -3   0  -8   13.96    1.38
  -3   0  -8   16.27    1.20
   3   0   8   16.18    1.21
  -4   0  -8  142.15    8.52
  -4   0  -8  123.24    7.68
  -4   0  -8  113.92    7.89
  -4   0  -8  129.94    6.73
   4   0   8  118.39    6.66
  -5   0  -8  112.12    6.07
  -5   0  -8  112.66    7.19
  -5   0  -8  115.93    6.98
   5   0   8  117.49    6.17
   5   0   8  107.73    6.03
  -6   0  -8    3.47    0.78
  -6   0  -8    3.01    0.72
   6   0   8    3.65    0.76
  -7   0  -8   68.14    4.51
  -7   0  -8   63.75    4.37
   7   0   8   69.64    3.90
  -8   0  -8    9.09    1.16
  -8   0  -8    9.68    1.22
   8   0   8    9.89    1.14
  -9   0  -8   15.76    1.65
   9   0   8   15.05    1.47
  10   0   8   16.76    1.63
   7  -1  -8   11.98    1.36
   6  -1  -8   56.20    3.50
   5  -1  -8    9.72    1.10
   4  -1  -8  111.13    5.85
   4  -1  -8  102.26    5.87
   3  -1  -8   76.37    4.21
   3  -1  -8   73.63    4.93
   2  -1  -8   60.60    3.84
   2  -1  -8   59.13    3.23
  -2   1   8   52.82    4.07
  -2   1   8   51.81    3.73
   1  -1  -8  228.37   14.48
   1  -1  -8  216.23   12.19
   1  -1  -8  250.40   14.00
   1  -1  -8  247.87   12.19
  -1   1   8  223.70   16.26
   0  -1  -8   81.60    4.98
   0  -1  -8   83.25    4.28
   0  -1  -8   72.67    4.30
   0  -1  -8   70.54    5.05
   0   1   8   77.13    4.27
   0   1   8   73.41    4.99
  -1  -1  -8  155.82    8.38
  -1  -1  -8  183.93   10.53
  -1  -1  -8  131.26    9.80
  -1  -1  -8  143.22    9.48
   1   1   8  167.06    9.86
   1   1   8  159.01    8.35
  -2  -1  -8  187.46    9.56
  -2  -1  -8  173.30    9.58
  -2  -1  -8  162.54   10.85
  -2  -1  -8  170.06   11.28
  -2  -1  -8  188.27   12.03
   2   1   8  200.23   11.34
   2   1   8  186.88    9.56
  -3  -1  -8   10.54    0.99
  -3  -1  -8    9.94    1.10
  -3  -1  -8    9.75    1.14
  -3  -1  -8   10.71    1.07
  -3  -1  -8   11.02    0.96
   3   1   8   11.18    0.95
  -4  -1  -8  177.75   11.21
  -4  -1  -8  179.39   10.83
  -4  -1  -8  174.27    9.50
  -4  -1  -8  195.12    9.50
   4   1   8  178.62    9.55
   4   1   8  177.19    9.46
  -5  -1  -8   40.03    2.38
  -5  -1  -8   36.95    2.74
  -5  -1  -8   40.01    2.72
   5   1   8   35.40    2.27
   5   1   8   40.31    2.43
  -6  -1  -8   41.47    3.08
  -6  -1  -8   46.64    2.69
  -6  -1  -8   42.71    3.03
   6   1   8   45.44    2.73
  -7  -1  -8   48.04    3.39
  -7  -1  -8   45.49    3.30
   7   1   8   52.25    3.02
  -8  -1  -8   -0.17    0.63
   8   1   8    0.64    0.75
  -9  -1  -8   22.33    2.06
   9   1   8   26.41    1.96
  10   1   8    8.33    1.27
   7  -2  -8   22.44    1.98
   6  -2  -8   31.00    2.24
   5  -2  -8    9.51    1.11
   4  -2  -8  121.50    6.59
   3  -2  -8   12.86    1.14
   3  -2  -8   13.56    1.45
   3  -2  -8   11.22    1.13
   2  -2  -8   82.01    4.79
   2  -2  -8   74.21    4.02
   2  -2  -8   66.60    4.04
  -2   2   8   70.78    4.71
  -2   2   8   65.22    5.20
   1  -2  -8  175.99    9.14
   1  -2  -8  189.08   10.57
   1  -2  -8  165.23    9.18
  -1   2   8  178.38   10.78
  -1   2   8  157.81   12.19
   0  -2  -8    2.42    0.71
   0  -2  -8    3.32    0.60
   0  -2  -8    2.63    0.65
   0  -2  -8    2.91    0.77
  -1  -2  -8  392.61   17.99
  -1  -2  -8  322.94   20.40
  -1  -2  -8  337.33   17.98
  -1  -2  -8  333.34   21.21
  -2  -2  -8   45.55    3.15
  -2  -2  -8   43.83    2.74
  -2  -2  -8   42.79    3.15
  -2  -2  -8   41.29    3.03
   2   2   8   50.25    3.19
   2   2   8   44.48    2.66
  -3  -2  -8  102.68    6.85
  -3  -2  -8  121.53    6.05
  -3  -2  -8  106.34    7.11
  -3  -2  -8  118.53    7.46
  -3  -2  -8  106.49    6.06
   3   2   8  103.89    5.98
   3   2   8  121.42    7.16
  -4  -2  -8  140.37    9.29
  -4  -2  -8  145.86    7.91
  -4  -2  -8  147.27    9.00
  -4  -2  -8  163.01    7.92
   4   2   8  148.76    7.96
   4   2   8  146.65    7.86
  -5  -2  -8   -0.05    0.56
  -5  -2  -8   -0.38    0.44
  -5  -2  -8    0.36    0.51
   5   2   8    1.81    0.62
  -6  -2  -8   65.61    4.40
  -6  -2  -8   65.96    4.52
  -6  -2  -8   71.69    3.91
   6   2   8   70.85    3.95
  -7  -2  -8   30.53    2.03
  -7  -2  -8   27.28    2.20
   7   2   8   28.80    2.02
  -8  -2  -8    9.34    1.14
   8   2   8    7.13    1.08
  -9  -2  -8   30.11    2.49
   9   2   8   36.00    2.37
  10   2   8    0.60    0.88
   6  -3  -8    2.90    0.87
   5  -3  -8   47.03    2.91
   4  -3  -8   78.23    4.85
   4  -3  -8   94.17    4.87
   3  -3  -8    0.21    0.66
   3  -3  -8    0.91    0.54
  -3   3   8    1.35    0.68
   2  -3  -8  135.61    7.88
   2  -3  -8  116.84    6.81
   2  -3  -8  133.32    6.79
  -2   3   8  113.88    9.00
  -2   3   8  130.35    8.00
   1  -3  -8   65.32    4.07
   1  -3  -8   78.18    4.05
   1  -3  -8   74.80    4.74
  -1   3   8   75.45    4.77
  -1   3   8   63.36    5.33
   0  -3  -8  106.72    6.10
   0  -3  -8  121.51    6.08
   0  -3  -8  107.31    6.93
   0   3   8  104.87    8.14
   0   3   8  115.15    7.15
  -1  -3  -8  266.40   14.09
  -1  -3  -8  248.34   15.94
  -1  -3  -8  292.88   14.06
  -1  -3  -8  260.30   16.58
   1   3   8  276.45   16.57
  -2  -3  -8    2.64    0.63
  -2  -3  -8    3.74    0.51
  -2  -3  -8    3.44    0.76
  -2  -3  -8    2.59    0.58
  -2  -3  -8    3.69    0.73
   2   3   8    2.60    0.57
  -3  -3  -8  156.41    8.64
  -3  -3  -8  157.91   10.14
  -3  -3  -8  153.23    9.78
  -3  -3  -8  176.14   10.66
   3   3   8  175.66   10.20
   3   3   8  157.37    8.64
   3   3   8  155.65    8.56
  -4  -3  -8   85.75    5.50
  -4  -3  -8   84.00    4.85
  -4  -3  -8   86.40    5.68
  -4  -3  -8   94.71    4.85
   4   3   8   85.74    4.87
  -5  -3  -8   18.75    1.56
  -5  -3  -8   15.95    1.38
  -5  -3  -8   16.50    1.54
   5   3   8   16.61    1.41
  -6  -3  -8   78.76    4.30
  -6  -3  -8   73.87    4.82
   6   3   8   74.43    4.31
  -7  -3  -8   -0.15    0.59
  -7  -3  -8    0.46    0.64
   7   3   8    0.75    0.64
  -8  -3  -8   40.22    2.95
   8   3   8   42.63    2.71
  -9  -3  -8   16.09    1.65
   9   3   8   18.33    1.67
  10   3   8    2.52    1.01
   5  -4  -8   62.12    3.69
   4  -4  -8   48.30    2.94
   4  -4  -8   46.61    3.03
   3  -4  -8   48.37    2.93
   3  -4  -8   49.44    3.05
  -3   4   8   47.13    3.86
   2  -4  -8  155.53    7.69
   2  -4  -8  135.50    7.71
  -2   4   8  152.27    9.07
  -2   4   8  127.81   10.24
   1  -4  -8    0.59    0.62
   1  -4  -8    1.12    0.74
   1  -4  -8    0.50    0.49
  -1   4   8    0.20    0.59
  -1   4   8    0.17    0.69
   0  -4  -8  273.00   14.56
   0  -4  -8  280.09   16.52
   0  -4  -8  289.05   14.50
   0   4   8  266.75   19.59
   0   4   8  295.44   17.14
   0   4   8  260.42   16.48
  -1  -4  -8   80.64    5.50
  -1  -4  -8   99.55    4.90
  -1  -4  -8   77.33    4.88
   1   4   8   89.90    5.73
  -2  -4  -8   72.41    4.33
  -2  -4  -8   82.18    5.08
  -2  -4  -8   73.29    4.26
  -2  -4  -8   71.40    4.86
   2   4   8   76.15    5.04
  -3  -4  -8  164.56   10.27
  -3  -4  -8  180.03    9.13
  -3  -4  -8  167.07   10.66
  -3  -4  -8  163.11    9.03
   3   4   8  178.47    9.10
  -4  -4  -8   22.30    1.66
  -4  -4  -8   23.28    1.84
   4   4   8   24.08    1.73
  -5  -4  -8  113.33    5.88
  -5  -4  -8  103.24    6.58
   5   4   8  103.16    5.83
  -6  -4  -8   61.53    4.06
  -6  -4  -8   61.73    3.61
   6   4   8   61.55    3.62
  -7  -4  -8   13.43    1.41
  -7  -4  -8   13.28    1.32
   7   4   8   13.45    1.34
  -8  -4  -8   61.02    3.69
  -8  -4  -8   56.58    4.05
   8   4   8   68.22    3.75
  -9  -4  -8    8.56    1.20
   9   4   8    9.78    1.28
  10   4   8    7.97    1.33
   6  -5  -8   12.60    1.48
   5  -5  -8   55.77    3.55
   5  -5  -8   56.50    3.44
   4  -5  -8   -0.64    0.75
   4  -5  -8   -0.39    0.59
   3  -5  -8   75.17    4.11
   3  -5  -8   76.20    4.25
  -3   5   8   62.53    5.45
   2  -5  -8   60.76    3.59
   2  -5  -8   63.12    3.51
  -2   5   8   48.63    4.61
  -2   5   8   64.03    4.16
   1  -5  -8   47.09    2.83
   1  -5  -8   43.50    2.95
  -1   5   8   46.41    3.35
   0  -5  -8  389.79   18.11
   0  -5  -8  348.64   20.54
   0  -5  -8  330.25   18.11
   0   5   8  306.71   24.40
   0   5   8  360.87   21.33
  -1  -5  -8   21.75    1.82
  -1  -5  -8   23.75    1.76
  -1  -5  -8   25.25    2.01
   1   5   8   23.09    2.00
   1   5   8   21.78    1.75
   1   5   8   27.17    2.67
  -2  -5  -8  103.33    5.84
  -2  -5  -8  107.93    5.79
  -2  -5  -8  104.32    6.57
   2   5   8   96.43    5.76
   2   5   8  112.64    6.84
  -3  -5  -8  119.90    6.69
  -3  -5  -8  116.33    7.53
  -3  -5  -8  128.71    6.66
   3   5   8  116.15    6.64
   3   5   8  130.50    7.87
  -4  -5  -8   10.91    1.03
  -4  -5  -8    8.80    1.11
  -4  -5  -8    9.78    1.06
   4   5   8   10.33    1.05
  -5  -5  -8  144.04    8.64
  -5  -5  -8  141.37    7.64
   5   5   8  138.94    7.62
  -6  -5  -8    8.56    1.02
  -6  -5  -8    9.72    1.12
   6   5   8    7.32    0.98
  -7  -5  -8   27.43    1.89
  -7  -5  -8   22.36    1.93
   7   5   8   23.60    1.78
  -8  -5  -8   33.96    2.60
  -8  -5  -8   33.43    2.38
   8   5   8   35.95    2.41
  -9  -5  -8    0.20    0.77
   9   5   8    1.09    0.85
  10   5   8   12.49    1.49
   5  -6  -8   31.34    2.25
   5  -6  -8   29.61    2.37
   4  -6  -8    4.75    1.08
   4  -6  -8    5.44    0.90
   3  -6  -8   92.95    4.93
   3  -6  -8   88.33    5.04
  -3   6   8   77.00    6.55
   2  -6  -8   14.37    1.41
   2  -6  -8   14.68    1.37
  -2   6   8   15.69    1.73
  -2   6   8   10.43    1.68
   1  -6  -8  114.15    6.28
   1  -6  -8  111.56    6.41
  -1   6   8  115.77    7.44
   0  -6  -8  131.57    6.36
   0  -6  -8  111.28    6.38
   0   6   8  121.22    7.45
   0   6   8  100.34    8.54
   0   6   8  106.03    6.23
  -1  -6  -8    1.54    0.65
  -1  -6  -8    0.37    0.65
  -1  -6  -8    1.14    0.74
   1   6   8    1.50    0.62
   1   6   8    1.10    1.08
   1   6   8    1.66    0.70
  -2  -6  -8   84.74    4.55
  -2  -6  -8   75.10    5.09
  -2  -6  -8   78.35    4.59
   2   6   8   86.82    5.37
   2   6   8   72.97    4.48
  -3  -6  -8   36.81    2.32
  -3  -6  -8   35.11    2.62
  -3  -6  -8   33.64    2.36
   3   6   8   35.23    2.30
  -4  -6  -8   61.57    3.84
  -4  -6  -8   67.02    4.36
  -4  -6  -8   71.99    3.88
   4   6   8   64.42    3.83
  -5  -6  -8   99.26    5.58
  -5  -6  -8  100.59    6.27
   5   6   8   99.77    5.55
  -6  -6  -8    1.46    0.71
  -6  -6  -8    0.51    0.61
   6   6   8    0.65    0.64
  -7  -6  -8   45.35    2.95
  -7  -6  -8   47.66    3.31
   7   6   8   48.95    3.00
  -8  -6  -8   14.38    1.60
  -8  -6  -8   16.23    1.58
   8   6   8   17.46    1.60
  -9  -6  -8    9.16    1.32
  -9  -6  -8    8.78    1.26
   9   6   8    9.48    1.27
  10   6   8   16.22    1.68
   5  -7  -8    6.06    1.28
   4  -7  -8   25.75    2.25
   4  -7  -8   28.36    2.12
   3  -7  -8   65.87    3.89
   3  -7  -8   66.20    3.70
  -3   7   8   50.33    4.91
   2  -7  -8    2.98    1.03
   2  -7  -8    3.14    0.86
  -2   7   8    1.67    1.15
  -2   7   8    3.18    1.00
   1  -7  -8   99.34    5.84
   1  -7  -8  110.49    5.73
  -1   7   8  112.31    6.82
  -1   7   8   83.44    7.64
   0  -7  -8   28.37    2.03
   0  -7  -8   24.13    2.07
   0   7   8   26.35    2.83
   0   7   8   28.27    2.40
  -1  -7  -8   79.22    4.64
  -1  -7  -8   82.72    4.57
   1   7   8   73.19    6.37
   1   7   8   90.74    5.43
   1   7   8   69.39    4.41
  -2  -7  -8  137.34    8.76
  -2  -7  -8  157.40    7.80
  -2  -7  -8  139.07    7.79
   2   7   8  157.75    9.17
   2   7   8  130.61   10.80
   2   7   8  132.30    7.65
  -3  -7  -8    2.77    0.74
  -3  -7  -8    2.47    0.82
  -3  -7  -8    1.99    0.75
   3   7   8    1.94    0.66
  -4  -7  -8  129.61    7.20
  -4  -7  -8  139.82    7.20
  -4  -7  -8  130.84    8.11
   4   7   8  126.12    7.12
  -5  -7  -8   26.04    2.06
  -5  -7  -8   27.21    1.95
   5   7   8   23.94    1.86
  -6  -7  -8   22.02    1.72
  -6  -7  -8   21.18    1.91
   6   7   8   23.08    1.76
  -7  -7  -8   37.87    2.85
  -7  -7  -8   38.68    2.63
   7   7   8   40.05    2.56
  -8  -7  -8    0.70    0.78
  -8  -7  -8    0.65    0.84
   8   7   8    1.37    0.85
  -9  -7  -8   22.40    1.99
  -9  -7  -8   21.71    2.03
   9   7   8   21.34    1.97
  10   7   8    9.42    1.40
   4  -8  -8   46.14    3.04
   4  -8  -8   45.31    3.26
   3  -8  -8    5.39    1.29
   3  -8  -8    7.67    1.13
  -3   8   8    4.96    1.51
   2  -8  -8   47.43    3.23
   2  -8  -8   57.20    3.17
  -2   8   8   36.24    4.09
   1  -8  -8   89.81    4.71
   1  -8  -8   73.69    4.74
  -1   8   8   68.53    6.34
  -1   8   8   83.74    5.52
   0  -8  -8    0.28    0.87
   0  -8  -8   -0.58    0.67
   0   8   8    0.38    0.85
   0   8   8   -0.27    1.02
  -1  -8  -8  113.42    6.08
  -1  -8  -8  109.22    6.13
   1   8   8  120.97    7.18
   1   8   8   86.33    8.31
  -2  -8  -8   32.64    2.15
  -2  -8  -8   27.82    2.16
   2   8   8   25.31    3.25
  -3  -8  -8   23.57    1.77
  -3  -8  -8   24.24    1.85
   3   8   8   19.25    1.67
   3   8   8   15.91    2.65
  -4  -8  -8   73.96    4.54
  -4  -8  -8   84.90    4.57
  -4  -8  -8   77.93    5.11
   4   8   8   76.83    4.47
  -5  -8  -8    1.56    0.79
  -5  -8  -8    2.17    0.81
   5   8   8    2.16    0.76
  -6  -8  -8   40.66    2.66
  -6  -8  -8   37.09    2.88
   6   8   8   40.12    2.60
  -7  -8  -8   20.15    1.87
  -7  -8  -8   21.04    1.86
   7   8   8   24.58    1.89
  -8  -8  -8    2.89    0.97
  -8  -8  -8    2.92    0.94
   8   8   8    3.28    0.94
  -9  -8  -8   22.27    2.05
  -9  -8  -8   23.70    2.09
   9   8   8   23.77    2.08
 -10  -8  -8    0.50    1.04
  10   8   8    1.01    1.04
   3  -9  -8   -1.06    0.91
   3  -9  -8    0.28    1.06
  -3   9   8    0.27    1.34
   2  -9  -8   50.41    3.25
  -2   9   8   40.22    4.14
   1  -9  -8   59.51    3.41
   1  -9  -8   50.69    3.42
  -1   9   8   40.88    4.48
   0  -9  -8    9.72    1.38
   0  -9  -8    9.21    1.25
   0   9   8    8.89    1.85
  -1  -9  -8   74.21    4.26
  -1  -9  -8   71.27    4.14
   1   9   8   58.72    5.80
  -2  -9  -8    6.20    0.98
  -2  -9  -8    5.50    1.02
   2   9   8    3.03    1.56
  -3  -9  -8   53.98    3.08
  -3  -9  -8   48.17    3.05
   3   9   8   35.69    4.46
  -4  -9  -8   54.62    3.43
   4   9   8   55.40    3.33
  -5  -9  -8    9.78    1.20
   5   9   8    9.97    1.18
  -6  -9  -8   44.77    3.01
   6   9   8   47.86    3.04
  -7  -9  -8    6.17    1.11
   7   9   8    5.25    1.03
  -8  -9  -8   14.04    1.54
   8   9   8   13.85    1.51
  -9  -9  -8   15.04    1.66
  -9  -9  -8   13.12    1.62
   9   9   8   14.48    1.61
 -10  -9  -8   -0.39    1.06
  10   9   8    0.11    1.05
   2 -10  -8   35.68    2.70
   2 -10  -8   33.80    2.56
  -2  10   8   26.67    3.50
   1 -10  -8    0.11    0.99
   1 -10  -8    0.40    0.92
  -1  10   8    0.57    1.41
   0 -10  -8   54.00    3.42
   0 -10  -8   53.24    3.52
   0  10   8   46.09    4.89
  -1 -10  -8   28.07    2.23
  -1 -10  -8   28.34    2.18
   1  10   8   21.35    3.05
  -2 -10  -8    6.57    1.16
  -2 -10  -8    7.48    1.16
   2  10   8    8.24    2.07
  -3 -10  -8   47.32    3.12
  -3 -10  -8   51.76    3.14
   3  10   8   42.78    4.74
  -4 -10  -8    2.51    0.86
   4  10   8    0.09    1.45
  -5 -10  -8   27.67    2.09
   5  10   8   22.97    3.26
  -6 -10  -8   17.53    1.72
  -7 -10  -8    1.32    0.93
   7  10   8    0.04    0.86
  -8 -10  -8   18.71    1.82
   8  10   8   19.48    1.81
  -9 -10  -8    2.53    1.14
   9  10   8    1.98    1.09
   1 -11  -8    3.21    1.11
   1 -11  -8    3.78    1.15
  -1  11   8    3.28    1.71
   0 -11  -8   31.55    2.52
   0 -11  -8   35.99    2.55
   0  11   8   26.03    3.63
  -1 -11  -8    8.96    1.27
  -1 -11  -8    6.45    1.25
   1  11   8    5.80    2.09
  -2 -11  -8   22.74    1.93
  -2 -11  -8   19.58    1.87
   2  11   8   19.17    2.98
  -3 -11  -8   37.37    2.55
   3  11   8   27.27    3.86
  -4 -11  -8    0.84    0.92
   4  11   8   -0.99    1.47
  -5 -11  -8   31.83    2.34
   5  11   8   27.82    3.77
  -6 -11  -8   10.73    1.37
   6  11   8   13.04    2.55
  -7 -11  -8    4.50    1.19
  -8 -11  -8   13.39    1.62
   0 -12  -8   22.15    2.02
   0  12   8   12.17    2.68
  -1 -12  -8    2.58    1.13
  -1 -12  -8    0.38    0.97
   1  12   8    2.12    2.01
  -2 -12  -8   35.05    2.61
  -2 -12  -8   35.09    2.54
   2  12   8   29.75    4.02
  -3 -12  -8    5.12    1.19
   3  12   8    4.69    2.05
  -4 -12  -8    8.70    1.26
   4  12   8    7.71    2.39
  -5 -12  -8   18.36    1.77
   5  12   8   13.16    2.76
  -6 -12  -8    0.14    0.91
   6  12   8    0.61    1.82
  -7 -12  -8    8.06    1.39
   7  12   8   15.13    2.82
   8  12   8    8.55    2.53
  -2 -13  -8   19.41    1.84
   2  13   8   16.61    3.09
  -3 -13  -8   -0.71    0.92
   3  13   8    0.18    1.82
  -4 -13  -8   16.52    1.63
   4  13   8   10.31    2.66
  -5 -13  -8    6.59    1.24
   5  13   8    4.23    2.19
  -6 -13  -8    1.12    1.03
   6  13   8   -0.01    2.11
   3  11  -9    8.76    2.35
   2  11  -9    5.62    1.11
   2  11  -9    2.91    2.03
   1  11  -9   30.97    3.90
   1  11  -9   29.41    2.13
   0  11  -9    2.07    1.93
   0  11  -9    0.66    0.92
  -1  11  -9   19.29    2.90
  -1  11  -9   13.73    1.40
   5  10  -9    6.79    2.08
   4  10  -9   25.93    3.22
   3  10  -9   -1.87    1.48
   2  10  -9   23.25    1.81
   2  10  -9   18.45    2.93
   1  10  -9    8.93    1.13
   1  10  -9    8.25    2.20
   0  10  -9    1.72    0.89
   0  10  -9    1.93    1.76
  -1  10  -9   15.35    1.41
  -1  10  -9   17.36    2.68
  -2  10  -9    1.28    1.62
  -2  10  -9    0.96    0.82
   6   9  -9   -0.61    1.50
   5   9  -9   18.38    2.65
   4   9  -9   13.08    2.16
   3   9  -9    5.08    1.80
   2   9  -9   25.40    1.96
   2   9  -9   29.18    3.40
   2   9  -9   28.86    2.46
   1   9  -9    6.33    1.00
   1   9  -9    7.04    1.22
   1   9  -9    6.31    1.92
   0   9  -9   19.37    2.60
   0   9  -9   19.84    1.56
   0   9  -9   18.84    1.82
  -1   9  -9   23.16    1.70
  -1   9  -9   24.58    3.05
  -1   9  -9   20.39    1.90
  -2   9  -9    1.64    0.68
  -2   9  -9    1.64    0.99
  -2   9  -9    3.21    1.58
  -3   9  -9   22.71    2.17
  -3   9  -9   21.09    2.73
  -4   9  -9    5.62    1.13
   6   8  -9    5.43    1.78
   5   8  -9   43.51    4.11
   4   8  -9    3.80    1.24
   4   8  -9    3.46    1.60
   3   8  -9   21.88    2.68
   3   8  -9   19.89    2.13
   2   8  -9   23.80    1.86
   2   8  -9   26.70    2.38
   2   8  -9   29.30    3.20
   1   8  -9    4.56    1.64
   1   8  -9    4.47    1.05
   1   8  -9    3.38    0.84
   0   8  -9   59.64    5.21
   0   8  -9   61.38    4.16
   0   8  -9   55.51    4.42
   0   8  -9   64.81    3.26
  -1   8  -9   11.20    2.03
  -1   8  -9   11.16    1.53
  -1   8  -9   11.00    1.34
  -2   8  -9   14.65    2.06
  -2   8  -9   13.12    1.66
  -2   8  -9   12.92    1.41
  -3   8  -9   32.92    3.22
  -3   8  -9   30.03    2.58
  -3   8  -9   26.43    2.13
  -4   8  -9    1.04    0.92
  -4   8  -9    0.48    0.50
  -5   8  -9   25.03    2.30
   7   7  -9    0.81    0.92
   6   7  -9   17.91    1.71
   5   7  -9   28.89    2.87
   5   7  -9   18.70    1.75
   5   7  -9   20.24    2.26
   4   7  -9    3.25    1.17
   4   7  -9    1.26    0.75
   4   7  -9    3.27    1.44
   3   7  -9   42.39    3.50
   3   7  -9   51.01    4.23
   2   7  -9   11.99    1.18
   2   7  -9   14.37    1.65
   2   7  -9   16.05    2.17
   1   7  -9   32.40    1.99
   1   7  -9   30.76    2.54
   1   7  -9   28.91    2.70
   1   7  -9   30.42    3.24
   0   7  -9   62.81    5.23
   0   7  -9   66.15    4.34
   0   7  -9   63.68    3.29
   0   7  -9   58.72    4.51
  -1   7  -9   -0.22    1.02
  -1   7  -9   -0.28    0.75
  -1   7  -9    0.11    0.87
  -2   7  -9   42.18    3.22
  -2   7  -9   48.71    3.55
  -2   7  -9   47.25    4.08
  -3   7  -9   18.15    1.84
  -3   7  -9   12.64    1.47
  -3   7  -9   18.03    2.18
  -4   7  -9   16.91    1.82
  -4   7  -9   14.21    1.41
  -5   7  -9   22.54    1.76
  -5   7  -9   28.95    2.40
   5  -7   9   25.74    1.87
  -6   7  -9    1.02    0.94
   7   6  -9    2.02    0.95
   6   6  -9   17.44    1.67
   5   6  -9    6.53    1.39
   5   6  -9    5.14    0.97
   4   6  -9   14.44    1.49
   4   6  -9   17.91    1.97
   4   6  -9   25.22    2.50
   3   6  -9   83.53    5.97
   3   6  -9   71.94    5.24
   2   6  -9    0.51    0.57
   2   6  -9    0.34    0.84
   2   6  -9    0.62    0.63
   2   6  -9    0.28    1.16
   1   6  -9   69.45    4.80
   1   6  -9   82.49    5.72
   1   6  -9   71.05    3.64
   1   6  -9   63.50    4.96
   0   6  -9   20.76    2.52
   0   6  -9   23.25    2.04
   0   6  -9   20.58    2.13
  -1   6  -9   29.63    2.54
  -1   6  -9   30.34    3.02
  -1   6  -9   28.95    2.39
  -2   6  -9   55.61    4.57
  -2   6  -9   53.44    3.86
  -2   6  -9   59.42    4.12
  -3   6  -9    2.16    0.91
  -3   6  -9   -0.40    0.95
  -3   6  -9    0.33    0.74
  -4   6  -9   28.55    2.51
  -4   6  -9   38.01    3.26
  -4   6  -9   38.95    2.88
  -5   6  -9   19.68    1.82
  -5   6  -9   25.07    2.16
   5  -6   9   22.72    1.75
  -6   6  -9    2.09    0.92
  -6   6  -9    1.86    0.64
   6  -6   9    1.49    0.73
  -7   6  -9   18.80    1.96
   7  -6   9   17.91    1.58
   7   5  -9    6.38    1.19
   6   5  -9   17.97    1.73
   6   5  -9   20.43    2.21
   5   5  -9    0.28    0.73
   5   5  -9    0.83    0.98
   4   5  -9   63.62    4.35
   4   5  -9   58.00    3.59
   3   5  -9   32.21    2.79
   3   5  -9   38.30    3.18
   2   5  -9   35.31    2.86
   2   5  -9   23.20    1.85
   2   5  -9   26.01    2.35
   1   5  -9   96.94    4.46
   1   5  -9   82.67    6.06
   1   5  -9   88.42    4.99
   1   5  -9   90.83    5.87
   0   5  -9    2.64    0.72
   0   5  -9    4.29    1.23
   0   5  -9    2.97    0.93
   0   5  -9    3.32    0.96
  -1   5  -9   61.43    4.77
  -1   5  -9   61.65    4.28
  -1   5  -9   57.00    4.10
  -2   5  -9   54.64    4.46
  -2   5  -9   57.09    3.91
  -2   5  -9   56.90    4.06
  -3   5  -9   10.26    1.30
  -3   5  -9   10.23    1.32
  -3   5  -9    9.73    1.52
  -4   5  -9   79.02    5.57
  -4   5  -9   87.80    5.44
  -4   5  -9   82.64    6.18
  -5   5  -9    8.71    1.21
  -5   5  -9    5.33    1.03
   5  -5   9    6.13    0.92
  -6   5  -9   14.56    1.65
  -6   5  -9   16.57    1.63
   6  -5   9   12.96    1.28
  -7   5  -9   12.29    1.49
  -7   5  -9   13.44    1.47
   7  -5   9   10.34    1.17
   7   4  -9   32.12    2.49
   6   4  -9   14.55    1.47
   5   4  -9   15.26    1.53
   5   4  -9   18.66    2.01
   4   4  -9   93.61    5.88
   4   4  -9   81.32    4.89
   3   4  -9    8.40    1.33
   2   4  -9   82.55    6.16
   2   4  -9  110.19    7.03
   1   4  -9   48.04    3.65
   1   4  -9   48.27    3.09
   1   4  -9   62.02    4.28
   1   4  -9   49.74    3.85
   1   4  -9   55.34    2.80
   0   4  -9   24.04    1.82
   0   4  -9   25.56    2.30
   0   4  -9   28.89    2.63
   0   4  -9   27.39    2.22
  -1   4  -9  120.32    7.71
  -1   4  -9  118.56    6.43
  -1   4  -9  122.11    7.47
  -1   4  -9  111.93    8.35
  -2   4  -9    7.75    1.29
  -2   4  -9    8.63    1.16
  -2   4  -9    8.88    1.21
   2  -4   9    7.31    0.90
  -3   4  -9   71.56    5.24
  -3   4  -9   91.00    5.27
  -3   4  -9   79.76    5.80
   3  -4   9   74.07    4.42
  -4   4  -9   62.70    4.81
  -4   4  -9   55.22    4.31
  -4   4  -9   73.44    4.38
  -5   4  -9    2.85    0.84
  -5   4  -9    2.93    0.96
   5  -4   9    2.73    0.79
  -6   4  -9   35.23    2.85
  -6   4  -9   42.41    2.94
   6  -4   9   34.91    2.43
  -7   4  -9    5.17    1.03
  -7   4  -9    5.82    1.12
   7  -4   9    5.29    0.94
  -8   4  -9   15.66    1.76
   8  -4   9   13.93    1.38
   7   3  -9   30.95    2.44
   6   3  -9    0.13    0.78
   5   3  -9   34.55    2.54
   5   3  -9   44.10    3.28
   4   3  -9   50.61    3.39
   4   3  -9   66.19    4.23
   3   3  -9   13.35    1.58
   2   3  -9   91.97    6.00
   1   3  -9    1.24    0.61
   1   3  -9    1.12    0.74
   1   3  -9    2.48    0.85
   1   3  -9    1.80    0.58
   0   3  -9  165.27   10.47
   0   3  -9  136.92    8.05
   0   3  -9  153.25    9.35
   0   3  -9  149.80    9.66
  -1   3  -9  213.76   12.10
  -1   3  -9  194.74   13.48
  -1   3  -9  187.09   12.45
  -1   3  -9  200.61   10.51
  -2   3  -9    2.44    0.82
  -2   3  -9    1.45    0.82
  -2   3  -9    1.59    0.72
  -2   3  -9    1.22    0.59
   2  -3   9    1.97    0.59
  -3   3  -9  129.62    7.39
  -3   3  -9  101.94    7.47
  -3   3  -9  123.12    8.18
   3  -3   9  114.23    6.34
  -4   3  -9   22.31    1.94
  -4   3  -9   23.98    2.26
  -4   3  -9   20.57    1.90
  -5   3  -9   24.19    2.05
  -5   3  -9   25.18    2.09
   5  -3   9   21.56    1.79
  -6   3  -9   45.13    3.13
  -6   3  -9   40.31    3.08
   6  -3   9   39.89    2.64
  -7   3  -9    0.23    0.74
  -7   3  -9   -0.10    0.74
   7  -3   9   -0.42    0.66
  -8   3  -9   19.81    1.97
  -8   3  -9   20.53    2.01
   8  -3   9   19.86    1.77
   7   2  -9   14.89    1.58
   6   2  -9    3.39    0.93
   5   2  -9   70.80    4.40
   5   2  -9   82.43    5.28
   4   2  -9   21.56    1.71
   4   2  -9   21.15    2.17
   3   2  -9   78.09    5.24
   2   2  -9  100.34    6.45
   1   2  -9    0.71    0.56
   1   2  -9    1.46    0.75
   0   2  -9  198.24   13.12
   0   2  -9  231.88   14.17
   0   2  -9  194.78   11.03
   0   2  -9  214.49   12.71
  -1   2  -9  122.31    7.11
  -1   2  -9  117.32    7.82
  -1   2  -9  106.15    7.25
  -1   2  -9  114.09    6.14
   1  -2   9  101.42    6.09
  -2   2  -9   42.02    3.21
  -2   2  -9   47.51    3.50
  -2   2  -9   48.16    3.21
  -2   2  -9   43.57    2.72
   2  -2   9   40.49    2.67
  -3   2  -9  106.99    5.72
  -3   2  -9  108.03    6.62
  -3   2  -9  111.99    7.34
  -3   2  -9   95.07    6.76
   3  -2   9  102.32    5.71
  -4   2  -9    0.16    0.68
  -4   2  -9    0.03    0.58
  -4   2  -9   -0.16    0.60
  -5   2  -9   78.63    5.05
  -5   2  -9   69.91    5.11
   5  -2   9   84.52    4.47
  -6   2  -9   27.47    2.21
  -6   2  -9   24.94    2.17
   6  -2   9   25.65    1.92
  -7   2  -9    9.87    1.27
  -7   2  -9   10.38    1.31
   7  -2   9    9.93    1.14
  -8   2  -9   28.07    2.40
  -8   2  -9   29.04    2.41
   8  -2   9   28.64    2.12
   9  -2   9    0.77    0.85
   7   1  -9    5.13    1.15
   6   1  -9   20.70    1.81
   5   1  -9   66.26    3.96
   4   1  -9    0.01    0.63
   4   1  -9    0.93    0.84
   3   1  -9  126.41    8.00
   2   1  -9   49.09    3.21
   2   1  -9   61.78    3.94
   1   1  -9   52.95    3.28
   1   1  -9   59.07    3.89
   0   1  -9  218.33   13.10
   0   1  -9  194.87   11.39
   0   1  -9  198.76   13.53
   0   1  -9  243.31   14.57
   0   1  -9  228.87   11.40
  -1   1  -9   14.69    1.19
  -1   1  -9   13.70    1.49
  -1   1  -9   13.20    1.42
  -1   1  -9   12.57    1.24
  -1   1  -9   14.45    1.51
   1  -1   9   10.98    1.11
  -2   1  -9  166.68    8.53
  -2   1  -9  161.30    9.80
  -2   1  -9  166.97   10.86
  -2   1  -9  162.98   10.15
  -2   1  -9  152.00    8.55
   2  -1   9  153.27    8.55
  -3   1  -9   48.57    3.47
  -3   1  -9   43.20    3.24
  -3   1  -9   43.52    3.18
  -3   1  -9   47.60    2.77
   3  -1   9   44.49    2.72
  -4   1  -9   31.41    2.05
  -4   1  -9   35.41    2.64
  -4   1  -9   30.03    2.43
  -4   1  -9   30.02    2.39
  -5   1  -9   90.47    6.18
  -5   1  -9   95.87    6.03
   5  -1   9   99.32    5.34
  -6   1  -9    2.69    0.84
  -6   1  -9    2.23    0.75
   6  -1   9    1.99    0.73
  -7   1  -9   27.63    2.34
  -7   1  -9   28.93    2.36
   7  -1   9   29.11    2.09
  -8   1  -9   18.31    1.85
  -8   1  -9   18.19    1.85
   8  -1   9   19.71    1.71
   9  -1   9    3.87    1.01
   7   0  -9    0.71    0.95
   6   0  -9   29.07    2.20
   5   0  -9   20.88    1.75
   3   0  -9   57.47    3.66
   3   0  -9   69.41    4.43
   2   0  -9    1.20    0.49
   2   0  -9    0.48    0.58
   2   0  -9    1.58    0.76
   1   0  -9  158.30    9.47
   1   0  -9  188.35   10.96
   1   0  -9  181.52    9.47
  -1   0   9  187.58   12.56
   0   0  -9  105.89    5.99
   0   0  -9  112.02    6.91
   0   0  -9  109.99    7.14
  -1   0  -9   33.13    2.54
  -1   0  -9   35.53    2.08
  -1   0  -9   29.57    2.45
  -1   0  -9   28.55    2.37
  -1   0  -9   29.49    2.07
   1   0   9   32.11    2.08
  -2   0  -9  161.96    8.63
  -2   0  -9  149.64    8.53
  -2   0  -9  176.43   10.86
  -2   0  -9  162.34   10.18
  -2   0  -9  152.06    9.79
   2   0   9  164.18    8.60
  -3   0  -9   21.01    1.88
  -3   0  -9   23.30    1.65
  -3   0  -9   19.82    1.83
  -3   0  -9   24.53    1.95
   3   0   9   20.72    1.56
  -4   0  -9   99.38    6.80
  -4   0  -9  109.69    5.80
  -4   0  -9  113.41    7.27
  -4   0  -9   99.69    6.59
  -5   0  -9   69.20    4.57
  -5   0  -9   70.17    3.96
  -5   0  -9   69.51    4.69
   5   0   9   70.34    4.06
  -6   0  -9    5.70    0.93
  -6   0  -9    5.56    0.97
   6   0   9    6.53    0.93
  -7   0  -9   49.58    3.63
  -7   0  -9   53.57    3.62
   7   0   9   51.16    3.20
  -8   0  -9    5.15    1.08
   8   0   9    5.13    0.95
   9   0   9   17.26    1.72
   5  -1  -9    0.15    0.77
   3  -1  -9   75.26    5.09
   2  -1  -9   29.67    2.18
   2  -1  -9   31.52    2.14
   2  -1  -9   40.46    2.77
   1  -1  -9  235.26   13.45
   1  -1  -9  277.99   15.47
   1  -1  -9  266.07   13.45
  -1   1   9  251.00   17.94
   0  -1  -9   46.29    3.24
   0  -1  -9   43.61    2.77
   0  -1  -9   43.32    2.66
  -1  -1  -9  167.17   10.34
  -1  -1  -9  163.00   10.71
  -1  -1  -9  173.75    9.11
   1   1   9  175.96    9.06
  -2  -1  -9  157.81   10.52
  -2  -1  -9  182.61   11.21
  -2  -1  -9  156.96    8.93
  -2  -1  -9  177.53    8.92
  -2  -1  -9  164.29   10.18
   2   1   9  164.30    8.91
  -3  -1  -9   12.18    1.36
  -3  -1  -9   13.39    1.28
  -3  -1  -9   13.83    1.19
  -3  -1  -9   14.11    1.45
  -3  -1  -9   16.59    1.39
  -4  -1  -9  155.49    9.98
  -4  -1  -9  157.15   10.34
  -4  -1  -9  157.86    8.77
  -4  -1  -9  186.32   11.03
  -5  -1  -9   20.07    1.76
  -5  -1  -9   21.89    1.60
  -5  -1  -9   17.99    1.74
   5   1   9   18.30    1.59
  -6  -1  -9   48.07    2.87
  -6  -1  -9   44.98    3.25
  -6  -1  -9   46.73    3.33
   6   1   9   45.76    2.91
  -7  -1  -9   53.09    3.72
   7   1   9   55.75    3.34
  -8  -1  -9   -0.02    0.73
   8   1   9   -0.51    0.77
  -9  -1  -9   22.60    2.06
   9   1   9   23.14    1.98
  10   1   9    5.21    1.19
   5  -2  -9    3.64    0.89
   4  -2  -9   72.15    4.23
   3  -2  -9   14.73    1.33
   2  -2  -9   62.83    3.58
   2  -2  -9   57.72    3.61
   2  -2  -9   68.64    4.32
  -2   2   9   58.44    4.57
   1  -2  -9  102.95    6.35
   1  -2  -9  123.21    6.35
   1  -2  -9  122.73    7.37
  -1   2   9  117.02    8.39
   0  -2  -9   10.84    1.09
   0  -2  -9   10.71    1.05
   0  -2  -9   11.87    1.35
  -1  -2  -9  243.93   12.31
  -1  -2  -9  241.42   12.39
  -1  -2  -9  217.63   14.01
  -2  -2  -9   41.52    2.73
  -2  -2  -9   34.45    2.73
  -2  -2  -9   35.01    2.69
  -2  -2  -9   33.91    2.40
  -3  -2  -9   33.41    2.81
  -3  -2  -9   44.04    2.86
  -3  -2  -9   35.96    2.78
  -3  -2  -9   40.04    2.45
  -3  -2  -9   41.10    2.54
  -4  -2  -9   91.66    5.71
  -4  -2  -9   87.65    5.02
  -4  -2  -9   87.78    5.86
   4   2   9   91.91    5.08
  -5  -2  -9    0.25    0.59
  -5  -2  -9   -0.41    0.51
  -5  -2  -9    0.25    0.65
   5   2   9    0.21    0.64
  -6  -2  -9   77.65    4.29
  -6  -2  -9   73.30    4.87
   6   2   9   73.95    4.33
  -7  -2  -9   17.44    1.68
   7   2   9   17.40    1.56
  -8  -2  -9   10.68    1.32
   8   2   9   11.77    1.26
  -9  -2  -9   19.07    1.94
   9   2   9   24.39    1.97
  10   2   9    0.89    1.04
   4  -3  -9   37.22    2.57
   3  -3  -9    5.92    0.95
   3  -3  -9    6.59    0.89
   2  -3  -9   99.44    5.21
   2  -3  -9   90.64    5.24
  -2   3   9   89.56    6.83
   1  -3  -9   72.66    4.01
   1  -3  -9   74.92    4.75
   1  -3  -9   65.46    4.06
  -1   3   9   66.83    5.29
   0  -3  -9   96.73    5.24
   0  -3  -9   89.16    6.00
   0  -3  -9   87.32    5.28
   0   3   9  102.50    7.10
  -1  -3  -9  197.32    9.60
  -1  -3  -9  169.73    9.61
  -1  -3  -9  171.54   10.90
  -2  -3  -9    1.19    0.70
  -2  -3  -9    0.95    0.51
  -2  -3  -9    2.17    0.51
  -2  -3  -9    1.56    0.71
  -3  -3  -9  139.93    8.72
  -3  -3  -9  126.37    7.16
  -3  -3  -9  125.90    8.10
  -4  -3  -9   45.09    3.25
  -4  -3  -9   49.03    2.95
   4   3   9   47.52    2.96
  -5  -3  -9   54.47    3.80
  -5  -3  -9   55.75    3.37
   5   3   9   58.54    3.42
  -6  -3  -9   85.68    4.55
  -6  -3  -9   74.20    5.06
   6   3   9   77.26    4.54
  -7  -3  -9    1.99    0.75
  -7  -3  -9    1.55    0.71
   7   3   9    1.40    0.76
  -8  -3  -9   23.78    2.11
   8   3   9   27.40    2.07
  -9  -3  -9   16.22    1.72
   9   3   9   16.42    1.58
  10   3   9    3.09    1.07
   6  -4  -9    0.35    0.87
   5  -4  -9   35.89    2.55
   4  -4  -9   15.54    1.54
   3  -4  -9   34.72    2.51
   3  -4  -9   39.57    2.47
   2  -4  -9  119.34    6.90
   2  -4  -9  139.77    6.88
  -2   4   9  117.97    9.12
   1  -4  -9    0.96    0.61
   1  -4  -9    0.14    0.77
   1  -4  -9   -0.04    0.65
  -1   4   9    1.26    0.88
   0  -4  -9  200.81   10.01
   0  -4  -9  181.12   11.39
   0  -4  -9  179.62   10.05
   0   4   9  188.43   13.51
  -1  -4  -9   32.71    2.06
  -1  -4  -9   26.10    2.23
  -1  -4  -9   26.20    2.07
  -2  -4  -9   36.39    2.89
  -2  -4  -9   46.19    2.84
  -2  -4  -9   35.21    2.60
  -2  -4  -9   37.26    2.52
  -3  -4  -9  126.64    7.07
  -3  -4  -9  129.74    8.07
  -3  -4  -9  136.36    7.18
   3   4   9  129.61    7.14
  -4  -4  -9   10.65    1.07
  -4  -4  -9    8.56    1.12
   4   4   9    9.72    1.10
  -5  -4  -9   83.65    5.69
  -5  -4  -9   92.94    5.10
   5   4   9   93.96    5.12
  -6  -4  -9   53.29    3.09
  -6  -4  -9   43.53    3.35
   6   4   9   52.23    3.11
  -7  -4  -9    2.79    0.81
  -7  -4  -9    3.76    0.91
   7   4   9    3.48    0.87
  -8  -4  -9   32.56    2.56
  -8  -4  -9   32.68    2.34
   8   4   9   32.60    2.35
  -9  -4  -9    0.49    0.82
   9   4   9    1.55    0.98
  10   4   9   11.28    1.51
   5  -5  -9   45.66    3.10
   4  -5  -9    0.93    0.89
   3  -5  -9   82.12    5.02
   3  -5  -9   90.10    4.93
   2  -5  -9   47.23    2.99
   2  -5  -9   45.83    2.82
  -2   5   9   41.05    3.78
   1  -5  -9   57.57    3.44
   1  -5  -9   59.21    3.32
  -1   5   9   46.93    4.39
   0  -5  -9  218.49   11.02
   0  -5  -9  200.72   11.08
   0  -5  -9  204.89   12.55
   0   5   9  203.78   14.93
  -1  -5  -9   11.30    1.38
  -1  -5  -9    9.91    1.26
  -1  -5  -9   14.01    1.26
   1   5   9   13.15    1.94
  -2  -5  -9   82.48    4.77
  -2  -5  -9   80.89    4.66
  -2  -5  -9   78.87    5.31
   2   5   9   84.96    4.74
  -3  -5  -9  111.58    5.80
  -3  -5  -9   99.60    6.53
  -3  -5  -9  103.87    5.83
   3   5   9   99.10    5.78
  -4  -5  -9   20.49    1.68
  -4  -5  -9   17.68    1.76
   4   5   9   19.41    1.64
  -5  -5  -9   97.36    6.41
  -5  -5  -9  110.34    5.77
   5   5   9   99.45    5.69
  -6  -5  -9    3.55    0.83
  -6  -5  -9    3.20    0.80
   6   5   9    4.14    0.79
  -7  -5  -9   23.64    2.07
  -7  -5  -9   26.46    1.99
   7   5   9   26.85    2.00
  -8  -5  -9   26.33    2.22
  -8  -5  -9   26.28    2.07
   8   5   9   25.93    2.06
  -9  -5  -9    0.28    0.82
   9   5   9    1.14    0.93
  10   5   9   18.51    1.87
   5  -6  -9   16.60    1.71
   4  -6  -9   18.31    1.76
   3  -6  -9   65.83    3.89
   3  -6  -9   63.89    4.03
   2  -6  -9    2.84    0.92
   2  -6  -9    2.63    0.78
  -2   6   9    1.42    1.15
   1  -6  -9   71.54    3.85
   1  -6  -9   65.70    3.96
  -1   6   9   52.99    5.04
   0  -6  -9   60.99    3.93
   0  -6  -9   67.71    3.86
   0   6   9   62.74    5.27
  -1  -6  -9    5.72    1.07
  -1  -6  -9    6.09    0.96
   1   6   9    7.65    1.62
   1   6   9    7.25    1.06
  -2  -6  -9   73.96    4.24
  -2  -6  -9   71.48    4.33
  -2  -6  -9   67.11    4.76
   2   6   9   77.65    4.32
  -3  -6  -9   12.21    1.25
  -3  -6  -9   15.49    1.43
  -3  -6  -9   13.29    1.47
   3   6   9   13.75    1.32
  -4  -6  -9   76.91    5.00
  -4  -6  -9   76.90    4.45
   4   6   9   74.23    4.42
  -5  -6  -9   57.05    3.91
  -5  -6  -9   54.55    3.46
   5   6   9   59.74    3.51
  -6  -6  -9    2.52    0.79
  -6  -6  -9    1.18    0.78
   6   6   9    2.87    0.82
  -7  -6  -9   37.02    2.55
  -7  -6  -9   36.21    2.77
   7   6   9   36.40    2.52
  -8  -6  -9   14.12    1.49
  -8  -6  -9   11.92    1.44
   8   6   9   11.49    1.36
  -9  -6  -9    7.82    1.27
  -9  -6  -9    7.90    1.25
   9   6   9    7.98    1.25
  10   6   9    9.80    1.44
   4  -7  -9   40.46    2.96
   3  -7  -9   49.61    3.11
   3  -7  -9   46.77    3.31
   2  -7  -9    1.91    1.06
   2  -7  -9    1.91    0.87
  -2   7   9    0.52    1.16
   1  -7  -9   94.42    5.43
   1  -7  -9  100.68    5.29
  -1   7   9   79.00    7.07
   0  -7  -9    9.37    1.18
   0  -7  -9    8.69    1.32
   0   7   9    9.30    1.71
  -1  -7  -9   67.30    4.37
  -1  -7  -9   74.95    4.32
   1   7   9   75.89    6.22
  -2  -7  -9  100.59    5.80
  -2  -7  -9   98.74    5.88
   2   7   9  116.45    8.49
   2   7   9   99.01    5.77
  -3  -7  -9    1.65    0.84
  -3  -7  -9    1.87    0.68
  -3  -7  -9    2.32    0.78
   3   7   9    2.21    0.78
  -4  -7  -9  122.13    6.62
  -4  -7  -9  113.32    7.37
   4   7   9  118.24    6.53
  -5  -7  -9   21.51    1.90
  -5  -7  -9   17.82    1.71
   5   7   9   19.04    1.68
  -6  -7  -9   11.34    1.31
  -6  -7  -9   10.99    1.28
   6   7   9   10.61    1.23
  -7  -7  -9   34.36    2.42
  -7  -7  -9   30.50    2.50
   7   7   9   33.17    2.37
  -8  -7  -9   -0.42    0.79
  -8  -7  -9   -0.49    0.84
   8   7   9   -0.28    0.83
  -9  -7  -9   19.56    1.90
  -9  -7  -9   19.84    1.95
   9   7   9   18.00    1.80
  10   7   9    4.52    1.23
   3  -8  -9    9.71    1.30
   3  -8  -9    9.34    1.48
   2  -8  -9   34.03    2.64
   2  -8  -9   34.75    2.43
  -2   8   9   27.25    3.28
   1  -8  -9   62.94    3.58
   1  -8  -9   52.29    3.65
  -1   8   9   48.65    4.82
   0  -8  -9    2.00    0.87
   0  -8  -9    1.80    1.07
   0   8   9    2.25    1.35
  -1  -8  -9   83.26    4.89
  -1  -8  -9   83.79    5.04
   1   8   9   82.41    6.95
  -2  -8  -9   28.96    2.17
  -2  -8  -9   26.42    2.28
   2   8   9   27.53    3.45
  -3  -8  -9   43.28    3.04
   3   8   9   53.99    4.86
   3   8   9   43.41    2.95
  -4  -8  -9   51.78    3.34
   4   8   9   51.58    3.24
  -5  -8  -9    0.35    0.82
  -5  -8  -9    0.77    0.82
   5   8   9    0.88    0.73
  -6  -8  -9   26.21    2.25
  -6  -8  -9   26.47    2.09
   6   8   9   24.68    2.08
  -7  -8  -9   12.07    1.42
  -7  -8  -9   15.83    1.53
   7   8   9   12.60    1.40
  -8  -8  -9    8.46    1.26
  -8  -8  -9    7.41    1.25
   8   8   9    8.31    1.28
  -9  -8  -9   15.66    1.76
  -9  -8  -9   17.62    1.76
   9   8   9   15.94    1.71
  10   8   9    1.66    1.12
   2  -9  -9   44.35    3.12
   2  -9  -9   45.53    3.01
  -2   9   9   32.23    3.89
   1  -9  -9   15.74    1.59
   1  -9  -9   13.30    1.72
  -1   9   9   11.94    2.25
   0  -9  -9   26.08    2.08
   0  -9  -9   24.20    2.28
   0   9   9   19.93    2.85
  -1  -9  -9   68.94    4.31
  -1  -9  -9   68.55    4.23
   1   9   9   67.41    6.13
  -2  -9  -9    0.41    0.88
  -2  -9  -9    0.64    0.84
   2   9   9    0.39    1.57
  -3  -9  -9   51.21    3.54
   3   9   9   59.58    5.58
  -4  -9  -9   22.97    2.02
   4   9   9   24.84    3.30
  -5  -9  -9    4.77    1.05
   5   9   9    3.90    1.01
  -6  -9  -9   44.64    3.01
   6   9   9   43.70    2.95
  -7  -9  -9    2.67    1.02
   7   9   9    3.49    1.04
  -8  -9  -9   16.55    1.76
   8   9   9   20.74    1.92
  -9  -9  -9    8.15    1.47
   9   9   9    7.80    1.38
   1 -10  -9   -0.57    0.99
   1 -10  -9   -2.01    1.00
  -1  10   9    0.21    1.58
   0 -10  -9   56.31    3.77
   0 -10  -9   56.04    3.60
   0  10   9   49.67    5.15
  -1 -10  -9   31.71    2.63
  -1 -10  -9   31.18    2.46
   1  10   9   32.03    3.93
  -2 -10  -9    8.03    1.31
   2  10   9    8.95    2.28
  -3 -10  -9   41.55    3.00
   3  10   9   41.38    4.68
  -4 -10  -9    5.43    1.14
   4  10   9    4.44    2.12
  -5 -10  -9   28.32    2.40
   5  10   9   39.24    4.26
  -6 -10  -9   23.79    2.09
  -7 -10  -9    2.06    1.05
   7  10   9    3.47    1.05
  -8 -10  -9   16.60    1.85
   8  10   9   17.41    1.78
  -9 -10  -9    1.95    1.13
   9  10   9    0.38    1.09
   0 -11  -9   42.73    3.10
   0 -11  -9   37.90    2.92
   0  11   9   32.87    4.26
  -1 -11  -9    2.19    1.14
   1  11   9    1.09    1.87
  -2 -11  -9   20.59    1.99
   2  11   9   18.01    3.06
  -3 -11  -9   24.14    2.17
   3  11   9   18.53    3.25
  -4 -11  -9    1.68    0.99
   4  11   9    0.31    1.82
  -5 -11  -9   28.26    2.34
   5  11   9   29.33    3.90
  -6 -11  -9    4.64    1.16
   6  11   9    5.72    2.20
  -7 -11  -9    5.88    1.27
  -8 -11  -9    9.19    1.48
  -1 -12  -9    1.42    1.16
   1  12   9    1.56    2.03
  -2 -12  -9   25.91    2.35
   2  12   9   21.61    3.52
  -3 -12  -9   10.12    1.53
   3  12   9    7.44    2.54
  -4 -12  -9   12.44    1.51
   4  12   9    6.16    2.50
  -5 -12  -9   19.74    1.89
   5  12   9   16.08    3.22
  -6 -12  -9    0.23    1.01
   6  12   9   -0.75    1.91
  -7 -12  -9   11.85    1.62
   7  12   9   14.82    3.16
   3  10 -10   -1.69    1.62
   2  10 -10   26.73    3.40
   1  10 -10   12.27    1.36
   1  10 -10   11.50    2.48
   0  10 -10    7.77    1.22
   0  10 -10    6.88    2.18
  -1  10 -10   19.24    2.95
  -1  10 -10   20.99    1.77
  -2  10 -10    3.11    0.96
  -2  10 -10    2.33    1.81
   5   9 -10   20.51    2.83
   4   9 -10   11.81    2.26
   3   9 -10    5.61    1.93
   2   9 -10   30.24    3.56
   1   9 -10   -0.08    0.99
   1   9 -10    0.34    0.85
   1   9 -10   -1.22    1.48
   0   9 -10   13.28    1.30
   0   9 -10   11.98    1.54
   0   9 -10    9.55    2.21
  -1   9 -10    7.66    1.24
  -1   9 -10    7.68    1.89
  -1   9 -10    8.71    1.11
  -2   9 -10    1.66    0.83
  -2   9 -10    0.79    1.14
  -2   9 -10    2.99    1.71
  -3   9 -10   12.56    1.36
  -3   9 -10   13.23    1.76
  -3   9 -10   18.63    2.51
   5   8 -10   26.14    3.13
   4   8 -10    2.79    1.35
   4   8 -10    4.55    1.55
   3   8 -10   16.53    2.36
   3   8 -10   13.52    1.90
   2   8 -10   11.66    1.70
   2   8 -10   13.78    2.21
   1   8 -10    4.75    1.75
   1   8 -10    4.07    0.94
   1   8 -10    4.88    1.26
   0   8 -10   37.97    3.07
   0   8 -10   40.51    2.38
   0   8 -10   41.20    3.96
   0   8 -10   33.40    3.24
  -1   8 -10    9.15    1.33
  -1   8 -10    8.08    1.45
  -1   8 -10    7.35    1.87
  -2   8 -10   21.15    2.29
  -2   8 -10   16.61    1.84
  -2   8 -10   19.87    2.58
  -3   8 -10   21.55    2.05
  -3   8 -10   29.25    2.60
  -3   8 -10   29.51    3.14
  -4   8 -10    1.80    1.03
  -4   8 -10    0.55    0.67
   6   7 -10   19.79    2.60
   5   7 -10   17.46    2.34
   5   7 -10   28.04    2.92
   4   7 -10    6.23    1.54
   4   7 -10    8.19    1.77
   3   7 -10   47.52    4.01
   3   7 -10   59.49    4.70
   2   7 -10    3.78    1.23
   2   7 -10    2.95    1.48
   1   7 -10   39.76    3.18
   1   7 -10   34.73    2.34
   1   7 -10   44.78    3.90
   0   7 -10   40.66    3.53
   0   7 -10   44.46    4.06
   0   7 -10   44.96    2.54
   0   7 -10   40.28    3.25
  -1   7 -10    3.09    1.34
  -1   7 -10    5.65    1.32
  -1   7 -10    4.40    1.14
  -2   7 -10   48.25    4.46
  -2   7 -10   59.91    4.08
  -2   7 -10   46.75    3.65
  -3   7 -10   10.86    1.91
  -3   7 -10   12.46    1.62
  -3   7 -10   10.33    1.39
  -4   7 -10   13.13    2.07
  -4   7 -10   12.82    1.42
  -4   7 -10   17.72    1.96
  -5   7 -10   14.83    1.55
  -5   7 -10   23.01    2.17
   5  -7  10   18.43    1.69
   6   6 -10   26.19    2.69
   6   6 -10   19.23    1.91
   5   6 -10    2.08    0.86
   5   6 -10    4.32    1.43
   4   6 -10   18.05    1.68
   4   6 -10   22.64    2.29
   3   6 -10   36.42    2.70
   3   6 -10   51.05    3.93
   3   6 -10   44.61    3.45
   2   6 -10    0.26    0.97
   2   6 -10    0.00    1.18
   1   6 -10   66.26    4.86
   1   6 -10   48.72    4.05
   1   6 -10   57.23    3.09
   0   6 -10   23.77    1.72
   0   6 -10   24.63    2.77
   0   6 -10   23.42    2.39
   0   6 -10   22.70    2.23
  -1   6 -10   31.54    2.66
  -1   6 -10   26.15    2.42
  -1   6 -10   22.72    2.83
  -2   6 -10   72.64    5.10
  -2   6 -10   72.36    5.65
  -2   6 -10   69.51    4.87
  -3   6 -10    0.94    1.16
  -3   6 -10    3.00    1.00
  -3   6 -10    1.49    0.99
  -4   6 -10   29.16    2.96
  -4   6 -10   24.77    2.34
  -4   6 -10   31.47    2.59
  -5   6 -10   10.82    1.37
  -5   6 -10   12.93    1.60
   5  -6  10   10.87    1.26
  -6   6 -10    1.98    1.03
  -6   6 -10    1.57    0.78
   6  -6  10    2.16    0.83
   6   5 -10   15.31    1.57
   5   5 -10    0.77    0.79
   5   5 -10    0.09    1.12
   4   5 -10   38.33    3.29
   3   5 -10   25.16    2.53
   3   5 -10   32.43    2.94
   2   5 -10   30.46    2.76
   2   5 -10   22.51    1.83
   2   5 -10   24.22    2.38
   1   5 -10  106.54    6.75
   1   5 -10   80.37    5.85
   1   5 -10   81.07    4.97
   1   5 -10   88.67    4.43
   0   5 -10    1.38    0.95
   0   5 -10    0.36    1.09
  -1   5 -10   70.89    4.99
  -1   5 -10   68.83    5.48
  -1   5 -10   71.68    4.85
  -2   5 -10   28.82    2.51
  -2   5 -10   29.80    2.90
  -2   5 -10   30.43    2.63
  -3   5 -10   11.20    1.47
  -3   5 -10   10.25    1.41
  -3   5 -10   10.57    1.66
  -4   5 -10   36.88    3.36
  -4   5 -10   35.82    3.00
  -4   5 -10   39.31    2.97
  -5   5 -10    0.42    0.90
  -5   5 -10    1.66    0.91
  -6   5 -10   23.19    2.06
  -6   5 -10   21.16    2.15
   6  -5  10   19.96    1.78
  -7   5 -10   15.31    1.76
   7  -5  10   14.50    1.42
   6   4 -10   14.87    1.56
   5   4 -10    7.44    1.58
   5   4 -10    7.32    1.10
   4   4 -10   65.09    4.74
   3   4 -10   -0.33    0.85
   2   4 -10   56.10    3.61
   2   4 -10   68.77    4.44
   1   4 -10   35.31    2.86
   1   4 -10   32.62    2.33
   1   4 -10   40.01    3.18
   0   4 -10   19.05    1.97
   0   4 -10   17.20    1.57
   0   4 -10   18.41    2.17
  -1   4 -10   98.86    6.90
  -1   4 -10   98.25    6.18
  -1   4 -10   91.02    5.23
  -1   4 -10   87.67    6.29
  -2   4 -10   10.16    1.34
  -2   4 -10   11.58    1.43
  -2   4 -10    7.67    1.44
  -3   4 -10   50.83    3.85
  -3   4 -10   59.87    3.87
  -3   4 -10   47.79    4.15
  -4   4 -10   61.50    3.96
  -4   4 -10   54.41    4.31
  -4   4 -10   47.86    3.85
  -5   4 -10    3.72    0.96
  -5   4 -10    6.37    1.18
  -6   4 -10   41.99    3.44
  -6   4 -10   56.00    3.55
   6  -4  10   42.02    2.91
  -7   4 -10    8.05    1.29
  -7   4 -10    6.17    1.26
   7  -4  10    6.11    1.08
   6   3 -10   -0.55    0.82
   5   3 -10   48.04    3.88
   4   3 -10   29.03    2.66
   3   3 -10   13.51    1.72
   2   3 -10   73.92    4.56
   2   3 -10   89.19    5.53
   1   3 -10    4.36    0.82
   1   3 -10    5.46    1.10
   1   3 -10    6.00    1.17
   0   3 -10  122.51    7.31
   0   3 -10  147.60    9.50
   0   3 -10  137.60    8.55
  -1   3 -10  124.60    8.65
  -1   3 -10  117.90    8.02
  -1   3 -10  131.22    7.83
  -1   3 -10  119.09    6.71
  -2   3 -10    5.88    1.12
  -2   3 -10    4.87    0.86
  -2   3 -10    4.42    1.07
  -2   3 -10    4.95    1.01
  -3   3 -10   86.09    6.19
  -3   3 -10  105.00    6.14
  -3   3 -10   90.93    6.71
  -4   3 -10    9.30    1.27
  -4   3 -10   11.49    1.49
  -4   3 -10   10.92    1.37
  -5   3 -10   30.92    2.41
  -5   3 -10   23.76    2.25
  -6   3 -10   30.06    2.40
  -6   3 -10   26.33    2.30
   6  -3  10   24.40    2.02
  -7   3 -10    0.49    0.85
  -7   3 -10    1.06    0.97
   7  -3  10   -1.36    0.73
  -8   3 -10   18.05    1.93
   8  -3  10   17.14    1.69
   6   2 -10    3.33    1.00
   4   2 -10    5.36    1.24
   3   2 -10   48.17    3.62
   2   2 -10   63.13    4.00
   2   2 -10   77.13    4.87
   1   2 -10    1.18    0.66
   1   2 -10    0.27    0.86
   1   2 -10    0.75    0.82
   0   2 -10  111.21    7.03
   0   2 -10   97.92    6.00
   0   2 -10  119.89    7.72
  -1   2 -10   56.21    3.53
  -1   2 -10   61.83    4.18
  -1   2 -10   63.31    4.54
  -1   2 -10   57.17    4.24
  -2   2 -10   26.24    2.27
  -2   2 -10   29.03    2.28
  -2   2 -10   25.70    1.92
  -2   2 -10   27.19    2.51
  -3   2 -10   87.65    6.03
  -3   2 -10   80.13    5.58
  -3   2 -10   83.63    5.45
  -3   2 -10   81.32    4.69
  -4   2 -10    0.38    0.77
  -4   2 -10    0.29    0.71
  -4   2 -10   -0.34    0.64
  -5   2 -10   54.56    3.93
  -5   2 -10   55.17    3.84
  -6   2 -10   20.37    1.90
  -6   2 -10   18.90    1.85
   6  -2  10   16.68    1.60
  -7   2 -10   10.66    1.40
  -7   2 -10    9.10    1.29
   7  -2  10    9.72    1.22
   8  -2  10   22.02    1.91
   4   1 -10    6.36    1.26
   4   1 -10    3.61    0.91
   3   1 -10  100.45    6.62
   2   1 -10   26.07    2.05
   2   1 -10   34.87    2.63
   1   1 -10   41.57    3.06
   1   1 -10   35.48    2.47
   0   1 -10  168.76   10.59
   0   1 -10  158.12    9.20
   0   1 -10  190.06   11.72
  -1   1 -10    2.15    0.88
  -1   1 -10    2.63    0.73
  -1   1 -10    1.89    0.85
  -2   1 -10  148.80    9.81
  -2   1 -10  157.28   10.48
  -2   1 -10  157.13    9.51
  -2   1 -10  152.63    8.31
  -3   1 -10   24.77    2.13
  -3   1 -10   23.32    1.72
  -3   1 -10   21.68    1.98
  -3   1 -10   19.98    1.98
  -4   1 -10   33.04    2.70
  -4   1 -10   31.97    2.75
  -4   1 -10   37.55    2.36
  -4   1 -10   41.54    3.00
  -5   1 -10   73.68    5.04
  -5   1 -10   75.05    5.19
   5  -1  10   82.25    4.53
  -6   1 -10    2.71    0.85
  -6   1 -10    1.83    0.84
   6  -1  10    3.29    0.85
  -7   1 -10   26.12    2.34
   7  -1  10   28.12    2.13
  -8   1 -10   15.04    1.68
   8  -1  10   13.40    1.40
   9  -1  10    2.80    1.03
   5   0 -10    2.40    0.89
   4   0 -10   40.28    2.69
   3   0 -10   80.18    5.47
   2   0 -10    0.29    0.65
   2   0 -10    0.97    0.93
   1   0 -10  150.28    8.46
   1   0 -10  118.35    7.20
   0   0 -10   78.05    4.90
   0   0 -10   67.34    4.14
  -1   0 -10   74.73    5.12
  -1   0 -10   71.18    4.17
  -1   0 -10   67.81    4.77
  -2   0 -10   76.15    4.51
  -2   0 -10   82.66    5.57
  -2   0 -10   76.44    5.16
  -3   0 -10    2.92    0.75
  -3   0 -10    0.81    0.67
  -3   0 -10    1.84    0.78
  -3   0 -10    2.23    0.81
  -4   0 -10   60.12    3.55
  -4   0 -10   53.12    3.97
  -4   0 -10   67.22    4.36
  -4   0 -10   55.51    4.12
  -5   0 -10   50.64    3.03
  -5   0 -10   49.65    3.46
  -5   0 -10   44.12    3.45
   5   0  10   50.33    3.09
  -6   0 -10    7.12    1.14
   6   0  10    6.45    1.02
  -7   0 -10   30.37    2.55
   7   0  10   34.23    2.34
  -8   0 -10    2.84    1.02
   8   0  10    2.60    0.96
   9   0  10    9.30    1.33
   5  -1 -10    0.11    0.76
   3  -1 -10   34.64    2.39
   2  -1 -10   13.12    1.54
   2  -1 -10   12.80    1.27
   1  -1 -10  129.50    7.93
   1  -1 -10  168.87    9.31
   0  -1 -10    0.75    0.68
   0  -1 -10    1.36    0.90
  -1  -1 -10  116.93    7.86
  -1  -1 -10  122.27    6.92
  -1  -1 -10  137.46    8.60
  -2  -1 -10   72.15    4.49
  -2  -1 -10   75.33    5.13
  -2  -1 -10   85.50    5.50
  -3  -1 -10    2.50    0.77
  -3  -1 -10    4.14    0.76
  -3  -1 -10    3.22    0.84
  -4  -1 -10  163.48   10.07
  -4  -1 -10  146.31    8.09
  -4  -1 -10  136.45    9.16
  -5  -1 -10    9.56    1.24
  -5  -1 -10    8.55    1.04
   5   1  10    8.38    1.12
  -6  -1 -10   45.68    3.36
   6   1  10   48.58    3.03
  -7  -1 -10   32.72    2.62
   7   1  10   33.46    2.37
  -8  -1 -10    0.50    0.84
   8   1  10    0.01    0.79
   9   1  10   22.25    2.04
   5  -2 -10   17.49    1.71
   4  -2 -10   56.18    3.51
   3  -2 -10    3.66    0.89
   2  -2 -10   76.29    4.93
   2  -2 -10  100.94    5.92
   1  -2 -10   85.83    5.19
   1  -2 -10   96.56    6.05
  -1   2  10   93.68    6.77
   0  -2 -10   44.29    3.20
   0  -2 -10   41.42    2.77
  -1  -2 -10  143.52    8.48
  -1  -2 -10  149.28    9.67
  -1  -2 -10  175.56   10.56
  -2  -2 -10   28.12    2.09
  -2  -2 -10   25.51    2.31
  -2  -2 -10   33.59    2.34
  -3  -2 -10   61.75    4.50
  -3  -2 -10   64.29    4.02
  -3  -2 -10   76.08    4.77
  -4  -2 -10   96.30    5.44
  -4  -2 -10  104.86    6.57
  -4  -2 -10   89.04    6.12
   4   2  10   93.31    5.46
  -5  -2 -10    6.59    1.04
  -5  -2 -10    8.24    1.03
   5   2  10    7.30    1.07
  -6  -2 -10   52.17    3.18
  -6  -2 -10   48.75    3.60
   6   2  10   53.42    3.26
  -7  -2 -10   11.35    1.42
   7   2  10   13.22    1.35
  -8  -2 -10   10.59    1.37
   8   2  10   10.75    1.30
   9   2  10   17.92    1.78
   5  -3 -10   24.62    2.14
   4  -3 -10   31.48    2.32
   3  -3 -10    8.46    1.11
   2  -3 -10  107.56    6.04
   1  -3 -10   16.04    1.57
   1  -3 -10   19.10    1.88
  -1   3  10   17.00    1.98
   0  -3 -10   69.76    4.62
   0  -3 -10   60.26    3.96
   0   3  10   70.85    5.29
  -1  -3 -10   89.84    5.06
  -1  -3 -10   85.12    5.68
  -2  -3 -10    0.35    0.49
  -2  -3 -10    0.52    0.75
  -2  -3 -10    1.09    0.75
  -3  -3 -10  131.13    8.37
  -3  -3 -10  138.97    7.44
  -4  -3 -10   26.98    2.05
  -4  -3 -10   27.02    2.27
   4   3  10   27.48    2.10
  -5  -3 -10   39.83    2.58
  -5  -3 -10   36.64    2.82
   5   3  10   37.59    2.60
  -6  -3 -10   48.68    3.54
  -6  -3 -10   51.87    3.16
   6   3  10   49.68    3.19
  -7  -3 -10    1.03    0.83
  -7  -3 -10    0.59    0.82
   7   3  10    1.15    0.81
  -8  -3 -10   23.74    2.19
   8   3  10   26.39    2.06
   9   3  10    8.90    1.35
  10   3  10    3.56    1.14
   5  -4 -10   38.03    2.72
   4  -4 -10    3.96    1.07
   3  -4 -10   50.97    3.31
   2  -4 -10   79.09    4.65
   1  -4 -10   -0.13    0.73
  -1   4  10    0.05    0.82
   0  -4 -10  122.46    6.61
   0  -4 -10  110.40    6.66
   0  -4 -10  120.44    7.62
   0   4  10  125.73    8.98
  -1  -4 -10   38.05    2.73
  -1  -4 -10   45.83    3.20
  -2  -4 -10   39.81    2.75
  -2  -4 -10   43.73    3.15
  -3  -4 -10  123.37    8.02
  -3  -4 -10  125.40    7.11
   3   4  10  138.12    7.18
  -4  -4 -10    0.16    0.68
  -4  -4 -10    0.35    0.74
   4   4  10   -0.16    0.65
  -5  -4 -10   73.00    4.18
  -5  -4 -10   64.88    4.61
   5   4  10   71.59    4.19
  -6  -4 -10   26.48    1.97
  -6  -4 -10   22.30    2.11
   6   4  10   25.27    2.00
  -7  -4 -10    5.04    0.99
  -7  -4 -10    5.80    1.03
   7   4  10    4.92    1.01
  -8  -4 -10   27.32    2.30
   8   4  10   24.69    2.09
  -9  -4 -10   -0.50    0.82
   9   4  10   -0.17    0.90
  10   4  10   11.76    1.52
   4  -5 -10   -0.61    0.90
   3  -5 -10   57.37    3.63
   2  -5 -10   44.59    3.00
   1  -5 -10   36.48    2.59
  -1   5  10   33.20    3.15
   0  -5 -10  128.95    6.84
   0  -5 -10  113.58    6.89
   0   5  10  127.54    9.30
  -1  -5 -10    1.18    0.79
  -1  -5 -10    1.16    0.83
   1   5  10    1.35    1.24
  -2  -5 -10  106.00    7.21
  -2  -5 -10  108.40    6.43
   2   5  10  129.00    6.52
  -3  -5 -10   51.25    3.24
  -3  -5 -10   47.19    3.61
   3   5  10   53.34    3.27
  -4  -5 -10   24.38    2.15
  -4  -5 -10   25.80    2.06
   4   5  10   26.33    2.05
  -5  -5 -10   64.23    3.79
  -5  -5 -10   57.46    4.14
   5   5  10   62.32    3.77
  -6  -5 -10    4.63    1.01
  -6  -5 -10    6.29    1.04
   6   5  10    5.43    1.04
  -7  -5 -10   29.44    2.19
  -7  -5 -10   26.86    2.34
   7   5  10   26.78    2.16
  -8  -5 -10   21.58    2.13
  -8  -5 -10   26.59    2.08
   8   5  10   23.24    2.02
  -9  -5 -10    3.19    1.02
   9   5  10    4.09    1.19
  10   5  10   16.62    1.78
   4  -6 -10   15.49    1.70
   3  -6 -10   62.31    3.94
   2  -6 -10    0.04    0.87
   1  -6 -10   67.14    4.08
  -1   6  10   62.62    5.27
   0  -6 -10   42.90    2.72
   0  -6 -10   36.14    2.81
   0   6  10   37.54    3.67
  -1  -6 -10   23.76    2.12
   1   6  10   22.81    2.02
   1   6  10   31.12    3.15
  -2  -6 -10  139.24    8.10
  -2  -6 -10  144.48    9.12
   2   6  10  155.31    8.10
  -3  -6 -10   22.14    1.94
  -3  -6 -10   20.82    2.09
   3   6  10   21.09    1.88
  -4  -6 -10   50.58    3.24
  -4  -6 -10   46.13    3.48
   4   6  10   50.82    3.20
  -5  -6 -10   43.28    2.83
  -5  -6 -10   38.63    3.06
   5   6  10   40.50    2.78
  -6  -6 -10    2.96    0.95
  -6  -6 -10    3.09    0.96
   6   6  10    1.88    0.87
  -7  -6 -10   47.78    2.99
  -7  -6 -10   39.70    3.14
   7   6  10   43.16    2.93
  -8  -6 -10    3.81    0.98
  -8  -6 -10    4.42    1.07
   8   6  10    4.17    1.08
  -9  -6 -10    8.99    1.40
   9   6  10   10.65    1.43
  10   6  10    9.84    1.48
   3  -7 -10   26.62    2.38
   2  -7 -10    3.53    1.22
   1  -7 -10   76.77    4.55
  -1   7  10   67.52    5.88
   0  -7 -10   12.28    1.51
   0   7  10   11.45    2.02
  -1  -7 -10   52.62    3.76
   1   7  10   66.51    5.40
  -2  -7 -10   61.71    4.15
   2   7  10   60.86    4.04
   2   7  10   84.24    6.33
  -3  -7 -10    0.50    0.91
   3   7  10    1.20    0.89
  -4  -7 -10   41.52    3.19
  -4  -7 -10   45.10    3.00
   4   7  10   42.76    2.91
  -5  -7 -10    8.25    1.30
  -5  -7 -10    9.47    1.26
   5   7  10    7.70    1.17
  -6  -7 -10   16.72    1.76
  -6  -7 -10   17.72    1.70
   6   7  10   18.38    1.74
  -7  -7 -10   33.30    2.70
  -7  -7 -10   34.25    2.53
   7   7  10   32.40    2.48
  -8  -7 -10   -0.93    0.90
  -8  -7 -10    0.70    0.91
   8   7  10   -0.08    0.91
  -9  -7 -10   14.09    1.60
  -9  -7 -10   14.03    1.64
   9   7  10   14.85    1.67
   2  -8 -10   22.98    2.27
   1  -8 -10   54.76    3.60
  -1   8  10   46.80    4.64
   0  -8 -10    1.89    1.08
   0   8  10    1.81    1.55
  -1  -8 -10   57.98    4.08
   1   8  10   68.80    5.77
  -2  -8 -10   11.33    1.51
   2   8  10   13.84    2.55
  -3  -8 -10   29.26    2.55
   3   8  10   45.02    4.52
  -4  -8 -10   60.62    3.83
   4   8  10   58.60    3.73
  -5  -8 -10    0.58    0.92
   5   8  10    0.56    0.85
  -6  -8 -10   42.58    3.00
   6   8  10   43.32    2.96
  -7  -8 -10   11.87    1.45
  -7  -8 -10   11.55    1.49
   7   8  10   12.71    1.45
  -8  -8 -10    5.85    1.16
  -8  -8 -10    6.37    1.27
   8   8  10    6.42    1.26
  -9  -8 -10   10.21    1.55
  -9  -8 -10   11.98    1.55
   9   8  10    9.90    1.49
   2  -9 -10   29.25    2.73
   1  -9 -10    6.11    1.45
  -1   9  10    3.61    1.78
   0  -9 -10   29.03    2.58
   0   9  10   31.70    3.71
  -1  -9 -10   39.98    3.13
   1   9  10   47.36    4.74
  -2  -9 -10    1.47    1.04
   2   9  10    0.62    1.79
  -3  -9 -10   48.03    3.51
   3   9  10   59.91    5.60
  -4  -9 -10   14.88    1.74
   4   9  10   26.39    3.35
  -5  -9 -10   10.01    1.41
   5   9  10    9.88    1.36
  -6  -9 -10   20.26    2.05
   6   9  10   24.52    2.07
  -7  -9 -10    0.85    1.03
   7   9  10    1.78    1.01
  -8  -9 -10   13.63    1.66
   8   9  10   12.54    1.61
  -9  -9 -10    5.19    1.32
   9   9  10    4.56    1.29
   1 -10 -10   -1.19    1.17
  -1  10  10   -1.04    1.59
   0 -10 -10   35.23    3.00
   0  10  10   37.63    4.31
  -1 -10 -10   25.58    2.43
   1  10  10   26.72    3.47
  -2 -10 -10    4.60    1.26
   2  10  10    4.25    2.21
  -3 -10 -10   40.58    3.16
   3  10  10   51.72    5.42
  -4 -10 -10    1.11    1.05
   4  10  10    1.04    2.09
  -5 -10 -10   17.57    1.82
  -6 -10 -10   19.24    1.97
  -7 -10 -10    2.81    1.16
  -8 -10 -10   15.58    1.82
   8  10  10   17.43    1.84
  -1 -11 -10   -0.53    1.22
   1  11  10   -0.61    1.90
  -2 -11 -10   23.66    2.38
   2  11  10   29.06    3.86
  -3 -11 -10   13.05    1.75
   3  11  10   19.09    3.38
  -4 -11 -10    1.76    1.15
   4  11  10    1.12    2.47
  -5 -11 -10   18.13    1.96
   5  11  10   24.97    3.77
  -6 -11 -10    1.81    1.21
   6  11  10    5.69    2.44
  -7 -11 -10   10.57    1.57
  -3 -12 -10    3.15    1.36
   3  12  10    2.32    2.48
  -4 -12 -10    8.11    1.50
   4  12  10    5.71    2.78
  -5 -12 -10   14.30    1.82
   5  12  10   11.51    3.22
   3   9 -11    6.91    1.99
   2   9 -11   25.61    3.16
   1   9 -11   -0.28    1.62
   0   9 -11   23.12    3.08
  -1   9 -11    6.84    2.07
  -1   9 -11    7.32    1.13
  -2   9 -11    0.76    1.68
  -2   9 -11    0.61    1.24
   4   8 -11    0.02    1.47
   3   8 -11   22.60    2.80
   2   8 -11   13.58    2.28
   1   8 -11    2.61    1.26
   1   8 -11    5.33    1.81
   0   8 -11   18.69    2.70
   0   8 -11   20.85    2.29
   0   8 -11   20.64    1.74
  -1   8 -11    4.91    1.31
  -1   8 -11    5.17    1.78
  -1   8 -11    6.50    1.05
  -2   8 -11   11.64    1.79
  -2   8 -11   10.03    2.10
  -3   8 -11   16.73    2.51
  -3   8 -11   16.78    2.05
  -4   8 -11    2.51    1.23
   5   7 -11   13.65    2.20
   4   7 -11    4.19    1.58
   3   7 -11   46.88    4.14
   3   7 -11   41.16    3.69
   2   7 -11    5.92    1.51
   2   7 -11    5.30    1.68
   1   7 -11   13.81    1.91
   1   7 -11   17.34    2.33
   0   7 -11   24.13    2.96
   0   7 -11   21.13    2.37
   0   7 -11   23.86    1.81
  -1   7 -11    1.62    1.03
  -1   7 -11    1.53    1.44
  -2   7 -11   42.38    4.14
  -2   7 -11   47.86    3.71
  -2   7 -11   43.02    3.45
  -3   7 -11    6.11    1.68
  -3   7 -11    7.03    1.43
  -3   7 -11    3.46    1.15
  -4   7 -11   10.44    2.09
  -4   7 -11   12.40    1.80
  -5   7 -11   14.19    1.86
   5  -7  11   13.54    1.45
   5   6 -11    3.21    1.34
   5   6 -11    2.02    0.92
   4   6 -11   28.54    2.91
   4   6 -11   21.49    2.58
   3   6 -11   25.71    2.70
   3   6 -11   24.36    2.79
   2   6 -11    3.52    1.31
   2   6 -11    5.59    1.52
   1   6 -11   38.35    3.31
   1   6 -11   41.49    3.66
   0   6 -11   12.91    2.03
   0   6 -11   13.24    1.28
   0   6 -11   12.19    1.73
  -1   6 -11   23.22    2.73
  -1   6 -11   19.79    2.16
  -2   6 -11   32.45    3.56
  -2   6 -11   42.26    3.23
  -2   6 -11   42.63    3.39
  -3   6 -11    1.06    0.98
  -3   6 -11   -0.03    1.20
  -3   6 -11    0.23    1.01
  -4   6 -11   23.59    2.41
  -4   6 -11   23.18    2.25
  -4   6 -11   21.14    2.67
  -5   6 -11    7.72    1.49
  -6   6 -11    6.37    1.39
   6  -6  11    4.78    1.08
   5   5 -11    1.29    0.86
   5   5 -11   -0.90    1.21
   4   5 -11   26.51    2.93
   4   5 -11   32.99    3.00
   3   5 -11    4.04    1.34
   3   5 -11    4.12    1.27
   3   5 -11    3.60    0.95
   2   5 -11   16.88    2.01
   2   5 -11   14.99    1.89
   2   5 -11   11.54    1.30
   1   5 -11   69.63    5.16
   1   5 -11   58.63    4.60
   0   5 -11    2.08    1.22
   0   5 -11    1.10    1.06
  -1   5 -11   55.29    4.06
  -1   5 -11   54.46    4.57
  -2   5 -11   18.24    2.02
  -2   5 -11   20.89    2.06
  -2   5 -11   15.63    2.13
  -3   5 -11   14.99    1.78
  -3   5 -11   13.54    1.93
  -3   5 -11   14.42    1.73
  -4   5 -11   37.00    2.96
  -4   5 -11   33.69    3.36
  -4   5 -11   34.41    2.99
  -5   5 -11    1.54    1.02
  -5   5 -11    0.75    0.98
  -6   5 -11   17.25    1.99
   6  -5  11   15.19    1.57
   6   4 -11    3.03    1.04
   5   4 -11   10.36    1.72
   5   4 -11    6.37    1.15
   4   4 -11   18.24    1.77
   4   4 -11   27.45    2.64
   3   4 -11    3.36    1.19
   3   4 -11    0.69    1.12
   3   4 -11    0.67    0.80
   2   4 -11   51.58    3.63
   2   4 -11   61.70    4.52
   2   4 -11   73.75    4.91
   1   4 -11   36.86    3.09
   1   4 -11   34.52    2.45
   1   4 -11   39.28    3.34
   0   4 -11   30.00    2.75
   0   4 -11   24.52    2.01
   0   4 -11   25.24    2.49
  -1   4 -11   74.45    5.13
  -1   4 -11   74.18    5.68
  -2   4 -11    1.47    1.10
  -2   4 -11   -0.12    0.91
  -3   4 -11   36.14    2.99
  -3   4 -11   33.09    3.22
  -3   4 -11   39.73    3.03
  -4   4 -11   28.10    2.83
  -4   4 -11   25.98    2.48
  -4   4 -11   27.28    2.51
  -5   4 -11    4.55    1.20
  -5   4 -11    3.03    1.02
  -6   4 -11   40.09    2.91
  -6   4 -11   28.11    2.71
   6  -4  11   29.63    2.34
  -7   4 -11    3.39    1.12
   7  -4  11    3.14    0.98
   6   3 -11    0.49    1.00
   4   3 -11   24.91    2.68
   3   3 -11   23.63    2.35
   3   3 -11   18.02    1.70
   2   3 -11   92.29    6.36
   2   3 -11   77.64    4.91
   2   3 -11   91.52    5.95
   1   3 -11    6.39    0.99
   1   3 -11    6.77    1.38
   1   3 -11    8.00    1.34
   0   3 -11   67.25    4.80
   0   3 -11   58.84    3.68
   0   3 -11   58.87    4.35
  -1   3 -11   34.83    3.02
  -1   3 -11   34.58    2.82
  -1   3 -11   30.67    2.28
  -2   3 -11   15.81    1.73
  -2   3 -11   12.95    1.73
  -3   3 -11   56.95    4.77
  -3   3 -11   69.01    4.43
  -3   3 -11   61.48    4.47
  -4   3 -11    5.45    1.25
  -4   3 -11    7.94    1.35
  -4   3 -11    6.72    1.17
  -5   3 -11   24.64    2.28
  -6   3 -11   29.85    2.46
  -6   3 -11   24.32    2.34
   6  -3  11   23.70    2.07
   7  -3  11    0.94    0.90
   5   2 -11   36.10    2.61
   4   2 -11    0.75    0.81
   4   2 -11    0.69    1.17
   3   2 -11   45.86    3.34
   3   2 -11   33.06    2.53
   2   2 -11   51.49    3.79
   2   2 -11   46.62    3.06
   1   2 -11    3.88    1.20
   1   2 -11    3.18    0.82
   1   2 -11    4.81    1.09
   0   2 -11   88.17    6.00
   0   2 -11   87.15    5.15
   0   2 -11   97.16    6.56
  -1   2 -11    1.22    0.74
  -1   2 -11    1.16    0.87
  -1   2 -11    4.99    1.07
  -2   2 -11   88.58    6.11
  -2   2 -11   86.98    5.57
  -2   2 -11   74.47    4.73
  -3   2 -11   98.65    6.35
  -3   2 -11   96.26    6.96
  -4   2 -11    1.10    0.89
  -4   2 -11    1.18    0.88
  -5   2 -11   52.99    3.82
  -6   2 -11    9.59    1.35
   6  -2  11    7.31    1.20
  -7   2 -11    7.36    1.33
   7  -2  11    7.25    1.14
   8  -2  11   14.03    1.54
   6   1 -11   12.26    1.49
   4   1 -11    3.23    0.94
   3   1 -11   60.69    4.03
   3   1 -11   78.78    5.00
   2   1 -11   20.32    1.82
   2   1 -11   29.03    2.52
   1   1 -11   72.94    4.89
   1   1 -11   67.83    4.12
   0   1 -11   88.83    5.43
   0   1 -11  101.07    6.37
   0   1 -11  100.92    6.84
  -1   1 -11    0.99    0.84
  -1   1 -11    1.07    0.74
  -1   1 -11    0.05    0.82
  -2   1 -11   95.87    6.60
  -2   1 -11   93.31    6.06
  -2   1 -11   88.04    5.27
  -3   1 -11   51.47    3.36
  -3   1 -11   52.63    3.81
  -3   1 -11   58.21    4.16
  -4   1 -11   17.59    1.83
  -4   1 -11   17.94    1.92
  -5   1 -11   36.97    2.90
   5  -1  11   37.57    2.59
  -6   1 -11    0.61    0.82
   6  -1  11   -0.07    0.80
  -7   1 -11   25.70    2.29
   7  -1  11   20.66    1.92
   8  -1  11    8.42    1.32
   5   0 -11    4.07    1.06
   4   0 -11   19.40    1.77
   3   0 -11   59.47    3.66
   2   0 -11    0.54    0.74
   2   0 -11    0.54    1.05
   1   0 -11  104.14    6.31
   1   0 -11  126.33    7.44
   0   0 -11   38.31    2.85
   0   0 -11   32.72    2.79
   0   0 -11   31.67    2.37
  -1   0 -11   41.84    3.23
  -1   0 -11   37.23    2.74
  -1   0 -11   46.57    3.36
  -2   0 -11  113.55    7.27
  -2   0 -11  100.30    5.84
  -2   0 -11   96.66    6.65
  -3   0 -11    0.36    0.73
  -3   0 -11    0.21    0.77
  -3   0 -11    0.91    0.84
  -4   0 -11   94.43    6.05
  -4   0 -11   84.73    4.88
  -4   0 -11   74.54    5.52
  -5   0 -11   15.94    1.72
   5   0  11   15.59    1.52
  -6   0 -11   10.71    1.42
   6   0  11   11.32    1.37
  -7   0 -11   29.89    2.56
   7   0  11   30.90    2.33
   8   0  11    1.17    0.99
   9   0  11    7.37    1.32
   5  -1 -11    1.19    0.94
   4  -1 -11   31.72    2.37
   3  -1 -11   24.01    1.95
   2  -1 -11   26.85    2.37
   2  -1 -11   20.45    1.84
   1  -1 -11   60.27    4.02
   1  -1 -11   80.99    4.93
   0  -1 -11    1.13    0.97
   0  -1 -11    0.28    0.74
  -1  -1 -11  117.89    7.53
  -1  -1 -11  103.53    6.95
  -1  -1 -11  103.45    6.10
  -2  -1 -11   57.34    4.16
  -2  -1 -11   56.53    3.64
  -2  -1 -11   66.04    4.43
  -3  -1 -11   12.65    1.50
  -3  -1 -11   13.02    1.44
  -3  -1 -11   10.85    1.28
  -4  -1 -11   75.53    4.68
  -4  -1 -11   93.20    5.74
  -4  -1 -11   71.85    5.28
  -5  -1 -11    7.35    1.21
  -5  -1 -11    9.00    1.16
   5   1  11    6.69    1.09
  -6  -1 -11   25.88    2.29
   6   1  11   26.36    2.11
  -7  -1 -11   22.15    2.17
   7   1  11   24.66    2.02
  -8  -1 -11    1.63    0.94
   8   1  11   -0.51    0.95
   9   1  11   16.03    1.74
   5  -2 -11   10.91    1.42
   4  -2 -11   68.71    4.19
   3  -2 -11    0.92    0.82
   2  -2 -11   69.87    4.18
   1  -2 -11   71.51    4.72
   1  -2 -11   63.21    4.00
   0  -2 -11   24.70    2.06
   0  -2 -11   25.26    2.39
   0   2  11   31.23    2.76
  -1  -2 -11  136.27    7.91
  -1  -2 -11  158.56    9.77
  -1  -2 -11  135.80    8.99
  -2  -2 -11   18.67    1.82
  -2  -2 -11   23.56    1.94
  -2  -2 -11   20.97    1.99
  -3  -2 -11   78.56    5.08
  -3  -2 -11   65.60    4.81
  -3  -2 -11   70.48    4.31
  -4  -2 -11   71.39    5.05
  -4  -2 -11   82.11    4.56
  -5  -2 -11    7.75    1.11
  -5  -2 -11    6.41    1.10
   5   2  11    7.11    1.15
  -6  -2 -11   50.01    3.15
  -6  -2 -11   45.73    3.49
   6   2  11   48.08    3.17
  -7  -2 -11    5.31    1.17
   7   2  11    5.92    1.13
  -8  -2 -11   13.16    1.61
   8   2  11   13.31    1.50
   9   2  11   15.56    1.67
   5  -3 -11   24.36    2.11
   4  -3 -11   16.76    1.64
   3  -3 -11    5.63    1.08
   2  -3 -11   70.60    4.24
   1  -3 -11   14.90    1.47
   0  -3 -11   62.69    4.38
   0  -3 -11   51.67    3.68
   0   3  11   67.76    4.96
  -1  -3 -11   73.70    4.91
  -1  -3 -11   67.93    4.79
  -1  -3 -11   65.79    4.20
  -2  -3 -11    2.70    0.95
  -2  -3 -11    1.90    0.86
  -3  -3 -11  109.15    6.17
  -3  -3 -11  108.02    6.96
  -4  -3 -11   12.29    1.49
  -4  -3 -11   15.20    1.46
   4   3  11   13.55    1.46
  -5  -3 -11   19.28    1.96
  -5  -3 -11   19.68    1.80
   5   3  11   20.52    1.84
  -6  -3 -11   24.35    2.30
  -6  -3 -11   27.00    2.11
   6   3  11   28.82    2.18
  -7  -3 -11   -0.26    0.82
   7   3  11    0.25    0.84
  -8  -3 -11   20.85    2.13
   8   3  11   23.61    2.03
   9   3  11    5.15    1.19
   4  -4 -11    1.48    0.94
   3  -4 -11   24.21    2.04
   2  -4 -11   46.15    3.08
   1  -4 -11    4.47    1.02
   0  -4 -11   80.58    5.01
   0   4  11   90.85    6.72
  -1  -4 -11   34.49    2.54
  -1  -4 -11   34.36    2.85
  -2  -4 -11   33.97    2.55
  -2  -4 -11   35.56    2.85
  -3  -4 -11   79.80    5.51
  -3  -4 -11   82.86    4.92
   3   4  11   88.74    4.99
  -4  -4 -11    0.69    0.85
  -4  -4 -11    1.47    0.92
   4   4  11    1.23    0.88
  -5  -4 -11   44.45    3.36
  -5  -4 -11   41.87    2.99
   5   4  11   48.58    3.08
  -6  -4 -11   18.66    1.79
  -6  -4 -11   14.68    1.70
   6   4  11   16.14    1.62
  -7  -4 -11   12.60    1.44
  -7  -4 -11   12.10    1.55
   7   4  11   13.09    1.49
  -8  -4 -11   29.88    2.56
   8   4  11   29.37    2.38
   9   4  11    0.11    0.97
   4  -5 -11    0.47    0.95
   3  -5 -11   35.36    2.62
   2  -5 -11   15.07    1.64
   1  -5 -11   32.56    2.47
   0  -5 -11   90.49    5.46
   0   5  11   96.63    7.34
  -1  -5 -11   -0.67    0.86
   1   5  11    0.44    1.34
  -2  -5 -11   88.33    5.77
  -2  -5 -11   85.71    5.12
   2   5  11   83.94    5.10
  -3  -5 -11   21.44    2.14
  -3  -5 -11   22.34    2.00
   3   5  11   22.03    1.98
  -4  -5 -11   19.73    2.06
  -4  -5 -11   22.36    1.96
   4   5  11   19.22    1.90
  -5  -5 -11   41.37    3.20
  -5  -5 -11   43.60    2.97
   5   5  11   43.07    2.97
  -6  -5 -11    3.19    1.00
  -6  -5 -11    2.68    1.04
   6   5  11    2.54    0.98
  -7  -5 -11   31.37    2.34
  -7  -5 -11   26.54    2.46
   7   5  11   27.79    2.31
  -8  -5 -11   14.05    1.70
   8   5  11   14.79    1.61
   9   5  11    1.44    1.14
   3  -6 -11   41.21    3.03
   2  -6 -11    0.29    1.04
   1  -6 -11   70.56    4.39
   0  -6 -11   32.18    2.55
   0   6  11   33.07    3.42
  -1  -6 -11   25.96    2.35
   1   6  11   36.78    3.57
   1   6  11   26.05    2.34
  -2  -6 -11   85.27    5.25
   2   6  11   90.77    5.28
  -3  -6 -11    4.97    1.17
  -3  -6 -11    4.55    1.15
   3   6  11    4.89    1.12
  -4  -6 -11   37.62    2.73
  -4  -6 -11   34.32    2.86
   4   6  11   37.32    2.70
  -5  -6 -11   29.86    2.61
  -5  -6 -11   32.67    2.46
   5   6  11   29.58    2.40
  -6  -6 -11    3.27    1.06
  -6  -6 -11    2.76    1.05
   6   6  11    2.40    0.99
  -7  -6 -11   36.84    2.63
  -7  -6 -11   30.80    2.69
   7   6  11   34.86    2.61
  -8  -6 -11    0.22    0.96
  -8  -6 -11    0.36    0.98
   8   6  11    1.06    0.99
   9   6  11    7.80    1.39
   2  -7 -11   12.49    1.69
   1  -7 -11   51.02    3.50
   0  -7 -11    1.58    1.09
   0   7  11   -0.96    1.32
  -1  -7 -11   30.29    2.59
   1   7  11   35.89    3.86
  -2  -7 -11   29.61    2.47
  -3  -7 -11    2.43    1.08
   3   7  11    2.83    1.04
  -4  -7 -11   41.56    3.02
   4   7  11   42.05    2.98
  -5  -7 -11    4.37    1.08
  -5  -7 -11    3.96    1.17
   5   7  11    3.32    1.10
  -6  -7 -11   21.94    2.08
  -6  -7 -11   22.26    2.21
   6   7  11   22.69    2.06
  -7  -7 -11   20.26    2.15
  -7  -7 -11   22.78    2.10
   7   7  11   22.48    2.07
  -8  -7 -11    0.75    1.00
  -8  -7 -11    0.35    1.10
   8   7  11    1.94    1.05
   9   7  11   11.30    1.60
   2  -8 -11   32.89    2.79
   1  -8 -11   38.33    2.99
   0  -8 -11    0.72    1.13
   0   8  11    0.88    1.44
  -1  -8 -11   49.54    3.78
   1   8  11   66.43    5.59
  -2  -8 -11    6.95    1.41
   2   8  11    9.76    2.54
  -3  -8 -11   35.77    2.98
   3   8  11   49.94    4.90
  -4  -8 -11   36.01    2.77
   4   8  11   34.23    2.67
  -5  -8 -11    0.46    1.01
   5   8  11   -0.26    0.93
  -6  -8 -11   38.30    2.81
   6   8  11   33.58    2.69
  -7  -8 -11    8.07    1.42
   7   8  11    8.30    1.38
  -8  -8 -11    3.88    1.24
   8   8  11    3.76    1.21
   1  -9 -11    7.86    1.55
   0  -9 -11   20.47    2.15
   0   9  11   19.57    2.84
  -1  -9 -11   24.71    2.46
   1   9  11   35.06    4.02
  -2  -9 -11    0.40    1.19
   2   9  11   -0.76    1.87
  -3  -9 -11   34.02    3.03
   3   9  11   50.45    5.24
  -4  -9 -11    9.50    1.55
   4   9  11   18.08    3.23
  -5  -9 -11   14.00    1.71
  -6  -9 -11   18.88    2.00
   6   9  11   21.23    1.97
  -7  -9 -11   -1.45    0.99
   7   9  11   -1.00    1.00
  -8  -9 -11    9.64    1.58
   8   9  11   10.82    1.57
  -1 -10 -11    7.00    1.62
   1  10  11    5.59    2.35
  -2 -10 -11   10.64    1.72
   2  10  11   15.72    3.13
  -3 -10 -11   30.65    2.91
   3  10  11   42.16    4.89
  -4 -10 -11    1.14    1.16
   4  10  11   -1.27    2.19
  -5 -10 -11   18.13    1.98
  -6 -10 -11   10.89    1.64
  -7 -10 -11    3.10    1.27
   2  11  11   24.26    3.94
  -3 -11 -11   15.75    2.11
   3  11  11   21.17    3.68
  -4 -11 -11    2.93    1.33
   4  11  11    3.75    2.87
  -5 -11 -11   15.81    2.00
   5  11  11   26.83    4.03
  -6 -11 -11    2.36    1.30
   6  11  11    6.61    2.71
   2   8 -12    9.87    2.08
   1   8 -12    4.46    1.86
   0   8 -12   20.31    2.78
  -1   8 -12    0.04    0.88
  -1   8 -12   -1.95    1.42
  -2   8 -12    6.92    1.97
   3   7 -12   23.48    2.91
   2   7 -12    2.85    1.53
   1   7 -12   14.54    2.26
   0   7 -12   11.16    2.11
  -1   7 -12    2.86    0.95
  -1   7 -12    2.04    1.59
  -2   7 -12   22.17    2.77
  -3   7 -12    3.79    1.67
  -4   7 -12   11.49    1.79
  -4   7 -12   10.40    2.16
   4   6 -12   21.54    2.69
   3   6 -12   18.16    2.32
   2   6 -12    4.29    1.54
   2   6 -12    3.81    1.50
   1   6 -12   46.79    3.86
   1   6 -12   48.15    4.23
   0   6 -12    5.62    1.46
   0   6 -12    2.36    1.47
  -1   6 -12   28.41    3.11
  -1   6 -12   25.83    2.62
  -2   6 -12   27.29    2.64
  -2   6 -12   24.56    2.96
  -3   6 -12    2.72    1.57
  -4   6 -12   26.61    3.02
  -5   6 -12    5.91    1.52
   4   5 -12   31.04    2.90
   4   5 -12   25.35    2.76
   4   5 -12   19.61    1.97
   3   5 -12    4.81    1.03
   3   5 -12    6.43    1.53
   3   5 -12    6.51    1.64
   2   5 -12   18.86    2.25
   2   5 -12   24.27    2.61
   1   5 -12   44.65    3.85
   1   5 -12   41.84    3.59
   0   5 -12   -0.23    1.18
   0   5 -12   -0.57    1.04
  -1   5 -12   42.94    3.57
  -1   5 -12   46.35    4.02
  -2   5 -12   13.08    2.03
  -2   5 -12   17.66    1.96
  -3   5 -12   10.79    1.87
  -3   5 -12   14.34    1.81
  -4   5 -12   29.02    3.27
  -4   5 -12   35.23    2.89
   6  -5  12   10.16    1.37
   5   4 -12    8.79    1.29
   4   4 -12   17.88    1.81
   4   4 -12   23.15    2.56
   3   4 -12    0.08    0.80
   3   4 -12    0.27    1.12
   3   4 -12    0.18    1.21
   2   4 -12   36.17    3.04
   2   4 -12   26.33    2.22
   2   4 -12   31.77    2.95
   1   4 -12   21.30    1.99
   1   4 -12   29.62    2.65
   1   4 -12   24.24    2.61
   0   4 -12   21.29    2.33
   0   4 -12   20.00    2.38
  -1   4 -12   63.48    5.04
  -1   4 -12   63.58    4.61
  -2   4 -12    2.19    1.17
  -2   4 -12    0.00    1.10
  -3   4 -12   39.96    3.10
  -3   4 -12   33.82    3.34
  -4   4 -12   19.85    2.08
  -4   4 -12   16.52    2.21
  -5   4 -12    5.30    1.36
   6  -4  12   12.37    1.49
   4   3 -12   11.03    1.35
   3   3 -12    6.49    1.15
   3   3 -12    7.20    1.59
   2   3 -12   62.77    4.41
   2   3 -12   62.82    4.55
   2   3 -12   48.33    3.48
   1   3 -12    1.08    1.11
   1   3 -12    0.13    1.05
   1   3 -12    0.19    0.75
   0   3 -12   58.92    3.85
   0   3 -12   69.10    4.99
   0   3 -12   65.73    4.64
  -1   3 -12   20.61    2.41
  -1   3 -12   21.38    2.24
  -2   3 -12   13.44    1.71
  -2   3 -12   11.44    1.74
  -3   3 -12   46.59    4.04
  -3   3 -12   51.67    3.75
  -4   3 -12    6.13    1.30
  -4   3 -12    4.79    1.28
  -5   3 -12   22.77    2.27
   6  -3  12   18.07    1.76
   7  -3  12    1.29    1.03
   5   2 -12   20.71    1.98
   4   2 -12   -0.19    0.84
   3   2 -12   37.43    2.63
   2   2 -12   29.73    2.82
   2   2 -12   28.91    2.28
   2   2 -12   35.93    2.92
   1   2 -12   17.97    1.95
   1   2 -12   15.86    1.90
   1   2 -12   13.73    1.45
   0   2 -12   68.12    4.65
   0   2 -12   58.05    3.83
   0   2 -12   66.68    4.87
  -1   2 -12    3.75    0.93
  -1   2 -12    4.84    1.15
  -1   2 -12    4.36    1.14
  -2   2 -12   49.96    3.73
  -2   2 -12   46.72    3.13
  -2   2 -12   50.17    3.94
  -3   2 -12   66.14    4.63
  -3   2 -12   65.39    5.02
  -4   2 -12    2.38    1.11
  -4   2 -12    3.44    1.13
  -5   2 -12   41.76    3.33
  -6   2 -12    4.98    1.21
   6  -2  12    2.78    1.08
   7  -2  12    8.91    1.38
   5   1 -12   17.37    1.74
   4   1 -12    3.10    1.00
   3   1 -12   36.38    2.57
   2   1 -12    8.68    1.57
   2   1 -12    6.51    1.07
   1   1 -12   33.26    2.58
   1   1 -12   41.21    3.27
   1   1 -12   42.34    3.30
   0   1 -12   61.34    4.27
   0   1 -12   51.40    3.50
   0   1 -12   59.66    4.35
  -1   1 -12    0.72    0.91
  -1   1 -12    0.02    0.74
  -1   1 -12    0.95    0.94
  -2   1 -12   60.28    3.94
  -2   1 -12   68.75    4.93
  -2   1 -12   66.66    4.61
  -3   1 -12   23.00    1.99
  -3   1 -12   25.91    2.42
  -3   1 -12   26.07    2.29
  -4   1 -12   19.41    2.15
  -4   1 -12   18.22    2.00
  -5   1 -12   29.73    2.60
  -6   1 -12   -0.27    0.88
   6  -1  12   -0.40    0.93
   7  -1  12   20.21    2.01
   8  -1  12    6.37    1.30
   5   0 -12   11.50    1.56
   4   0 -12    8.18    1.24
   3   0 -12   20.44    1.85
   2   0 -12    2.17    0.86
   2   0 -12    2.71    1.15
   1   0 -12   80.07    4.95
   1   0 -12   92.64    5.88
   0   0 -12   16.70    1.70
   0   0 -12   21.11    2.20
   0   0 -12   20.12    1.95
  -1   0 -12   32.20    2.35
  -1   0 -12   31.69    2.82
  -1   0 -12   32.54    2.75
  -2   0 -12   94.73    6.24
  -2   0 -12   81.24    5.76
  -2   0 -12   83.12    5.04
  -3   0 -12    0.21    0.91
  -3   0 -12    0.26    0.85
  -3   0 -12   -0.35    0.78
  -4   0 -12   55.68    3.65
  -4   0 -12   54.59    4.16
  -4   0 -12   65.89    4.49
  -5   0 -12    8.12    1.35
   5   0  12    9.75    1.29
  -6   0 -12   11.19    1.49
   6   0  12    7.93    1.28
  -7   0 -12   26.48    2.52
   7   0  12   27.35    2.33
   8   0  12    0.25    1.06
   4  -1 -12   21.33    1.95
   3  -1 -12    4.10    1.02
   2  -1 -12   31.33    2.33
   1  -1 -12   53.78    3.65
   1  -1 -12   70.34    4.56
   0  -1 -12    0.36    0.77
   0  -1 -12    0.01    0.97
   0  -1 -12   -0.57    0.76
  -1  -1 -12   65.74    4.62
  -1  -1 -12   70.10    4.75
  -1  -1 -12   57.79    3.92
  -2  -1 -12   47.60    3.40
  -2  -1 -12   38.94    3.27
  -2  -1 -12   43.63    2.96
  -3  -1 -12   24.10    1.99
  -3  -1 -12   21.15    2.09
  -4  -1 -12   39.43    3.11
  -4  -1 -12   39.75    2.76
  -5  -1 -12    0.18    0.86
   5   1  12   -0.01    0.87
  -6  -1 -12   18.97    2.02
   6   1  12   20.26    1.90
  -7  -1 -12   16.68    1.90
   7   1  12   19.45    1.86
   8   1  12    1.90    1.05
   4  -2 -12   34.32    2.58
   3  -2 -12    2.16    0.95
   2  -2 -12   58.78    3.69
   1  -2 -12   36.74    2.61
   0  -2 -12    9.57    1.55
   0  -2 -12   10.60    1.30
  -1  -2 -12   74.80    4.74
  -1  -2 -12   85.30    5.68
  -1  -2 -12   79.64    5.48
  -2  -2 -12    1.72    1.03
  -2  -2 -12    2.40    0.95
  -3  -2 -12   57.90    4.27
  -3  -2 -12   64.66    3.87
  -4  -2 -12   28.42    2.19
  -4  -2 -12   25.04    2.31
  -5  -2 -12    1.97    0.99
  -5  -2 -12    0.90    0.87
   5   2  12    0.49    0.90
  -6  -2 -12   39.13    3.19
   6   2  12   41.71    2.91
  -7  -2 -12    6.01    1.27
   7   2  12    6.86    1.24
   8   2  12   17.46    1.80
   4  -3 -12   17.51    1.75
   3  -3 -12   16.83    1.67
   2  -3 -12   56.09    3.59
   1  -3 -12    2.61    0.97
   0  -3 -12   56.14    3.74
   0  -3 -12   64.90    4.42
  -1  -3 -12   53.79    3.60
  -1  -3 -12   59.72    4.19
  -2  -3 -12   14.14    1.48
  -2  -3 -12   14.68    1.76
  -3  -3 -12   72.79    4.49
  -3  -3 -12   74.47    5.07
  -4  -3 -12    8.21    1.27
  -4  -3 -12    6.46    1.21
   4   3  12   10.31    1.33
  -5  -3 -12   23.29    2.08
  -5  -3 -12   23.29    2.29
   5   3  12   25.48    2.15
  -6  -3 -12   32.88    2.48
  -6  -3 -12   32.13    2.75
   6   3  12   32.04    2.52
  -7  -3 -12    2.64    1.10
   7   3  12    2.19    1.07
   8   3  12   17.91    1.84
   9   3  12    1.80    1.12
   3  -4 -12   22.88    2.04
   2  -4 -12   25.02    2.13
   1  -4 -12    4.41    1.06
   0  -4 -12   75.03    4.56
  -1  -4 -12   12.72    1.63
  -1  -4 -12   11.27    1.48
   1   4  12   15.62    2.18
  -2  -4 -12   28.86    2.40
  -2  -4 -12   31.17    2.70
  -3  -4 -12   40.84    3.39
  -3  -4 -12   46.72    3.12
   3   4  12   45.60    3.10
  -4  -4 -12   -0.34    0.89
  -4  -4 -12    1.10    0.94
   4   4  12   -0.08    0.91
  -5  -4 -12   41.05    3.32
  -5  -4 -12   45.67    3.08
   5   4  12   39.56    2.97
  -6  -4 -12   11.17    1.58
  -6  -4 -12   11.66    1.47
   6   4  12   12.00    1.50
  -7  -4 -12    8.93    1.39
  -7  -4 -12   10.04    1.51
   7   4  12   11.65    1.56
   8   4  12   15.79    1.77
   9   4  12   -0.11    1.08
   3  -5 -12   33.21    2.65
   2  -5 -12   11.57    1.48
   1  -5 -12   41.90    2.99
   0  -5 -12   51.86    3.47
  -1  -5 -12    0.92    0.96
   1   5  12    1.24    1.45
  -2  -5 -12   53.60    3.53
   2   5  12   50.96    3.51
  -3  -5 -12   19.49    2.01
  -3  -5 -12   18.47    1.85
   3   5  12   18.70    1.84
  -4  -5 -12   19.50    1.87
  -4  -5 -12   17.67    1.95
   4   5  12   20.37    1.90
  -5  -5 -12   45.73    3.15
  -5  -5 -12   43.85    3.45
   5   5  12   43.57    3.14
  -6  -5 -12   -0.29    0.93
  -6  -5 -12    0.22    0.88
   6   5  12    1.02    0.99
  -7  -5 -12   25.36    2.38
  -7  -5 -12   23.13    2.19
   7   5  12   24.83    2.25
   8   5  12    7.33    1.40
   9   5  12    1.81    1.18
   2  -6 -12    0.75    1.14
   1  -6 -12   46.41    3.25
   0  -6 -12   25.04    2.35
  -1  -6 -12   12.14    1.63
   1   6  12   18.10    2.48
  -2  -6 -12   56.60    3.77
   2   6  12   55.43    3.77
  -3  -6 -12    0.32    1.03
   3   6  12   -0.78    0.94
  -4  -6 -12   44.24    3.61
  -4  -6 -12   46.82    3.33
   4   6  12   51.05    3.37
  -5  -6 -12   15.04    1.77
  -5  -6 -12   17.45    1.94
   5   6  12   18.60    1.85
  -6  -6 -12    6.61    1.36
  -6  -6 -12    5.16    1.28
   6   6  12    5.85    1.29
  -7  -6 -12   23.87    2.34
  -7  -6 -12   23.76    2.21
   7   6  12   20.64    2.06
  -8  -6 -12    1.16    0.98
  -8  -6 -12    1.29    1.21
   8   6  12    0.76    1.11
   1  -7 -12   48.13    3.40
   0  -7 -12   -0.91    1.14
  -1  -7 -12   38.15    3.21
   1   7  12   49.59    4.59
  -2  -7 -12   24.23    2.41
   2   7  12   32.95    3.93
  -3  -7 -12   10.72    1.58
   3   7  12   13.28    1.69
  -4  -7 -12   52.60    3.72
   4   7  12   56.23    3.74
  -5  -7 -12    9.90    1.53
   5   7  12    9.20    1.47
  -6  -7 -12   13.92    1.70
  -6  -7 -12   12.90    1.69
   6   7  12   15.85    1.74
  -7  -7 -12   13.46    1.73
  -7  -7 -12   13.70    1.79
   7   7  12   14.99    1.75
  -8  -7 -12    1.21    1.13
   8   7  12    0.95    1.16
   0  -8 -12    4.77    1.39
  -1  -8 -12   41.44    3.33
   1   8  12   45.32    4.67
  -2  -8 -12    4.96    1.38
   2   8  12    8.00    2.49
  -3  -8 -12   20.92    2.22
   3   8  12   35.82    4.13
  -4  -8 -12   26.27    2.46
  -5  -8 -12   -1.01    1.07
   5   8  12   -0.22    1.04
  -6  -8 -12   13.35    1.77
   6   8  12   17.23    1.92
  -7  -8 -12    2.24    1.22
   7   8  12    2.35    1.21
  -8  -8 -12    6.08    1.42
   8   8  12    7.46    1.48
  -1  -9 -12   25.22    2.50
   1   9  12   31.46    3.90
  -2  -9 -12   -0.02    1.19
   2   9  12   -0.67    1.95
  -3  -9 -12   32.95    2.99
   3   9  12   45.88    5.18
  -4  -9 -12    4.59    1.40
   4   9  12   10.32    2.94
  -5  -9 -12    9.31    1.62
  -6  -9 -12   20.20    2.13
  -7  -9 -12   -0.93    1.18
   7   9  12   -1.06    1.12
  -2 -10 -12   13.00    1.95
   2  10  12   18.80    3.24
  -3 -10 -12   18.24    2.21
   3  10  12   28.50    4.12
  -4 -10 -12    0.21    1.25
   4  10  12    0.06    2.39
  -5 -10 -12   18.61    2.18
   5  10  12   28.51    3.96
  -6 -10 -12    6.12    1.52
   1   7 -13   15.49    2.33
   0   7 -13   11.65    2.25
  -1   7 -13    1.59    1.70
  -2   7 -13   12.59    2.24
   2   6 -13    1.76    1.42
   1   6 -13   35.08    3.49
   0   6 -13    5.14    1.63
  -1   6 -13   10.60    2.10
  -2   6 -13   11.90    2.07
  -3   6 -13   -0.38    1.35
   3   5 -13    1.41    1.31
   2   5 -13   15.68    2.10
   1   5 -13   23.57    2.66
   1   5 -13   21.10    2.50
   0   5 -13    3.29    1.44
   0   5 -13    3.49    1.37
  -1   5 -13   29.17    2.91
  -1   5 -13   32.79    3.25
  -2   5 -13    8.50    1.74
  -3   5 -13   13.37    2.07
  -4   5 -13   18.64    2.47
   3   4 -13   -0.35    1.13
   3   4 -13    0.69    0.90
   2   4 -13   27.06    2.79
   1   4 -13    6.92    1.59
   1   4 -13    6.68    1.46
   0   4 -13   12.56    1.89
   0   4 -13   12.80    1.84
  -1   4 -13   34.58    3.07
  -1   4 -13   32.85    3.24
  -2   4 -13    1.53    1.21
  -2   4 -13    0.96    1.24
  -3   4 -13   25.41    2.94
  -3   4 -13   28.99    2.74
  -4   4 -13    9.30    1.80
   4   3 -13    5.48    1.16
   3   3 -13   10.12    1.88
   3   3 -13   11.11    1.68
   3   3 -13    9.33    1.38
   2   3 -13   22.20    2.04
   2   3 -13   28.15    2.79
   2   3 -13   27.63    2.64
   1   3 -13   -0.87    0.99
   1   3 -13    0.10    0.83
   1   3 -13    0.33    1.18
   0   3 -13   44.64    3.62
   0   3 -13   41.51    3.62
  -1   3 -13   23.53    2.46
  -1   3 -13   22.44    2.50
  -2   3 -13   11.28    1.71
  -2   3 -13   12.43    1.77
  -3   3 -13   42.16    3.52
  -3   3 -13   43.35    3.76
  -4   3 -13    0.95    1.12
  -4   3 -13    0.03    1.21
   6  -3  13    8.60    1.42
   4   2 -13   -0.92    0.91
   3   2 -13   30.25    2.36
   2   2 -13   21.63    2.33
   2   2 -13   19.97    1.88
   2   2 -13   22.93    2.40
   1   2 -13   17.45    2.15
   1   2 -13   18.66    2.06
   1   2 -13   16.30    1.62
   0   2 -13   62.59    4.55
   0   2 -13   50.57    3.55
   0   2 -13   60.11    4.32
  -1   2 -13    5.74    1.41
  -1   2 -13    4.87    1.31
  -1   2 -13    5.15    1.13
  -2   2 -13   26.63    2.60
  -2   2 -13   27.30    2.65
  -3   2 -13   18.82    2.27
  -3   2 -13   19.80    2.19
  -4   2 -13    7.70    1.43
  -4   2 -13    5.91    1.40
  -5   2 -13   23.26    2.38
   6  -2  13    2.51    1.08
   7  -2  13    9.32    1.51
   4   1 -13    7.85    1.38
   3   1 -13   33.14    2.50
   2   1 -13    0.07    0.85
   2   1 -13    0.48    1.09
   1   1 -13   32.62    2.55
   1   1 -13   35.06    3.14
   1   1 -13   41.05    3.20
   0   1 -13   23.52    2.12
   0   1 -13   29.80    2.66
   0   1 -13   30.67    2.76
  -1   1 -13    1.40    1.04
  -1   1 -13    2.11    1.03
  -1   1 -13    1.50    0.92
  -2   1 -13   46.62    3.73
  -2   1 -13   48.80    3.91
  -2   1 -13   49.33    3.22
  -3   1 -13    2.10    1.13
  -3   1 -13    2.67    1.09
  -4   1 -13   34.02    2.92
  -5   1 -13   32.18    2.84
   6  -1  13   -0.86    0.94
   7  -1  13   17.21    1.86
   3   0 -13   19.70    1.89
   2   0 -13    1.37    0.93
   1   0 -13   46.12    3.33
   1   0 -13   54.75    4.10
   1   0 -13   57.19    4.09
   0   0 -13   16.42    1.81
   0   0 -13   15.09    1.98
   0   0 -13   15.94    1.57
  -1   0 -13   40.64    3.28
  -1   0 -13   36.26    2.70
  -1   0 -13   38.92    3.18
  -2   0 -13   59.26    4.04
  -2   0 -13   64.06    4.66
  -2   0 -13   70.65    4.89
  -3   0 -13    0.49    1.04
  -3   0 -13    0.31    0.94
  -4   0 -13   32.62    2.84
  -5   0 -13   14.02    1.80
   5   0  13   16.37    1.65
  -6   0 -13    5.30    1.28
   6   0  13    3.80    1.15
   7   0  13   15.65    1.80
   3  -1 -13    7.01    1.21
   2  -1 -13   20.51    1.90
   1  -1 -13   40.86    2.84
   0  -1 -13   -0.20    0.81
   0  -1 -13    1.26    1.03
   0  -1 -13    0.52    0.86
  -1  -1 -13   70.88    4.85
  -1  -1 -13   69.89    4.91
  -1  -1 -13   58.85    4.05
  -2  -1 -13   18.49    1.72
  -2  -1 -13   15.98    1.94
  -3  -1 -13   18.06    1.79
  -3  -1 -13   19.90    2.13
  -4  -1 -13   32.52    2.61
  -4  -1 -13   38.46    3.04
  -5  -1 -13   -0.66    0.93
   5   1  13    0.62    0.95
  -6  -1 -13   22.80    2.34
   6   1  13   23.93    2.17
   7   1  13    8.93    1.52
   8   1  13    3.52    1.31
   3  -2 -13    0.15    0.93
   2  -2 -13   27.68    2.26
   1  -2 -13   18.73    1.83
   0  -2 -13   16.85    1.82
   0  -2 -13   16.17    1.65
   0  -2 -13   18.26    2.10
  -1  -2 -13   46.00    3.59
  -1  -2 -13   41.78    2.99
  -2  -2 -13   -0.60    1.00
  -2  -2 -13    0.25    0.95
  -3  -2 -13   45.86    3.14
  -3  -2 -13   43.69    3.44
  -4  -2 -13   22.35    2.08
  -4  -2 -13   21.99    2.29
  -5  -2 -13    5.04    1.24
  -5  -2 -13    3.68    1.13
   5   2  13    2.86    1.09
  -6  -2 -13   23.91    2.36
   6   2  13   28.41    2.34
   7   2  13    2.08    1.12
   8   2  13    9.16    1.50
   3  -3 -13    6.77    1.28
   2  -3 -13   62.94    3.98
   1  -3 -13    0.49    0.93
   0  -3 -13   52.49    3.46
  -1  -3 -13   36.46    3.15
  -1  -3 -13   35.10    2.66
  -2  -3 -13    7.18    1.35
  -2  -3 -13    8.79    1.36
  -3  -3 -13   59.38    4.46
  -3  -3 -13   66.44    4.06
  -4  -3 -13    5.59    1.26
  -4  -3 -13    5.97    1.33
   4   3  13    5.36    1.21
  -5  -3 -13   19.35    2.16
  -5  -3 -13   20.91    2.04
   5   3  13   19.09    1.91
  -6  -3 -13   28.49    2.66
   6   3  13   29.45    2.47
   7   3  13    1.90    1.14
   8   3  13   16.59    1.88
   2  -4 -13   15.00    1.65
   1  -4 -13    5.75    1.23
   0  -4 -13   41.09    2.96
  -1  -4 -13    9.68    1.41
  -2  -4 -13   30.35    2.73
  -2  -4 -13   25.75    2.35
  -3  -4 -13   31.01    2.77
  -3  -4 -13   32.30    2.60
   3   4  13   33.13    2.60
  -4  -4 -13    1.38    1.08
  -4  -4 -13    3.10    1.17
   4   4  13    1.64    1.06
  -5  -4 -13   34.59    2.88
  -5  -4 -13   30.97    2.60
   5   4  13   30.49    2.60
  -6  -4 -13    7.03    1.42
  -6  -4 -13    5.35    1.29
   6   4  13    7.67    1.42
  -7  -4 -13    7.55    1.45
   7   4  13    7.22    1.44
   8   4  13    6.93    1.43
   2  -5 -13    4.04    1.19
   1  -5 -13   16.24    1.76
   0  -5 -13   35.24    2.74
  -1  -5 -13    2.67    1.14
  -2  -5 -13   52.31    3.56
   2   5  13   50.76    3.54
  -3  -5 -13   13.61    1.67
   3   5  13   11.19    1.65
  -4  -5 -13   13.12    1.78
  -4  -5 -13   12.70    1.65
   4   5  13   13.60    1.67
  -5  -5 -13   27.77    2.66
  -5  -5 -13   28.39    2.49
   5   5  13   28.38    2.48
  -6  -5 -13    0.02    1.08
  -6  -5 -13   -1.07    1.03
   6   5  13   -0.98    1.05
  -7  -5 -13   14.66    1.88
  -7  -5 -13   14.96    1.79
   7   5  13   16.63    1.83
   8   5  13    2.25    1.23
   1  -6 -13   36.09    2.81
   0  -6 -13   10.37    1.63
  -1  -6 -13   20.67    2.06
  -2  -6 -13   45.82    3.55
   2   6  13   59.37    5.21
  -3  -6 -13   -1.26    1.07
   3   6  13   -1.26    1.03
  -4  -6 -13   30.45    2.64
   4   6  13   30.26    2.63
  -5  -6 -13    8.52    1.56
  -5  -6 -13    9.90    1.55
   5   6  13   10.61    1.60
  -6  -6 -13    4.79    1.39
  -6  -6 -13    8.11    1.48
   6   6  13    6.37    1.40
  -7  -6 -13   12.87    1.87
  -7  -6 -13   16.19    1.85
   7   6  13   14.99    1.82
   0  -7 -13   -1.78    1.06
  -1  -7 -13   27.53    2.53
  -2  -7 -13   17.43    2.10
   2   7  13   31.18    3.74
  -3  -7 -13    8.19    1.59
   3   7  13   16.87    2.86
  -4  -7 -13   27.42    2.64
   4   7  13   32.80    2.71
  -5  -7 -13    0.47    1.29
   5   7  13    0.77    1.17
  -6  -7 -13   11.47    1.73
   6   7  13   12.33    1.71
  -7  -7 -13   11.12    1.77
   7   7  13    8.76    1.60
  -1  -8 -13   26.54    2.57
  -2  -8 -13    1.05    1.26
   2   8  13    0.14    1.90
  -3  -8 -13   17.35    2.13
   3   8  13   28.59    3.71
   4   8  13   33.04    4.32
  -5  -8 -13    0.68    1.33
  -6  -8 -13   15.38    1.98
   6   8  13   16.33    1.94
  -3  -9 -13   22.43    2.48
   3   9  13   39.23    4.70
  -4  -9 -13    2.33    1.40
   4   9  13    9.30    3.00
  -5  -9 -13   10.30    1.85
   1   5 -14   10.42    1.82
   0   5 -14    2.14    1.49
  -1   5 -14   25.91    2.96
  -2   5 -14    3.82    1.62
  -3   5 -14   10.54    2.05
   2   4 -14   17.95    2.17
   1   4 -14    4.07    1.37
   0   4 -14   11.52    1.79
  -1   4 -14   25.06    2.79
  -2   4 -14   -0.68    1.27
  -3   4 -14   23.10    2.70
  -4   4 -14    3.98    1.61
   2   3 -14   27.63    2.63
   2   3 -14   20.60    2.05
   1   3 -14   -0.32    1.12
   0   3 -14   28.17    2.81
   0   3 -14   23.31    2.69
  -1   3 -14   14.03    1.96
  -1   3 -14   15.42    1.96
  -2   3 -14    8.61    1.68
  -3   3 -14   31.96    3.20
   2   2 -14   12.00    1.74
   2   2 -14   11.87    1.48
   2   2 -14   14.03    1.93
   1   2 -14    4.31    1.10
   1   2 -14    6.81    1.35
   1   2 -14    7.72    1.55
   0   2 -14   36.95    3.17
   0   2 -14   31.57    2.58
  -1   2 -14    0.23    1.12
  -1   2 -14    1.75    1.13
  -2   2 -14   33.74    3.11
  -2   2 -14   35.53    3.18
  -3   2 -14   10.98    1.73
  -3   2 -14   10.32    1.75
   2   1 -14    0.82    0.96
   2   1 -14    0.31    1.00
   1   1 -14   25.06    2.23
   1   1 -14   30.17    2.64
   0   1 -14   20.24    1.96
   0   1 -14   25.63    2.58
   0   1 -14   21.45    2.25
  -1   1 -14    6.87    1.54
  -1   1 -14    7.77    1.38
  -1   1 -14    6.74    1.29
  -2   1 -14   38.95    3.38
  -2   1 -14   38.93    3.24
  -3   1 -14    1.57    1.21
  -4   1 -14   16.20    2.01
   5  -1  14   20.53    2.01
   6  -1  14   -0.03    1.06
   2   0 -14    2.27    1.07
   2   0 -14    3.32    1.17
   1   0 -14   35.22    3.17
   1   0 -14   32.17    2.83
   1   0 -14   26.99    2.42
   0   0 -14    4.42    1.15
   0   0 -14    2.69    1.12
   0   0 -14    5.77    1.48
  -1   0 -14   20.68    2.30
  -1   0 -14   20.24    1.95
  -2   0 -14   33.47    2.61
  -2   0 -14   30.60    2.97
  -3   0 -14    0.31    1.13
  -4   0 -14   24.50    2.42
   5   0  14    9.78    1.50
   6   0  14    7.65    1.44
   2  -1 -14    7.51    1.27
   1  -1 -14   16.71    1.71
   1  -1 -14   16.74    1.98
   0  -1 -14    0.35    0.90
   0  -1 -14    0.80    1.08
  -1  -1 -14   44.15    3.27
  -1  -1 -14   56.27    4.05
  -2  -1 -14   10.68    1.75
  -2  -1 -14   10.96    1.46
  -3  -1 -14   18.87    1.87
  -3  -1 -14   18.24    2.12
  -4  -1 -14   30.08    2.80
  -5  -1 -14    0.61    1.10
   5   1  14    0.37    1.03
   6   1  14   20.58    2.03
   7   1  14    3.10    1.28
   2  -2 -14   19.70    1.96
   1  -2 -14    2.50    1.08
   0  -2 -14   20.13    1.97
  -1  -2 -14   42.69    3.40
  -1  -2 -14   36.89    2.85
  -2  -2 -14   -0.52    0.94
  -2  -2 -14    0.12    1.02
  -3  -2 -14   27.28    2.39
  -3  -2 -14   27.65    2.70
  -4  -2 -14   14.22    1.67
  -4  -2 -14   12.66    1.72
   4   2  14   13.91    1.62
  -5  -2 -14    3.82    1.32
   5   2  14    6.27    1.34
   6   2  14   16.44    1.84
   7   2  14   -0.28    1.12
   1  -3 -14    1.14    1.12
   0  -3 -14   32.19    2.56
  -1  -3 -14   25.94    2.30
  -2  -3 -14    6.07    1.32
  -2  -3 -14    6.95    1.54
  -3  -3 -14   29.91    2.58
  -3  -3 -14   32.97    2.94
  -4  -3 -14    1.94    1.22
  -4  -3 -14    0.91    1.11
   4   3  14    0.42    1.05
  -5  -3 -14   18.27    1.99
  -5  -3 -14   22.25    2.36
   5   3  14   20.91    2.03
   6   3  14    9.99    1.59
   7   3  14    0.93    1.20
   1  -4 -14   12.02    1.57
   0  -4 -14   34.08    2.69
  -1  -4 -14    0.29    1.04
  -2  -4 -14   29.58    2.54
  -3  -4 -14   22.94    2.32
   3   4  14   26.34    2.33
  -4  -4 -14    2.08    1.23
  -4  -4 -14    3.70    1.30
   4   4  14    1.98    1.18
  -5  -4 -14   23.32    2.22
   5   4  14   23.86    2.33
   6   4  14    3.59    1.30
   7   4  14    5.55    1.42
   0  -5 -14   12.36    1.64
  -1  -5 -14    0.61    1.11
  -2  -5 -14   34.44    2.88
   2   5  14   38.95    2.92
  -3  -5 -14    8.54    1.54
   3   5  14    6.10    1.39
  -4  -5 -14   13.26    1.73
   4   5  14    9.79    1.63
  -5  -5 -14   14.00    1.84
  -5  -5 -14   19.39    2.05
   5   5  14   13.92    1.82
  -6  -5 -14   -1.92    1.21
  -6  -5 -14   -0.86    1.11
   6   5  14   -1.23    1.24
   7   5  14   12.24    1.84
  -1  -6 -14   17.25    2.01
  -2  -6 -14   30.52    2.70
  -3  -6 -14    0.32    1.22
   3   6  14   -0.47    1.27
  -4  -6 -14   17.34    2.01
   4   6  14   18.26    2.12
  -5  -6 -14    6.42    1.53
   5   6  14    8.21    1.57
  -6  -6 -14    5.78    1.48
   6   6  14    5.60    1.44
  -2  -7 -14   10.62    1.75
  -3  -7 -14    5.22    1.53
   3   7  14    9.69    2.54
  -4  -7 -14   17.18    2.05
  -5  -7 -14    0.60    1.28
   5   7  14   -0.17    1.19
   0   3 -15   16.34    2.07
  -1   3 -15    4.24    1.47
  -2   3 -15    9.07    1.72
   0   2 -15   17.42    2.06
  -1   2 -15   -0.61    1.12
   0   1 -15   10.64    1.45
   0   0 -15    0.60    1.00
   0   0 -15    0.33    1.15
  -1   0 -15   17.63    1.87
  -1   0 -15   24.64    2.62
   5   0  15    2.92    1.18
   0  -1 -15    0.63    1.12
  -1  -1 -15   30.71    2.95
  -1  -1 -15   23.81    2.29
  -2  -1 -15    8.16    1.72
  -2  -1 -15    6.75    1.36
   5   1  15    0.24    1.10
   0  -2 -15   12.97    1.62
  -1  -2 -15   29.98    2.49
  -2  -2 -15    1.03    1.34
  -2  -2 -15   -0.23    1.06
  -3  -2 -15   26.95    2.45
   4   2  15    8.08    1.41
   5   2  15    6.52    1.42
  -1  -3 -15   10.42    1.53
  -2  -3 -15    7.82    1.45
  -3  -3 -15   20.78    2.11
  -3  -3 -15   19.65    2.33
   3   3  15   23.72    2.17
  -4  -3 -15   -1.09    1.24
  -4  -3 -15    0.54    1.22
   4   3  15    1.43    1.16
   5   3  15   15.93    1.89
  -1  -4 -15    0.61    1.11
  -2  -4 -15   22.89    2.32
   2   4  15   33.79    2.55
  -3  -4 -15   15.19    1.94
   3   4  15   15.48    1.82
  -4  -4 -15    4.20    1.44
  -4  -4 -15    2.79    1.35
   4   4  15    1.31    1.22
  -5  -4 -15   19.46    2.10
   5   4  15   18.28    2.07
  -2  -5 -15   17.52    1.97
  -3  -5 -15    2.83    1.36
   3   5  15    3.34    1.34
  -4  -5 -15    9.94    1.78
   4   5  15    9.38    1.65
   0   0   0    0.00    0.00
;
_shelx_hkl_checksum              76373
loop_
_space_group_symop_operation_xyz
'x, y, z'
'-x, -y, -z'
loop_
_atom_site_label
_atom_site_type_symbol
_atom_site_fract_x
_atom_site_fract_y
_atom_site_fract_z
_atom_site_U_iso_or_equiv
_atom_site_adp_type
_atom_site_occupancy
_atom_site_site_symmetry_order
_atom_site_calc_flag
_atom_site_refinement_flags_posn
_atom_site_refinement_flags_adp
Pb1 Pb 0.30508(2) 0.41962(2) 0.48598(2) 0.02890(5) Uani 1 1 d . .
N1A N 0.8082(5) -0.2221(3) 0.3279(3) 0.0360(7) Uani 1 1 d . .
C2A C 0.7155(5) -0.0832(3) 0.3510(3) 0.0336(7) Uani 1 1 d . .
H2A H 0.6492 -0.0557 0.4367 0.040 Uiso 1 1 calc R U
C3A C 0.7120(5) 0.0222(3) 0.2555(3) 0.0288(6) Uani 1 1 d . .
C4A C 0.8103(5) -0.0197(4) 0.1278(4) 0.0341(7) Uani 1 1 d . .
H4A H 0.8105 0.0473 0.0603 0.041 Uiso 1 1 calc R U
C5A C 0.9083(6) -0.1635(4) 0.1023(4) 0.0395(8) Uani 1 1 d . .
H5A H 0.9753 -0.1939 0.0175 0.047 Uiso 1 1 calc R U
C6A C 0.9049(6) -0.2598(4) 0.2039(4) 0.0383(8) Uani 1 1 d . .
H6A H 0.9726 -0.3555 0.1861 0.046 Uiso 1 1 calc R U
C7A C 0.6003(5) 0.1724(3) 0.2938(3) 0.0299(6) Uani 1 1 d . .
O7A O 0.4780(4) 0.1914(3) 0.4020(3) 0.0463(7) Uani 1 1 d . .
N8A N 0.6395(4) 0.2708(3) 0.2099(3) 0.0329(6) Uani 1 1 d . .
N9A N 0.5263(4) 0.4058(3) 0.2562(3) 0.0325(6) Uani 1 1 d . .
C10A C 0.5568(5) 0.5118(3) 0.1846(4) 0.0308(6) Uani 1 1 d . .
C101 C 0.7091(6) 0.4920(4) 0.0621(4) 0.0448(9) Uani 1 1 d . .
H10A H 0.6938 0.4259 0.0049 0.067 Uiso 1 1 calc R U
H10B H 0.8336 0.4552 0.0842 0.067 Uiso 1 1 calc R U
H10C H 0.6982 0.5820 0.0179 0.067 Uiso 1 1 calc R U
C11A C 0.4344(5) 0.6569(3) 0.2316(4) 0.0315(7) Uani 1 1 d . .
N12A N 0.3192(5) 0.6667(3) 0.3525(3) 0.0392(7) Uani 1 1 d . .
C13A C 0.2114(6) 0.7963(4) 0.3993(4) 0.0473(9) Uani 1 1 d . .
H13A H 0.1320 0.8031 0.4828 0.057 Uiso 1 1 calc R U
C14A C 0.2124(7) 0.9195(4) 0.3302(5) 0.0489(10) Uani 1 1 d . .
H14A H 0.1376 1.0078 0.3672 0.059 Uiso 1 1 calc R U
C15A C 0.3251(7) 0.9108(4) 0.2059(5) 0.0478(10) Uani 1 1 d . .
H15A H 0.3252 0.9926 0.1559 0.057 Uiso 1 1 calc R U
C16A C 0.4392(6) 0.7773(4) 0.1563(4) 0.0412(8) Uani 1 1 d . .
H16A H 0.5185 0.7689 0.0726 0.049 Uiso 1 1 calc R U
N1B N 0.0697(4) 0.4100(4) 0.3770(3) 0.0447(8) Uani 1 1 d . .
N2B N 0.1194(5) 0.3378(3) 0.2807(3) 0.0368(6) Uani 1 1 d . .
N3B N 0.1625(8) 0.2705(5) 0.1871(5) 0.0670(13) Uani 1 1 d . .
loop_
_atom_site_aniso_label
_atom_site_aniso_U_11
_atom_site_aniso_U_22
_atom_site_aniso_U_33
_atom_site_aniso_U_23
_atom_site_aniso_U_13
_atom_site_aniso_U_12
Pb1 0.02690(7) 0.02849(7) 0.02610(8) -0.00417(5) -0.00103(5) -0.00350(5)
N1A 0.0401(16) 0.0256(13) 0.0318(16) 0.0003(11) 0.0012(13) -0.0014(11)
C2A 0.0345(16) 0.0289(14) 0.0263(16) -0.0016(12) 0.0059(13) -0.0020(12)
C3A 0.0273(14) 0.0258(13) 0.0269(16) -0.0025(12) 0.0033(12) -0.0046(11)
C4A 0.0387(17) 0.0317(15) 0.0248(16) -0.0007(12) 0.0059(13) -0.0093(13)
C5A 0.0454(19) 0.0335(16) 0.0309(18) -0.0100(14) 0.0062(15) -0.0077(14)
C6A 0.0380(18) 0.0295(15) 0.038(2) -0.0073(14) 0.0041(15) -0.0044(13)
C7A 0.0282(14) 0.0261(13) 0.0265(16) -0.0016(12) 0.0037(12) -0.0022(11)
O7A 0.0506(15) 0.0288(11) 0.0360(15) 0.0012(10) 0.0179(12) 0.0017(10)
N8A 0.0351(14) 0.0235(11) 0.0296(15) -0.0026(10) 0.0078(11) -0.0038(10)
N9A 0.0316(13) 0.0269(12) 0.0323(16) -0.0010(11) 0.0010(12) -0.0045(10)
C10A 0.0310(15) 0.0264(14) 0.0304(17) -0.0005(12) -0.0014(13) -0.0059(11)
C101 0.048(2) 0.0338(16) 0.042(2) -0.0021(15) 0.0103(17) -0.0093(15)
C11A 0.0306(15) 0.0280(14) 0.0339(18) -0.0004(13) -0.0055(13) -0.0072(11)
N12A 0.0412(16) 0.0293(13) 0.0343(17) -0.0014(12) 0.0039(13) -0.0007(11)
C13A 0.044(2) 0.0377(18) 0.047(2) -0.0077(16) 0.0046(17) -0.0012(15)
C14A 0.046(2) 0.0314(17) 0.060(3) -0.0110(17) -0.007(2) 0.0001(15)
C15A 0.055(2) 0.0256(16) 0.060(3) 0.0020(17) -0.016(2) -0.0066(16)
C16A 0.046(2) 0.0310(16) 0.043(2) 0.0025(15) -0.0070(17) -0.0088(14)
N1B 0.0325(15) 0.0539(18) 0.0429(19) -0.0169(15) -0.0070(13) -0.0038(13)
N2B 0.0433(16) 0.0320(13) 0.0346(17) 0.0004(12) -0.0094(13) -0.0102(12)
N3B 0.086(3) 0.064(3) 0.051(3) -0.019(2) -0.017(2) -0.017(2)
loop_
_atom_type_symbol
_atom_type_description
_atom_type_scat_dispersion_real
_atom_type_scat_dispersion_imag
_atom_type_scat_source
C C 0.0033 0.0016 'International Tables Vol C Tables 4.2.6.8 and 6.1.1.4'
H H 0.0000 0.0000 'International Tables Vol C Tables 4.2.6.8 and 6.1.1.4'
N N 0.0061 0.0033 'International Tables Vol C Tables 4.2.6.8 and 6.1.1.4'
O O 0.0106 0.0060 'International Tables Vol C Tables 4.2.6.8 and 6.1.1.4'
Pb Pb -3.3944 10.1111 'International Tables Vol C Tables 4.2.6.8 and 6.1.1.4'
loop_
_geom_angle_atom_site_label_1
_geom_angle_atom_site_label_2
_geom_angle_atom_site_label_3
_geom_angle
N1B Pb1 O7A 86.44(11)
N1B Pb1 N9A 86.43(11)
O7A Pb1 N9A 63.47(9)
N1B Pb1 N12A 88.88(12)
O7A Pb1 N12A 124.03(9)
N9A Pb1 N12A 60.58(9)
C2A N1A C6A 117.1(3)
N1A C2A C3A 124.2(3)
N1A C2A H2A 117.9
C3A C2A H2A 117.9
C2A C3A C4A 117.6(3)
C2A C3A C7A 118.8(3)
C4A C3A C7A 123.6(3)
C3A C4A C5A 119.0(3)
C3A C4A H4A 120.5
C5A C4A H4A 120.5
C6A C5A C4A 119.2(3)
C6A C5A H5A 120.4
C4A C5A H5A 120.4
N1A C6A C5A 123.0(3)
N1A C6A H6A 118.5
C5A C6A H6A 118.5
O7A C7A N8A 127.5(3)
O7A C7A C3A 116.7(3)
N8A C7A C3A 115.9(3)
C7A O7A Pb1 121.6(2)
C7A N8A N9A 110.4(3)
C10A N9A N8A 116.2(3)
C10A N9A Pb1 126.7(2)
N8A N9A Pb1 116.7(2)
N9A C10A C11A 116.8(3)
N9A C10A C101 122.4(3)
C11A C10A C101 120.8(3)
C10A C101 H10A 109.5
C10A C101 H10B 109.5
H10A C101 H10B 109.5
C10A C101 H10C 109.5
H10A C101 H10C 109.5
H10B C101 H10C 109.5
N12A C11A C16A 121.1(3)
N12A C11A C10A 117.0(3)
C16A C11A C10A 121.9(3)
C13A N12A C11A 118.4(3)
C13A N12A Pb1 123.1(3)
C11A N12A Pb1 118.4(2)
N12A C13A C14A 123.1(4)
N12A C13A H13A 118.4
C14A C13A H13A 118.4
C15A C14A C13A 119.0(4)
C15A C14A H14A 120.5
C13A C14A H14A 120.5
C14A C15A C16A 118.6(4)
C14A C15A H15A 120.7
C16A C15A H15A 120.7
C11A C16A C15A 119.7(4)
C11A C16A H16A 120.1
C15A C16A H16A 120.1
N2B N1B Pb1 117.8(2)
N3B N2B N1B 178.1(4)
loop_
_geom_bond_atom_site_label_1
_geom_bond_atom_site_label_2
_geom_bond_distance
Pb1 N1B 2.321(3)
Pb1 O7A 2.335(2)
Pb1 N9A 2.571(3)
Pb1 N12A 2.741(3)
N1A C2A 1.339(4)
N1A C6A 1.344(5)
C2A C3A 1.384(5)
C2A H2A 0.9300
C3A C4A 1.387(5)
C3A C7A 1.487(4)
C4A C5A 1.391(5)
C4A H4A 0.9300
C5A C6A 1.371(6)
C5A H5A 0.9300
C6A H6A 0.9300
C7A O7A 1.266(4)
C7A N8A 1.318(4)
N8A N9A 1.386(4)
N9A C10A 1.292(4)
C10A C11A 1.484(4)
C10A C101 1.485(5)
C101 H10A 0.9600
C101 H10B 0.9600
C101 H10C 0.9600
C11A N12A 1.346(5)
C11A C16A 1.383(5)
N12A C13A 1.337(4)
C13A C14A 1.370(6)
C13A H13A 0.9300
C14A C15A 1.368(7)
C14A H14A 0.9300
C15A C16A 1.387(5)
C15A H15A 0.9300
C16A H16A 0.9300
N1B N2B 1.190(4)
N2B N3B 1.143(5)
loop_
_geom_torsion_atom_site_label_1
_geom_torsion_atom_site_label_2
_geom_torsion_atom_site_label_3
_geom_torsion_atom_site_label_4
_geom_torsion
C6A N1A C2A C3A 0.7(6)
N1A C2A C3A C4A 0.4(6)
N1A C2A C3A C7A 178.8(3)
C2A C3A C4A C5A -0.8(5)
C7A C3A C4A C5A -179.1(3)
C3A C4A C5A C6A 0.1(6)
C2A N1A C6A C5A -1.4(6)
C4A C5A C6A N1A 1.0(6)
C2A C3A C7A O7A -16.7(5)
C4A C3A C7A O7A 161.7(4)
C2A C3A C7A N8A 163.8(3)
C4A C3A C7A N8A -17.8(5)
N8A C7A O7A Pb1 -5.1(5)
C3A C7A O7A Pb1 175.5(2)
O7A C7A N8A N9A 0.4(5)
C3A C7A N8A N9A 179.8(3)
C7A N8A N9A C10A 177.5(3)
C7A N8A N9A Pb1 3.9(4)
N8A N9A C10A C11A 179.0(3)
Pb1 N9A C10A C11A -8.1(5)
N8A N9A C10A C101 -2.2(5)
Pb1 N9A C10A C101 170.7(3)
N9A C10A C11A N12A 8.0(5)
C101 C10A C11A N12A -170.8(4)
N9A C10A C11A C16A -172.8(3)
C101 C10A C11A C16A 8.4(5)
C16A C11A N12A C13A -1.2(6)
C10A C11A N12A C13A 178.0(3)
C16A C11A N12A Pb1 176.2(3)
C10A C11A N12A Pb1 -4.6(4)
C11A N12A C13A C14A 0.1(6)
Pb1 N12A C13A C14A -177.1(3)
N12A C13A C14A C15A 1.6(7)
C13A C14A C15A C16A -2.1(7)
N12A C11A C16A C15A 0.6(6)
C10A C11A C16A C15A -178.6(4)
C14A C15A C16A C11A 1.0(7)
