#------------------------------------------------------------------------------
#$Date: 2019-11-23 14:18:43 +0200 (Sat, 23 Nov 2019) $
#$Revision: 233587 $
#$URL: file:///home/coder/svn-repositories/cod/cif/4/34/91/4349114.cif $
#------------------------------------------------------------------------------
#
# This file is available in the Crystallography Open Database (COD),
# http://www.crystallography.net/
#
# All data on this site have been placed in the public domain by the
# contributors.
#
data_4349114
loop_
_publ_author_name
'Valverde-Mu\~noz, Francisco Javier'
'Seredyuk, Maksym'
'Mu\~noz, M Carmen'
'Znovjyak, Kateryna'
'Fritsky, Igor O.'
'Real, Jos\'e Antonio'
_publ_section_title
;
 Strong Cooperative Spin Crossover in 2D and 3D
 Fe<sup>II</sup>-M<sup>I,II</sup> Hofmann-Like Coordination Polymers Based
 on 2-Fluoropyrazine.
;
_journal_issue                   20
_journal_name_full               'Inorganic chemistry'
_journal_page_first              10654
_journal_page_last               10665
_journal_paper_doi               10.1021/acs.inorgchem.6b01901
_journal_volume                  55
_journal_year                    2016
_chemical_formula_sum            'C12 H6 F2 Fe N8 Pd'
_chemical_formula_weight         462.50
_space_group_crystal_system      orthorhombic
_space_group_IT_number           53
_space_group_name_Hall           '-P 2ac 2'
_space_group_name_H-M_alt        'P m n a'
_atom_sites_solution_hydrogens   geom
_audit_creation_method           SHELXL-2014
_cell_angle_alpha                90
_cell_angle_beta                 90
_cell_angle_gamma                90
_cell_formula_units_Z            2
_cell_length_a                   7.4526(5)
_cell_length_b                   7.1125(4)
_cell_length_c                   14.7770(11)
_cell_measurement_reflns_used    1812
_cell_measurement_temperature    200(1)
_cell_measurement_theta_max      28.4710
_cell_measurement_theta_min      3.0460
_cell_volume                     783.28(9)
_computing_cell_refinement       'CrysAlisPro 2015'
_computing_data_collection       'CrysAlisPro 2015'
_computing_data_reduction        'CrysAlisPro 2015'
_computing_structure_refinement  'SHELXL-2014 (Sheldrick, 2014)'
_computing_structure_solution    'SHELXS-2014 (Sheldrick, 2014)'
_diffrn_ambient_temperature      200(1)
_diffrn_measured_fraction_theta_full 0.999
_diffrn_measured_fraction_theta_max 0.942
_diffrn_measurement_device_type  'SuperNova Sapphire3'
_diffrn_radiation_type           MoK\a
_diffrn_radiation_wavelength     0.71073
_diffrn_reflns_av_R_equivalents  0.0363
_diffrn_reflns_av_unetI/netI     0.0311
_diffrn_reflns_Laue_measured_fraction_full 0.999
_diffrn_reflns_Laue_measured_fraction_max 0.942
_diffrn_reflns_limit_h_max       10
_diffrn_reflns_limit_h_min       -9
_diffrn_reflns_limit_k_max       9
_diffrn_reflns_limit_k_min       -9
_diffrn_reflns_limit_l_max       19
_diffrn_reflns_limit_l_min       -19
_diffrn_reflns_number            6346
_diffrn_reflns_point_group_measured_fraction_full 0.999
_diffrn_reflns_point_group_measured_fraction_max 0.942
_diffrn_reflns_theta_full        25.000
_diffrn_reflns_theta_max         29.880
_diffrn_reflns_theta_min         2.864
_exptl_absorpt_coefficient_mu    2.107
_exptl_absorpt_correction_T_max  1.00000
_exptl_absorpt_correction_T_min  0.80749
_exptl_absorpt_correction_type   multi-scan
_exptl_absorpt_process_details   'CrysAlisPro 1.171.38.41q'
_exptl_crystal_colour            yellow
_exptl_crystal_density_diffrn    1.961
_exptl_crystal_description       prismatic
_exptl_crystal_F_000             448
_exptl_crystal_size_max          0.150
_exptl_crystal_size_mid          0.080
_exptl_crystal_size_min          0.080
_refine_diff_density_max         0.530
_refine_diff_density_min         -0.483
_refine_diff_density_rms         0.098
_refine_ls_extinction_method     none
_refine_ls_goodness_of_fit_ref   1.178
_refine_ls_hydrogen_treatment    constr
_refine_ls_matrix_type           full
_refine_ls_number_parameters     69
_refine_ls_number_reflns         1144
_refine_ls_number_restraints     0
_refine_ls_restrained_S_all      1.178
_refine_ls_R_factor_all          0.0496
_refine_ls_R_factor_gt           0.0349
_refine_ls_shift/su_max          0.010
_refine_ls_shift/su_mean         0.002
_refine_ls_structure_factor_coef Fsqd
_refine_ls_weighting_details
'w=1/[\s^2^(Fo^2^)+(0.0121P)^2^+0.7115P] where P=(Fo^2^+2Fc^2^)/3'
_refine_ls_weighting_scheme      calc
_refine_ls_wR_factor_gt          0.0533
_refine_ls_wR_factor_ref         0.0578
_reflns_Friedel_coverage         0.000
_reflns_number_gt                933
_reflns_number_total             1144
_reflns_threshold_expression     'I > 2\s(I)'
_cod_data_source_file            ic6b01901_si_004.cif
_cod_data_source_block           shelx
_cod_database_code               4349114
_shelx_space_group_comment
;
The symmetry employed for this shelxl refinement is uniquely defined
by the following loop, which should always be used as a source of
symmetry information in preference to the above space-group names.
They are only intended as comments.
;
_shelx_estimated_absorpt_t_min   0.743
_shelx_estimated_absorpt_t_max   0.850
_shelxl_version_number           2014-1
_shelx_res_file
;
TITL ja1420 in Pnc2
CELL  0.71073   7.4526   7.1125  14.7770   90.000   90.000   90.000
ZERR     2.00   0.0005   0.0004   0.0011    0.000    0.000    0.000
LATT   1
SYMM  1/2 - X, - Y, 1/2 + Z
SYMM    X, - Y, - Z
SYMM  1/2 - X,   Y, 1/2 - Z
SFAC  C    H    N    F    PD   FE
UNIT  24   12   16   4    2    2
MERG   2
OMIT    -3.00 180.00
acta 50
bond $H
size 0.08 0.08 0.15
FMAP   2
PLAN   20
BOND
L.S.   4
WGHT    0.012100    0.711500
FVAR       4.82592
MOLE    1
PD    5    0.000000    0.000000    0.000000    10.25000    0.01010    0.00885 =
         0.02228    0.00149    0.00000    0.00000
FE    6    0.500000   -0.500000    0.000000    10.25000    0.01104    0.00967 =
         0.02658    0.00483    0.00000    0.00000
N1    3    0.500000   -0.375981   -0.138541    10.50000    0.01687    0.01608 =
         0.02647    0.00234    0.00000    0.00000
N2    3    0.298108   -0.300428    0.036641    11.00000    0.01700    0.01839 =
         0.03365    0.00339    0.00259    0.00272
N3    3    0.500000   -0.224693   -0.311890    10.50000    0.08817    0.03799 =
         0.02697    0.00763    0.00000    0.00000
C1    1    0.500000   -0.191904   -0.152163    10.50000    0.04370    0.01589 =
         0.02781    0.00253    0.00000    0.00000
AFIX  43
H1    2    0.500000   -0.109343   -0.103360    10.50000   -1.20000
AFIX   0
C2    1    0.500000   -0.124256   -0.239569    10.50000    0.08139    0.02349 =
         0.03052    0.01037    0.00000    0.00000
C3    1    0.500000   -0.409272   -0.297565    10.50000    0.07906    0.04163 =
         0.03111   -0.00879    0.00000    0.00000
AFIX  43
H3    2    0.500000   -0.489939   -0.347096    10.50000   -1.20000
AFIX   0
C4    1    0.500000   -0.483925   -0.212810    10.50000    0.05223    0.01998 =
         0.03306   -0.00513    0.00000    0.00000
AFIX  43
H4    2    0.500000   -0.613964   -0.206232    10.50000   -1.20000
AFIX   0
C5    1    0.188847   -0.190075    0.026965    11.00000    0.01479    0.01560 =
         0.02317    0.00202    0.00047   -0.00176
F     4    0.500000    0.061939   -0.251717    10.50000    0.23117    0.02341 =
         0.04510    0.01682    0.00000    0.00000
HKLF    4

REM  ja1420 in Pnc2
REM R1 =  0.0349 for     933 Fo > 4sig(Fo)  and  0.0496 for all    1144 data
REM     69 parameters refined using      0 restraints

END

WGHT      0.0148      0.8207

REM Highest difference peak  0.530,  deepest hole -0.483,  1-sigma level  0.098
Q1    1   0.5000 -0.1737 -0.1986  10.50000  0.05    0.53
Q2    1   0.5000 -0.7074 -0.1500  10.50000  0.05    0.38
Q3    1   0.5000 -0.2889 -0.1428  10.50000  0.05    0.37
Q4    1   0.5000 -0.1768 -0.1117  10.50000  0.05    0.36
Q5    1   0.0537 -0.0059  0.0789  11.00000  0.05    0.35
Q6    1   0.4148 -0.2814 -0.3101  11.00000  0.05    0.33
Q7    1   0.2990 -0.2101  0.0266  11.00000  0.05    0.33
Q8    1   0.3933  0.0124 -0.2761  11.00000  0.05    0.31
Q9    1   0.1094 -0.1483  0.0140  11.00000  0.05    0.30
Q10   1   0.5000  0.0008 -0.3049  10.50000  0.05    0.29
Q11   1   0.2175 -0.1343  0.0467  11.00000  0.05    0.29
Q12   1   0.4193 -0.6419 -0.1257  11.00000  0.05    0.29
Q13   1   0.5000  0.1108 -0.1805  10.50000  0.05    0.28
Q14   1   0.4262 -0.3812 -0.1253  11.00000  0.05    0.28
Q15   1   0.2730 -0.0082 -0.1074  11.00000  0.05    0.27
Q16   1   0.4212 -0.3677  0.0356  11.00000  0.05    0.27
Q17   1   0.2502 -0.2954  0.0018  11.00000  0.05    0.27
Q18   1   0.4187 -0.2333 -0.2405  11.00000  0.05    0.27
Q19   1   0.4261 -0.5242 -0.2200  11.00000  0.05    0.27
Q20   1   0.3129 -0.3761  0.0203  11.00000  0.05    0.27
;
_shelx_res_checksum              5722
_shelx_hkl_file
;
   9   0   0-485.082 641.521   5
   8   0   0 47161.1 3626.70   5
   7   0   0 563.434 575.292   5
   6   0   0 264493. 6944.89   5
   5   0   0 392.731 380.788   5
   4   0   0 622373. 9026.77   1
   4   0   0 653452. 8533.69   5
   3   0   0 302.184 330.463   1
   3   0   0 293.703 254.790   5
   2   0   0 931904. 7072.92   5
   2   0   0 922312. 7603.81   1
  -2   0   0 938235. 7582.85   1
  -2   0   0 948031. 6950.34   5
  -2   0   0 946315. 6619.19   2
  -3   0   0 40.5885 188.298   2
  -4   0   0 655466. 6048.70   4
  -5   0   0 277.792 185.767   4
   9   0   1 1868.92 867.641   5
   9   0  -1 114.532 594.439   5
   8   0  -1-762.674 627.977   5
   8   0   1 136.072 506.182   5
   7   0   1 7589.12 1350.00   5
   7   0  -1 9079.42 1494.90   5
   6   0  -1 1091.28 652.079   5
   6   0   1 959.988 589.709   5
   5   0   1 2421.51 716.917   1
   5   0  -1 2629.48 686.262   5
   5   0   1 1937.10 572.504   5
   4   0  -1 310.873 421.192   5
   4   0   1 636.056 427.419   1
   4   0   1 508.975 410.503   5
   3   0  -1 7547.21 860.758   5
   3   0   1 8502.94 944.406   1
   3   0   1 7513.52 791.254   5
   2   0  -1 38.5038 219.186   5
   2   0   1 32.0223 226.879   1
   2   0  -1 61.3946 163.701   2
   2   0   1 119.602 199.203   5
   1   0  -1 6166.19 402.729   2
   1   0   1 7404.57 513.347   1
  -1   0   1 6301.18 402.800   2
  -1   0   1 5996.51 446.416   5
  -1   0  -1 5807.44 384.923   4
  -1   0  -1 6302.71 474.929   1
  -2   0   1 9.18305 174.898   2
  -2   0   1-10.4883 202.637   1
  -2   0  -1 12.5078 142.529   4
  -2   0  -1 33.6315 192.443   1
  -2   0   1 82.8064 182.403   5
  -3   0   1 6812.49 693.481   2
  -3   0  -1 7797.25 651.256   4
  -4   0   1 140.886 165.345   4
  -4   0  -1 489.988 266.856   4
  -5   0   1 2721.74 420.347   4
   9   0   2 618.043 593.059   5
   9   0  -2 155.731 587.096   5
   8   0  -2 22504.3 2586.83   5
   8   0   2 22908.9 2539.03   5
   7   0  -2-405.715 510.539   5
   7   0   2 183.668 463.246   5
   6   0  -2 106283. 4590.61   5
   6   0   2 107401. 4830.30   1
   6   0   2 112867. 4467.56   5
   5   0   2-28.9475 270.303   5
   5   0  -2 227.366 366.660   5
   5   0   2 232.428 394.673   1
   4   0   2 96587.1 3180.08   5
   4   0  -2 93884.6 3452.29   5
   4   0   2 93509.9 3598.62   1
   3   0  -2 233.736 212.395   2
   3   0   2 237.604 232.031   5
   3   0  -2 11.6686 227.894   5
   3   0   2 243.841 285.921   1
   2   0  -2 13133.7 970.816   5
   2   0   2 12723.4 967.584   1
   2   0   2 13993.2 842.261   5
   2   0  -2 14051.0 855.397   2
   1   0  -2 38.7512 74.1654   4
   1   0  -2 247.855 209.884   5
   1   0   2 5.87057 162.106   4
   1   0   2 114.041 162.962   1
   1   0  -2 37.5907 136.488   2
  -1   0  -2 16.6807 142.583   4
  -1   0   2 17.7366 82.7109   3
  -1   0  -2 85.0286 137.629   1
  -1   0   2-23.9647 67.5094   4
  -1   0   2 34.5929 157.152   5
  -1   0   2 111.029 137.511   2
  -2   0   2 14202.3 951.897   1
  -2   0   2 13470.9 943.967   5
  -2   0   2 13935.1 822.399   2
  -2   0  -2 14271.8 855.074   4
  -2   0  -2 14900.2 1019.06   1
  -3   0   2 500.988 250.134   2
  -3   0  -2 90.0408 159.486   4
  -5   0   2-102.690 128.286   4
   9   0   3 6265.17 1501.25   5
   9   0  -3 7289.69 1703.36   5
   8   0   3 675.272 629.544   5
   8   0  -3 478.497 587.850   5
   7   0   3 18299.0 2265.33   1
   7   0   3 18305.9 2016.20   5
   7   0  -3 16899.4 2108.59   5
   6   0  -3 874.767 670.765   5
   6   0   3 459.905 545.750   1
   6   0   3 530.066 504.066   5
   5   0   3 22772.7 1772.54   5
   5   0   3 25146.6 2143.29   1
   5   0  -3 23581.2 2017.05   5
   4   0   3 158.957 304.113   5
   4   0  -3 52.1923 231.188   2
   4   0   3 229.369 349.478   1
   4   0  -3 622.082 423.600   5
   3   0  -3 44162.7 2176.05   5
   3   0   3 41789.3 1780.21   5
   3   0  -3 38684.6 1770.45   2
   3   0   3 42394.2 2152.75   1
   2   0  -3 47.1873 211.601   5
   2   0  -3 152.540 175.826   2
   2   0   3-78.9147 222.489   1
   1   0   3 71799.8 1867.48   4
   1   0  -3 68706.8 1351.11   4
   1   0  -3 68984.0 1761.40   2
   1   0  -3 67931.3 1977.52   5
   1   0  -3 67244.6 1260.91   3
   1   0   3 69853.1 1849.84   1
   0   0   3 57.8687 160.196   1
   0   0   3-66.3595 169.727   6
   0   0   3-24.0520 147.006   4
   0   0  -3-35.7005 127.602   4
   0   0  -3 9.66438 173.339   6
  -1   0   3 66291.4 1696.77   2
  -1   0   3 66664.0 1320.12   4
  -1   0  -3 71390.4 1863.28   4
  -1   0  -3 69984.2 1851.71   1
  -1   0   3 66995.1 1929.68   5
  -2   0   3-10.0760 188.481   5
  -2   0  -3 78.0542 146.607   4
  -2   0   3 72.1198 160.513   2
  -2   0   3 64.6905 93.2290   4
  -2   0  -3-64.1959 183.876   1
  -3   0   3 38557.2 942.311   4
  -3   0   3 44298.1 1793.75   2
  -5   0   3 22528.0 899.973   4
   9   0  -4 94.4789 635.945   5
   9   0   4 727.400 703.423   5
   8   0   4 32126.3 2939.98   5
   8   0  -4 22460.0 2691.88   5
   7   0   4-154.061 438.493   1
   7   0  -4 984.769 702.579   5
   7   0   4-283.206 570.577   5
   6   0   4 113240. 5090.51   1
   6   0  -4 109222. 4913.61   5
   6   0   4 115740. 4493.39   5
   5   0   4 128.801 329.153   5
   5   0  -4-571.642 454.955   5
   5   0  -4 51.7947 160.518   2
   5   0   4-66.8550 344.980   1
   4   0  -4 200760. 5428.21   5
   4   0   4 201356. 4588.84   5
   4   0   4 193771. 5369.41   1
   4   0  -4 193020. 4588.23   2
   3   0  -4-86.0238 229.747   2
   3   0   4-29.2798 245.765   1
   3   0  -4 354.683 356.385   5
   2   0   4 184620. 3697.59   4
   2   0   4 183442. 3893.77   1
   2   0  -4 184155. 3529.66   2
   2   0  -4 184067. 4077.16   5
   2   0  -4 178421. 2377.54   4
   1   0   4 55.6863 218.430   1
   1   0  -4 149.876 136.543   4
   1   0  -4 66.1997 205.427   2
   1   0   4 38.3486 178.527   4
   1   0  -4 111.010 233.050   5
   1   0  -4 138.972 141.245   3
   0   0  -4 957976. 7836.99   6
   0   0   4 913193. 6384.14   1
   0   0  -4 936976. 6757.52   4
   0   0   4 930655. 6743.64   4
  -1   0  -4 135.270 211.046   4
  -1   0   4 102.797 207.730   5
  -1   0   4 177.768 152.933   4
  -1   0  -4 169.469 188.793   1
  -1   0   4 48.4883 124.542   2
  -2   0   4 183656. 3425.26   2
  -2   0  -4 180283. 3853.78   1
  -2   0   4 183217. 2464.15   3
  -2   0   4 181754. 2341.16   4
  -3   0   4 113.445 91.8703   4
  -4   0   4 185635. 2195.09   4
  -5   0   4 53.6610 65.8348   4
   9   0   5 4014.57 1221.60   5
   9   0  -5 2723.34 1156.09   5
   8   0  -5 423.642 630.832   5
   8   0   5 113.606 475.834   5
   8   0   5 284.986 612.108   1
   7   0   5 11445.1 1592.49   5
   7   0   5 9093.22 1693.15   1
   7   0  -5 11700.8 1839.98   5
   6   0   5 230.836 465.951   1
   6   0   5 719.249 509.761   5
   6   0  -5 685.919 525.525   5
   6   0  -5 743.746 509.304   2
   5   0   5 19654.2 1973.49   1
   5   0  -5 21012.8 1737.12   2
   5   0   5 18332.9 1605.80   5
   5   0  -5 20537.4 2018.53   5
   4   0  -5 59.0021 229.165   2
   4   0  -5 241.088 417.422   5
   4   0   5 304.589 323.339   5
   4   0   5 558.042 390.925   1
   3   0  -5 25909.2 1593.79   2
   3   0   5 25507.0 1761.59   1
   3   0  -5 25187.9 1814.50   5
   2   0  -5 625.226 324.336   2
   2   0  -5 255.678 145.492   4
   2   0   5 396.454 319.365   1
   2   0   5-29.4627 222.420   4
   2   0  -5 340.657 369.017   5
   1   0  -5 66736.3 1840.30   4
   1   0   5 67903.9 2167.33   1
   1   0   5 68767.9 2252.92   4
   1   0  -5 68409.3 2246.40   2
   0   0   5 96.4932 186.788   1
   0   0  -5 298.456 218.002   4
   0   0   5 36.8830 220.208   4
   0   0  -5 55.9885 219.651   6
  -1   0   5 66055.8 2383.53   5
  -1   0  -5 63643.7 2095.07   1
  -1   0   5 69050.9 2377.25   6
  -1   0   5 70038.7 1893.48   4
  -2   0   5 337.677 166.557   4
  -3   0   5 26271.1 1131.96   3
  -3   0   5 26401.9 945.457   4
  -4   0   5 46.2614 86.1940   4
  -5   0   5 14994.0 531.693   4
   9   0   6-178.577 593.230   5
   9   0  -6-26.0825 586.437   5
   8   0   6 45001.3 3930.21   1
   8   0  -6 45510.9 3940.24   5
   8   0   6 46583.2 3541.82   5
   7   0   6 494.192 548.110   1
   7   0  -6-253.275 499.176   5
   7   0   6 565.766 522.251   5
   6   0   6 116733. 5333.53   1
   6   0   6 122528. 4632.41   5
   6   0  -6 112530. 5258.42   5
   6   0  -6 115585. 4509.74   2
   5   0   6 239.497 312.870   5
   5   0   6 504.883 460.834   1
   5   0  -6 494.742 486.589   5
   5   0  -6 63.6521 322.433   2
   4   0  -6 164671. 5308.46   5
   4   0  -6 168497. 4614.19   2
   4   0   6 175977. 5329.80   1
   3   0   6 218.670 410.204   1
   3   0  -6 400.091 327.603   2
   3   0  -6 748.283 430.521   5
   2   0  -6 164732. 3944.50   2
   2   0  -6 169670. 2864.19   3
   2   0   6 166310. 4093.27   1
   2   0  -6 167437. 4486.81   5
   2   0  -6 162320. 3004.79   4
   2   0   6 158338. 3988.50   4
   1   0  -6 181.694 188.634   4
   1   0   6 201.586 302.264   4
   1   0   6 85.4558 249.104   1
   1   0  -6 63.0451 231.001   2
   0   0  -6 361107. 5989.84   6
   0   0   6 345884. 5071.03   4
   0   0   6 346955. 4863.28   1
  -1   0  -6 229.579 251.965   1
  -1   0   6-164.368 292.198   6
  -1   0   6 318.546 248.197   4
  -2   0   6 167693. 2998.40   4
  -3   0   6 294.817 158.174   4
  -3   0   6 143.061 142.876   3
  -4   0   6 172720. 2441.85   4
  -4   0   6 170837. 3279.15   3
  -5   0   6 248.943 243.307   3
  -5   0   6-34.1986 57.4895   4
  -6   0   6 116899. 3480.79   3
   9   0   7 661.366 740.136   5
   9   0   7 415.643 680.852   1
   9   0  -7 956.881 988.933   5
   8   0  -7 1728.20 868.941   5
   8   0   7 1457.42 720.739   5
   8   0   7 43.7066 597.184   1
   7   0  -7 3798.85 1113.20   5
   7   0   7 1873.96 778.152   5
   7   0  -7 2237.43 774.199   2
   7   0   7 825.794 588.261   1
   6   0  -7 480.479 545.365   5
   6   0  -7-486.805 453.044   2
   6   0   7-7.30336 402.987   5
   6   0   7 984.483 651.858   1
   5   0   7 6519.68 998.833   5
   5   0  -7 3907.77 867.669   2
   5   0  -7 5381.72 1099.89   5
   5   0   7 6209.40 1204.08   1
   4   0   7 777.701 452.902   1
   4   0  -7 18.8904 342.264   5
   4   0  -7-310.764 296.046   2
   3   0   7 67.3709 388.665   1
   3   0  -7 551.470 419.161   5
   3   0  -7 67.4312 139.111   4
   3   0  -7-30.0293 271.488   2
   2   0   7 102.781 294.769   1
   2   0   7 39.6824 211.957   4
   2   0  -7 16.1408 117.943   3
   2   0  -7 133.709 257.455   2
   2   0  -7 89.8009 162.824   4
   2   0  -7 100.179 294.748   5
   1   0  -7 1343.45 408.503   2
   1   0   7 1823.41 477.367   4
   1   0   7 1129.34 376.044   1
   0   0   7 187.821 290.049   4
   0   0  -7 261.369 276.661   6
   0   0   7 447.513 272.918   1
  -1   0   7 2069.76 429.391   4
  -1   0   7 2234.02 518.561   6
  -2   0   7 134.948 197.673   4
  -3   0   7 46.3936 139.851   4
  -4   0   7 195.014 195.992   3
  -4   0   7 12.2888 115.042   4
  -5   0   7 6282.18 710.475   3
   9   0   8-507.045 613.163   5
   8   0  -8 48530.1 4246.14   5
   8   0   8 46585.7 3566.13   5
   8   0   8 47229.4 4166.61   1
   7   0  -8-501.706 494.588   2
   7   0   8 192.295 453.209   1
   7   0   8-422.273 511.340   5
   6   0  -8 71750.9 4451.29   5
   6   0   8 79134.3 3807.68   5
   6   0  -8 75895.4 3894.26   2
   6   0   8 75115.2 4453.14   1
   5   0  -8 521.232 550.800   5
   5   0   8 344.441 373.830   1
   5   0   8 385.055 355.842   5
   5   0  -8 276.791 347.625   2
   4   0  -8 114693. 4192.58   2
   4   0   8 118618. 4623.04   1
   4   0  -8 115281. 4837.54   5
   3   0  -8 381.335 435.277   5
   3   0  -8 480.095 320.175   2
   3   0  -8-123.289 161.821   4
   3   0   8-8.30797 268.589   1
   2   0   8 200323. 5068.88   4
   2   0  -8 200735. 4948.03   2
   2   0   8 198866. 4946.55   1
   2   0  -8 199059. 3571.72   3
   1   0   8-4.18342 258.932   1
   1   0   8 225.343 266.748   4
   1   0  -8 380.106 314.365   2
   0   0   8 223182. 4766.84   4
   0   0   8 243438. 4697.31   1
  -1   0   8-16.0078 151.952   4
  -1   0   8 88.8823 235.364   6
  -2   0   8 198551. 5304.70   6
  -2   0   8 202940. 4022.63   4
  -3   0   8 462.051 204.125   4
  -4   0   8 121035. 2592.14   4
  -5   0   8 146.921 204.865   3
   9   0   9 2961.59 1091.41   5
   8   0   9 1170.59 722.525   5
   8   0  -9 1588.95 988.586   5
   8   0   9-397.349 623.890   1
   7   0   9 3239.57 940.427   5
   7   0  -9 1643.33 731.059   2
   7   0   9 5080.24 1358.67   1
   7   0  -9 5214.16 1376.04   5
   6   0  -9 760.940 659.236   5
   6   0   9-234.638 432.105   1
   6   0  -9 453.393 493.647   2
   6   0   9-217.196 427.936   5
   5   0  -9 11256.9 1720.81   5
   5   0   9 9957.04 1288.52   5
   5   0   9 9736.94 1534.52   1
   5   0  -9 11578.7 1515.28   2
   4   0  -9 1121.54 525.557   2
   4   0  -9 252.299 476.237   5
   4   0   9-442.095 419.516   1
   3   0  -9 2181.21 739.642   5
   3   0   9 2813.85 701.083   1
   3   0  -9 2350.93 642.861   2
   2   0   9 222.408 290.222   1
   2   0  -9 66.8870 178.380   3
   2   0  -9-67.4951 325.744   2
   2   0   9-401.584 370.181   4
   1   0   9 9902.06 1153.14   4
   1   0   9 10658.7 1119.67   1
   1   0  -9 10058.5 1176.04   2
   0   0   9 214.588 268.205   4
   0   0   9-17.6764 212.687   1
   0   0  -9 124.750 342.334   2
  -1   0   9 9621.33 1209.92   6
  -1   0   9 9442.49 1017.90   4
  -2   0   9 573.555 455.109   6
  -2   0   9-8.05397 231.736   4
  -3   0   9 2496.76 487.197   4
  -4   0   9 151.406 157.010   4
   8   0 -10 36154.5 3885.14   5
   8   0  10 36354.0 3179.66   5
   8   0  10 40632.4 4040.72   1
   7   0  10-17.3555 379.425   1
   7   0 -10 139.567 476.442   5
   7   0  10 503.830 541.254   5
   7   0 -10 255.184 466.578   2
   6   0  10 44441.8 3584.56   1
   6   0 -10 45299.0 3228.39   2
   6   0 -10 36099.1 3373.92   5
   6   0  10 39396.3 2793.08   5
   5   0 -10 347.778 431.716   2
   5   0 -10-16.6314 442.796   5
   5   0  10 277.608 481.136   1
   4   0 -10 54906.3 3628.82   5
   4   0  10 63587.5 3600.18   1
   4   0 -10 61013.3 3372.19   2
   3   0 -10 156.864 441.187   2
   3   0  10 413.792 382.360   1
   2   0  10 108563. 4121.61   4
   2   0  10 106992. 3949.60   1
   2   0 -10 109853. 4166.34   2
   1   0  10-117.934 266.878   1
   1   0  10 321.104 327.440   4
   1   0 -10 151.970 365.445   2
   0   0  10 49628.0 2547.30   4
   0   0 -10 48690.5 2689.53   2
   0   0  10 51721.0 2441.91   1
  -1   0  10-20.8996 337.450   6
  -1   0  10 20.7473 216.771   1
  -1   0  10 102.232 249.732   4
  -2   0  10 109092. 4268.76   6
  -2   0  10 105036. 3351.38   4
  -3   0  10 918.184 486.340   6
  -3   0  10 245.610 239.476   4
  -4   0  10 60913.6 2217.28   4
   8   0  11 2520.42 1106.26   1
   7   0  11 5241.95 1468.85   1
   7   0 -11 6439.71 1576.85   5
   7   0  11 6877.84 1338.72   5
   7   0 -11 5916.13 1352.62   2
   6   0  11 115.436 305.461   1
   6   0 -11 1818.30 899.440   5
   6   0 -11 1213.86 595.970   2
   6   0  11 724.508 510.843   5
   5   0 -11 24420.6 2697.93   5
   5   0  11 25414.2 2570.39   1
   5   0 -11 24725.1 2370.37   2
   4   0 -11-43.4124 356.945   2
   4   0  11 770.616 498.448   1
   3   0  11 26879.5 2235.39   1
   3   0 -11 22701.0 2071.30   2
   2   0  11 26.6264 341.896   1
   2   0 -11 124.238 418.499   2
   1   0 -11 46597.9 2818.36   2
   1   0  11 51401.4 2864.79   4
   1   0  11 48405.4 2602.52   1
   0   0  11 765.435 454.780   4
   0   0  11 136.666 275.550   1
   0   0 -11 181.423 348.765   2
  -1   0  11 46999.7 2502.44   4
  -1   0  11 46586.8 2398.49   1
  -2   0  11 459.843 533.616   6
  -2   0  11 453.454 329.475   4
  -3   0  11 25032.4 2260.51   6
  -3   0  11 23465.5 1614.02   4
  -4   0  11 494.353 449.432   6
  -4   0  11 61.3786 191.632   4
   7   0 -12 753.983 516.301   2
   7   0  12 187.065 540.497   1
   7   0  12 530.566 561.950   5
   6   0  12 31136.9 3151.37   1
   6   0 -12 27371.8 3104.64   5
   6   0  12 28348.2 2459.23   5
   6   0 -12 24354.8 2575.37   2
   5   0  12 594.695 590.728   1
   5   0 -12-64.8270 614.768   2
   4   0  12 46581.0 3280.24   1
   4   0 -12 42752.2 3097.70   2
   3   0  12-18.0853 385.627   1
   3   0 -12 92.2366 378.700   2
   2   0 -12 112641. 4672.31   2
   2   0  12 110081. 4325.87   1
   1   0  12 397.779 400.259   1
   1   0 -12 612.582 448.138   2
   1   0  12 111.239 349.336   4
   0   0  12 42126.7 2606.04   4
   0   0 -12 44966.1 2892.42   2
   0   0  12 44042.0 2485.80   1
  -1   0  12-256.138 289.586   4
  -1   0  12-310.985 304.929   1
  -2   0  12 107749. 3831.01   4
  -2   0  12 107552. 4637.38   6
  -3   0  12 61.3334 321.090   6
  -3   0  12 55.4185 233.469   4
  -4   0  12 41691.7 3198.52   6
  -5   0  12-14.0535 576.738   6
   7   0 -13 1012.15 917.008   5
   7   0  13-843.963 791.830   1
   6   0 -13-829.954 614.604   2
   6   0  13 319.614 575.873   1
   6   0  13 900.157 548.989   5
   5   0  13 2053.70 844.344   1
   5   0 -13 2219.67 906.541   2
   4   0  13 572.669 482.788   1
   4   0 -13-195.854 441.690   2
   3   0  13-146.054 378.913   1
   3   0 -13-299.067 477.831   2
   2   0 -13 665.497 487.780   2
   2   0  13 91.0348 304.386   1
   1   0 -13 89.4007 376.033   2
   1   0  13 22.7312 256.915   1
   0   0  13 1103.99 479.517   1
   0   0 -13 884.420 576.986   2
   0   0  13 1187.38 579.798   4
  -1   0  13 518.552 370.427   1
  -1   0 -13 216.356 439.044   2
  -1   0  13 273.228 328.910   4
  -2   0  13 109.341 311.740   1
  -2   0  13-14.7609 361.247   4
  -2   0  13 1093.38 561.202   6
  -3   0  13-532.204 325.511   4
  -3   0  13 1379.89 656.258   6
  -4   0  13 43.4749 436.670   6
  -5   0  13 3613.54 1097.18   6
  -6   0  13 472.437 514.586   6
   7   0  14-2.04495 566.419   1
   6   0 -14 23478.3 2744.41   2
   6   0  14 28630.6 3112.16   1
   5   0  14-15.3457 412.892   1
   5   0 -14-1071.92 736.402   2
   4   0  14 43188.1 3398.49   1
   4   0 -14 37154.7 3149.64   2
   3   0 -14 769.180 553.476   2
   3   0  14 274.759 311.034   1
   2   0  14 89490.1 4201.35   1
   2   0 -14 83735.0 4472.73   2
   1   0 -14 84.3936 374.473   2
   1   0  14 734.110 451.770   1
   0   0 -14 28237.3 2559.10   2
   0   0  14 27253.1 2130.75   1
   0   0  14 25853.9 2280.95   4
  -1   0  14-335.410 388.095   4
  -1   0  14 570.547 447.047   1
  -1   0 -14-400.559 523.558   2
  -2   0  14 84036.5 3765.63   4
  -2   0  14 83232.0 3656.53   1
  -3   0  14-871.353 574.444   6
  -4   0  14 50795.6 3727.13   6
  -5   0  14-330.397 464.122   6
   6   0  15 822.007 698.706   1
   6   0 -15 86.2382 430.461   2
   5   0  15 4288.05 1223.99   1
   5   0 -15 2503.22 962.669   2
   4   0  15-942.192 643.628   1
   4   0 -15-23.5589 388.448   2
   3   0  15 5310.14 1167.70   1
   3   0 -15 6131.16 1324.24   2
   2   0 -15 1040.41 657.285   2
   2   0  15 871.007 556.181   1
   1   0 -15 8815.62 1541.45   2
   1   0  15 7481.77 1219.58   1
   0   0  15 1019.58 471.162   1
   0   0 -15 1721.67 755.791   2
  -1   0 -15 6412.31 1273.74   2
  -1   0  15 9211.29 1273.74   1
  -2   0 -15 242.294 497.664   2
  -3   0  15 9111.23 1579.68   6
   6   0  16 13233.0 2254.29   1
   6   0 -16 11520.3 2103.39   2
   5   0  16-180.386 563.081   1
   5   0 -16-652.493 762.653   2
   4   0  16 28515.6 2898.48   1
   4   0 -16 27675.3 2964.88   2
   3   0 -16 440.841 584.824   2
   3   0  16-1173.05 625.471   1
   2   0  16 57265.1 3595.92   1
   2   0 -16 60366.1 4147.14   2
   1   0 -16 827.742 592.605   2
   1   0  16 691.548 542.177   1
   0   0 -16 21261.8 2450.27   2
  -1   0 -16 179.166 580.703   2
  -2   0 -16 55703.6 3886.80   2
   6   0  17 309.638 425.233   1
   5   0 -17 4723.90 1350.97   2
   5   0  17 1462.91 780.258   1
   4   0 -17 127.790 497.361   2
   4   0  17 139.882 374.408   1
   3   0 -17 5573.80 1424.06   2
   2   0 -17 1791.80 866.501   2
   1   0 -17 7403.66 1554.76   2
   0   0 -17-580.291 490.691   2
  -1   0 -17 6106.25 1354.82   2
  -2   0 -17 358.824 571.194   2
  -3   0 -17 6954.11 1458.44   2
   4   0 -18 8263.15 1740.98   2
   3   0 -18-81.9824 553.772   2
   2   0 -18 15136.8 2257.73   2
   1   0 -18-811.257 694.031   2
   0   0 -18 3509.85 1114.07   2
  -1   0 -18-416.684 531.562   2
  -2   0 -18 15998.4 2290.92   2
  -3   0 -18-1020.30 753.176   2
   2   0 -19 691.560 674.776   2
   1   0 -19 2397.47 1018.12   2
   0   0 -19-1482.30 925.879   2
  -1   0 -19 647.126 768.025   2
   9  -1   0 2393.50 962.867   5
   9   1   0 2464.97 996.718   5
   8  -1   0 5550.22 1350.95   5
   8   1   0 3502.71 1049.81   5
   7  -1   0 1104.25 582.398   5
   7   1   0-109.543 444.055   5
   6   1   0 6319.32 1195.88   1
   6   1   0 5969.01 1120.18   5
   6  -1   0 6910.30 1183.79   5
   5   1   0 81.5338 338.777   1
   5  -1   0 199.933 348.185   5
   5   1   0 220.712 364.359   5
   4   1   0 4840.15 789.233   5
   4  -1   0 3885.57 706.436   5
   4   1   0 4380.80 790.918   1
   3  -1   0 293.292 178.180   4
   3   1   0 77.0226 256.902   5
   3   1   0 267.928 325.009   1
   3  -1   0 132.063 247.576   5
   2   1   0 19143.3 1049.83   5
   2  -1   0 18093.9 1031.03   5
   2   1   0 18598.2 1088.68   1
   2  -1   0 20082.3 733.385   4
   1  -1   0 139.429 116.727   4
   1   1   0-5.63389 152.143   5
   1   1   0 96.8474 168.435   1
   0  -1   0 27406.3 854.791   3
  -1  -1   0 2.40259 126.576   5
  -1  -1   0-34.2657 193.304   2
  -1  -1   0-16.6665 122.124   1
  -2  -1   0 20886.4 1143.06   1
  -2  -1   0 20469.2 1054.75   5
  -2  -1   0 18486.8 1170.13   2
  -2   1   0 20735.8 761.798   4
  -2   1   0 18051.3 597.618   2
  -3   1   0 7.59827 106.161   4
  -3   1   0-64.1369 152.172   2
  -4   1   0 4294.54 550.329   2
  -4   1   0 5054.48 490.899   4
  -5   1   0 252.025 210.614   2
  -5   1   0 611.807 220.584   4
  10   1   1 1598.57 973.318   5
   9   1  -1 49021.2 4112.72   5
   9  -1  -1 52867.6 4242.33   5
   9  -1   1 43099.2 3797.60   5
   9   1   1 51687.1 4110.49   5
   8  -1  -1 1321.76 707.293   5
   8  -1   1 1415.40 788.541   5
   8   1  -1 2949.14 1034.71   5
   8   1   1 1480.94 726.839   5
   7   1   1 74527.9 4392.49   1
   7   1  -1 71510.3 4131.76   5
   7   1   1 73969.0 4053.88   5
   7  -1  -1 76184.3 4226.21   5
   7  -1   1 76592.5 4151.30   5
   6  -1   1 2812.22 818.892   5
   6   1   1 4429.23 1040.32   1
   6  -1  -1 2719.90 773.337   5
   6   1   1 2573.21 756.747   5
   6   1  -1 1932.01 663.107   5
   5   1  -1 203481. 5650.50   5
   5   1  -1 200299. 5703.96   1
   5  -1  -1 197129. 5521.30   5
   5  -1   1 206871. 5468.94   5
   5   1   1 199882. 5866.29   1
   5   1   1 218046. 5539.88   5
   4  -1  -1 14320.5 1328.43   5
   4   1   1 16771.5 1361.19   5
   4   1   1 14424.5 1421.63   1
   4  -1   1 14646.6 1304.21   5
   4   1  -1 16185.6 1440.73   1
   4   1  -1 14670.0 1361.99   5
   3   1  -1 201686. 4277.35   1
   3   1   1 203407. 3939.59   5
   3   1   1 198587. 4436.61   1
   3  -1   1 208491. 3196.60   4
   3   1  -1 201384. 4336.04   5
   3  -1   1 201418. 4074.66   5
   3  -1  -1 209389. 4316.17   5
   2  -1   1 92814.9 1904.57   4
   2   1  -1 93409.0 2612.20   2
   2   1  -1 94748.9 2326.65   1
   2   1   1 92230.2 2113.60   5
   2  -1  -1 95536.6 2388.02   5
   2  -1  -1 87121.1 1372.31   2
   2  -1  -1 89243.0 1166.95   4
   2   1   1 91917.5 2492.52   1
   2   1  -1 92457.9 2492.46   5
   1   1   1 485697. 3246.17   5
   1   1  -1 493441. 4770.91   5
   1   1  -1 493741. 3631.67   1
   1  -1  -1 485876. 4015.26   5
   1   1   1 482605. 4631.42   1
   1   1  -1 493596. 4967.54   2
   1  -1   1 489908. 3936.20   4
   0  -1   1 60318.5 1288.24   2
   0  -1   1 60002.5 1369.02   3
   0   1  -1 57274.2 1283.75   2
   0   1  -1 58911.1 1364.05   3
   0  -1  -1 59179.9 1643.59   6
   0   1   1 60661.8 1659.38   6
   0  -1   1 58480.0 1342.00   4
  -1  -1   1 502553. 4770.04   5
  -1  -1  -1 496027. 3150.45   5
  -1   1  -1 485479. 2784.09   2
  -1  -1   1 498802. 3666.25   1
  -1  -1   1 495253. 4870.71   2
  -1   1   1 492008. 4001.55   5
  -1  -1  -1 492203. 4739.96   1
  -1   1  -1 491600. 4013.25   4
  -2  -1  -1 92175.4 2513.10   1
  -2   1  -1 94033.1 1925.70   4
  -2  -1   1 92280.7 2567.99   2
  -2  -1  -1 92377.6 2042.33   5
  -2   1   1 94176.6 2331.88   5
  -2   1   1 92259.5 1300.19   2
  -2   1  -1 93842.3 2577.78   1
  -2  -1   1 93860.2 2433.67   5
  -2  -1   1 93207.7 2275.78   1
  -3   1   1 209448. 2806.51   2
  -3   1  -1 207805. 3170.82   4
  -3   1   1 195081. 2131.60   4
  -3  -1  -1 199555. 3747.42   5
  -4   1  -1 16521.8 1006.64   4
  -4   1   1 15744.2 703.526   4
  -4   1   1 14217.8 916.364   2
  -5   1   1 200022. 2853.76   4
  -5   1   1 207104. 4030.05   2
  10   1   2 4281.08 1323.41   5
   9   1  -2 2257.66 1081.97   5
   9  -1  -2 1142.18 875.176   5
   9  -1   2 586.946 850.960   5
   9   1   2 701.051 714.661   5
   8  -1   2 8429.22 1564.29   5
   8  -1  -2 7175.63 1518.57   5
   8   1   2 6443.68 1385.23   5
   8   1   2 5674.79 1359.97   1
   8   1  -2 5790.69 1362.32   5
   7  -1  -2 1687.67 852.823   5
   7   1  -2 1803.80 839.240   5
   7   1   2 1990.33 823.890   1
   7  -1   2 2138.31 760.573   5
   7   1   2 3013.79 861.009   5
   6  -1   2 18079.7 1826.66   5
   6   1   2 19159.8 1844.98   5
   6  -1  -2 15410.5 1780.27   5
   6   1  -2 17784.9 1929.50   5
   6   1   2 15242.8 1856.48   1
   5   1   2-112.871 373.819   1
   5  -1   2 782.923 422.150   5
   5   1  -2 1436.08 573.337   5
   5  -1  -2 468.079 456.938   5
   5   1   2 1360.08 486.301   5
   4   1   2 14405.6 1446.65   1
   4   1  -2 16791.8 1440.07   1
   4  -1   2 14703.0 1455.13   1
   4  -1   2 15225.9 1320.48   5
   4  -1  -2 15979.3 1434.21   5
   4   1   2 14942.2 1241.35   5
   4   1  -2 15241.8 1450.77   5
   3   1   2 4934.27 619.146   5
   3   1  -2 5249.52 704.648   1
   3   1  -2 5755.90 813.833   5
   3   1   2 4778.45 762.174   1
   3   1  -2 4812.19 737.996   2
   3  -1  -2 5722.66 777.938   5
   3  -1   2 4678.99 651.136   5
   3  -1   2 5226.34 589.355   4
   3  -1  -2 5233.85 520.892   2
   3  -1   2 5578.31 809.931   1
   2   1   2 19097.0 916.522   5
   2   1  -2 19620.3 1240.05   2
   2  -1   2 19324.5 999.310   4
   2  -1   2 18270.2 1170.51   1
   2   1  -2 19761.0 1035.61   1
   2   1  -2 19158.1 1236.82   5
   2   1   2 19830.7 1235.93   1
   2  -1  -2 19163.5 756.505   2
   2  -1  -2 18003.0 1119.70   5
   1   1  -2 3030.78 447.659   2
   1  -1   2 3702.23 438.044   4
   1   1   2 3520.93 244.823   5
   1  -1  -2 3616.50 416.310   5
   1   1  -2 3963.95 310.012   1
   1   1   2 3142.14 459.061   1
   1  -1   2 2915.38 387.320   1
   0   1  -2 15016.5 784.902   3
   0  -1   2 14526.6 728.503   2
   0  -1  -2 13008.8 918.479   6
   0  -1   2 15041.8 770.361   4
   0   1  -2 13051.9 701.372   2
   0   1  -2 14470.9 761.898   4
   0   1   2 14791.8 964.710   6
  -1  -1   2 3518.66 283.564   1
  -1   1   2 3586.75 390.252   5
  -1  -1   2 2954.97 466.342   5
  -1   1  -2 3460.08 337.122   2
  -1   1  -2 3279.33 387.806   1
  -1  -1  -2 3625.40 482.773   1
  -1   1  -2 3890.43 439.124   4
  -1  -1   2 3804.84 449.767   3
  -1  -1   2 3057.85 433.104   2
  -2  -1  -2 21491.8 1304.70   1
  -2  -1  -2 19089.6 879.533   5
  -2   1  -2 20203.7 1199.23   1
  -2   1   2 20587.0 1142.37   5
  -2  -1   2 20269.0 1035.04   1
  -2   1  -2 20119.9 1021.76   4
  -2  -1   2 17914.8 1141.26   2
  -2  -1   2 19679.6 1223.83   5
  -2   1   2 20100.4 740.247   2
  -3  -1  -2 5165.53 611.415   5
  -3  -1   2 5164.48 679.673   1
  -3   1   2 5685.81 493.653   2
  -3   1  -2 4665.12 565.656   4
  -4   1   2 16366.1 987.045   2
  -5   1   2 342.509 92.7394   4
  -5   1   2 299.566 228.638   2
  10   1   3-7.74243 532.263   5
   9  -1   3 43184.4 3762.34   5
   9   1  -3 42376.5 3904.94   5
   9  -1  -3 44028.2 3974.40   5
   9   1   3 41915.3 3651.14   5
   8  -1  -3 1761.45 886.380   5
   8   1  -3 2473.87 1023.49   5
   8  -1   3 1918.59 758.167   5
   8   1   3 2087.73 1015.95   1
   8   1   3 2611.23 925.896   5
   7   1   3 55637.3 3443.91   5
   7   1   3 59879.5 4023.12   1
   7   1  -3 64940.4 4108.97   5
   7  -1   3 61522.2 3717.49   5
   7  -1  -3 64278.6 4008.93   5
   6  -1   3 305.131 342.864   5
   6   1   3 661.463 568.789   5
   6   1   3 815.574 550.239   1
   6  -1  -3 1521.62 732.704   5
   6   1  -3 838.694 523.916   5
   5  -1  -3 159607. 5177.44   5
   5   1  -3 164186. 5400.07   5
   5   1   3 157075. 4533.08   5
   5  -1   3 152873. 4686.19   5
   5  -1   3 151916. 5252.59   1
   5   1   3 149408. 5189.73   1
   4  -1   3 57.5661 296.018   1
   4  -1   3 609.790 378.947   5
   4   1   3 831.652 340.514   5
   4   1   3 290.691 359.045   1
   4   1  -3 700.063 383.923   2
   4  -1  -3 1000.47 331.530   2
   4  -1  -3 782.661 440.501   5
   4   1  -3 1112.29 461.647   5
   3  -1  -3 150863. 2934.45   2
   3   1   3 157614. 4180.57   1
   3   1  -3 147164. 4116.92   5
   3   1  -3 153634. 4013.81   2
   3  -1   3 151780. 3377.49   4
   3   1   3 154511. 3243.13   5
   3  -1   3 154553. 4116.27   1
   3  -1  -3 158256. 4018.86   5
   2   1   3 17605.8 850.602   5
   2   1  -3 16817.5 1253.68   5
   2   1   3 16594.4 1205.94   1
   2  -1  -3 19253.7 897.724   2
   2   1  -3 15741.0 1158.80   2
   2  -1  -3 16443.5 1127.36   5
   2  -1   3 19068.3 1218.16   1
   2  -1   3 17103.0 1053.83   4
   1  -1  -3 334393. 3965.51   5
   1   1   3 337993. 4734.72   1
   1  -1   3 340024. 4254.89   4
   1   1  -3 345179. 4608.47   2
   1  -1   3 343540. 3863.85   1
   1   1  -3 341022. 4172.99   3
   0  -1  -3 49390.9 1093.47   5
   0   1   3 48166.4 1020.50   5
   0  -1  -3 50834.7 2007.86   6
   0  -1   3 49184.8 1535.57   4
   0   1  -3 49247.1 1576.43   4
   0  -1   3 50995.5 1550.86   2
   0   1  -3 49938.8 1567.04   2
   0   1   3 52382.9 2000.89   6
  -1   1  -3 343379. 3791.71   1
  -1  -1   3 331963. 5052.47   5
  -1  -1   3 341950. 3942.14   4
  -1   1   3 341696. 3868.87   5
  -1  -1  -3 338916. 4738.28   1
  -1   1  -3 351297. 4385.41   4
  -1  -1   3 336243. 2631.39   1
  -1  -1   3 336719. 4019.07   3
  -1  -1   3 346767. 4487.40   2
  -2  -1   3 18261.4 1283.09   5
  -2  -1   3 16545.0 901.909   4
  -2   1  -3 17948.7 1076.77   4
  -2   1   3 17456.1 1105.78   5
  -2  -1   3 17376.0 1032.37   3
  -2   1  -3 17663.6 1142.08   1
  -2  -1   3 17515.9 1164.66   2
  -2  -1   3 18145.1 974.977   1
  -3  -1   3 162476. 3717.50   1
  -3   1   3 160717. 2786.66   2
  -4   1   3 672.762 266.442   2
  10   1   4 4943.92 1441.55   5
   9   1   4 1699.63 944.396   1
   9   1  -4 365.286 625.573   5
   9  -1   4 639.276 856.620   5
   9   1   4 302.509 536.789   5
   9  -1  -4 2247.44 1207.36   5
   8  -1  -4 6080.08 1435.99   5
   8   1   4 6338.45 1324.88   5
   8   1   4 4997.73 1344.48   1
   8   1  -4 6300.06 1503.63   5
   8  -1   4 9292.52 1607.12   5
   7  -1  -4 437.482 609.769   5
   7   1  -4 1044.35 777.819   5
   7   1   4 694.457 625.960   5
   7  -1   4 300.771 472.311   5
   7   1   4 1443.25 900.469   1
   6  -1  -4 11868.0 1644.88   5
   6  -1   4 13898.5 1849.56   1
   6  -1   4 16552.7 1753.30   5
   6   1   4 15003.8 1606.22   5
   6   1   4 15560.1 1920.38   1
   6   1  -4 14067.0 1812.82   5
   5   1  -4 1331.71 532.034   2
   5  -1  -4 909.226 541.392   5
   5   1   4 1054.54 565.577   1
   5  -1  -4 532.259 352.299   2
   5   1   4 1367.07 543.749   5
   5   1  -4 515.847 539.567   5
   5  -1   4 1314.73 561.051   5
   5  -1   4 522.948 503.597   1
   4   1   4 16789.8 1621.21   1
   4   1  -4 20788.5 1829.42   5
   4   1  -4 22754.1 1756.22   2
   4  -1  -4 20353.9 1327.33   2
   4  -1  -4 24291.6 1872.45   5
   4   1   4 19645.0 1394.47   5
   4  -1   4 21367.3 1483.43   4
   4  -1   4 18140.5 1661.37   1
   4  -1   4 20431.9 1558.34   5
   3   1   4 2569.42 635.020   1
   3   1   4 1595.59 367.538   5
   3  -1  -4 2885.58 483.251   2
   3   1  -4 2809.52 661.053   5
   3  -1  -4 2984.33 620.497   5
   3  -1   4 2559.55 525.669   4
   3  -1   4 2140.07 544.494   1
   3   1  -4 2910.12 606.050   2
   2  -1   4 60684.4 2147.72   4
   2   1  -4 60348.7 2313.02   2
   2   1   4 62026.8 2429.63   1
   2   1  -4 60897.9 2532.89   5
   2  -1   4 59431.7 2175.73   1
   2  -1  -4 61320.8 1180.56   4
   2  -1  -4 60638.5 1832.70   2
   2  -1  -4 60814.1 2252.45   5
   1  -1   4 2086.19 340.727   1
   1   1  -4 2013.70 369.074   3
   1  -1  -4 1463.40 327.366   5
   1   1   4 2234.67 457.672   1
   1   1  -4 1965.46 358.604   4
   1  -1   4 1756.36 387.229   4
   1   1  -4 2136.79 449.196   2
   1  -1  -4 2179.79 305.659   4
   0   1  -4 104793. 2519.61   4
   0   1  -4 101517. 1921.73   6
   0  -1   4 98336.5 2391.71   4
   0  -1   4 103586. 2463.13   2
   0   1   4 94283.1 2943.30   6
   0   1   4 103530. 1915.86   5
   0  -1   4 99621.6 1447.56   1
   0  -1  -4 103275. 3125.17   6
   0   1  -4 99604.0 2475.38   2
  -1   1  -4 1894.82 380.032   4
  -1   1  -4 1775.83 316.105   1
  -1  -1  -4 2147.98 444.547   1
  -1  -1   4 2426.61 431.343   2
  -1  -1   4 2164.54 375.946   4
  -1   1   4 2576.33 529.898   6
  -1   1   4 2994.15 416.668   5
  -1  -1   4 1670.90 474.165   5
  -2   1  -4 65860.7 2247.71   1
  -2  -1   4 64469.4 1836.58   1
  -2  -1   4 61639.2 1958.08   3
  -2  -1   4 60715.0 1819.98   4
  -2   1   4 63600.1 2206.09   5
  -3  -1   4 2522.81 468.999   3
  -3  -1   4 2880.02 428.292   4
  -3   1   4 2491.35 404.363   2
  -3  -1   4 2495.39 486.717   1
  -4   1   4 20404.0 1221.46   2
  -4  -1   4 23169.9 1193.87   4
  10   1   5 2537.46 1148.96   5
   9  -1   5 38228.6 3554.27   5
   9   1   5 37188.6 3392.27   5
   9   1  -5 38309.6 3879.76   5
   9   1   5 36028.4 3772.57   1
   9  -1  -5 39961.6 3891.53   5
   8   1   5 1071.08 711.922   1
   8  -1   5 1241.33 634.631   5
   8   1  -5 1004.52 805.299   5
   8  -1  -5 401.820 564.556   5
   8   1   5 1747.78 727.694   5
   7   1   5 64344.4 4293.08   1
   7   1  -5 56444.4 3999.62   5
   7  -1   5 64490.8 3808.39   5
   7   1   5 64762.8 3703.08   5
   7  -1  -5 60359.1 4042.78   5
   6  -1   5 4605.93 1057.48   1
   6   1  -5 4231.10 1103.61   5
   6  -1  -5 5743.26 1170.71   5
   6   1   5 6291.66 1086.04   5
   6  -1   5 3932.21 886.374   5
   6   1   5 6319.29 1267.68   1
   6   1  -5 6522.92 1174.08   2
   5   1   5 129375. 4080.55   5
   5   1  -5 141452. 5311.95   5
   5   1   5 139095. 5236.50   1
   5  -1  -5 134028. 3917.25   2
   5  -1   5 136216. 4494.75   5
   5   1  -5 136580. 4784.71   2
   5  -1   5 130083. 5011.36   1
   5  -1  -5 125534. 4845.14   5
   4  -1   5 8356.59 1003.55   4
   4   1   5 9569.54 1267.64   1
   4  -1  -5 9052.04 1219.94   5
   4  -1  -5 8162.98 892.178   2
   4   1   5 9960.51 1006.09   5
   4   1  -5 7746.97 1173.94   5
   4  -1   5 7996.22 1132.65   1
   4   1  -5 8878.34 1143.26   2
   3  -1  -5 160788. 3575.92   2
   3   1  -5 159336. 4328.37   2
   3  -1  -5 156899. 4416.92   5
   3   1   5 160969. 4551.30   1
   3  -1   5 159443. 4315.67   1
   3   1   5 159466. 3323.21   5
   3  -1   5 163122. 4068.34   4
   3   1  -5 159750. 4739.57   5
   2   1  -5 2526.78 623.689   5
   2  -1  -5 1449.04 358.233   2
   2   1  -5 1636.64 476.485   2
   2  -1   5 2608.27 535.833   4
   2  -1   5 2171.53 481.788   1
   2  -1  -5 2041.76 497.280   5
   2   1   5 1488.05 457.331   1
   2  -1  -5 2024.30 282.568   4
   1   1  -5 285517. 4329.38   4
   1  -1   5 286685. 4717.01   4
   1   1  -5 301888. 4395.02   3
   1   1   5 283074. 5041.29   1
   1  -1  -5 290945. 3807.72   4
   1  -1   5 281884. 3903.88   1
   1  -1  -5 288269. 4529.95   5
   1   1  -5 292700. 4943.05   2
   0  -1   5 169638. 3424.31   4
   0   1   5 171660. 2946.45   5
   0   1  -5 169921. 3488.63   4
   0  -1  -5 167053. 4338.82   6
   0   1   5 163135. 4155.26   6
   0   1  -5 163706. 3518.32   2
   0   1  -5 170753. 2993.07   6
   0  -1  -5 175566. 3296.44   4
   0  -1   5 165000. 2278.06   1
  -1   1  -5 288179. 3950.44   1
  -1  -1   5 286128. 4270.36   4
  -1  -1   5 287120. 3792.02   6
  -1   1   5 288628. 5741.48   6
  -1   1   5 281085. 4269.00   5
  -2  -1   5 1476.24 339.926   4
  -2   1  -5 2316.83 471.548   1
  -2  -1   5 1990.39 407.785   3
  -3  -1   5 160545. 3704.22   1
  -3  -1   5 162537. 3158.81   4
  -3  -1   5 161309. 3532.77   3
  -4  -1   5 8993.83 945.438   3
  -4  -1   5 9285.98 771.639   4
  -5  -1   5 133355. 2931.31   4
  -6  -1   5 5275.30 609.564   4
   9   1   6 3115.98 1213.70   1
   9  -1   6 2536.84 1035.25   5
   9   1  -6 1810.06 930.224   5
   9  -1  -6 1633.77 895.067   5
   9   1   6 1885.83 886.244   5
   8   1  -6 7091.80 1595.67   5
   8  -1  -6 3423.04 1164.45   5
   8   1   6 3066.26 981.400   5
   8   1   6 3674.48 1221.64   1
   8  -1   6 6419.87 1382.64   5
   7  -1  -6 590.590 572.131   5
   7   1   6 405.066 427.231   5
   7   1   6 1004.87 760.023   1
   7  -1   6 736.716 569.741   5
   7   1  -6 917.466 692.794   5
   7  -1   6 300.235 482.769   1
   6  -1   6 7133.83 1370.04   1
   6   1   6 7307.24 1127.05   5
   6   1   6 7500.78 1445.14   1
   6  -1  -6 5576.62 1243.84   5
   6  -1   6 8447.52 1289.28   5
   6   1  -6 8469.94 1539.65   5
   6  -1  -6 7766.36 1096.52   2
   6   1  -6 7285.72 1254.18   2
   5   1   6 4901.21 1074.56   1
   5  -1   6 5963.23 1147.34   1
   5   1  -6 4957.48 1150.90   5
   5  -1  -6 5997.14 1150.34   5
   5   1   6 5169.30 878.586   5
   5  -1  -6 5771.92 890.016   2
   5   1  -6 6624.94 1143.46   2
   5  -1   6 4975.23 923.489   5
   4   1  -6 4336.78 833.228   2
   4   1  -6 4634.16 1008.50   5
   4   1   6 4142.65 898.018   1
   4  -1   6 3483.92 723.803   4
   4  -1  -6 4705.03 724.819   2
   4   1   6 4577.54 710.674   5
   4  -1   6 4921.21 926.580   1
   4  -1  -6 5475.70 1014.15   5
   3  -1  -6 5501.38 404.100   4
   3  -1  -6 6259.00 784.393   2
   3  -1   6 5765.93 852.493   4
   3  -1  -6 7913.05 1098.92   5
   3  -1   6 6984.55 978.072   1
   3   1  -6 5050.65 924.891   5
   3   1   6 5525.53 925.444   1
   3   1  -6 7910.24 1020.95   2
   2  -1  -6 164.045 207.388   2
   2  -1   6 210.248 245.949   4
   2  -1  -6 248.244 185.937   4
   2   1   6 193.852 323.534   1
   2  -1   6 43.7518 242.186   1
   2   1  -6 331.701 360.153   2
   2   1  -6 192.281 227.393   3
   2  -1  -6 241.994 295.724   5
   1   1  -6 24954.7 1365.94   3
   1  -1   6 23561.8 1210.43   1
   1   1   6 24673.3 1599.25   1
   1  -1  -6 22820.1 1414.59   5
   1   1  -6 24380.0 1551.46   2
   1  -1   6 24143.7 1489.07   4
   1  -1  -6 22194.8 1186.07   4
   0   1  -6 146.384 216.657   6
   0  -1   6-5.14558 121.103   1
   0   1   6 40.7117 174.480   5
   0   1  -6-117.217 259.520   2
   0  -1   6 456.581 281.746   4
   0   1   6-14.2223 300.366   6
  -1   1   6 25061.3 1415.64   5
  -1  -1   6 26493.8 1408.59   4
  -1   1  -6 25163.3 1261.68   1
  -1  -1   6 23560.1 1229.97   6
  -1   1   6 22359.9 1709.05   6
  -2  -1   6-47.7016 218.261   4
  -3  -1   6 7748.84 832.059   1
  -3  -1   6 6553.53 680.628   4
  -3  -1   6 6355.39 719.968   3
  -4  -1   6 4422.12 565.371   4
  -4   1   6 4035.12 346.521   3
  -4  -1   6 4922.33 685.314   3
  -5   1   6 5712.59 559.525   3
  -5  -1   6 5814.76 841.586   3
  -5  -1   6 5912.74 648.356   4
  -6  -1   6 7340.32 1034.53   3
  -7  -1   6-542.769 417.794   3
   9   1   7 37151.8 3394.94   5
   9  -1   7 35285.7 3468.98   5
   8   1  -7 3546.40 1162.84   5
   8  -1   7 3302.57 1051.43   5
   8   1   7 4959.54 1394.68   1
   8   1   7 4746.87 1223.67   5
   8  -1  -7 3781.28 1294.04   5
   7  -1   7 58896.2 4217.10   1
   7   1  -7 63233.2 4468.66   5
   7   1   7 59520.6 3525.86   5
   7   1   7 63451.5 4404.20   1
   7   1  -7 59974.0 3841.75   2
   7  -1  -7 64118.2 4362.86   5
   7  -1   7 59241.9 3710.55   5
   6  -1   7 1051.73 590.471   5
   6   1   7 560.562 415.821   5
   6  -1  -7 836.223 556.356   5
   6   1  -7 1588.77 748.934   5
   6  -1  -7 1214.29 520.672   2
   6   1  -7 1289.99 620.088   2
   6  -1   7 1372.47 717.351   1
   6   1   7 750.911 516.843   1
   5   1  -7 106368. 4448.53   2
   5   1   7 106484. 3752.31   5
   5  -1  -7 104116. 3800.21   2
   5  -1  -7 105789. 4789.28   5
   5   1  -7 108316. 5008.61   5
   5  -1   7 108538. 4734.31   1
   5   1   7 109438. 4855.16   1
   4  -1  -7-79.6642 327.059   5
   4   1  -7 337.574 396.343   5
   4  -1   7 66.1426 255.664   4
   4   1   7-146.787 230.339   5
   4   1   7-55.1246 392.790   1
   4  -1  -7 508.120 291.850   2
   4  -1   7 61.0687 274.922   1
   4   1  -7 235.204 314.139   2
   3   1  -7 153983. 4651.38   2
   3  -1  -7 151741. 4719.97   5
   3  -1   7 144967. 4322.08   1
   3   1  -7 147694. 5022.73   5
   3  -1   7 151272. 4403.17   4
   3   1   7 149779. 4736.50   1
   3  -1  -7 146640. 2535.33   4
   3  -1  -7 150336. 3973.85   2
   2  -1  -7 36098.1 991.574   3
   2  -1   7 39914.2 2152.87   4
   2  -1  -7 41345.4 2028.13   2
   2  -1  -7 38590.0 2191.71   5
   2  -1  -7 42089.4 1600.51   4
   2  -1   7 41102.3 2016.91   1
   2   1   7 39118.7 2247.23   1
   2   1  -7 44501.3 2372.34   2
   1   1   7 216878. 4929.38   1
   1  -1   7 205907. 3827.00   1
   1  -1   7 202029. 4575.75   4
   1   1  -7 205786. 4774.36   2
   0  -1   7 18351.8 1003.32   1
   0   1   7 18121.0 1230.75   5
   0   1   7 19343.1 1650.81   6
   0  -1   7 19139.7 1359.27   4
   0   1   7 21772.0 1517.11   1
   0   1  -7 19752.9 1329.59   6
   0   1  -7 17977.5 1398.47   2
  -1  -1   7 209614. 4038.09   6
  -1   1  -7 209414. 4607.83   2
  -1   1   7 198549. 5303.91   6
  -1  -1   7 213932. 4298.67   4
  -1   1  -7 213850. 3926.38   1
  -2   1   7 43253.8 2591.82   6
  -2  -1   7 41344.8 1833.03   4
  -3  -1   7 153329. 3433.76   4
  -3  -1   7 145431. 3457.36   3
  -4  -1   7-42.3301 136.947   4
  -4  -1   7 33.3655 209.715   3
  -5  -1   7 110558. 3467.63   3
  -5  -1   7 112236. 2782.42   4
  -6  -1   7 1227.00 517.028   3
   9  -1   8 281.507 649.237   5
   8   1   8 2690.09 1196.28   1
   8  -1   8 4705.97 1187.65   5
   8   1   8 4803.20 1127.88   5
   8   1  -8 3874.17 1290.46   5
   8  -1  -8 4670.03 1392.29   5
   7  -1   8 2604.96 976.416   1
   7   1  -8 2193.56 918.087   5
   7  -1   8 1637.19 701.654   5
   7   1  -8 1868.97 764.468   2
   7   1   8 1481.82 817.610   1
   7   1   8 2560.85 812.944   5
   7  -1  -8 1382.23 737.779   5
   6   1   8 7533.24 1191.08   5
   6   1  -8 7990.64 1404.29   2
   6  -1   8 8343.66 1476.14   1
   6  -1   8 9150.01 1388.31   5
   6  -1  -8 9273.67 1623.16   5
   6   1  -8 10689.5 1789.17   5
   6   1   8 8403.47 1553.28   1
   6  -1  -8 8979.53 1272.11   2
   5   1   8 1274.21 532.765   5
   5   1  -8 642.926 516.224   2
   5   1  -8 625.139 551.486   5
   5  -1  -8 995.460 671.986   5
   5   1   8 1193.71 689.017   1
   5  -1  -8 902.457 478.502   2
   5  -1   8 1115.34 571.327   1
   4  -1  -8 14784.1 1434.20   2
   4  -1   8 15937.9 1615.73   4
   4   1  -8 15488.1 1655.47   2
   4   1  -8 13471.8 1730.79   5
   4   1   8 15467.3 1744.81   1
   4   1   8 15285.8 1293.87   5
   4  -1   8 15283.8 1654.31   1
   4  -1  -8 14018.6 1665.57   5
   3  -1   8 1792.11 572.724   4
   3  -1  -8 1452.75 342.213   4
   3  -1  -8 2409.17 603.144   2
   3  -1  -8 1181.33 552.879   5
   3   1   8 3197.03 766.943   1
   3  -1   8 2917.17 687.306   1
   3   1  -8 1346.77 535.646   2
   2  -1  -8 34447.2 1987.77   2
   2  -1  -8 31247.7 2102.62   5
   2  -1   8 32175.8 2053.01   4
   2  -1  -8 29715.8 1045.77   3
   2   1   8 32093.0 2139.18   1
   2  -1   8 32310.0 1870.71   1
   2   1  -8 32526.2 2115.87   2
   1   1   8 3957.71 740.097   1
   1  -1   8 4367.37 746.943   4
   1   1  -8 3734.11 714.988   2
   1  -1   8 3952.57 587.373   1
   0   1  -8 55785.3 2608.61   2
   0   1  -8 56031.6 2423.58   6
   0  -1   8 56675.1 1912.32   1
   0  -1   8 58284.7 2510.39   4
   0   1   8 55931.8 2340.92   5
   0   1   8 58916.7 2598.41   1
  -1  -1   8 3168.62 590.362   4
  -1   1   8 3224.31 807.243   6
  -1   1  -8 3656.70 705.489   2
  -1  -1   8 3888.65 630.826   6
  -1  -1   8 3767.72 491.001   1
  -1   1  -8 3036.41 508.584   1
  -2  -1   8 29864.7 1793.54   6
  -2   1   8 29936.5 2281.16   6
  -2  -1   8 32096.7 1733.34   4
  -3  -1   8 1953.56 431.270   4
  -4  -1   8 14431.0 1094.37   4
  -4  -1   8 13479.6 1148.67   3
  -5  -1   8 378.714 247.057   4
  -5  -1   8 457.223 312.277   3
  -6  -1   8 8138.70 1020.30   3
   9  -1   9 29013.2 3185.94   5
   8   1   9 4131.71 1288.39   1
   8  -1  -9 4844.78 1476.69   5
   8   1  -9 3994.96 1445.56   5
   8  -1   9 4074.05 1256.18   1
   8  -1   9 4144.10 1056.29   5
   7  -1  -9 47167.7 3943.80   5
   7   1   9 58779.8 4427.54   1
   7  -1   9 49676.9 4002.71   1
   7   1   9 52632.6 3364.81   5
   7   1  -9 52541.7 4313.28   5
   7   1  -9 49347.4 3683.38   2
   7  -1   9 49269.0 3482.75   5
   6  -1  -9 256.499 460.210   5
   6   1   9 72.2452 349.038   5
   6   1  -9 846.055 657.076   5
   6  -1  -9 454.779 447.759   2
   6  -1   9 248.333 469.863   1
   6   1   9 577.856 468.062   1
   6   1  -9 420.409 486.260   2
   6  -1   9 320.277 399.087   5
   5   1   9 76632.1 3255.95   5
   5  -1  -9 76784.8 4322.46   5
   5   1  -9 82534.8 4199.11   2
   5   1   9 71663.1 4163.95   1
   5  -1   9 72650.8 4029.39   1
   5   1  -9 78324.4 4574.23   5
   5  -1  -9 70200.3 3430.40   2
   4   1   9-289.851 414.038   1
   4   1  -9-241.623 420.283   5
   4  -1   9 627.216 492.390   4
   4  -1  -9 66.3410 262.202   2
   4  -1   9-68.2328 274.218   1
   4  -1  -9 344.162 457.872   5
   4   1  -9 174.938 370.728   2
   3   1   9 123874. 4661.75   1
   3  -1  -9 119356. 4068.11   2
   3  -1   9 121050. 4213.85   1
   3  -1   9 120221. 4350.58   4
   3   1  -9 125996. 4591.63   2
   3  -1  -9 118312. 4615.98   5
   3  -1  -9 114495. 2875.01   4
   2  -1   9 10338.6 1119.87   1
   2  -1  -9 11307.1 735.726   3
   2   1   9 13090.8 1447.55   1
   2   1  -9 10649.9 1297.25   2
   2  -1  -9 12490.6 1293.75   2
   2  -1   9 11463.2 1319.47   4
   1  -1   9 143306. 3616.85   1
   1   1  -9 147767. 4582.40   2
   1   1   9 139395. 4359.28   1
   1  -1  -9 148513. 4343.83   2
   1  -1   9 146772. 4397.77   4
   0   1   9 26167.6 1850.06   1
   0   1  -9 27117.4 1949.38   2
   0  -1   9 23716.6 1732.51   4
   0  -1   9 25845.8 1395.15   1
  -1  -1   9 147820. 3202.97   1
  -1   1   9 144892. 5004.82   6
  -1  -1   9 154369. 4164.70   4
  -1   1  -9 140066. 4309.21   2
  -2  -1   9 10126.3 1106.54   6
  -2   1   9 11558.5 1499.40   6
  -2  -1   9 12318.0 1169.59   4
  -3   1   9 123404. 5090.03   6
  -3  -1   9 119350. 3434.06   4
  -4  -1   9 259.149 228.724   4
   8  -1  10 2493.85 1108.97   1
   8   1  10 4708.56 1452.72   1
   8  -1 -10 3108.34 1255.62   5
   8   1 -10 2514.35 1145.32   5
   8  -1  10 5109.53 1337.96   5
   8   1 -10 5868.77 1468.09   2
   7  -1  10 1178.38 809.209   1
   7   1 -10 256.578 549.652   2
   7  -1  10 600.194 558.621   5
   7  -1 -10-329.500 656.066   5
   7   1 -10 197.328 679.096   5
   7   1  10 853.376 568.452   5
   7   1  10 2125.92 922.722   1
   6  -1  10 4336.45 1147.44   1
   6   1 -10 2546.58 919.417   2
   6   1  10 3825.70 1144.84   1
   6  -1  10 4427.54 1020.97   5
   6   1  10 4988.88 990.146   5
   6  -1 -10 3742.19 911.831   2
   6  -1 -10 5759.26 1395.92   5
   6   1 -10 3064.62 1077.02   5
   5   1 -10 634.509 612.043   5
   5  -1  10 1611.23 692.875   1
   5  -1 -10 857.851 604.816   5
   5   1  10 1566.23 715.719   1
   5   1  10 1693.99 555.574   5
   5  -1 -10 1493.90 584.980   2
   5   1 -10 1225.04 750.976   2
   4  -1 -10 3494.00 954.329   5
   4  -1 -10 2983.48 732.970   2
   4  -1  10 2574.11 815.660   4
   4  -1  10 3689.79 890.670   1
   4   1  10 3674.42 928.054   1
   4   1 -10 2418.61 790.689   2
   3  -1 -10 1268.47 508.263   2
   3   1 -10 954.550 526.509   2
   3  -1 -10 292.314 376.276   5
   3   1  10 1343.01 564.261   1
   3  -1  10 823.450 486.139   4
   3  -1  10 288.562 349.506   1
   2   1  10-275.919 311.854   1
   2   1 -10 547.028 476.961   2
   2  -1  10 129.819 384.996   4
   2  -1 -10 511.217 387.806   2
   2  -1  10 540.752 335.453   1
   2  -1 -10-137.566 164.567   3
   1  -1  10 3599.49 759.134   4
   1  -1 -10 2761.98 717.470   2
   1   1 -10 3159.78 749.225   2
   1   1  10 3781.63 804.373   1
   1  -1  10 3545.41 634.980   1
   0   1  10 671.152 368.280   1
   0  -1  10 212.209 232.260   1
   0  -1  10 506.218 343.914   4
   0   1 -10 404.973 422.575   2
  -1   1 -10 3239.10 749.933   2
  -1  -1  10 3790.75 733.445   4
  -1  -1  10 3163.36 524.449   1
  -1   1  10 4669.74 1000.20   6
  -2  -1  10 572.073 340.516   4
  -2   1  10 546.702 480.263   6
  -2  -1  10 1114.02 412.580   6
  -3  -1  10 989.957 378.476   4
  -3   1  10 950.264 560.424   6
  -3  -1  10 1411.73 530.278   6
  -4  -1  10 3176.01 615.092   4
   8  -1  11 1050.50 860.960   1
   8  -1  11 1967.47 873.158   5
   7   1  11 42491.3 3959.03   1
   7  -1  11 39769.5 3694.58   1
   7  -1  11 34287.3 3019.43   5
   7  -1 -11 34876.2 3574.92   5
   7   1 -11 36154.2 3352.35   2
   7   1 -11 28084.7 3336.92   5
   6  -1  11 796.777 688.073   1
   6  -1 -11 1253.25 761.458   5
   6   1 -11 932.907 679.144   2
   6  -1 -11 2001.00 688.295   2
   6   1  11 315.690 437.827   5
   6  -1  11 2373.64 798.475   5
   6   1  11 528.525 939.768   1
   6   1 -11 1062.86 727.974   5
   5  -1 -11 38161.5 2817.45   2
   5  -1 -11 46712.7 3637.79   5
   5  -1  11 39722.9 3119.76   1
   5   1  11 34852.1 2297.92   5
   5   1 -11 37054.7 3047.62   2
   5   1  11 41643.0 3367.48   1
   4   1 -11 19.4351 366.895   2
   4  -1  11 445.018 416.176   4
   4  -1 -11 863.897 474.793   2
   4  -1 -11 1566.21 705.772   5
   4  -1  11 740.642 483.329   1
   3   1  11 76785.7 3954.36   1
   3  -1 -11 75454.9 3635.86   2
   3   1 -11 76563.9 3930.35   2
   3  -1  11 73179.3 3502.55   1
   3  -1  11 70759.4 3696.72   4
   2   1  11 3320.73 865.442   1
   2  -1  11 2891.72 740.405   4
   2  -1 -11 5129.74 965.558   2
   2  -1  11 3908.60 746.060   1
   2   1 -11 3985.22 911.704   2
   1  -1  11 75356.9 2914.57   1
   1   1  11 78912.5 3596.05   1
   1  -1  11 72634.3 3430.02   4
   1  -1 -11 75276.4 3505.16   2
   1   1 -11 72968.4 3603.87   2
   0   1 -11 8384.97 1251.08   2
   0  -1  11 6353.96 809.912   1
   0   1  11 6891.26 1049.98   1
   0  -1  11 7729.71 1129.92   4
  -1  -1  11 73611.4 2593.86   1
  -1  -1  11 80235.6 3367.24   4
  -1   1  11 74964.2 3979.19   6
  -1   1 -11 79170.6 3666.02   2
  -2  -1  11 4922.35 870.336   6
  -2   1  11 3287.61 924.115   6
  -2  -1  11 4656.74 828.428   4
  -3   1  11 79985.7 4388.92   6
  -3  -1  11 71871.6 2997.98   4
  -3  -1  11 75250.2 3553.00   6
  -4  -1  11-85.6694 195.539   4
  -4   1  11 176.390 429.834   6
  -4  -1  11 979.878 514.705   6
   8  -1  12 3286.52 1154.68   5
   7  -1  12 679.554 666.753   5
   7  -1  12 1681.72 920.118   1
   7   1  12 2706.61 1122.15   1
   7  -1 -12 1180.78 953.458   5
   7   1 -12 1136.16 819.522   2
   6   1  12 11206.8 1965.45   1
   6  -1  12 7822.63 1558.07   1
   6  -1 -12 9057.59 1821.18   5
   6   1 -12 6491.92 1423.72   2
   6  -1 -12 7587.22 1372.59   2
   5  -1 -12 65.5532 480.481   5
   5  -1 -12 753.010 587.257   2
   5  -1  12 1449.08 735.857   1
   5   1  12 1393.12 541.318   5
   5   1  12 1996.67 911.948   1
   5   1 -12 1462.32 741.452   2
   4   1  12 16328.9 2027.64   1
   4   1 -12 20548.6 2239.71   2
   4  -1  12 17208.6 1942.29   1
   4  -1 -12 17218.0 2154.24   5
   4  -1 -12 17209.5 1900.73   2
   3  -1  12 10196.3 1373.22   1
   3  -1  12 7452.19 1314.42   4
   3  -1 -12 7313.70 1253.36   2
   3   1 -12 11092.1 1613.93   2
   3   1  12 9034.41 1448.87   1
   2   1  12 29663.8 2421.05   1
   2   1 -12 27092.6 2371.55   2
   2  -1  12 27474.5 2034.85   1
   2  -1  12 24984.1 2206.32   4
   2  -1 -12 27655.9 2301.58   2
   1   1  12 6927.75 1129.91   1
   1  -1  12 5859.72 1104.15   4
   1  -1  12 6859.12 964.984   1
   1  -1 -12 6137.83 1131.12   2
   1   1 -12 5997.82 1139.92   2
   0   1 -12 43820.7 2914.14   2
   0  -1  12 36647.6 1997.69   1
   0  -1  12 40983.3 2642.31   4
   0   1  12 41633.7 2643.29   1
  -1  -1  12 5976.26 794.007   1
  -1  -1  12 6275.55 1020.63   4
  -1   1 -12 4835.77 1006.92   2
  -1   1  12 5407.00 979.536   1
  -2  -1  12 26912.1 2008.98   4
  -2  -1  12 26509.0 2087.95   6
  -2  -1  12 25072.5 1628.61   1
  -2   1 -12 25698.8 2215.69   2
  -2   1  12 26681.3 2529.67   6
  -3  -1  12 7910.56 1046.87   4
  -3  -1  12 9198.64 1315.59   6
  -3   1  12 8780.03 1595.86   6
  -4   1  12 15256.0 2105.91   6
  -4  -1  12 19713.2 1590.52   4
  -4  -1  12 16987.7 1914.38   6
  -5  -1  12 839.359 500.747   6
  -5   1  12 779.293 568.968   6
   7  -1  13 29437.8 3321.74   1
   7   1 -13 28656.0 3144.55   2
   7  -1 -13 24406.8 3181.76   5
   7   1  13 31608.4 3559.54   1
   7  -1  13 25570.0 2681.49   5
   6  -1  13 1385.19 777.941   1
   6   1 -13 129.074 642.218   2
   6   1  13 857.994 742.928   1
   6  -1 -13 606.372 740.722   5
   6  -1 -13 980.923 630.738   2
   5   1  13 31464.5 3102.89   1
   5  -1 -13 30433.1 2751.95   2
   5  -1 -13 27657.0 2977.29   5
   5  -1  13 30496.5 2888.95   1
   5   1 -13 32328.5 3082.74   2
   4  -1  13 510.974 448.056   1
   4   1 -13 675.187 561.741   2
   4  -1 -13-64.0312 423.142   2
   4   1  13 516.998 653.762   1
   3   1 -13 62117.9 3863.82   2
   3   1  13 57761.3 3682.87   1
   3  -1 -13 64214.6 3743.25   2
   3  -1  13 57040.0 3303.01   1
   3  -1  13 61820.2 3743.78   4
   2   1  13-285.672 425.650   1
   2   1 -13 17.3370 369.767   2
   2  -1 -13 820.049 510.445   2
   2  -1  13-148.164 313.294   1
   2  -1  13 154.466 484.282   4
   1   1 -13 61657.5 3687.05   2
   1  -1 -13 62302.6 3547.68   2
   1   1  13 58538.8 3363.80   1
   1  -1  13 59568.7 2841.45   1
   1  -1  13 58735.6 3409.48   4
   0   1  13 3682.49 856.294   1
   0  -1  13 3886.89 720.620   1
   0  -1  13 4812.74 1007.43   4
   0   1 -13 4861.91 1096.98   2
   0  -1 -13 4413.53 991.887   2
  -1  -1  13 59151.0 2569.64   1
  -1   1 -13 57085.8 3464.19   2
  -1  -1  13 56241.5 3128.98   4
  -1   1  13 60627.9 3279.51   1
  -2  -1  13 245.074 280.959   1
  -2  -1  13 316.707 340.637   4
  -2   1  13 841.091 618.924   6
  -2   1 -13 420.789 449.786   2
  -3  -1  13 57487.4 3333.67   6
  -3  -1  13 61214.9 3071.12   4
  -3   1  13 57851.5 3995.36   6
  -4  -1  13 1150.20 547.511   6
  -4   1  13 191.841 393.462   6
  -5   1  13 31143.4 3235.05   6
  -6   1  13 1960.38 1048.88   6
   7  -1  14 832.752 696.271   1
   7   1 -14 1800.28 1014.35   2
   7  -1  14-174.012 504.015   5
   6   1  14 1115.92 779.967   1
   6  -1  14-20.4363 404.081   1
   6  -1 -14 1209.31 716.485   2
   6   1 -14 1779.54 918.295   2
   5   1 -14-7.95552 524.519   2
   5  -1 -14 1727.55 843.025   2
   5  -1  14 778.364 651.711   1
   4  -1 -14 421.002 487.598   2
   4   1  14 2066.21 805.737   1
   4   1 -14 1005.48 650.794   2
   4  -1  14 1214.20 667.501   1
   3   1 -14 147.749 482.992   2
   3  -1  14-79.2632 364.918   1
   3  -1 -14 25.3994 359.240   2
   3  -1  14-42.4397 415.828   4
   3   1  14 544.807 560.463   1
   2   1 -14 366.464 456.368   2
   2  -1 -14 459.420 323.873   2
   2  -1  14-386.752 487.164   4
   2  -1  14 362.657 318.339   1
   1   1 -14 2951.69 929.333   2
   1  -1  14 2733.64 839.785   4
   1   1  14 3273.35 836.626   1
   1  -1 -14 2609.09 827.044   2
   1  -1  14 3085.10 727.967   1
   0  -1  14-226.231 279.011   1
   0   1  14 206.221 342.714   1
   0  -1  14-18.6136 417.916   4
   0   1 -14-130.919 486.199   2
   0  -1 -14 616.023 502.126   2
  -1  -1  14 2392.25 733.312   4
  -1   1  14 3725.48 881.674   1
  -1   1 -14 3619.89 1014.45   2
  -2   1  14 422.994 501.161   6
  -2   1 -14 429.179 454.683   2
  -2   1  14 650.972 416.996   1
  -2  -1  14 255.331 464.860   4
  -3  -1  14 42.9233 237.957   4
  -3   1 -14 291.887 429.444   2
  -3   1  14 579.301 572.225   6
  -4   1  14 2473.15 973.933   6
  -5   1  14-531.163 652.976   6
  -6   1  14-188.907 807.999   6
  -7   1  14 98.6576 375.508   6
   7  -1  15 20209.5 2896.74   1
   7   1 -15 22470.1 3036.88   2
   6  -1  15 159.764 399.932   1
   6   1 -15 1351.28 789.508   2
   6   1  15 1290.15 771.575   1
   5  -1  15 25241.8 2776.05   1
   5   1 -15 24413.1 2899.73   2
   5  -1 -15 24131.0 2696.75   2
   5   1  15 27505.0 3059.16   1
   4   1 -15 144.932 506.153   2
   4  -1 -15-247.918 507.312   2
   4  -1  15 946.810 551.701   1
   4   1  15-716.787 588.142   1
   3  -1 -15 51947.9 3690.22   2
   3   1 -15 50724.3 3856.91   2
   3   1  15 49386.9 3617.41   1
   3  -1  15 46438.1 3181.30   1
   2   1  15 813.905 525.609   1
   2  -1 -15-21.7546 489.175   2
   2  -1  15-512.760 342.329   1
   2   1 -15 502.033 512.684   2
   2  -1  15 969.345 597.161   4
   1   1 -15 42368.0 3357.26   2
   1  -1  15 39795.3 3076.80   4
   1  -1 -15 44944.4 3326.69   2
   1   1  15 46244.8 3182.81   1
   0  -1 -15-84.1106 425.155   2
   0  -1  15 1224.94 620.613   4
   0   1 -15-223.887 406.067   2
   0   1  15 246.659 455.161   1
  -1   1  15 45292.0 3037.82   1
  -1   1 -15 42739.1 3331.94   2
  -1  -1  15 42011.3 2987.60   4
  -2  -1  15 169.499 315.120   4
  -2   1  15-93.2719 393.856   1
  -3   1 -15 49556.6 3565.71   2
  -3   1  15 49162.4 3879.24   6
  -3  -1  15 48113.6 2993.01   4
  -4   1  15-145.418 239.066   6
  -4   1 -15 249.264 443.676   2
  -5   1  15 28475.7 3247.72   6
   6   1  16 4005.95 1335.90   1
   6   1 -16 2246.40 971.036   2
   5  -1 -16 597.386 514.941   2
   5   1  16 1580.85 912.048   1
   5   1 -16 376.125 639.029   2
   4   1 -16 6803.92 1557.03   2
   4  -1 -16 5223.43 1277.10   2
   4   1  16 3519.93 1119.00   1
   3  -1 -16 678.900 607.017   2
   3   1 -16 2075.97 926.162   2
   3   1  16 447.359 522.181   1
   2   1 -16 5974.23 1372.29   2
   2  -1 -16 8527.95 1636.34   2
   2   1  16 7284.32 1392.38   1
   2  -1  16 8209.08 1541.10   4
   1   1  16 425.958 544.415   1
   1   1 -16 819.051 677.470   2
   1  -1  16 1289.19 666.938   4
   0   1  16 6529.95 1257.98   1
   0   1 -16 9313.80 1647.63   2
   0  -1 -16 8500.50 1558.00   2
   0  -1  16 8026.66 1421.46   4
  -1  -1  16 352.118 457.480   4
  -1  -1 -16-390.420 504.213   2
  -1   1 -16 461.382 528.270   2
  -1   1  16 1192.37 588.276   1
  -2  -1  16 7324.91 1281.83   4
  -2   1 -16 6356.10 1390.52   2
  -2   1  16 9159.69 1439.22   1
  -3   1 -16 1540.09 741.998   2
  -3   1  16-251.030 432.313   6
  -4   1 -16 4260.97 1143.95   2
  -4   1  16 4924.99 1316.46   6
  -5   1 -16 353.090 553.017   2
   5  -1 -17 11289.3 2025.68   2
   5   1  17 12622.4 2223.86   1
   5   1 -17 9876.13 2001.85   2
   4  -1 -17 149.102 600.370   2
   4   1  17-512.788 604.066   1
   4   1 -17-422.020 611.802   2
   3  -1 -17 25911.2 2864.07   2
   3   1 -17 24255.2 2909.14   2
   3   1  17 28695.0 2900.27   1
   2   1  17 30.2017 402.711   1
   2  -1 -17-479.603 636.225   2
   1   1 -17 19542.0 2472.72   2
   1  -1 -17 21494.4 2542.99   2
   1   1  17 22673.6 2394.68   1
   1  -1  17 21427.0 2455.87   4
   0  -1  17 1383.97 721.709   4
   0   1  17 534.172 532.044   1
   0   1 -17 1644.90 894.560   2
   0  -1 -17 303.246 587.007   2
  -1  -1 -17 21504.4 2515.33   2
  -1  -1  17 25561.4 2549.01   4
  -1   1 -17 23498.9 2696.22   2
  -2  -1  17 111.935 284.828   4
  -2   1 -17 188.800 470.856   2
  -3   1 -17 25105.6 2800.44   2
  -4   1 -17 594.009 585.175   2
  -5   1 -17 11360.8 1913.31   2
   5   1  18 347.050 455.453   1
   4  -1 -18 2424.81 1001.67   2
   4   1  18 1950.59 855.745   1
   3  -1 -18 675.913 647.577   2
   3   1  18 1627.99 817.683   1
   3   1 -18-125.911 526.144   2
   2   1 -18 4005.94 1241.99   2
   2  -1 -18 3820.31 1242.97   2
   1   1 -18 1034.66 715.138   2
   1  -1 -18-1238.80 770.492   2
   0  -1  18 2801.15 964.686   4
   0  -1 -18 676.771 657.612   2
   0   1 -18 2295.43 961.430   2
  -1   1 -18-289.246 531.878   2
  -1  -1  18 366.452 431.881   4
  -1  -1 -18-148.744 428.519   2
  -2  -1 -18 2883.77 957.081   2
  -2  -1  18 3648.65 1006.25   4
  -2   1 -18 2546.46 1031.14   2
  -3   1 -18 947.134 763.284   2
   2  -1 -19 1911.68 907.683   2
   1  -1 -19 15816.5 2389.93   2
   0  -1 -19-828.104 718.740   2
   0   1 -19-578.127 760.434   2
  -1   1 -19 13425.1 2221.88   2
  10   2   0 15714.0 2499.71   5
   9  -2   0 262.010 604.868   5
   9   2   0-1053.39 806.515   5
   8  -2   0 90490.1 5095.17   5
   8   2   0 94422.3 5346.45   1
   8   2   0 97409.8 5242.53   5
   7   2   0 198.760 465.485   1
   7   2   0-165.341 464.302   5
   7  -2   0-337.633 458.091   5
   6   2   0 78225.3 4072.12   1
   6  -2   0 78029.9 3867.79   5
   6   2   0 75280.8 3793.99   5
   5   2   0 177.654 286.408   5
   5  -2   0 624.326 403.510   5
   5   2   0 294.260 342.690   1
   4   2   0 157097. 4390.89   5
   4  -2   0 159715. 4395.84   5
   4   2   0 157336. 4515.74   1
   4  -2   0 159813. 2918.90   4
   3  -2   0 113.270 140.646   4
   3   2   0 75.4423 243.838   5
   3   2   0 314.455 324.657   1
   3  -2   0 293.613 296.530   5
   2   2   0 584319. 6392.34   5
   2  -2   0 593374. 5294.03   4
   2   2   0 587791. 6429.42   1
   1   2   0 27.7878 159.847   1
   1  -2   0 113.475 105.656   2
   0   2   0 143988. 2806.61   3
   0   2   0 147992. 3008.12   6
   0  -2   0 142598. 2763.67   3
   0  -2   0 143430. 2688.43   2
  -1  -2   0 430.000 252.293   6
  -1  -2   0 89.9352 241.959   2
  -1  -2   0 103.502 194.887   5
  -1   2   0 199.267 175.347   3
  -2  -2   0 599484. 6648.79   1
  -2  -2   0 613078. 6224.20   5
  -3   2   0-18.7254 144.480   4
  -4   2   0 137885. 1875.88   2
  -4   2   0 156584. 2912.32   4
  -5   2   0 167.312 189.113   4
  -5   2   0 41.6962 70.5277   2
  10   2   1 1057.28 851.592   5
   9   2  -1 9515.86 1829.71   5
   9  -2   1 8316.84 1762.42   5
   9  -2  -1 7026.93 1625.91   5
   9   2   1 10976.5 1968.09   5
   8  -2  -1 1542.08 831.107   5
   8   2   1 704.901 630.394   1
   8   2  -1 2692.39 1019.43   5
   8   2   1 906.442 678.732   5
   8  -2   1 500.216 619.118   5
   7   2  -1 5700.80 1242.16   1
   7   2   1 4124.77 1077.47   1
   7  -2   1 5436.48 1204.51   5
   7   2   1 4989.54 1081.03   5
   7  -2  -1 6748.50 1313.72   5
   7   2  -1 5115.85 1209.24   5
   6   2   1 752.328 460.545   5
   6   2  -1 1261.54 604.640   1
   6  -2   1 360.429 554.107   5
   6   2  -1 579.890 417.879   5
   6   2   1 1283.94 613.438   1
   6  -2  -1 1155.45 587.139   5
   5  -2  -1 15477.2 1601.17   5
   5   2  -1 14737.7 1589.66   5
   5  -2   1 16502.5 1609.02   5
   5   2  -1 14139.8 1542.35   1
   5   2   1 17033.6 1732.32   1
   5   2   1 17602.6 1594.71   5
   4  -2   1 355.282 223.461   4
   4  -2  -1 678.741 199.991   4
   4   2  -1 549.433 403.545   1
   4  -2  -1 403.601 290.773   5
   4   2   1 882.582 435.660   1
   4  -2   1 693.554 394.981   5
   4   2  -1 356.703 339.125   5
   4   2   1 585.252 389.466   5
   3   2  -1 14060.0 1218.89   5
   3   2   1 11973.0 1015.74   5
   3  -2  -1 12725.6 1109.80   5
   3   2  -1 13674.4 1129.18   1
   3   2   1 13152.2 1188.19   1
   3  -2  -1 12759.5 687.996   4
   3  -2   1 11907.1 847.615   4
   2  -2  -1 4792.35 455.358   4
   2   2   1 4724.30 647.901   1
   2  -2  -1 5161.82 630.425   5
   2   2  -1 4317.66 638.223   5
   2   2   1 4625.01 531.479   5
   2   2  -1 4898.71 574.546   1
   2  -2   1 5313.49 560.073   4
   1  -2   1 25968.4 1195.52   4
   1   2  -1 27310.9 1463.48   2
   1  -2   1 25015.4 862.173   2
   1   2  -1 25369.7 1041.96   1
   1   2   1 25145.1 1290.05   1
   0  -2  -1 5823.06 568.487   3
   0   2  -1 6487.69 566.661   6
   0   2   1 7091.78 768.940   6
   0   2  -1 6289.27 632.393   3
   0   2  -1 5853.32 585.344   2
   0  -2   1 6085.68 574.588   2
   0  -2   1 5694.62 588.786   3
  -1   2  -1 25649.2 939.203   2
  -1   2   1 27399.0 1059.01   3
  -1  -2  -1 25777.6 948.850   5
  -1  -2   1 24170.8 1310.79   3
  -1   2  -1 25949.6 1221.51   3
  -1  -2   1 27924.8 1442.35   2
  -1  -2  -1 26876.7 1487.58   6
  -2  -2   1 5250.67 671.321   5
  -2  -2  -1 4675.63 646.017   1
  -2   2  -1 4824.41 542.734   4
  -2  -2   1 5506.83 608.257   1
  -2  -2  -1 5415.21 541.640   5
  -2   2  -1 4695.07 302.952   2
  -3   2  -1 13132.0 900.785   4
  -3  -2  -1 13386.0 994.611   5
  -4   2   1 327.001 108.594   2
  -4   2  -1 446.155 173.121   2
  -4   2  -1 520.601 250.465   4
  -5   2  -1 15313.7 930.415   2
  -5   2   1 17364.9 827.196   2
  10   2   2 16546.4 2532.19   5
   9   2   2-1438.94 889.388   1
   9  -2  -2 1839.20 926.219   5
   9  -2   2 1015.94 699.981   5
   9   2  -2 564.891 651.713   5
   9   2   2-398.422 534.338   5
   8  -2   2 86283.2 4926.58   5
   8   2   2 84430.9 4729.07   5
   8   2  -2 81596.1 4970.48   5
   8   2   2 80546.2 5062.37   1
   8  -2  -2 82856.9 4926.40   5
   7   2   2 851.396 623.423   1
   7   2  -2 82.7359 404.104   5
   7  -2   2 1741.94 737.838   5
   7   2   2 1357.44 650.149   5
   7  -2  -2 478.026 557.858   5
   6   2   2 79673.6 4188.86   1
   6  -2  -2 65340.4 3626.71   5
   6  -2   2 80543.9 3913.98   5
   6   2  -2 77925.8 4050.76   5
   6   2  -2 70166.4 3742.76   1
   6   2   2 75723.5 3639.44   5
   5  -2   2 146.904 330.451   5
   5   2   2 514.524 362.175   5
   5   2  -2 654.733 356.578   1
   5   2  -2 1674.12 632.644   5
   5  -2  -2 338.909 409.742   5
   5   2   2 618.315 440.021   1
   5  -2   2 221.046 243.240   4
   4  -2   2 131005. 4020.21   5
   4   2   2 132922. 4346.32   1
   4   2  -2 129773. 3952.23   1
   4   2   2 127113. 3661.68   5
   4  -2  -2 129815. 4112.33   5
   4  -2   2 127363. 3195.65   4
   4   2  -2 135809. 4396.81   5
   4  -2  -2 121370. 1609.00   4
   3  -2  -2 3320.85 274.796   2
   3  -2   2 3773.46 548.246   4
   3   2   2 4613.66 613.903   5
   3   2  -2 5616.55 711.036   1
   3  -2  -2 3681.05 627.491   5
   3   2  -2 4192.21 732.770   5
   3   2  -2 3123.79 666.410   2
   3  -2  -2 3864.38 332.192   4
   3   2   2 3410.79 647.724   1
   2   2  -2 370910. 4508.80   1
   2   2   2 365653. 5745.13   1
   2   2  -2 366430. 5898.27   5
   2  -2  -2 367075. 5033.45   5
   2  -2  -2 371504. 2710.21   2
   2   2  -2 361831. 6166.98   2
   2  -2   2 364242. 4841.88   4
   2   2   2 374561. 4096.92   5
   1   2  -2 612.128 171.364   1
   1  -2  -2 239.302 155.506   5
   1  -2  -2 340.500 144.103   3
   1   2   2 633.366 308.101   1
   1  -2   2 509.356 254.428   4
   1  -2   2 605.096 180.801   2
   1   2  -2 474.824 260.157   2
   0   2  -2 41298.7 1632.32   3
   0  -2   2 44019.9 1552.30   2
   0  -2  -2 43601.0 1997.82   6
   0   2  -2 43298.0 1600.52   2
   0  -2   2 41934.0 1643.35   3
   0  -2   2 39134.8 1581.45   4
   0   2   2 42029.1 1989.63   6
  -1   2  -2 299.431 164.026   2
  -1  -2   2 656.334 286.594   3
  -1  -2  -2 288.286 225.705   6
  -1  -2  -2 341.193 97.3712   5
  -1   2  -2 466.003 209.160   4
  -1  -2   2 707.955 292.511   2
  -2   2  -2 374241. 5036.09   4
  -2  -2  -2 370989. 3746.31   5
  -2   2  -2 374080. 5556.97   1
  -2   2  -2 372283. 3438.60   2
  -2  -2   2 376021. 4533.30   1
  -2   2   2 380465. 3494.60   3
  -3  -2   2 3402.30 531.724   1
  -3  -2  -2 3795.58 517.073   5
  -5   2   2 560.561 177.216   2
  10   2   3-75.0208 576.487   5
   9   2  -3 6857.90 1610.27   5
   9   2   3 8112.59 1810.12   1
   9   2   3 6873.48 1557.16   5
   9  -2  -3 8833.62 1816.37   5
   9  -2   3 7762.33 1700.70   5
   8   2   3 1070.50 722.352   1
   8   2   3 1014.93 676.253   5
   8   2  -3 1664.29 813.558   5
   8  -2   3 971.240 701.335   5
   8  -2  -3 1016.28 721.234   5
   7  -2  -3 4575.72 1156.54   5
   7   2   3 5112.56 1086.86   5
   7   2   3 6790.05 1373.96   1
   7  -2   3 4522.11 1126.67   5
   7   2  -3 6098.13 1332.39   5
   6   2  -3 871.346 641.655   5
   6   2   3 279.586 413.251   5
   6  -2   3 651.023 533.657   5
   6   2   3 455.820 614.748   1
   6  -2  -3 649.798 668.742   5
   5   2   3 15026.0 1419.08   5
   5  -2  -3 12606.9 1476.43   5
   5  -2   3 15825.2 1624.15   5
   5   2  -3 16598.4 1795.82   5
   5   2  -3 14532.6 1532.33   1
   5   2   3 17410.2 1808.38   1
   5  -2   3 13992.1 1224.19   4
   4   2  -3-220.231 275.372   1
   4   2  -3 238.264 389.692   5
   4  -2   3 148.283 296.014   4
   4   2  -3 280.178 294.469   2
   4   2   3 408.870 366.505   1
   4   2   3 140.339 263.148   5
   4  -2  -3 562.944 382.069   5
   4  -2  -3 381.738 169.904   2
   3   2  -3 19934.2 1617.24   5
   3   2  -3 21280.1 1320.38   1
   3   2  -3 21496.7 1700.04   2
   3  -2  -3 20650.4 867.162   2
   3   2   3 19967.2 1162.22   5
   3   2   3 20908.4 1612.69   1
   3  -2  -3 18577.6 629.268   4
   3  -2  -3 19079.5 1415.07   5
   3  -2   3 22269.0 1365.48   4
   2  -2   3 101.653 251.391   4
   2   2  -3 137.045 156.764   1
   2   2   3 23.5157 315.491   1
   2  -2  -3 51.4273 116.301   2
   2  -2  -3 287.193 283.737   5
   2   2   3 169.231 146.452   5
   2   2  -3-18.2756 259.922   2
   1  -2  -3 34147.2 1023.72   3
   1   2  -3 30640.1 797.061   1
   1  -2   3 36314.9 1356.82   2
   1   2  -3 32375.7 1663.79   2
   1  -2   3 33813.8 1546.31   4
   1  -2  -3 31558.3 1218.00   5
   1   2   3 33644.9 1737.67   1
   0   2  -3 2008.66 404.671   2
   0  -2   3 2864.02 436.202   2
   0  -2  -3 2918.26 598.214   6
   0   2   3 3131.92 634.633   6
   0  -2   3 2965.25 481.334   4
   0  -2  -3 2284.27 219.090   5
   0   2  -3 3614.70 535.816   3
  -1   2  -3 33542.1 1303.67   1
  -1  -2   3 35413.1 1600.46   4
  -1   2  -3 32740.1 1328.30   2
  -1  -2   3 33198.9 1576.89   3
  -1   2  -3 33108.6 1553.65   4
  -1  -2  -3 33492.6 1976.90   6
  -2  -2   3-0.95459 123.065   1
  -2   2   3 51.2639 72.7088   3
  -2   2   3 17.5454 174.445   5
  -2   2  -3 616.698 271.791   1
  -2  -2   3 72.7747 230.098   3
  -2   2  -3 121.906 145.822   2
  -3  -2   3 20829.2 1280.16   1
  -3  -2  -3 20551.6 1080.38   5
  -5   2   3 15851.9 879.459   2
   9  -2   4 135.041 643.909   5
   9   2  -4 299.080 546.436   5
   9   2   4 553.494 645.518   5
   9  -2  -4-540.600 727.891   5
   9   2   4-442.338 643.473   1
   8   2   4 74435.7 4345.82   5
   8   2  -4 74952.4 4956.52   5
   8  -2  -4 81406.1 4993.49   5
   8   2   4 75007.2 4991.21   1
   8  -2   4 76217.4 4664.87   5
   7   2   4 805.602 625.443   1
   7   2  -4 1183.29 731.364   5
   7  -2  -4 553.114 553.300   5
   7  -2   4 1032.83 556.911   5
   7   2   4 193.886 466.174   5
   6   2   4 89147.3 3799.88   5
   6   2  -4 93231.8 4678.15   5
   6  -2   4 84144.0 4036.01   5
   6   2   4 88839.1 4561.77   1
   6  -2  -4 85602.7 4288.37   5
   5   2   4 3005.90 671.956   5
   5  -2  -4 4363.84 960.084   5
   5   2  -4 3005.50 789.312   5
   5  -2   4 4486.31 758.167   4
   5   2   4 1776.45 641.486   1
   5   2  -4 3902.25 881.060   2
   5  -2   4 2123.79 660.734   5
   4   2   4 172298. 3990.68   5
   4   2  -4 181296. 5561.92   5
   4  -2   4 174250. 4335.57   4
   4  -2  -4 179874. 3297.23   2
   4   2  -4 186405. 5506.92   2
   4   2   4 184808. 5397.71   1
   4  -2  -4 181048. 5061.32   5
   3   2  -4 10739.3 1237.10   2
   3  -2  -4 12243.0 1185.56   5
   3  -2  -4 8462.92 416.370   4
   3   2  -4 9577.75 1186.91   5
   3   2   4 9760.39 789.121   5
   3   2   4 11534.6 1254.58   1
   3  -2   4 9658.04 989.327   4
   3  -2  -4 10376.4 725.032   2
   2   2  -4 485678. 7382.21   2
   2   2   4 481075. 3865.89   5
   2  -2  -4 484151. 6237.44   5
   2  -2  -4 493755. 4900.22   2
   2  -2   4 487696. 6466.77   4
   2   2   4 497777. 7456.07   1
   1  -2   4-26.9939 204.305   4
   1   2   4 87.3978 224.697   1
   1  -2  -4 201.550 210.017   5
   1   2  -4 81.2210 244.395   2
   0   2   4 266140. 2260.53   5
   0   2  -4 285031. 4645.63   2
   0  -2   4 278312. 4647.70   4
   0  -2  -4 276342. 2627.07   5
   0  -2   4 276768. 4452.17   2
   0   2   4 279834. 5848.86   6
  -1   2  -4-87.0914 164.112   2
  -1   2  -4 264.082 184.729   1
  -1  -2   4 127.102 211.414   3
  -1   2   4 32.2100 146.125   5
  -1   2   4 217.817 331.397   6
  -1  -2   4 87.2488 235.041   4
  -2  -2   4 490075. 6596.52   3
  -2   2  -4 494016. 6279.03   1
  -2   2  -4 491565. 5454.86   2
  -2  -2   4 494935. 4469.52   1
  -2  -2   4 493120. 6315.32   4
  -3  -2   4 10001.8 1034.82   3
  -3  -2   4 10905.2 911.041   1
   9   2   5 7041.95 1745.67   1
   9  -2  -5 4786.99 1518.02   5
   9   2   5 5185.51 1314.81   5
   9  -2   5 5851.84 1467.65   5
   9   2  -5 7872.53 1801.50   5
   8  -2  -5 1399.12 764.526   5
   8   2   5 404.297 551.895   5
   8   2   5 1045.69 693.340   1
   8   2  -5 1872.96 890.145   5
   8  -2   5 458.058 520.254   5
   7   2   5 3283.47 1073.65   1
   7   2  -5 2507.64 992.980   5
   7  -2  -5 4309.96 1181.71   5
   7   2   5 4564.93 1008.98   5
   7  -2   5 5724.85 1258.02   5
   6  -2   5 499.108 508.934   5
   6  -2  -5 945.684 619.576   5
   6   2  -5 1470.27 755.834   5
   6   2   5-35.7158 292.072   5
   6   2   5 97.9567 388.658   1
   5  -2   5 4827.36 930.032   5
   5  -2   5 4662.93 854.077   4
   5   2  -5 3570.90 936.579   5
   5   2   5 4115.49 946.737   1
   5  -2  -5 5099.60 1029.14   5
   5   2   5 4226.73 761.627   5
   5   2  -5 3753.16 904.221   2
   5  -2  -5 4030.11 616.414   2
   4   2   5 1757.86 619.658   1
   4  -2   5 1594.72 488.794   4
   4  -2  -5 2419.47 651.520   5
   4   2   5 1903.56 465.040   5
   4   2  -5 1651.38 706.408   5
   4   2  -5 2272.35 729.656   2
   4  -2  -5 2267.38 431.842   2
   3  -2   5 7107.77 960.575   1
   3  -2   5 5953.98 835.330   4
   3   2   5 5548.28 930.027   1
   3   2   5 6128.76 610.701   5
   3  -2  -5 6698.52 919.717   5
   3  -2  -5 6060.39 638.134   2
   3   2  -5 6021.25 997.393   5
   3  -2  -5 5410.40 375.449   4
   3   2  -5 5884.84 962.357   2
   2  -2   5 93.3290 327.372   4
   2  -2  -5 151.108 221.259   2
   2  -2  -5 11.3311 232.004   5
   2   2   5 904.131 416.803   1
   2  -2   5 247.116 296.684   1
   2   2   5 98.3587 116.076   5
   2   2  -5 350.475 350.957   2
   1   2  -5 2055.56 529.171   2
   1  -2  -5 3048.24 458.637   5
   1  -2   5 2173.91 488.066   4
   1   2   5 2353.08 541.163   1
   0  -2   5 814.172 364.361   4
   0   2  -5 423.175 294.471   2
   0   2  -5 506.856 134.616   6
   0   2   5 432.360 151.728   5
   0   2   5 739.471 454.340   6
  -1   2  -5 2234.34 445.627   2
  -1  -2   5 3223.64 563.749   4
  -1   2   5 1982.86 341.448   5
  -1   2  -5 1726.09 305.835   1
  -1   2   5 2548.15 718.851   6
  -2   2  -5 370.380 264.973   2
  -2  -2   5 162.036 118.188   1
  -2  -2   5 156.989 244.041   3
  -2   2  -5 87.4969 194.875   1
  -2  -2   5 192.176 232.044   4
  -3  -2   5 6253.28 824.999   3
  -3  -2   5 6274.24 767.263   4
  -3  -2   5 6448.75 698.360   1
  -4  -2   5 2825.03 635.345   3
  -4  -2   5 1418.50 403.686   4
  -5  -2   5 4171.97 655.984   4
  -5  -2   5 4201.53 804.434   3
  -6  -2   5 179.175 243.123   4
   9   2  -6 1015.49 747.169   5
   9  -2   6 697.644 707.003   5
   8   2   6 53830.7 4378.04   1
   8   2  -6 46782.0 4105.28   5
   8   2   6 56492.3 3738.01   5
   8  -2   6 50863.3 3854.38   5
   8  -2  -6 50592.6 4134.01   5
   7   2   6 1242.54 731.523   1
   7   2  -6 574.462 587.272   5
   7  -2  -6 441.066 555.131   5
   7   2   6 794.964 502.881   5
   7  -2   6-214.979 460.775   5
   6   2   6 57091.4 3813.09   1
   6   2  -6 54692.7 3869.80   5
   6  -2  -6 57790.8 3736.70   5
   6   2   6 59902.3 3059.16   5
   6   2  -6 57029.5 3674.06   2
   6  -2   6 61970.8 3555.24   5
   5   2   6 9977.47 1120.49   5
   5  -2   6 9248.00 1221.70   4
   5   2  -6 11751.2 1693.34   5
   5  -2  -6 10699.8 1049.78   2
   5   2   6 12273.7 1663.96   1
   5  -2  -6 9953.72 1472.60   5
   5   2  -6 9902.88 1448.60   2
   4   2   6 85018.7 3943.41   1
   4   2  -6 88782.4 4189.81   5
   4  -2  -6 94686.2 3909.83   5
   4   2  -6 87539.8 3949.04   2
   4  -2  -6 94254.6 2895.09   2
   4   2   6 87207.8 2773.66   5
   4  -2   6 90095.2 3482.62   4
   4  -2   6 90754.3 3846.69   1
   3  -2   6 1107.81 444.760   1
   3  -2  -6 1095.10 226.362   4
   3   2   6 791.620 430.041   1
   3  -2  -6 1023.26 345.334   2
   3   2   6 1431.20 325.377   5
   3  -2  -6 1055.16 416.648   5
   3  -2   6 739.246 416.291   4
   3   2  -6 1396.42 501.121   2
   2  -2   6 128870. 3789.90   4
   2   2   6 127026. 2025.18   5
   2   2   6 125206. 4134.60   1
   2  -2   6 131960. 3509.23   1
   2   2  -6 119773. 3997.51   2
   2  -2  -6 130747. 3623.80   5
   2  -2  -6 126432. 3158.55   2
   2  -2  -6 134488. 2708.85   4
   1   2   6 15886.6 681.770   5
   1  -2  -6 16953.9 1130.73   5
   1   2   6 16128.0 1441.36   1
   1  -2   6 17308.0 1018.27   1
   1   2  -6 15811.3 1366.66   2
   1  -2   6 16201.0 1323.20   4
   0   2  -6 57911.7 1538.30   6
   0   2   6 63982.0 1581.08   5
   0   2  -6 60057.1 2465.41   2
   0  -2   6 64851.1 2504.01   4
   0   2   6 61771.0 3075.72   6
  -1   2   6 17609.3 1700.63   6
  -1   2  -6 17060.6 1279.71   2
  -1   2   6 16670.1 1028.10   5
  -1   2  -6 15176.0 914.842   1
  -1  -2   6 18035.7 1322.63   4
  -2  -2   6 127506. 3543.78   3
  -2  -2   6 124385. 2096.99   1
  -2   2  -6 130538. 3437.19   2
  -2  -2   6 135078. 3578.41   4
  -3  -2   6 1112.19 384.554   3
  -3  -2   6 843.216 297.825   1
  -3  -2   6 1467.22 425.949   4
  -4  -2   6 91380.4 2979.24   4
  -4  -2   6 90138.7 3310.92   3
  -5  -2   6 11229.3 1075.76   4
  -5  -2   6 7982.90 1095.13   3
  -6  -2   6 57465.2 3084.20   3
  -6  -2   6 63507.2 2575.74   4
  -7  -2   6 53.6406 252.322   3
   9  -2   7 6697.81 1601.81   5
   8   2   7 337.267 595.073   1
   8  -2  -7 735.625 733.142   5
   8  -2   7 1268.38 728.533   5
   8   2  -7 472.777 629.992   5
   7   2   7 11490.0 1917.69   1
   7  -2  -7 13503.2 2057.85   5
   7   2   7 10607.4 1479.56   5
   7  -2   7 9847.76 1658.65   5
   7   2  -7 10324.0 1873.64   5
   6   2   7-101.956 571.902   1
   6  -2   7 935.920 640.629   5
   6  -2  -7 1481.37 700.554   5
   6   2  -7 422.723 524.991   5
   6   2   7 690.511 512.187   5
   6   2  -7 577.977 508.977   2
   5   2  -7 11314.7 1619.53   2
   5  -2   7 11970.6 1608.34   1
   5   2  -7 11746.4 1741.34   5
   5   2   7 12286.7 1215.36   5
   5  -2  -7 12275.9 1215.74   2
   5  -2  -7 13511.2 1717.25   5
   5   2   7 12084.2 1722.45   1
   5  -2   7 12017.8 1435.10   4
   4  -2   7 287.514 445.276   1
   4  -2   7 914.844 479.712   4
   4  -2  -7 696.953 363.033   2
   4   2   7 456.871 319.681   5
   4  -2  -7 792.609 494.806   5
   4   2   7 1163.97 551.216   1
   4   2  -7 167.457 354.657   2
   4   2  -7 341.657 438.389   5
   3   2   7 35215.8 2440.98   1
   3  -2  -7 34587.6 1828.50   2
   3  -2  -7 37246.4 2302.95   5
   3  -2   7 33944.2 2126.26   1
   3   2   7 35277.8 1441.66   5
   3  -2  -7 33170.7 1233.56   4
   3   2  -7 34417.2 2395.86   2
   3  -2   7 31700.8 2087.90   4
   2   2  -7-35.7090 329.686   2
   2  -2   7 42.1427 266.489   4
   2  -2   7-22.4613 198.442   1
   2  -2  -7 67.0331 163.763   4
   2  -2  -7 70.7219 275.214   2
   2  -2  -7 161.350 277.760   5
   2   2   7 333.219 379.259   1
   1   2  -7 35355.5 2123.86   2
   1   2   7 34335.4 1230.70   5
   1  -2   7 35314.7 1500.33   1
   1  -2  -7 34398.0 1745.65   5
   1  -2   7 34048.8 1992.76   4
   1   2   7 33453.9 2137.79   1
   0   2  -7 2233.08 377.119   6
   0  -2   7 2832.27 598.367   4
   0   2  -7 1676.71 486.475   2
   0   2   7 1987.49 640.451   6
   0   2   7 2818.23 405.394   5
   0  -2   7 2379.51 281.130   1
  -1   2   7 32505.1 2412.20   6
  -1  -2   7 35280.0 1919.04   4
  -1   2   7 35152.8 1603.02   5
  -1   2  -7 36218.3 1985.36   2
  -1   2  -7 33128.9 1400.89   1
  -2  -2   7 48.2208 209.730   4
  -2  -2   7 477.985 209.394   6
  -2   2  -7 469.693 330.710   2
  -2   2   7 254.587 442.694   6
  -2  -2   7 203.562 119.001   1
  -3  -2   7 35510.5 1936.99   4
  -3  -2   7 33360.6 1933.14   3
  -3  -2   7 38293.5 1651.45   1
  -4  -2   7 672.614 378.079   3
  -4  -2   7 641.071 322.460   4
  -5  -2   7 11430.4 1275.44   3
  -5  -2   7 13714.5 1219.54   4
  -6  -2   7 352.772 358.160   3
  -7  -2   7 9595.61 1342.03   3
   8   2  -8 36146.2 3815.61   5
   8  -2  -8 38393.0 3761.12   5
   8   2   8 39209.4 3845.33   1
   8  -2   8 36311.1 3315.84   5
   7   2  -8 2012.74 919.882   2
   7   2  -8 2352.31 1031.84   5
   7  -2  -8 2249.73 949.650   5
   7  -2   8 755.516 607.667   5
   7   2   8 1580.50 823.036   1
   6  -2   8 66955.7 3827.96   5
   6  -2  -8 57142.6 3898.99   5
   6   2   8 60338.3 3049.74   5
   6   2  -8 68896.9 4583.83   5
   6   2  -8 56052.9 3847.58   2
   6   2   8 58369.1 4051.05   1
   5  -2   8 1911.12 742.823   1
   5  -2  -8 3603.13 962.925   5
   5   2  -8 1673.38 735.495   2
   5  -2   8 2231.30 736.725   4
   5   2  -8 1766.46 767.784   5
   5   2   8 1996.27 835.979   1
   5   2   8 2055.75 554.046   5
   5  -2  -8 2212.74 568.098   2
   4  -2  -8 116533. 4656.20   5
   4   2  -8 110333. 4681.75   2
   4  -2  -8 103494. 3505.92   2
   4   2   8 111150. 4771.99   1
   4   2   8 106245. 3048.28   5
   4  -2   8 105481. 4164.35   4
   4  -2   8 105008. 4294.74   1
   3  -2   8 12113.2 1309.51   1
   3  -2  -8 11876.8 832.237   4
   3  -2  -8 11506.6 1145.46   2
   3   2   8 12326.4 1526.96   1
   3  -2   8 12293.9 1389.59   4
   3  -2  -8 11131.4 1323.08   5
   3   2   8 11551.0 857.513   5
   3   2  -8 11637.3 1444.78   2
   2  -2   8 168557. 4191.08   1
   2  -2   8 168976. 4817.18   4
   2   2  -8 173328. 5223.65   2
   2  -2  -8 168731. 4640.42   5
   2  -2  -8 163297. 4258.03   2
   2   2   8 163971. 5125.21   1
   1  -2   8-362.420 220.485   1
   1  -2   8-11.6893 246.389   4
   1   2  -8-41.3051 258.690   2
   1   2   8 405.468 383.239   1
   1   2   8 263.100 171.662   5
   0   2   8 219632. 5592.23   1
   0   2   8 223159. 3844.90   5
   0   2   8 219880. 6390.03   6
   0   2  -8 219998. 5361.82   2
   0  -2   8 217130. 2853.23   1
   0   2  -8 222127. 3954.91   6
   0  -2   8 227703. 5200.53   4
  -1   2   8 160.807 397.100   6
  -1  -2   8 34.9130 237.558   4
  -1   2  -8-30.7228 219.825   2
  -1   2  -8 462.283 228.475   1
  -2  -2   8 162127. 4287.01   4
  -2  -2   8 165518. 2527.10   1
  -2  -2   8 169236. 3426.11   6
  -2   2  -8 164590. 4490.22   2
  -2   2   8 166670. 5831.61   6
  -3  -2   8 12539.1 952.245   1
  -3   2  -8 9707.79 1107.30   2
  -3  -2   8 11922.1 1154.07   4
  -4  -2   8 112560. 3786.41   3
  -4  -2   8 115277. 3569.36   4
  -5  -2   8 2945.09 662.704   3
  -5  -2   8 2581.77 555.619   4
  -6  -2   8 61984.3 3121.30   3
   8   2   9 152.847 557.838   1
   8   2  -9 1686.43 926.372   5
   8  -2  -9 2355.97 1042.60   5
   8  -2   9 925.388 691.979   5
   7  -2   9 4944.16 1218.69   5
   7   2  -9 4725.88 1359.38   5
   7   2   9 5942.73 1437.94   1
   7  -2  -9 6651.30 1537.51   5
   7   2  -9 7073.70 1543.82   2
   6  -2   9 624.972 565.657   1
   6   2   9 1104.38 507.375   5
   6   2  -9 882.117 811.837   5
   6   2   9 1337.71 687.282   1
   6  -2  -9 55.7741 410.870   5
   6   2  -9 886.958 785.266   2
   5  -2   9 2166.02 770.977   1
   5  -2  -9 3039.20 911.417   5
   5  -2   9 2502.03 751.063   4
   5   2   9 2542.57 917.905   1
   5   2  -9 3001.99 960.275   2
   5   2   9 3403.22 685.032   5
   5  -2  -9 2398.28 652.618   2
   4  -2  -9 388.934 345.659   2
   4  -2   9 623.435 565.539   1
   4  -2   9 139.940 359.281   4
   4   2   9 322.598 244.364   5
   4  -2  -9 236.948 481.627   5
   4   2  -9 537.779 485.072   2
   4   2   9 790.901 542.365   1
   3  -2   9 7741.13 1185.16   4
   3   2   9 10342.3 1434.11   1
   3  -2  -9 11662.5 1413.56   5
   3  -2  -9 12486.5 1292.34   2
   3  -2  -9 9168.79 813.031   4
   3  -2   9 10430.1 1256.64   1
   3   2  -9 9404.89 1365.55   2
   2   2  -9 467.993 407.950   2
   2  -2   9 81.8528 238.982   1
   2  -2  -9 294.572 96.7855   3
   2  -2  -9 290.448 334.133   5
   2   2   9 192.607 301.875   1
   2  -2   9 186.219 386.549   4
   2  -2  -9 950.646 400.185   2
   1   2  -9 6308.59 1029.03   2
   1  -2   9 4055.48 800.930   4
   1   2   9 4484.87 907.894   1
   1  -2   9 5724.29 679.163   1
   1   2   9 5279.70 641.615   5
   0  -2   9 1042.08 430.703   4
   0   2  -9 839.797 507.188   2
   0   2  -9 975.319 331.735   6
   0  -2   9 819.824 221.660   1
   0   2   9 866.782 295.963   5
   0   2   9 1236.68 536.401   1
  -1  -2   9 3993.36 778.287   4
  -1   2  -9 6307.60 972.223   2
  -1  -2   9 4026.04 337.192   1
  -1   2  -9 4718.94 597.744   1
  -1   2   9 5515.66 1126.98   6
  -2  -2   9 248.387 260.178   4
  -2  -2   9 188.467 123.950   1
  -2  -2   9 538.199 247.849   6
  -2   2   9 146.093 423.326   6
  -2   2  -9 781.233 391.547   2
  -3  -2   9 11306.4 1126.10   6
  -3   2   9 11867.2 1734.57   6
  -3  -2   9 10079.2 865.166   1
  -3   2  -9 11334.5 1281.03   2
  -3  -2   9 9530.43 1084.14   4
  -4  -2   9 765.769 354.015   4
  -5  -2   9 2084.29 519.499   4
  -5  -2   9 2306.43 598.617   3
  -6  -2   9 1003.50 444.953   3
   8  -2  10 29448.6 3098.06   5
   8   2 -10 27401.8 3491.91   5
   8   2  10 24754.1 3222.23   1
   8  -2 -10 27768.7 3365.46   5
   7  -2  10 1641.61 790.288   5
   7   2 -10 1891.81 1055.51   5
   7  -2 -10 532.027 708.187   5
   7   2 -10 1600.36 836.556   2
   7   2  10 320.277 578.469   1
   6   2 -10 55673.2 4026.77   2
   6  -2 -10 56714.1 4102.11   5
   6  -2  10 61692.2 4143.36   1
   6   2  10 61245.1 4358.92   1
   5  -2 -10 2721.18 705.170   2
   5  -2  10 2431.34 764.939   1
   5  -2  10 1926.52 734.232   4
   5   2  10 589.394 518.084   1
   5  -2 -10 2440.59 900.474   5
   5   2  10 1983.01 528.122   5
   5   2 -10 134.430 413.631   2
   4  -2  10 89867.8 4153.48   1
   4   2  10 87022.2 2867.03   5
   4  -2 -10 89062.4 4385.24   5
   4   2 -10 89460.2 4568.41   2
   4   2  10 85259.6 4464.00   1
   4  -2 -10 86982.6 3659.64   2
   4  -2  10 86225.9 4122.48   4
   3   2 -10 4189.57 1026.25   2
   3  -2  10 3149.49 816.496   4
   3   2  10 4511.46 1046.35   1
   3  -2 -10 3132.41 739.842   2
   3  -2 -10 3270.97 870.287   5
   3  -2  10 3415.05 786.896   1
   2  -2  10 81170.1 3087.96   1
   2   2  10 82693.3 3943.51   1
   2   2 -10 84267.7 3970.71   2
   2  -2 -10 75618.1 3308.36   2
   2  -2  10 74779.9 3552.49   4
   1  -2  10 909.705 432.644   4
   1   2 -10 1048.27 502.510   2
   1  -2  10 1158.82 346.587   1
   1   2  10 45.2896 363.962   1
   1   2  10 613.462 288.164   5
   0  -2  10 129029. 2667.73   1
   0   2 -10 135864. 4702.27   2
   0  -2  10 134454. 4463.56   4
   0   2 -10 128587. 3625.37   6
   0   2  10 134241. 4710.51   1
  -1  -2  10 609.547 176.311   1
  -1  -2  10 659.360 474.692   4
  -1   2  10 699.524 610.944   6
  -1   2 -10 1391.43 539.985   2
  -2   2  10 80428.7 4394.80   6
  -2  -2  10 71253.5 1794.67   1
  -2   2 -10 77355.1 3478.71   2
  -2  -2  10 81569.6 3333.63   4
  -2  -2  10 71079.8 1806.81   1
  -3  -2  10 5481.35 866.101   4
  -3   2  10 5314.99 1242.84   6
  -3  -2  10 3497.17 670.569   6
  -3   2 -10 4706.75 887.322   2
  -4   2  10 88870.6 4994.33   6
  -4  -2  10 91721.1 3415.28   4
  -5  -2  10 1753.96 478.189   4
   8   2 -11 480.368 792.417   2
   8  -2  11 1353.40 812.884   5
   7  -2 -11 6563.97 1581.08   5
   7   2  11 8847.65 1834.43   1
   7  -2  11 5886.37 1340.92   5
   7   2 -11 4693.27 1333.15   2
   6  -2  11 1663.11 795.926   1
   6  -2 -11 792.286 682.063   5
   6   2  11 992.683 807.512   1
   6   2 -11 468.774 614.156   2
   5  -2 -11 2572.02 807.318   2
   5  -2  11 2195.72 861.200   1
   5  -2  11 2981.47 927.548   4
   5  -2 -11 2848.47 926.924   5
   5   2  11 3256.38 1004.89   1
   5   2 -11 2054.42 868.111   2
   4  -2 -11 164.637 287.712   2
   4  -2  11 521.579 484.403   1
   4  -2  11 859.899 534.055   4
   4  -2 -11-213.912 420.455   5
   4   2  11 572.140 578.042   1
   4   2 -11 62.0260 450.193   2
   3   2 -11 7676.19 1368.87   2
   3  -2  11 9512.97 1409.52   4
   3   2  11 8503.15 1419.32   1
   3  -2 -11 7123.53 1114.21   2
   3  -2  11 7794.24 1154.52   1
   3  -2 -11 9411.65 1398.25   5
   2  -2 -11-37.5000 358.021   2
   2   2 -11 752.113 502.079   2
   2  -2  11 116.934 357.561   4
   2  -2  11 170.667 331.688   1
   2   2  11 55.8994 340.128   1
   1   2 -11 2597.58 757.407   2
   1  -2  11 3227.19 771.349   4
   1  -2  11 3271.69 585.182   1
   1   2  11 3942.33 908.488   1
   0   2 -11 611.308 455.311   2
   0   2  11 434.986 477.457   1
   0  -2  11 354.412 207.740   1
   0  -2  11 484.837 387.469   4
  -1  -2  11 2338.27 343.434   1
  -1  -2  11 2639.45 688.187   4
  -1   2 -11 3762.82 856.306   2
  -1   2  11 2501.86 874.662   6
  -2  -2  11 157.021 128.100   1
  -2  -2  11 142.752 301.369   4
  -2   2 -11 374.918 369.855   2
  -2   2  11 822.200 587.302   6
  -3  -2  11 7482.56 1076.48   4
  -3   2 -11 5691.74 1059.80   2
  -3  -2  11 7383.20 987.870   6
  -4  -2  11 942.109 436.504   4
  -4   2 -11 576.147 412.777   2
   8   2 -12 11338.4 2153.04   2
   7   2  12 257.624 597.764   1
   7  -2 -12 1757.76 914.684   5
   7  -2  12 1298.18 712.900   5
   7   2 -12-47.9212 482.822   2
   6   2 -12 37152.2 3454.42   2
   6  -2 -12 37268.2 3570.26   5
   6   2  12 36058.6 3534.03   1
   6  -2  12 38590.2 3410.70   1
   5  -2 -12 1483.17 642.581   2
   5  -2  12 1192.91 766.480   1
   5  -2  12 2194.24 839.962   4
   5   2 -12 1246.99 714.894   2
   5  -2 -12 1611.73 827.668   5
   5   2  12 1934.66 856.043   1
   4  -2 -12 44761.0 3405.16   5
   4  -2  12 46388.4 3142.62   1
   4   2 -12 46290.1 3522.76   2
   4  -2 -12 45158.6 2987.84   2
   4   2  12 48954.6 3606.80   1
   4  -2  12 45503.8 3266.27   4
   3   2 -12 1571.72 745.885   2
   3  -2  12 1930.19 728.549   4
   3   2  12 845.848 571.097   1
   3  -2 -12 811.986 430.178   2
   3  -2  12 1328.55 522.912   1
   2  -2  12 41030.2 2379.15   1
   2  -2  12 40133.3 2845.32   4
   2   2 -12 36787.2 2902.43   2
   2  -2 -12 40173.5 2703.99   2
   2   2  12 41504.7 3014.31   1
   1   2  12 640.681 439.155   1
   1   2 -12 624.533 459.767   2
   1  -2  12 895.933 543.100   4
   1  -2  12 221.529 243.002   1
   0  -2  12 97585.2 2688.32   1
   0   2 -12 98585.0 4447.30   2
   0  -2  12 96201.3 4138.05   4
   0   2  12 96759.1 4341.36   1
  -1  -2  12 1646.89 604.138   4
  -1   2 -12 522.335 439.563   2
  -1   2  12 746.426 589.840   6
  -1   2  12 488.148 445.567   1
  -2   2  12 39074.4 3276.67   6
  -2   2 -12 43804.9 2932.39   2
  -2  -2  12 42452.1 2676.13   4
  -3  -2  12 2530.15 661.653   4
  -3   2  12 1457.03 882.447   6
  -3   2 -12 537.730 464.518   2
  -4   2  12 44371.4 3777.86   6
  -4   2 -12 44389.6 2972.32   2
  -4  -2  12 48010.7 2700.97   4
  -5   2 -12 1795.53 661.975   2
  -5   2  12 7.18565 460.477   6
   7  -2  13 4084.54 1288.60   1
   7  -2 -13 5290.73 1609.75   5
   7  -2  13 5708.46 1325.74   5
   7   2 -13 4469.58 1371.54   2
   6  -2  13 1210.82 682.317   1
   6  -2 -13 437.355 612.119   5
   6   2  13 494.174 711.365   1
   6   2 -13 692.892 620.242   2
   5  -2 -13 4293.92 1052.06   2
   5  -2  13 8197.54 1483.41   1
   5  -2  13 4938.49 1248.82   4
   5  -2 -13 2005.22 862.284   5
   5   2  13 4924.30 1289.15   1
   5   2 -13 6637.14 1480.32   2
   4  -2 -13 1039.30 570.903   2
   4  -2  13 2581.86 822.858   1
   4  -2  13 2582.51 905.430   4
   4   2  13 1643.41 774.954   1
   4   2 -13 3028.32 1011.72   2
   3   2 -13 12283.2 1856.06   2
   3  -2  13 14242.2 1856.65   4
   3  -2 -13 10712.2 1513.47   2
   3  -2  13 11441.6 1460.91   1
   3   2  13 17277.9 2134.82   1
   2   2 -13 2724.03 908.154   2
   2  -2  13 2520.00 826.528   4
   2  -2  13 1864.29 624.403   1
   2   2  13 3955.44 1013.51   1
   2  -2 -13 2452.41 768.742   2
   1   2 -13 13847.8 1787.88   2
   1  -2  13 12580.6 1211.43   1
   1   2  13 15043.4 1826.35   1
   1  -2  13 13529.2 1724.38   4
   1  -2 -13 12159.2 1582.88   2
   0  -2  13 846.876 530.684   4
   0   2 -13 593.120 509.079   2
   0   2  13 279.695 423.055   1
  -1  -2  13 11880.7 1520.69   4
  -1   2 -13 14590.0 1817.65   2
  -1   2  13 11433.0 1569.98   1
  -2   2  13 2692.92 977.355   6
  -2  -2  13 2355.41 716.215   4
  -2   2 -13 1363.24 678.244   2
  -3  -2  13 11351.9 1426.63   4
  -3   2 -13 14592.9 1792.54   2
  -3   2  13 11490.9 1898.09   6
  -4  -2  13 1027.94 497.956   4
  -4   2  13 2508.55 975.597   6
  -4   2 -13 1828.50 732.635   2
  -5   2  13 4649.03 1398.14   6
  -5   2 -13 5887.34 1191.68   2
  -6   2  13 1164.86 869.631   6
  -6   2 -13-436.315 475.755   2
  -7   2  13 8612.98 2014.23   6
   7  -2  14 1213.31 905.608   1
   7  -2  14-1269.15 734.900   5
   7  -2 -14-697.158 843.564   5
   7   2 -14 1185.17 763.313   2
   6  -2 -14 33759.9 3576.97   5
   6  -2  14 29656.8 3056.01   1
   6   2 -14 30343.0 3380.14   2
   6   2  14 35770.2 3703.80   1
   5  -2 -14 210.940 419.325   2
   5   2  14-910.932 783.992   1
   5   2 -14 350.954 549.580   2
   4   2  14 42054.5 3549.02   1
   4  -2  14 43263.6 3182.51   1
   4   2 -14 43307.4 3683.19   2
   4  -2 -14 43966.3 3253.95   2
   4  -2  14 42769.9 3418.38   4
   3   2 -14-1068.80 700.445   2
   3  -2  14-228.561 469.432   4
   3  -2 -14 85.6734 476.329   2
   2   2 -14 36369.3 3110.62   2
   2  -2 -14 33954.6 2750.69   2
   2   2  14 35060.9 2960.57   1
   2  -2  14 30898.9 2708.48   4
   1   2 -14 788.901 520.888   2
   1  -2  14 1010.53 550.680   4
   1  -2 -14 1564.12 600.225   2
   1   2  14 273.950 501.225   1
   0   2 -14 82180.0 4476.29   2
   0  -2  14 80624.9 4154.83   4
   0   2  14 79350.6 4220.62   1
  -1  -2  14 1435.35 670.257   4
  -1   2 -14 1201.59 628.799   2
  -1   2  14-232.001 392.152   1
  -2   2  14 35203.6 3325.54   6
  -2   2 -14 34763.5 2882.18   2
  -2  -2  14 33567.8 2606.03   4
  -3  -2  14 396.701 397.592   4
  -3   2  14 238.715 578.602   6
  -3   2 -14 45.8798 392.608   2
  -4   2  14 46741.2 4100.46   6
  -4   2 -14 44355.1 3279.73   2
  -5   2  14-1037.82 826.803   6
  -5   2 -14 593.647 519.533   2
  -6   2  14 27959.8 3470.24   6
  -6   2 -14 31851.0 2855.48   2
  -7   2  14-387.838 802.996   6
   6   2 -15-2433.15 1045.18   2
   6   2  15-563.017 674.624   1
   5  -2 -15 3534.39 1038.06   2
   5   2  15 3269.57 1127.92   1
   5   2 -15 4027.84 1379.57   2
   4  -2 -15-108.650 400.160   2
   4  -2  15-428.328 533.989   4
   4   2  15-528.827 658.179   1
   4   2 -15-397.508 618.512   2
   3   2 -15 5110.30 1299.45   2
   3   2  15 5026.65 1252.95   1
   3  -2 -15 3059.36 995.219   2
   3  -2  15 3032.75 1021.65   4
   2   2 -15 648.276 575.701   2
   2  -2  15-285.125 394.469   4
   2  -2 -15-11.2817 431.995   2
   2   2  15-404.183 498.205   1
   1  -2 -15 2615.67 910.661   2
   1   2 -15 2103.06 807.792   2
   1  -2  15 4404.11 1039.17   4
   1   2  15 3738.87 1021.49   1
   0  -2  15 1473.45 656.243   4
   0   2 -15 499.643 508.070   2
   0   2  15-319.961 500.007   1
  -1   2  15 2417.69 808.285   1
  -1  -2  15 4052.60 1016.68   4
  -1   2 -15 4502.28 1188.68   2
  -2  -2  15 289.217 422.483   4
  -2   2 -15 320.796 479.279   2
  -2   2  15 234.517 411.496   1
  -2   2  15 170.827 666.372   6
  -3   2 -15 4523.82 1152.13   2
  -3  -2  15 3654.10 954.247   4
  -3   2  15 5132.17 1407.76   6
  -4   2  15 1133.90 809.467   6
  -4   2 -15 28.0359 398.926   2
  -5   2  15 7265.45 1744.86   6
  -5   2 -15 1515.54 772.194   2
  -6   2 -15 362.076 504.444   2
  -6   2  15-1920.44 1038.01   6
   5   2  16 1959.17 947.846   1
   5   2 -16-121.465 611.007   2
   4  -2 -16 20750.7 2471.20   2
   4   2  16 24440.6 2861.18   1
   4  -2  16 22619.6 2678.79   4
   4   2 -16 18807.8 2668.54   2
   3   2 -16 318.968 523.013   2
   3   2  16 714.679 775.932   1
   3  -2 -16 661.082 607.529   2
   3  -2  16 810.027 659.123   4
   2   2 -16 14869.8 2168.55   2
   2  -2  16 16291.8 2166.18   4
   2   2  16 17839.1 2258.91   1
   2  -2 -16 19012.9 2269.48   2
   1   2 -16-21.4448 514.589   2
   1  -2  16-75.6200 452.144   4
   1   2  16 236.694 492.307   1
   1  -2 -16-1315.94 702.816   2
   0  -2 -16 43616.9 3373.12   2
   0   2  16 43682.7 3387.44   1
   0  -2  16 38424.7 3142.79   4
   0   2 -16 44233.9 3641.39   2
  -1  -2  16 11.1536 350.317   4
  -1   2 -16 450.197 610.888   2
  -1   2  16 478.716 511.945   1
  -2  -2  16 15533.2 1936.23   4
  -2   2 -16 16870.0 2229.09   2
  -2   2  16 18958.9 2236.02   1
  -3  -2  16 800.459 541.269   4
  -3   2  16-43.5443 483.978   6
  -3   2 -16-591.277 604.852   2
  -4   2 -16 26518.8 2731.73   2
  -4   2  16 20904.9 2949.71   6
  -5   2 -16-782.333 663.184   2
  -5   2  16-700.688 820.398   6
  -6   2  16 25563.0 3472.78   6
   5   2  17 2401.96 1154.89   1
   4   2 -17 168.974 649.845   2
   4  -2 -17 824.824 600.306   2
   4   2  17 1122.79 708.851   1
   3   2  17 2978.08 1027.99   1
   3   2 -17 2001.86 959.291   2
   3  -2 -17 919.568 733.021   2
   3  -2  17 1711.01 786.637   4
   2   2 -17-57.4641 428.903   2
   2  -2  17 195.686 376.340   4
   2  -2 -17-169.976 598.088   2
   2   2  17-753.221 599.246   1
   1   2 -17 2231.55 935.582   2
   1  -2  17 3136.74 1000.59   4
   1  -2 -17 2242.22 917.276   2
   1   2  17 4906.20 1202.89   1
   0  -2 -17 1668.34 809.383   2
   0   2 -17 1142.36 779.321   2
   0  -2  17 599.518 631.932   4
   0   2  17 1305.03 674.470   1
  -1  -2  17 4085.73 1071.52   4
  -1   2 -17 3006.37 1020.88   2
  -1   2  17 2654.36 945.064   1
  -2  -2  17 541.876 593.885   4
  -2   2 -17 278.192 583.274   2
  -2   2  17-258.178 419.423   1
  -3   2  17 1255.44 676.721   1
  -3   2  17 581.517 685.819   6
  -4   2 -17 814.942 632.595   2
  -4   2  17-50.6262 367.707   6
  -5   2  17 4126.54 1445.14   6
  -5   2 -17 3196.64 1013.92   2
   4  -2 -18 14652.1 2332.32   2
   4   2  18 16681.6 2443.30   1
   3  -2 -18-681.437 714.384   2
   3   2  18 370.203 415.284   1
   2   2 -18 15066.0 2403.94   2
   2   2  18 16158.2 2257.67   1
   2  -2  18 12480.0 2048.38   4
   2  -2 -18 17771.7 2430.53   2
   1   2 -18 29.0322 481.628   2
   1  -2  18 756.755 554.116   4
   1  -2 -18-242.937 448.836   2
   1   2  18 797.987 647.857   1
   0   2 -18 31135.7 3311.28   2
   0  -2 -18 27312.0 2921.63   2
   0   2  18 33557.0 3142.87   1
   0  -2  18 30763.8 3059.73   4
  -1   2 -18-397.698 647.942   2
  -1  -2  18-556.757 684.942   4
  -1  -2 -18-398.408 556.906   2
  -1   2  18 722.365 537.657   1
  -2  -2  18 14610.7 1945.30   4
  -2   2 -18 16854.4 2417.46   2
  -3   2 -18-1034.44 737.342   2
   3   2  19 2285.46 981.529   1
   2   2  19-79.8081 194.865   1
   2  -2 -19-499.283 567.703   2
   1  -2  19 2076.67 943.906   4
   1  -2 -19 2915.15 1058.52   2
   0  -2  19 17.8901 566.387   4
  -1  -2  19 6927.25 1501.44   4
  -2  -2  19-820.418 677.237   4
   9   3   0 630.296 664.173   5
   9  -3   0 646.182 815.370   5
   8   3   0 6499.39 1449.13   1
   8   3   0 7012.99 1470.72   5
   8  -3   0 8072.17 1569.57   5
   7   3   0 118.690 394.946   1
   7   3   0 1057.50 778.039   5
   7  -3   0 1414.81 692.274   5
   6   3   0 2492.57 789.679   1
   6   3   0 2242.79 715.326   5
   6  -3   0 2167.09 719.927   5
   5  -3   0 129.000 188.960   4
   5   3   0 308.943 382.927   5
   5   3   0 349.631 378.273   1
   5  -3   0 640.264 473.415   5
   4  -3   0 8143.75 773.825   4
   4   3   0 8290.42 1081.29   5
   4  -3   0 8549.53 1085.36   5
   4   3   0 7207.08 1011.91   1
   3  -3   0 199.947 247.618   4
   3   3   0 252.046 301.529   5
   3  -3   0-16.6651 267.357   5
   3   3   0 19.1398 204.123   1
   2  -3   0 1017.12 166.018   2
   2   3   0 1112.65 368.661   1
   2  -3   0 972.773 367.915   4
   1   3   0 104.743 220.330   1
   1  -3   0 1.78607 150.435   2
   0   3   0 6322.83 810.163   6
   0  -3   0 6025.30 703.663   2
   0  -3   0 5395.09 705.329   3
  -1  -3   0 35.4083 259.457   6
  -1  -3   0 207.457 307.643   3
  -1   3   0 199.135 208.049   3
  -2  -3   0 863.957 327.678   5
   9  -3  -1 40356.8 3801.14   5
   9   3  -1 34799.3 3512.60   5
   9   3   1 33494.2 3341.57   5
   9   3   1 34255.3 3576.79   1
   9  -3   1 46155.0 4054.60   5
   8   3  -1-21.4280 415.555   1
   8   3   1-14.5053 385.571   1
   8   3  -1 609.330 661.456   5
   8  -3  -1 264.216 526.011   5
   8  -3   1 1600.88 810.658   5
   8   3   1 1152.50 658.772   5
   7   3  -1 99538.6 5024.91   5
   7   3   1 101164. 4816.40   5
   7   3  -1 100601. 5029.19   1
   7   3   1 100915. 5181.74   1
   7  -3  -1 95237.9 4844.57   5
   7  -3   1 95113.8 4813.84   5
   6   3  -1 369.095 381.974   1
   6  -3   1 326.136 243.166   4
   6   3   1 505.314 431.010   1
   6   3   1 1098.38 559.556   5
   6   3  -1 588.495 479.153   5
   6  -3  -1 806.263 585.670   5
   6  -3   1 1181.75 594.376   5
   5   3   1 53348.7 3102.30   1
   5   3  -1 55846.5 3151.22   5
   5   3   1 57581.4 2980.59   5
   5  -3  -1 57198.1 3077.45   5
   5  -3   1 53408.5 2982.98   5
   5   3  -1 52854.3 2983.79   1
   5  -3   1 55080.8 2213.14   4
   5  -3  -1 53042.4 1735.81   4
   4   3   1 429.041 346.522   5
   4  -3  -1 879.534 247.922   4
   4  -3   1 433.602 269.765   4
   4   3   1 1048.79 422.286   1
   4   3  -1 946.965 433.866   1
   4  -3  -1 838.604 422.782   5
   4  -3   1 341.151 298.863   5
   4   3  -1 1051.48 527.349   5
   3  -3  -1 330969. 5835.62   5
   3   3   1 333895. 5703.33   5
   3   3  -1 332202. 5733.07   1
   3   3   1 333061. 6232.18   1
   3  -3  -1 334214. 4604.65   4
   3  -3   1 339559. 5155.96   4
   2  -3   1 806.557 173.765   2
   2   3  -1 1036.63 326.163   1
   2   3   1 442.484 311.493   1
   2  -3  -1 850.707 287.237   4
   2  -3  -1 954.981 168.075   2
   2  -3   1 1042.25 313.146   4
   1  -3  -1 187960. 3536.21   3
   1  -3  -1 185842. 3171.66   2
   1  -3   1 187774. 3100.92   2
   1  -3   1 180462. 3832.79   4
   1   3  -1 183970. 3498.08   1
   1   3   1 185705. 4123.44   1
   0  -3  -1-11.1234 171.748   3
   0  -3   1 122.319 232.488   3
   0   3  -1-74.3020 235.266   6
   0  -3  -1-9.15869 165.895   2
   0   3  -1 41.1307 202.163   2
   0  -3   1 17.9148 161.386   2
   0   3   1 280.256 339.268   6
  -1   3   1 181394. 3566.82   3
  -1   3  -1 176169. 3201.80   2
  -1  -3   1 187103. 4268.74   3
  -1  -3   1 186852. 3756.65   6
  -1  -3  -1 178544. 4452.70   6
  -2  -3   1 845.029 306.723   1
  -2   3   1 625.691 229.681   3
  -2  -3  -1 1156.77 317.648   5
  -2   3  -1 1070.09 211.066   2
  -3  -3  -1 347857. 5353.66   5
   9   3   2-329.937 649.870   1
   9   3  -2 1570.04 892.506   5
   9   3   2 694.116 585.980   5
   9  -3  -2 1226.69 918.933   5
   9  -3   2 369.447 759.808   5
   8   3   2 10778.3 1901.34   1
   8   3  -2 10893.7 1914.86   5
   8   3   2 8394.97 1548.71   5
   8  -3  -2 10899.9 1844.57   5
   8  -3   2 9475.83 1750.48   5
   7   3   2 492.746 628.154   5
   7   3  -2 1006.96 617.666   1
   7   3   2 515.488 732.635   1
   7  -3   2 417.415 600.503   5
   7   3  -2 61.1661 586.847   5
   7  -3  -2 924.965 679.472   5
   6   3  -2 10297.2 1469.03   1
   6   3   2 10807.7 1410.13   5
   6   3  -2 10221.6 1540.30   5
   6   3   2 11703.4 1651.72   1
   6  -3   2 11036.8 1544.37   5
   6  -3  -2 10405.7 1530.45   5
   6  -3   2 9382.00 1038.16   4
   5  -3   2 1646.16 483.754   4
   5  -3  -2 1057.44 225.387   4
   5   3  -2 1003.72 552.543   1
   5   3   2 754.072 419.092   5
   5   3   2 1434.63 609.311   1
   5  -3  -2 1417.11 562.321   5
   5  -3   2 849.491 493.691   5
   5   3  -2 2280.64 699.779   5
   4   3   2 34942.5 1981.38   5
   4   3  -2 32353.8 2290.49   5
   4  -3  -2 35732.5 2203.39   5
   4   3   2 33856.6 2273.40   1
   4  -3   2 32709.6 1763.07   4
   4   3  -2 36948.6 2150.21   1
   4  -3  -2 33977.1 1274.02   4
   3  -3   2 972.715 349.703   4
   3   3   2 1181.19 474.068   1
   3   3  -2 951.431 359.662   1
   3   3   2 626.729 306.318   5
   3  -3  -2 1192.02 428.562   5
   3  -3  -2 638.352 250.155   4
   2   3  -2 33819.1 1493.16   1
   2  -3  -2 33775.4 1626.73   5
   2   3  -2 34478.0 2131.65   2
   2  -3   2 32809.9 1703.33   4
   2   3   2 32795.3 1916.02   1
   1  -3   2 4024.33 486.361   2
   1  -3  -2 4019.45 515.996   3
   1   3   2 4325.56 711.270   1
   1   3  -2 4615.90 741.299   2
   1   3  -2 4711.33 520.911   1
   1  -3   2 4417.64 658.708   4
   0  -3   2 51124.3 2158.97   3
   0   3  -2 51418.7 2112.42   2
   0   3   2 50321.2 2496.69   6
   0  -3  -2 49279.5 1967.14   3
   0   3  -2 53321.1 1829.09   6
   0  -3   2 54322.0 2062.65   2
   0  -3   2 50925.4 2158.36   4
  -1  -3   2 3591.17 480.135   6
  -1   3   2 4096.85 784.611   6
  -1  -3  -2 3970.42 410.827   5
  -1  -3   2 5613.98 769.466   3
  -1   3  -2 4011.77 539.411   2
  -2  -3  -2 33468.7 1264.81   5
  -2   3   2 32982.7 1374.74   3
  -2   3  -2 30765.4 1207.72   2
  -2  -3   2 32054.2 1922.14   3
  -2  -3   2 29388.0 1464.12   1
  -3   3   2 557.316 210.793   3
  -3  -3  -2 940.873 307.783   5
  -3   3  -2 998.132 193.565   2
  -4   3  -2 25023.6 722.006   2
   9  -3   3 41244.3 3836.42   5
   9   3  -3 38463.6 3863.66   5
   9  -3  -3 36123.5 3640.72   5
   9   3   3 33163.5 3594.47   1
   8   3   3 1080.77 774.491   1
   8   3  -3 1689.53 876.132   5
   8   3   3 2471.82 862.506   5
   8  -3  -3 1646.99 858.104   5
   8  -3   3 834.202 642.613   5
   7  -3  -3 82474.5 4637.60   5
   7   3  -3 80893.9 4752.72   5
   7   3   3 82308.5 4188.28   5
   7   3   3 90631.6 5033.71   1
   7  -3   3 85084.0 4613.90   5
   6   3  -3 46.6346 414.414   1
   6  -3   3 29.5531 206.437   4
   6   3   3-9.58085 374.583   1
   6   3  -3 727.420 668.911   5
   6  -3  -3 368.600 509.570   5
   6  -3   3 570.728 493.883   5
   6   3   3 1036.72 492.878   5
   5   3   3 59143.9 2838.48   5
   5   3  -3 57030.1 2996.33   1
   5  -3  -3 56674.1 3154.95   5
   5  -3   3 55495.3 3109.41   5
   5   3   3 55414.0 3296.02   1
   5   3  -3 56096.9 3395.56   5
   5  -3   3 55426.8 2546.97   4
   4  -3  -3 323.103 133.078   4
   4  -3   3 441.748 304.184   4
   4   3  -3 479.869 302.781   1
   4   3   3 319.619 309.053   5
   4  -3  -3 491.453 333.098   5
   4   3  -3 123.832 387.160   5
   4   3   3 327.894 278.973   1
   3  -3  -3 264799. 5356.99   5
   3   3  -3 268177. 6529.77   2
   3   3  -3 269959. 4781.07   1
   3  -3  -3 265599. 3720.80   4
   3   3   3 254955. 5960.85   1
   3  -3   3 272378. 5160.87   4
   3   3   3 268443. 4385.14   5
   2  -3   3 646.703 298.144   4
   2  -3  -3 403.931 218.988   5
   2   3  -3 269.983 182.204   1
   2   3  -3 238.707 423.609   2
   2   3   3 485.647 363.744   1
   1  -3  -3 158620. 2905.04   5
   1  -3  -3 162320. 3031.14   3
   1   3  -3 161281. 4264.91   2
   1  -3   3 157779. 3198.54   2
   1  -3   3 152741. 3793.80   4
   1   3  -3 154856. 2481.32   1
   1   3   3 148348. 4135.69   1
   0   3  -3 21831.5 1021.24   6
   0  -3  -3 21874.2 792.967   5
   0   3  -3 23192.6 1476.93   2
   0  -3   3 20768.2 1428.85   4
   0   3   3 23320.8 1815.42   6
  -1  -3  -3 145713. 1681.61   5
  -1   3  -3 158149. 3414.51   2
  -1  -3   3 162153. 4064.49   3
  -1   3   3 164334. 4904.16   6
  -1  -3   3 156965. 3952.65   4
  -2   3  -3 270.798 192.824   2
  -2  -3   3 423.967 197.981   1
  -2  -3  -3 175.988 115.577   5
  -2  -3   3 286.034 295.956   3
  -3  -3   3 268522. 5973.12   3
  -3   3   3 260518. 3510.12   3
  -3  -3  -3 261736. 3763.45   5
  -3   3  -3 269914. 3549.03   2
  -3  -3   3 262094. 4721.71   1
  -4   3  -3 468.663 167.369   2
  -5   3  -3 52187.1 1478.74   2
   9   3   4 1285.60 955.114   1
   9   3  -4 1423.03 834.814   5
   8   3   4 8178.32 1731.39   1
   8  -3   4 6838.83 1467.28   5
   8   3  -4 5360.51 1403.88   5
   8   3   4 5435.59 1227.55   5
   8  -3  -4 4223.07 1250.34   5
   7   3   4 777.592 712.752   1
   7   3  -4 1554.86 824.106   5
   7   3   4 1701.07 721.215   5
   7  -3  -4 2186.12 922.481   5
   7  -3   4 1497.33 762.625   5
   6  -3   4 2825.00 657.832   4
   6   3   4 4203.20 1123.92   1
   6   3  -4 2068.78 822.784   5
   6   3   4 3415.68 795.362   5
   6  -3  -4 4564.59 1116.27   5
   6  -3   4 3778.66 967.335   5
   5   3  -4 463.275 361.309   1
   5  -3   4 541.657 420.466   4
   5   3   4 1159.74 592.734   1
   5   3  -4 207.431 473.661   5
   5   3   4 647.829 344.172   5
   5  -3  -4-249.531 373.956   5
   5  -3   4 223.218 464.190   5
   4  -3   4 7067.26 939.786   4
   4   3   4 9340.11 955.908   5
   4  -3  -4 6891.69 488.909   2
   4   3  -4 8644.60 1010.83   1
   4  -3  -4 9330.44 1225.79   5
   4   3  -4 7988.36 1264.04   2
   4  -3  -4 6932.43 457.278   4
   4   3   4 9398.73 1306.77   1
   3  -3   4 2235.49 559.325   4
   3   3   4 1714.90 624.866   1
   3   3  -4 2007.07 460.073   1
   3  -3  -4 1571.46 280.091   2
   3  -3  -4 2292.47 583.171   5
   3   3   4 2055.08 385.432   5
   3   3  -4 2792.83 764.545   2
   2   3  -4 8189.82 615.494   1
   2  -3   4 9334.85 1010.60   4
   2  -3  -4 8614.43 873.578   5
   2   3  -4 8000.02 1118.73   2
   2   3   4 7660.00 1056.88   1
   1  -3  -4 177.136 182.052   3
   1   3   4 506.599 376.296   1
   1   3  -4 221.118 285.237   2
   1   3  -4 228.283 104.461   1
   1  -3  -4 442.758 212.924   5
   1  -3   4 636.651 365.367   4
   0   3   4 9781.59 1259.70   6
   0   3  -4 9376.95 562.070   6
   0  -3  -4 9425.64 504.634   5
   0   3  -4 8703.79 960.049   2
   0  -3   4 9942.83 1030.53   4
  -1   3  -4 417.492 321.936   2
  -1   3  -4 406.045 207.232   1
  -1  -3   4 383.845 357.425   3
  -1   3   4 964.885 486.139   6
  -1  -3   4 528.645 299.311   4
  -2  -3   4 8538.18 1026.69   3
  -2   3  -4 8330.58 784.786   2
  -2  -3   4 9471.10 1037.85   4
  -2  -3   4 7516.52 603.380   1
  -3   3  -4 2049.50 391.368   2
  -3  -3   4 2963.11 717.513   3
  -3  -3   4 1812.78 401.076   1
  -4  -3   4 6560.73 1031.11   3
  -4   3  -4 8400.16 712.771   2
  -4   3   4 7747.27 559.756   3
  -5   3  -4-0.30990 135.872   2
  -5  -3   4 101.173 302.308   3
   9   3  -5 39419.1 4019.80   5
   8   3  -5 380.088 580.714   5
   8  -3  -5 391.441 605.190   5
   8  -3   5 2041.82 897.171   5
   8   3   5 1246.70 808.266   1
   7   3  -5 72256.2 4767.34   5
   7   3   5 74661.6 3852.75   5
   7  -3  -5 76525.7 4619.07   5
   7  -3   5 84144.1 4644.74   5
   7   3   5 83730.3 4985.41   1
   6  -3   5 371.360 343.440   4
   6   3  -5 539.450 548.919   5
   6   3   5 142.851 428.723   1
   6   3   5 338.915 406.158   5
   6  -3  -5 207.424 387.886   5
   6  -3   5 510.451 457.206   5
   5   3  -5 79725.4 4306.69   5
   5   3   5 75201.7 3008.99   5
   5  -3  -5 81821.7 3986.42   5
   5   3  -5 76104.4 4156.63   2
   5   3   5 73947.8 3993.75   1
   5  -3   5 72618.9 3265.91   4
   4  -3   5 189.147 254.812   4
   4  -3  -5 175.563 77.2812   4
   4   3   5 356.399 228.199   5
   4  -3  -5 466.347 387.814   5
   4   3  -5 211.989 358.400   2
   4  -3  -5 175.599 157.883   2
   4   3   5-16.9797 378.278   1
   4  -3  -5 84.3877 71.6423   4
   3   3   5 234979. 3446.53   5
   3  -3  -5 236381. 5379.51   5
   3   3  -5 242275. 6423.01   2
   3  -3  -5 239709. 3718.35   2
   3   3   5 231132. 6145.04   1
   3  -3   5 232941. 5331.20   4
   2  -3  -5 8158.39 872.380   5
   2  -3   5 10672.8 1131.69   4
   2   3  -5 7730.87 1106.00   2
   2   3   5 8847.86 1163.78   1
   1  -3  -5 206752. 3401.81   3
   1  -3  -5 209474. 3547.54   5
   1   3  -5 204168. 5049.44   2
   1  -3   5 204871. 4756.23   4
   1   3   5 208993. 5376.90   1
   0   3  -5 2916.89 595.058   2
   0   3  -5 2337.00 246.237   1
   0   3   5 2927.94 782.995   6
   0  -3  -5 2672.48 287.491   5
   0  -3   5 3179.31 633.992   4
  -1   3  -5 201258. 4379.99   2
  -1  -3   5 209164. 4837.00   4
  -1   3  -5 214453. 3497.00   1
  -1   3   5 204356. 6016.78   6
  -2  -3   5 8061.20 1024.63   3
  -2   3  -5 8364.81 860.055   2
  -2  -3   5 8949.52 1027.35   4
  -3   3  -5 230782. 4245.24   2
  -3  -3   5 248104. 5397.76   4
  -3  -3   5 233721. 3919.95   1
  -3  -3   5 242653. 5668.06   3
  -4   3  -5 261.123 188.261   2
  -4  -3   5-121.936 288.500   3
  -4  -3   5 351.795 325.148   4
  -5  -3   5 81541.3 3778.76   3
  -5   3  -5 75256.5 2422.86   2
  -5  -3   5 79332.9 3240.19   4
  -6  -3   5 152.737 345.707   3
  -6  -3   5 342.587 318.261   4
  -7  -3   5 71267.6 4045.54   3
  -8  -3   5 1446.65 689.187   3
   8   3   6 6171.65 1551.26   1
   8   3  -6 8645.41 1872.73   5
   8  -3  -6 6283.73 1524.91   5
   8  -3   6 8828.01 1724.27   5
   7   3   6 1310.00 823.668   1
   7   3  -6-730.635 653.600   5
   7  -3  -6 870.470 663.310   5
   7  -3   6 295.737 636.649   5
   6  -3   6 6562.39 1088.97   4
   6   3  -6 5239.99 1285.25   5
   6   3   6 5338.28 939.834   5
   6   3   6 5988.98 1290.53   1
   6   3  -6 3609.92 1022.56   2
   6  -3   6 6139.50 1226.04   5
   6  -3  -6 6687.18 1354.36   5
   5  -3   6 111.768 370.344   4
   5  -3  -6 117.679 361.713   5
   5   3   6 518.935 329.633   5
   5   3  -6 1521.54 763.657   2
   5   3   6 150.858 472.841   1
   4   3   6 9468.71 1398.27   1
   4  -3   6 9014.73 1192.81   4
   4   3   6 12247.9 980.715   5
   4  -3  -6 12579.4 1464.00   5
   4  -3  -6 10882.7 891.963   2
   4  -3  -6 7922.07 430.523   4
   4   3  -6 10552.5 1520.12   2
   4  -3  -6 8404.42 448.422   4
   3  -3   6 1338.89 497.391   4
   3  -3  -6 1304.68 376.282   2
   3   3   6 1184.59 513.902   1
   3   3   6 788.921 224.916   5
   3  -3  -6 1108.30 469.468   5
   3   3  -6 2045.94 708.691   2
   2   3   6 13139.9 1488.55   1
   2  -3  -6 12023.9 1102.24   5
   2   3  -6 12046.5 1407.10   2
   2  -3   6 14335.9 1352.60   4
   1  -3   6 75.9654 264.584   4
   1   3   6 384.881 381.168   1
   1  -3  -6 151.507 218.078   5
   1   3  -6 265.646 303.027   2
   0  -3   6 4489.39 761.386   4
   0   3  -6 4413.21 758.430   2
   0   3   6 4772.21 999.559   6
  -1   3   6 636.208 479.978   6
  -1   3  -6 286.385 297.651   2
  -1   3  -6 139.285 169.131   1
  -1  -3   6-137.765 264.618   4
  -2  -3   6 12870.6 1298.52   3
  -2   3  -6 10955.4 1059.09   2
  -2  -3   6 14640.6 1357.42   4
  -2   3   6 13252.7 1679.69   6
  -3   3  -6 1562.58 436.520   2
  -3  -3   6 1374.95 295.630   1
  -3  -3   6 1123.13 507.530   3
  -3  -3   6 1380.68 467.877   4
  -4   3  -6 11389.1 1044.57   2
  -4  -3   6 13877.4 1347.35   4
  -4  -3   6 10608.5 1286.36   3
  -5  -3   6 298.469 336.956   3
  -5   3  -6-118.507 213.660   2
  -5  -3   6 175.613 301.551   4
  -6  -3   6 3601.24 930.949   3
  -6  -3   6 5017.38 881.506   4
  -7  -3   6 1922.23 717.991   3
  -8  -3   6 8412.12 1493.06   3
   8   3  -7 1046.27 831.051   5
   8  -3  -7 2199.58 986.628   5
   8  -3   7 1657.22 826.868   5
   8   3   7 1177.65 775.081   1
   7   3  -7 41558.0 3802.16   5
   7  -3  -7 40503.9 3511.69   5
   7  -3   7 50121.1 3700.35   5
   7   3   7 43809.1 3801.82   1
   6  -3  -7 430.187 658.436   5
   6  -3   7 873.485 504.574   4
   6   3   7 795.044 575.130   1
   6  -3   7 480.513 524.733   5
   6   3  -7 567.608 525.076   5
   6   3  -7-27.0673 409.349   2
   5  -3  -7 60566.2 3591.96   5
   5   3   7 56939.9 2483.54   5
   5   3   7 56134.6 3674.53   1
   5   3  -7 58459.7 3810.27   2
   5  -3   7 62523.7 3318.26   4
   4   3   7-28.0489 349.186   1
   4  -3  -7 389.915 262.360   2
   4  -3   7 33.7516 328.822   4
   4  -3  -7-539.703 441.598   5
   4   3   7-107.550 195.321   5
   4   3  -7 381.641 521.012   2
   3   3   7 93593.8 1868.42   5
   3  -3  -7 101820. 3757.09   5
   3   3  -7 104651. 4477.19   2
   3  -3  -7 104291. 3096.62   2
   3   3   7 105363. 4482.73   1
   3  -3   7 100039. 3860.08   4
   3  -3  -7 99436.9 2465.23   4
   2  -3   7 4528.15 831.196   4
   2  -3  -7 5323.02 782.944   5
   2   3  -7 5116.98 985.647   2
   2   3   7 6259.98 1054.65   1
   1  -3  -7 108823. 2914.45   5
   1   3  -7 98163.0 3833.70   2
   1  -3   7 101902. 3644.27   4
   1   3   7 101384. 4049.84   1
   0   3  -7 8000.01 1068.30   2
   0   3   7 5993.93 1116.42   6
   0   3   7 6529.23 435.599   5
   0  -3   7 9570.00 1132.71   4
  -1   3   7 104779. 4678.99   6
  -1   3  -7 103260. 3532.47   2
  -1   3  -7 99833.0 2298.98   1
  -1  -3   7 101325. 3598.98   4
  -1   3   7 97898.0 2396.33   5
  -2   3  -7 4651.48 741.861   2
  -2   3   7 4939.93 1123.43   6
  -2  -3   7 4807.92 822.419   4
  -3  -3   7 105765. 3859.15   3
  -3   3  -7 103292. 3387.89   2
  -3  -3   7 104957. 3714.69   4
  -3  -3   7 99707.2 2185.20   1
  -4   3  -7-29.1757 223.971   2
  -4  -3   7 407.028 327.153   3
  -4  -3   7 15.8226 277.074   4
  -5  -3   7 58732.4 3156.84   3
  -5   3  -7 59008.2 2575.06   2
  -5  -3   7 60793.0 2895.31   4
  -6  -3   7 680.278 413.985   3
  -6  -3   7-342.194 312.470   4
  -7  -3   7 44938.9 3121.32   3
   8   3   8 6026.19 1570.88   1
   8   3  -8 9858.49 2009.22   5
   8  -3  -8 7541.70 1745.69   5
   8  -3   8 8523.58 1744.16   5
   7   3   8 316.276 641.774   1
   7  -3  -8 32.3671 538.985   5
   7  -3   8 20.0956 518.251   5
   6  -3   8 5923.77 1169.24   4
   6  -3  -8 6021.54 1342.65   5
   6   3   8 4513.83 1225.97   1
   6   3  -8 7490.02 1531.98   2
   5  -3   8 405.016 417.036   4
   5  -3  -8 385.106 516.343   5
   5   3  -8 1080.16 618.366   2
   5   3   8 979.551 710.165   1
   4   3   8 8287.99 1401.53   1
   4   3   8 11197.0 881.941   5
   4  -3  -8 9206.85 1350.51   5
   4  -3  -8 11221.4 1116.53   2
   4  -3   8 12499.2 1514.13   4
   4   3  -8 11541.6 1643.03   2
   3  -3  -8 147.994 291.945   5
   3  -3   8 277.189 408.723   4
   3  -3  -8 638.449 402.268   2
   3   3   8 431.203 452.679   1
   3   3   8 198.304 123.201   5
   3   3  -8 1294.98 598.241   2
   2  -3  -8 23959.6 1712.08   5
   2   3  -8 24747.2 2145.18   2
   2   3   8 23230.8 2107.20   1
   2  -3   8 21428.9 1817.75   4
   1   3  -8 74.7146 281.099   2
   1  -3   8 240.149 352.873   4
   1  -3  -8 76.8863 203.107   5
   1   3   8 175.859 463.661   1
   0   3   8 12624.5 686.690   5
   0   3   8 12722.1 1709.05   6
   0   3  -8 15073.8 1494.66   2
   0  -3   8 14004.0 1420.11   4
  -1  -3   8 224.330 234.381   4
  -1   3  -8 171.017 353.679   2
  -1   3   8 167.355 568.089   6
  -1   3   8 94.4346 175.573   5
  -1   3  -8 310.741 176.629   1
  -2   3   8 23986.2 2426.19   6
  -2   3  -8 21903.3 1705.04   2
  -2  -3   8 24322.2 1834.60   4
  -3   3  -8 867.408 415.593   2
  -3   3   8 97.5097 372.666   6
  -3  -3   8 510.223 356.203   4
  -4  -3   8 11307.1 1364.59   3
  -4   3  -8 12765.7 1300.18   2
  -4  -3   8 11171.7 1288.51   4
  -5  -3   8-378.170 377.304   3
  -5   3  -8 428.997 320.745   2
  -5  -3   8 882.143 406.468   4
  -6  -3   8 5857.48 1086.55   3
  -7  -3   8 437.970 462.826   3
   8  -3  -9 215.592 493.867   5
   8  -3   9-261.185 592.352   5
   7  -3  -9 42889.2 3779.72   5
   7   3   9 41941.8 3877.74   1
   7  -3   9 40569.4 3462.71   5
   7   3  -9 35942.2 3493.87   2
   6  -3   9 599.868 492.319   4
   6  -3  -9 464.685 540.179   5
   6   3   9-325.604 534.395   1
   6   3  -9 1647.13 796.921   2
   5   3   9 73267.4 4451.53   1
   5   3  -9 75428.8 4518.97   2
   5  -3  -9 72182.7 4170.97   5
   5  -3   9 72400.5 3878.57   4
   4   3   9 691.765 516.456   1
   4  -3  -9 888.768 421.814   2
   4  -3   9 1046.59 527.792   4
   4  -3  -9 314.760 418.012   5
   4   3  -9 879.554 537.602   2
   3   3  -9 81999.9 4270.48   2
   3  -3  -9 86087.4 3742.69   5
   3  -3  -9 91160.4 3398.99   2
   3   3   9 96243.6 4572.88   1
   3  -3   9 83442.6 3860.37   4
   2  -3   9 2510.14 693.707   4
   2  -3  -9 2791.81 637.425   5
   2   3   9 3893.47 901.657   1
   2   3  -9 1962.09 720.410   2
   1   3  -9 135761. 4873.97   2
   1  -3   9 132861. 4552.34   4
   1   3   9 131364. 4987.74   1
   0  -3   9 1655.37 547.390   4
   0   3  -9 3355.24 762.317   2
   0   3   9 3161.12 955.134   6
   0   3   9 3204.40 837.131   1
   0   3   9 2481.33 358.484   5
  -1   3   9 139259. 5825.97   6
  -1   3  -9 128290. 4418.16   2
  -1  -3   9 130250. 4388.74   4
  -1   3  -9 126271. 2708.43   1
  -2  -3   9 2589.28 663.349   4
  -2   3  -9 2407.46 659.119   2
  -2   3   9 2684.32 1001.81   6
  -3   3   9 92507.8 5052.32   6
  -3   3  -9 87054.0 3544.38   2
  -3  -3   9 78286.8 2184.79   6
  -3  -3   9 89865.4 3641.72   4
  -4  -3   9-49.4336 266.646   4
  -4   3  -9 34.7584 240.457   2
  -5  -3   9 67826.9 3467.94   3
  -5   3  -9 70315.5 3216.08   2
  -5  -3   9 76587.4 3404.43   4
  -6  -3   9 1515.61 617.913   3
   8  -3 -10 3707.25 1319.43   5
   7   3  10-166.862 561.673   1
   7  -3 -10-619.588 677.656   5
   7  -3  10 783.765 714.461   5
   7   3 -10 166.674 365.502   2
   6  -3  10 2756.89 854.346   4
   6   3  10 2244.68 981.275   1
   6   3 -10 4650.05 1278.11   2
   5  -3  10 710.432 522.581   4
   5  -3 -10-425.676 507.094   5
   5   3  10 358.757 609.084   1
   5   3 -10 506.437 687.970   2
   4   3  10 5222.83 1262.30   1
   4  -3 -10 4385.84 825.098   2
   4  -3  10 3907.20 981.511   4
   4   3 -10 5515.14 1267.62   2
   4  -3 -10 3108.91 873.887   5
   3  -3  10 885.454 541.631   4
   3  -3 -10 471.726 424.319   2
   3   3  10 190.781 437.837   1
   3  -3 -10 262.952 382.032   5
   3   3 -10 659.131 551.285   2
   2   3 -10 8540.94 1382.75   2
   2  -3  10 9429.25 1334.95   4
   2  -3 -10 8187.73 1127.77   5
   2   3  10 9797.98 1486.32   1
   1   3 -10-56.1036 404.882   2
   1  -3  10 41.1404 298.474   4
   1   3  10 411.806 412.003   1
   0  -3  10 2490.35 694.233   4
   0   3 -10 2352.61 714.795   2
   0   3  10 3070.57 823.415   1
  -1  -3  10 286.643 370.230   4
  -1   3 -10 570.643 428.063   2
  -1   3  10 735.858 586.442   6
  -2   3  10 10128.1 1713.08   6
  -2   3 -10 10210.8 1315.86   2
  -2  -3  10 10935.1 1337.00   4
  -3  -3  10 63.5578 306.439   4
  -3   3 -10-33.0269 303.604   2
  -4  -3  10 4724.93 892.630   4
  -4   3 -10 4808.93 941.509   2
  -4   3  10 6406.94 1543.02   6
  -5  -3  10 260.841 476.341   4
  -5   3 -10-223.670 496.705   2
  -6  -3  10 3370.80 856.552   3
   7  -3  11 23655.3 2742.01   5
   7   3  11 20829.0 2858.02   1
   7   3 -11 21338.9 2869.31   2
   7  -3 -11 26907.4 3173.44   5
   6  -3  11 108.901 387.518   4
   6  -3 -11 944.215 693.617   5
   6   3  11-415.086 671.845   1
   6   3 -11-500.431 680.852   2
   5  -3 -11 62301.9 4104.38   5
   5   3 -11 64141.0 4444.31   2
   5   3  11 61774.5 4330.17   1
   5  -3  11 58880.9 3776.03   4
   4   3  11 851.692 612.409   1
   4  -3 -11-101.675 322.198   2
   4  -3  11 1117.87 593.361   4
   4  -3 -11 252.715 381.638   5
   4   3 -11 1032.67 687.884   2
   3  -3 -11 39668.8 2804.67   5
   3   3 -11 39138.9 3149.90   2
   3  -3 -11 43172.8 2668.67   2
   3   3  11 39383.2 3120.96   1
   3  -3  11 39733.9 2902.44   4
   2   3 -11 475.393 509.125   2
   2  -3  11 61.2408 387.833   4
   2  -3 -11-764.173 449.597   2
   2   3  11 746.685 508.205   1
   1   3 -11 76725.4 4013.97   2
   1  -3  11 70604.5 3636.31   4
   1   3  11 70668.9 3920.33   1
   0  -3  11 7643.24 1201.56   4
   0   3 -11 7537.37 1274.28   2
   0   3  11 6640.64 1229.07   1
  -1   3  11 68960.1 4403.27   6
  -1   3 -11 64751.5 3509.15   2
  -1  -3  11 68393.3 3452.10   4
  -2  -3  11-207.160 318.715   4
  -2   3 -11 528.419 419.251   2
  -2   3  11 376.585 444.091   6
  -3   3  11 44997.3 3815.13   6
  -3   3 -11 42244.1 2775.55   2
  -3  -3  11 42255.1 2668.36   4
  -4  -3  11 604.184 389.308   4
  -4   3  11 329.600 734.627   6
  -4   3 -11 984.527 483.203   2
  -5   3  11 55533.7 4582.65   6
  -5   3 -11 62897.6 3422.91   2
  -5  -3  11 58160.4 3088.85   4
   7   3 -12 715.741 783.330   2
   7  -3 -12 793.967 762.923   5
   7  -3  12 1490.81 897.118   5
   6  -3  12 3578.62 1100.55   4
   6  -3 -12 4260.64 1274.91   5
   6   3  12 5492.05 1473.30   1
   6   3 -12 3893.14 1238.57   2
   5  -3  12 1067.10 613.361   4
   5  -3 -12 623.175 495.747   5
   5   3  12 1800.99 889.809   1
   5   3 -12 467.422 655.748   2
   4   3  12 2774.58 967.414   1
   4  -3 -12 3190.30 801.599   2
   4  -3  12 3456.89 994.447   4
   4  -3 -12 4700.33 1171.15   5
   4   3 -12 4738.31 1228.80   2
   3  -3  12 66.0355 357.200   4
   3   3  12 429.559 524.386   1
   3  -3 -12 527.623 490.116   5
   3   3 -12 45.3866 516.981   2
   3  -3 -12-155.919 344.245   2
   2   3 -12 8475.00 1521.98   2
   2  -3  12 7474.72 1286.83   4
   2  -3 -12 8318.59 1267.47   2
   2   3  12 8246.66 1462.35   1
   1   3 -12 713.357 522.796   2
   1  -3  12 291.694 468.875   4
   1   3  12 1221.05 624.431   1
   0  -3  12 5648.77 1087.28   4
   0   3 -12 5161.28 1138.50   2
   0   3  12 4481.83 1017.83   1
  -1  -3  12 608.487 516.487   4
  -1   3 -12 853.695 489.276   2
  -1   3  12 1058.23 634.659   6
  -2  -3  12 10324.6 1427.65   4
  -2   3 -12 9429.85 1421.46   2
  -2   3  12 9023.45 1767.79   6
  -3  -3  12 612.612 439.694   4
  -3   3 -12-13.3309 272.888   2
  -4  -3  12 3791.58 817.667   4
  -4   3 -12 3859.17 957.363   2
  -4   3  12 4031.80 1314.72   6
  -5   3  12 984.652 830.316   6
  -5   3 -12 2033.58 690.300   2
  -6   3  12 4181.59 1408.50   6
   7  -3 -13 13283.2 2400.95   5
   6  -3  13-1296.63 723.905   4
   6  -3 -13 451.931 542.979   5
   6   3  13 211.053 522.654   1
   6   3 -13 552.413 565.919   2
   5  -3 -13 55575.1 4151.95   5
   5   3 -13 63215.6 4678.33   2
   5   3  13 55914.7 4340.85   1
   5  -3  13 51149.1 3812.10   4
   4   3  13 1603.79 843.336   1
   4  -3 -13 1440.22 617.634   2
   4  -3  13 316.595 566.287   4
   4  -3 -13-126.019 397.728   5
   4   3 -13 1192.35 788.465   2
   3   3 -13 36146.2 3258.71   2
   3  -3 -13 34072.1 2649.22   2
   3   3  13 38164.0 3263.84   1
   3  -3  13 34798.2 2937.40   4
   2   3 -13 3466.50 1056.80   2
   2  -3  13 3134.14 926.811   4
   2  -3 -13 4052.82 945.496   2
   2   3  13 2089.41 804.519   1
   1   3 -13 82618.3 4515.38   2
   1  -3  13 69545.3 3909.31   4
   1   3  13 74736.3 4293.30   1
   0  -3  13 2348.19 757.121   4
   0   3 -13 1166.58 617.608   2
   0   3  13 1310.86 697.548   1
  -1   3  13 72416.3 4845.70   6
  -1   3 -13 78668.8 4252.50   2
  -1  -3  13 74421.8 3926.62   4
  -1   3  13 79072.8 4395.99   1
  -2  -3  13 3565.37 935.109   4
  -2   3 -13 4005.85 988.965   2
  -2   3  13 4826.43 1336.20   6
  -3   3 -13 34821.3 2797.30   2
  -3   3  13 31120.4 3350.78   6
  -3  -3  13 33755.4 2585.95   4
  -4  -3  13 1308.90 522.715   4
  -4   3 -13 152.282 371.118   2
  -4   3  13 1845.31 941.511   6
  -5   3  13 58274.5 4907.24   6
  -5   3 -13 53281.1 3483.89   2
  -6   3  13 320.580 747.773   6
   6  -3 -14 6237.61 1491.57   5
   6   3  14 7100.38 1766.99   1
   6   3 -14 2737.12 1195.14   2
   5  -3  14 303.850 475.774   4
   5  -3 -14 2581.93 1016.99   5
   5   3  14-164.828 466.549   1
   5   3 -14 2230.24 1027.36   2
   4   3  14 4729.77 1343.79   1
   4  -3 -14 2935.48 886.726   2
   4  -3  14 3782.75 1060.18   4
   4   3 -14 1739.16 906.923   2
   3  -3  14 1013.35 631.988   4
   3  -3 -14-389.173 444.540   2
   3   3  14-1010.35 727.662   1
   3   3 -14-155.351 483.700   2
   2   3 -14 6642.68 1419.42   2
   2  -3  14 3835.24 1155.91   4
   2   3  14 5856.31 1350.01   1
   2  -3 -14 4878.08 1076.02   2
   1   3  14 929.256 607.983   1
   1   3 -14 34.4534 489.417   2
   1  -3  14 453.822 552.731   4
   0   3 -14 3552.13 990.088   2
   0  -3  14 4091.28 1019.10   4
   0   3  14 4776.09 1219.38   1
  -1   3  14-630.820 556.966   1
  -1  -3  14 201.655 388.858   4
  -1   3 -14 167.403 510.925   2
  -2  -3  14 4092.64 1002.40   4
  -2   3  14 5849.35 1500.17   6
  -2   3 -14 5915.17 1231.48   2
  -3  -3  14 686.208 481.750   4
  -3   3 -14-475.856 598.002   2
  -3   3  14 464.518 680.547   6
  -4  -3  14 2646.89 742.698   4
  -4   3 -14 3075.52 909.418   2
  -4   3  14 1186.03 936.648   6
  -5   3 -14 1621.30 732.850   2
  -5   3  14 365.880 664.451   6
  -6   3  14 3674.60 1433.00   6
   5   3  15 35266.7 3643.37   1
   5  -3  15 26648.6 3032.99   4
   5   3 -15 26946.5 3275.08   2
   4   3  15 865.077 657.333   1
   4  -3 -15 302.712 366.360   2
   4  -3  15 248.133 477.761   4
   4   3 -15 1702.86 878.556   2
   3   3 -15 12592.2 2130.33   2
   3  -3  15 15020.7 2130.95   4
   3  -3 -15 13156.5 1834.74   2
   3   3  15 15108.5 2197.97   1
   2   3 -15-120.200 551.937   2
   2  -3  15 161.106 445.025   4
   2   3  15 234.213 474.448   1
   2  -3 -15 359.954 479.833   2
   1   3 -15 32756.4 3119.36   2
   1  -3 -15 31225.1 2758.78   2
   1   3  15 34230.5 3124.61   1
   1  -3  15 32387.7 2927.06   4
   0   3 -15 640.032 492.010   2
   0  -3  15 1632.49 694.864   4
   0   3  15 1306.28 742.671   1
  -1   3 -15 29291.9 2858.59   2
  -1  -3  15 32498.0 2810.00   4
  -1   3  15 31203.4 2945.07   1
  -2  -3  15 643.221 523.868   4
  -2   3 -15-836.617 579.685   2
  -2   3  15 511.512 585.734   6
  -2   3  15 1088.95 663.417   1
  -3  -3  15 16008.1 1940.43   4
  -3   3 -15 11753.5 1806.08   2
  -3   3  15 11456.4 2191.84   6
  -4   3 -15 407.899 567.259   2
  -4   3  15 382.854 586.966   6
  -5   3  15 30453.5 3738.55   6
  -5   3 -15 33609.0 3059.78   2
  -6   3  15 1916.16 1047.85   6
   4  -3  16 5032.42 1316.87   4
   4   3 -16 2980.27 1198.53   2
   4   3  16 5656.74 1463.96   1
   3   3 -16-301.251 518.297   2
   3  -3  16 965.894 691.235   4
   3   3  16 723.579 611.587   1
   3  -3 -16 476.686 478.378   2
   2   3 -16 3797.55 1190.66   2
   2  -3  16 5446.54 1372.46   4
   2  -3 -16 7158.11 1425.43   2
   2   3  16 6580.09 1521.06   1
   1   3 -16 527.871 632.604   2
   1  -3 -16 611.447 504.614   2
   1   3  16-641.434 646.953   1
   0   3 -16 7980.26 1597.65   2
   0  -3  16 8160.46 1508.31   4
   0   3  16 7886.55 1517.11   1
  -1  -3  16 1666.71 760.150   4
  -1   3 -16 1701.18 879.129   2
  -1   3  16 1749.75 757.990   1
  -2  -3  16 7441.70 1397.03   4
  -2   3 -16 6972.41 1475.98   2
  -2   3  16 3830.11 1119.91   1
  -3  -3  16-772.007 554.317   4
  -3   3 -16 20.7799 429.041   2
  -3   3  16 800.855 824.109   6
  -4   3 -16 3707.90 1067.91   2
  -4   3  16 3237.46 1284.99   6
  -5   3 -16 285.921 428.416   2
  -5   3  16 567.458 847.975   6
   4   3  17-1402.45 897.492   1
   3   3 -17 12184.6 2224.89   2
   3   3  17 10332.0 1942.79   1
   3  -3  17 12998.5 2084.42   4
   3  -3 -17 9384.89 1678.80   2
   2   3 -17 954.371 701.588   2
   2  -3  17 604.660 630.933   4
   2  -3 -17-123.183 515.864   2
   2   3  17-782.927 663.552   1
   1   3 -17 20329.2 2683.26   2
   1  -3 -17 21778.1 2515.29   2
   1   3  17 27311.8 2952.21   1
   1  -3  17 25672.6 2823.74   4
   0   3 -17 1824.51 876.618   2
   0  -3  17 309.599 489.601   4
   0   3  17 288.055 511.882   1
   0  -3 -17 84.4359 442.648   2
  -1   3 -17 25879.9 2959.07   2
  -1  -3  17 22011.8 2511.48   4
  -1   3  17 27885.2 2948.32   1
  -2  -3  17 287.704 563.310   4
  -2   3 -17 872.689 621.672   2
  -2   3  17 239.188 386.461   1
  -3  -3  17 12230.2 1813.08   4
  -3   3 -17 10593.7 1837.91   2
  -3   3  17 10438.3 2162.26   6
  -3   3  17 8891.08 1680.92   1
  -4   3 -17 324.176 621.706   2
  -4   3  17 259.928 622.878   6
   3   3  18 574.583 633.056   1
   3  -3 -18 228.265 554.812   2
   2   3  18 119.603 279.304   1
   2  -3 -18 2705.63 1044.29   2
   1   3 -18 514.165 679.404   2
   1  -3  18 1830.89 916.902   4
   1  -3 -18 767.201 685.955   2
   1   3  18-27.3962 458.608   1
   0   3  18 2628.11 1024.39   1
   0   3 -18 3064.70 1298.21   2
   0  -3  18 3895.14 1182.95   4
   0  -3 -18 3796.09 1146.92   2
  -1   3 -18 1677.03 915.891   2
  -1  -3  18 1098.38 661.138   4
  -1   3  18 1794.48 815.398   1
  -2   3  18-393.447 518.187   1
  -2   3 -18 865.893 680.803   2
  -3   3 -18-397.682 648.556   2
  -3   3  18 1115.93 693.300   1
   2   3  19 509.206 613.318   1
   1   3  19 26340.2 3036.52   1
   0   3  19 2419.40 987.013   1
  -1  -3  19 22587.4 2733.17   4
  -1   3  19 22378.5 2777.32   1
  -2  -3  19-619.128 646.605   4
   9   4   0-1102.79 804.568   1
   8   4   0 38191.2 3494.15   1
   8   4   0 35186.5 3288.07   5
   8  -4   0 41811.6 3628.47   5
   7   4   0 265.705 372.171   1
   7   4   0-62.4112 465.795   5
   7  -4   0 188.482 444.908   5
   6   4   0 71390.0 3973.55   5
   6  -4   0 71943.4 3990.29   5
   6   4   0 73541.9 4056.37   1
   5  -4   0 178.570 232.599   4
   5   4   0 791.419 464.752   5
   5   4   0 565.260 423.477   1
   5  -4   0 622.659 450.166   5
   4  -4   0 103547. 3945.56   5
   4   4   0 104569. 3973.06   1
   4  -4   0 106770. 3173.75   4
   3   4   0 323.847 335.404   1
   3  -4   0-261.874 241.679   4
   2  -4   0 120304. 2302.67   2
   2  -4   0 122579. 3544.23   4
   2   4   0 119875. 3654.84   1
   1   4   0 187.272 314.604   1
   1  -4   0 167.074 169.926   2
   0   4   0 196743. 4973.19   6
   0  -4   0 200368. 4646.69   3
  -1  -4   0 220.711 307.179   3
  -1   4   0-94.1147 259.304   6
  -2  -4   0 114695. 4053.01   3
   9   4   1 5200.77 1401.79   1
   9   4  -1 5391.21 1508.05   5
   8   4  -1 303.127 567.021   1
   8   4   1-138.185 509.686   1
   8   4  -1 1242.07 735.566   5
   8   4   1 629.819 629.826   5
   8  -4  -1 1044.56 743.608   5
   8  -4   1 726.639 833.520   5
   7   4  -1 8589.37 1555.29   1
   7   4   1 11234.5 1780.18   1
   7   4  -1 10910.3 1769.16   5
   7   4   1 9300.94 1544.30   5
   7  -4  -1 12180.4 1872.35   5
   7  -4   1 11656.8 1834.00   5
   6   4  -1 836.054 655.144   1
   6   4   1 1224.37 597.090   1
   6   4  -1 673.323 594.358   5
   6   4   1 270.099 594.741   5
   6  -4  -1 688.328 553.057   5
   6  -4   1 594.336 676.772   5
   5   4  -1 10769.7 1394.83   1
   5   4  -1 10285.9 1467.42   5
   5   4   1 11011.0 1409.06   5
   5   4   1 11563.3 1518.67   1
   5  -4  -1 11350.5 1457.17   5
   5  -4   1 11045.6 1513.56   5
   5  -4  -1 9667.39 900.701   4
   5  -4   1 10047.8 1062.67   4
   4  -4   1 5877.53 807.515   4
   4   4  -1 5802.92 957.709   1
   4  -4  -1 5844.41 958.707   5
   4  -4   1 5747.41 991.872   5
   4  -4  -1 6353.72 748.719   4
   4   4   1 5768.03 995.067   1
   3  -4  -1 27686.7 1834.37   5
   3   4  -1 28715.5 1822.54   1
   3   4   1 27413.0 1947.92   1
   3  -4  -1 26280.4 1572.44   4
   3  -4   1 26043.2 1676.49   4
   2  -4  -1 19539.8 959.653   2
   2  -4   1 21116.1 1008.15   2
   2  -4  -1 22681.1 1511.39   4
   2  -4   1 21624.9 1526.25   4
   2   4  -1 22554.9 1496.41   1
   2   4   1 18972.7 1553.50   1
   1  -4  -1 25319.0 1551.78   3
   1  -4  -1 27545.2 1468.40   2
   1  -4   1 27777.1 1451.89   2
   1  -4   1 27850.7 1760.56   4
   1   4  -1 28624.1 1633.95   1
   1   4   1 24358.7 1713.54   1
   0   4   1 52342.6 2725.82   6
   0   4  -1 45724.1 2249.11   6
   0  -4  -1 47111.3 2233.93   3
   0  -4   1 47273.7 2319.77   3
  -1  -4  -1 28522.7 1897.20   3
  -1  -4   1 25827.6 1805.89   3
  -1   4   1 27449.3 2052.87   6
  -2  -4   1 20824.7 1734.07   3
  -2  -4  -1 21645.5 1337.86   5
   9   4   2 1229.63 841.229   1
   9   4  -2 906.777 759.840   5
   8   4  -2 47248.0 3963.48   5
   8   4  -2 35819.1 3272.52   1
   8  -4  -2 39010.9 3564.20   5
   8  -4   2 41746.9 3657.97   5
   8   4   2 37719.8 3567.31   1
   7   4  -2 1418.41 694.659   1
   7   4  -2-771.816 606.914   5
   7   4   2 1043.47 616.217   5
   7  -4  -2-444.124 523.010   5
   7  -4   2 757.468 568.811   5
   7   4   2 882.577 616.998   1
   6   4  -2 84614.3 4559.45   5
   6   4   2 78878.2 3931.00   5
   6  -4  -2 78498.1 4188.61   5
   6   4  -2 80526.0 4077.74   1
   6  -4   2 86908.8 4431.95   5
   6   4   2 83781.4 4491.46   1
   6  -4   2 74867.9 3061.49   4
   5  -4  -2 2904.08 451.173   4
   5  -4   2 2924.45 626.061   4
   5   4   2 3223.25 749.086   5
   5   4   2 2942.24 830.720   1
   5  -4  -2 1890.94 637.469   5
   5   4  -2 2539.86 693.309   1
   5  -4   2 3155.51 835.792   5
   4  -4  -2 128321. 4349.37   5
   4   4  -2 135961. 4238.62   1
   4   4   2 131476. 4732.58   1
   4  -4  -2 132875. 3208.86   4
   4  -4   2 129479. 3849.19   4
   3  -4   2 1393.26 421.902   4
   3   4   2 2812.02 692.332   1
   3  -4  -2 1341.85 477.424   5
   3   4  -2 1464.68 434.149   1
   3  -4  -2 1659.34 418.673   4
   2  -4  -2 153588. 2892.93   2
   2  -4  -2 152429. 3729.90   5
   2  -4   2 147030. 2854.93   2
   2   4  -2 161113. 3701.20   1
   2  -4   2 152838. 4164.05   4
   2   4   2 153475. 4604.09   1
   1  -4  -2 1076.85 354.362   3
   1   4  -2 1354.94 365.466   1
   1   4  -2 1024.81 415.476   2
   1  -4  -2 925.656 314.775   2
   1   4   2 1307.13 477.735   1
   1  -4   2 1472.17 446.223   4
   0   4   2 232987. 6030.61   6
   0   4  -2 234694. 5141.49   2
   0   4  -2 231830. 4659.04   6
   0  -4   2 234476. 5290.81   3
   0  -4  -2 227905. 4881.68   3
  -1   4   2 1064.09 493.169   6
  -1  -4   2 1371.49 474.427   3
  -1   4  -2 1026.92 344.602   2
  -2  -4   2 152739. 3934.78   6
  -2  -4   2 160817. 4793.07   3
  -2   4  -2 156081. 3256.95   2
  -2  -4  -2 160551. 3206.07   5
  -3  -4   2 2475.25 683.381   3
  -3  -4  -2 1721.59 402.934   5
   9   4  -3 710.681 818.549   5
   8   4   3 493.483 559.900   1
   8   4  -3 950.643 855.633   5
   8  -4  -3 939.694 737.270   5
   8  -4   3 694.415 681.262   5
   7   4  -3 5352.91 1162.79   1
   7   4   3 5621.71 1314.80   1
   7   4  -3 4320.27 1189.91   5
   7  -4  -3 4667.05 1145.32   5
   7  -4   3 5852.43 1334.70   5
   6   4  -3 35.3008 398.565   1
   6  -4   3 1077.31 482.441   4
   6   4  -3 1218.84 734.370   5
   6   4   3 1616.94 763.324   1
   6   4   3 653.496 453.960   5
   6  -4  -3 1908.02 853.438   5
   6  -4   3 763.332 645.284   5
   5  -4   3 4866.53 829.845   4
   5   4  -3 4181.52 876.939   1
   5   4   3 3226.93 716.171   5
   5  -4  -3 4250.86 917.730   5
   5  -4   3 5750.35 1108.85   5
   5   4   3 4454.47 1011.35   1
   4   4   3 853.048 512.943   1
   4  -4   3 833.976 421.056   4
   4   4  -3 1026.43 462.361   1
   4  -4  -3 276.374 389.560   5
   4  -4  -3 228.589 205.412   4
   3  -4   3 5924.17 877.202   4
   3   4   3 6870.25 1116.51   1
   3  -4  -3 5261.85 394.322   2
   3   4  -3 6615.76 805.785   1
   3  -4  -3 6406.67 889.897   5
   3  -4  -3 6024.97 373.186   2
   3   4  -3 6373.53 1152.83   2
   3  -4  -3 6446.22 750.403   4
   2  -4  -3 10640.7 999.941   5
   2   4  -3 11459.1 1403.48   2
   2   4  -3 11458.2 913.483   1
   2  -4   3 11560.3 881.976   2
   2  -4   3 9885.27 1120.49   4
   2   4   3 11324.7 1324.09   1
   1  -4  -3 2343.74 479.378   3
   1  -4  -3 3393.75 498.487   5
   1   4  -3 2498.52 656.679   2
   1   4   3 3142.68 686.284   1
   1   4  -3 2991.58 459.216   1
   1  -4   3 4355.18 765.662   4
   0   4  -3 8464.83 1049.94   2
   0  -4   3 8889.82 1077.31   4
   0   4   3 11752.3 1457.46   6
   0   4  -3 8590.90 821.408   6
   0  -4  -3 11045.1 1100.63   3
  -1  -4   3 3130.56 689.532   3
  -1   4   3 2814.55 753.459   6
  -1   4  -3 2502.87 523.578   2
  -1  -4  -3 3416.61 390.620   5
  -2  -4   3 11029.3 1306.09   3
  -2  -4   3 10739.0 944.890   6
  -2  -4  -3 10933.5 683.590   5
  -2   4  -3 11097.9 952.200   2
  -3   4   3 5774.06 668.343   3
  -3  -4   3 6973.62 1094.04   3
  -3  -4  -3 6162.21 596.195   5
  -3   4  -3 7136.10 650.502   2
  -4  -4   3 356.748 460.249   3
  -4   4  -3 347.836 140.945   2
  -5  -4   3 3375.08 894.241   3
   9   4  -4 840.210 744.302   5
   8   4  -4 47309.0 4139.37   5
   8  -4  -4 47350.1 3968.69   5
   8  -4   4 44224.3 3819.06   5
   8   4   4 41892.5 3901.18   1
   7   4   4 1875.85 739.081   1
   7   4  -4 1990.32 904.504   5
   7  -4  -4 1807.59 729.347   5
   7  -4   4 1044.04 752.127   5
   6   4   4 80131.4 4572.57   1
   6   4   4 79041.1 3653.51   5
   6   4  -4 86035.1 4047.64   1
   6  -4  -4 81979.7 4373.92   5
   6  -4   4 80851.6 4367.71   5
   6  -4   4 79767.5 3521.99   4
   5   4  -4 6003.08 966.366   1
   5  -4   4 4611.90 855.693   4
   5   4   4 4736.12 834.721   5
   5  -4  -4 4405.61 993.959   5
   5   4   4 5264.49 1110.03   1
   4  -4  -4 118971. 4324.51   5
   4   4  -4 127032. 3813.40   1
   4   4  -4 126081. 5265.50   2
   4   4   4 126504. 4949.56   1
   4  -4  -4 127248. 2874.93   4
   4  -4   4 123740. 4129.93   4
   3  -4   4 5705.09 898.101   4
   3   4   4 7868.93 1229.63   1
   3   4  -4 6882.37 768.252   1
   3  -4  -4 6182.43 908.372   5
   3  -4  -4 6606.45 526.225   2
   3   4  -4 5934.10 1148.40   2
   2  -4  -4 153439. 3813.56   5
   2   4  -4 161034. 5244.24   2
   2   4  -4 159059. 3011.09   1
   2  -4   4 156217. 4485.48   4
   2   4   4 156257. 5043.37   1
   1  -4  -4 3143.36 516.845   3
   1  -4  -4 3574.35 508.483   5
   1   4  -4 3132.74 418.430   1
   1   4   4 2846.27 708.774   1
   1   4  -4 3141.78 736.138   2
   1  -4   4 3701.06 729.299   4
   0  -4  -4 203800. 4647.43   3
   0   4   4 211224. 6333.31   6
   0   4  -4 207456. 3463.99   6
   0  -4  -4 209521. 2783.91   5
   0   4  -4 204563. 5089.75   2
   0  -4   4 209208. 5214.41   4
  -1   4   4 3646.04 897.487   6
  -1  -4   4 2341.23 621.543   3
  -1   4  -4 3316.89 605.827   2
  -1  -4   4 2547.48 615.653   4
  -2  -4   4 150167. 2979.69   6
  -2  -4   4 156997. 4792.35   3
  -2   4   4 143653. 5537.74   6
  -2   4  -4 153961. 3751.36   2
  -2  -4   4 155095. 4658.33   4
  -3  -4   4 7520.31 1130.15   3
  -3  -4  -4 6607.61 523.396   5
  -3   4  -4 6844.53 728.439   2
  -4  -4   4 117278. 4646.47   3
  -4   4  -4 119413. 2663.31   2
  -5  -4   4 4647.89 1027.58   3
  -6  -4   4 78747.8 4304.13   3
  -7  -4   4 88.5554 339.919   3
  -8  -4   4 44762.6 3668.20   3
  -9  -4   4-2225.90 849.932   3
   8   4   5 1984.79 962.728   1
   8  -4  -5 266.634 598.718   5
   8  -4   5 951.922 788.972   5
   7   4   5 4401.66 1250.01   1
   7  -4  -5 4442.48 1230.98   5
   7  -4   5 4434.87 1167.22   5
   6  -4   5 553.894 428.218   4
   6   4   5 1797.91 786.687   1
   6  -4  -5 1675.69 865.194   5
   6  -4   5 1634.74 856.727   5
   5  -4   5 5288.91 981.110   4
   5  -4  -5 5774.69 1128.98   5
   5   4   5 6793.47 1263.86   1
   4   4  -5 590.111 319.777   1
   4  -4   5 437.428 453.119   4
   4   4   5 528.659 461.329   1
   4  -4  -5 336.660 380.028   5
   4   4  -5-373.775 522.075   2
   4  -4  -5 228.783 198.466   4
   3  -4   5 8376.55 1120.18   4
   3   4  -5 6495.71 698.238   1
   3   4   5 7488.06 1236.15   1
   3  -4  -5 7796.23 1039.01   5
   3  -4  -5 7429.15 669.213   2
   3   4  -5 8441.47 1383.88   2
   2  -4   5 152.094 317.810   4
   2   4   5 1173.05 570.214   1
   2   4  -5 386.501 150.764   1
   2  -4  -5 506.410 303.287   5
   2   4  -5 349.921 363.932   2
   1  -4  -5 8572.39 846.014   3
   1  -4  -5 8329.81 747.410   5
   1   4   5 6496.65 1074.89   1
   1   4  -5 8305.49 489.699   1
   1   4  -5 9455.17 1228.93   2
   1  -4   5 8351.69 1099.91   4
   0   4  -5 2100.35 290.106   6
   0   4   5 2015.58 739.426   6
   0  -4  -5 2344.44 289.081   5
   0   4  -5 1835.73 578.347   2
   0  -4   5 2738.05 668.198   4
  -1   4   5 7475.88 1297.69   6
  -1   4  -5 8057.34 795.955   1
  -1   4  -5 7562.33 952.588   2
  -1  -4   5 8283.82 1111.34   4
  -2   4   5 972.713 668.228   6
  -2  -4   5 60.1046 287.329   3
  -2  -4   5 338.848 299.749   4
  -2   4  -5 600.948 369.520   2
  -3  -4   5 7134.28 1127.79   3
  -3   4  -5 7072.50 811.609   2
  -3  -4   5 6705.54 1040.76   4
  -4   4  -5 348.172 246.938   2
  -4  -4   5 615.820 483.630   3
  -4  -4   5 321.760 442.042   4
  -5  -4   5 4959.00 1071.58   3
  -6  -4   5 2000.13 770.515   3
  -7  -4   5 4044.89 1110.91   3
  -8  -4   5 329.134 512.452   3
  -9  -4   5 4500.14 1249.71   3
   8  -4  -6 33725.9 3436.46   5
   8  -4   6 35331.1 3462.86   5
   8   4   6 33173.9 3563.64   1
   7   4   6 1752.50 858.339   1
   7  -4  -6 2154.35 959.049   5
   7  -4   6 3321.96 1038.52   5
   6  -4  -6 63308.6 4027.03   5
   6  -4   6 61641.8 3966.67   5
   6   4   6 59469.9 4123.28   1
   6  -4   6 62532.0 3449.13   4
   5  -4   6 5439.70 1023.51   4
   5  -4  -6 3889.55 958.379   5
   5   4  -6 4055.89 1103.52   2
   5   4   6 4154.69 1076.66   1
   4  -4  -6 104670. 4250.65   5
   4   4  -6 98997.7 4852.27   2
   4   4   6 105910. 4837.97   1
   4  -4  -6 97890.7 2425.30   4
   4  -4   6 88475.8 3816.51   4
   3  -4  -6 17935.1 1595.78   5
   3   4  -6 18626.3 2008.08   2
   3  -4  -6 18041.9 1158.54   2
   3   4   6 18593.0 1979.44   1
   3  -4   6 17603.5 1667.25   4
   2  -4  -6 133563. 3701.67   5
   2   4  -6 136557. 5016.90   2
   2  -4   6 136153. 4491.78   4
   2   4   6 142527. 5173.30   1
   1  -4   6-150.253 277.521   4
   1  -4  -6 837.588 299.797   3
   1   4   6 363.203 445.256   1
   1  -4  -6 205.440 204.163   5
   1   4  -6 198.585 303.396   2
   0  -4  -6 140710. 1947.15   5
   0   4  -6 161014. 4836.78   2
   0  -4   6 165029. 4928.90   4
   0   4   6 157548. 5939.77   6
  -1   4  -6 160.650 164.673   1
  -1   4   6 352.149 569.755   6
  -1  -4   6 51.6465 292.542   4
  -1   4  -6 908.337 407.525   2
  -2   4   6 135797. 5758.32   6
  -2  -4   6 139948. 4706.00   3
  -2   4  -6 144084. 4075.71   2
  -2  -4   6 137704. 4574.16   4
  -3  -4   6 19336.5 1814.32   3
  -3   4  -6 17315.0 1355.49   2
  -3  -4   6 18256.7 1701.73   4
  -4  -4   6 100291. 4278.87   3
  -4   4  -6 96921.1 3037.18   2
  -4  -4   6 102383. 4057.60   4
  -5  -4   6 4470.79 994.405   3
  -5  -4   6 4543.15 903.723   4
  -6  -4   6 64269.6 3855.12   3
  -6  -4   6 65393.8 3425.19   4
  -7  -4   6 2704.39 849.862   3
  -8  -4   6 32121.2 3049.32   3
   8  -4  -7 608.555 707.854   5
   8  -4   7 104.354 582.331   5
   8   4   7 2253.10 1080.43   1
   7  -4   7 5170.67 1100.46   4
   7   4   7 11224.7 1990.34   1
   7  -4  -7 8343.22 1669.75   5
   7  -4   7 10490.9 1800.67   5
   6  -4   7 814.250 512.162   4
   6  -4  -7 841.905 567.849   5
   6   4   7 970.471 662.269   1
   6   4  -7-185.258 532.517   2
   5  -4  -7 15513.5 1894.48   5
   5   4  -7 13697.2 1990.60   2
   5  -4   7 13925.3 1656.64   4
   5   4   7 14315.1 1965.41   1
   4  -4   7 988.412 554.734   4
   4   4   7 883.062 570.236   1
   4  -4  -7 717.401 571.398   5
   4   4  -7 585.592 530.818   2
   3  -4  -7 18288.9 1644.76   5
   3   4  -7 17335.6 1963.93   2
   3  -4  -7 16109.3 1223.30   2
   3   4   7 17649.1 1981.14   1
   3  -4   7 15384.8 1629.98   4
   2  -4   7 1250.61 583.647   4
   2   4   7 1147.74 639.205   1
   2  -4  -7 989.769 404.079   5
   2   4  -7 1404.87 661.475   2
   1  -4  -7 21578.3 1338.46   3
   1  -4  -7 22374.4 1288.90   5
   1   4  -7 20924.6 1929.08   2
   1  -4   7 22291.8 1869.07   4
   1   4   7 19262.5 1959.92   1
   0  -4   7 398.622 440.002   4
   0   4   7 253.179 498.091   6
   0   4  -7 549.987 399.385   2
  -1   4  -7 23934.9 1859.63   2
  -1   4  -7 20000.9 1083.98   1
  -1  -4   7 22504.6 1897.31   4
  -1   4   7 23205.1 2429.99   6
  -2   4  -7 1187.90 456.349   2
  -2   4   7 337.212 492.215   6
  -2  -4   7 997.729 557.393   4
  -3  -4   7 18698.9 1880.42   3
  -3   4   7 16583.1 2186.59   6
  -3   4  -7 19376.7 1539.76   2
  -3  -4   7 18760.5 1773.86   4
  -4  -4   7 633.104 438.725   3
  -4   4  -7 1105.13 410.264   2
  -4  -4   7 184.586 354.071   4
  -5  -4   7 13376.4 1688.14   3
  -5  -4   7 18106.7 1796.72   4
  -6  -4   7 726.802 515.867   3
  -6  -4   7 727.962 435.147   4
  -7  -4   7 9952.37 1630.15   3
  -8  -4   7 176.500 445.360   3
   8  -4  -8 28423.9 3220.52   5
   7  -4   8 944.866 635.645   4
   7   4   8 1198.31 828.306   1
   7  -4  -8 1467.74 845.150   5
   7  -4   8 85.4721 589.306   5
   6  -4  -8 37858.5 3242.67   5
   6   4  -8 40820.1 3687.67   2
   6   4   8 35887.7 3377.04   1
   6  -4   8 37142.8 2893.11   4
   5  -4   8 11550.7 1582.38   4
   5  -4  -8 9977.23 1595.19   5
   5   4  -8 8715.58 1646.65   2
   5   4   8 11754.1 1808.24   1
   4  -4  -8 48009.8 3025.06   5
   4   4  -8 54073.8 3761.11   2
   4   4   8 48284.0 3482.51   1
   4  -4   8 47910.6 3045.33   4
   3  -4   8 3353.11 812.279   4
   3  -4  -8 2807.70 594.412   2
   3   4   8 4805.25 1117.76   1
   3  -4  -8 4193.30 855.980   5
   3   4  -8 3771.52 1008.97   2
   2  -4  -8 63606.3 2745.69   5
   2  -4  -8 54926.5 1511.99   3
   2   4  -8 63538.4 3668.39   2
   2  -4   8 57163.0 3132.47   4
   2   4   8 63282.4 3700.59   1
   1  -4   8 8616.35 1221.56   4
   1   4   8 6294.58 1179.81   1
   1  -4  -8 6748.13 763.159   5
   1   4  -8 5651.50 1060.72   2
   0   4   8 64100.8 4067.96   6
   0   4  -8 65725.4 3359.54   2
   0  -4   8 59113.9 3126.68   4
  -1  -4   8 7020.46 1134.43   4
  -1   4  -8 6547.46 1035.35   2
  -1   4   8 7791.65 1478.57   6
  -2   4   8 63533.3 4222.76   6
  -2   4  -8 60035.6 2958.11   2
  -2  -4   8 62533.9 3257.12   4
  -3   4  -8 3713.23 741.269   2
  -3   4   8 5445.22 1387.38   6
  -3  -4   8 4329.43 953.655   3
  -3  -4   8 2388.21 716.602   4
  -4  -4   8 53074.2 3195.15   3
  -4   4  -8 48316.1 2523.18   2
  -4  -4   8 48834.3 2924.22   4
  -5  -4   8 8959.46 1386.57   3
  -5  -4   8 8914.80 1285.54   4
  -6  -4   8 42668.9 3102.12   3
  -6  -4   8 34402.8 2548.00   4
  -7  -4   8 1702.75 714.461   3
   8  -4  -9 606.622 690.678   5
   7  -4   9 4569.77 1137.05   4
   7   4   9 3865.28 1279.27   1
   7  -4  -9 2676.85 1029.59   5
   7  -4   9 1947.67 927.301   5
   6  -4   9 721.320 495.127   4
   6  -4  -9 837.192 680.250   5
   6   4   9 2002.12 842.017   1
   6   4  -9 1458.14 821.908   2
   5  -4   9 6953.47 1309.24   4
   5  -4  -9 5441.01 1173.73   5
   5   4  -9 6988.49 1506.67   2
   5   4   9 6547.82 1489.76   1
   4  -4   9 788.684 554.225   4
   4   4   9 1250.65 711.883   1
   4  -4  -9 963.264 647.815   5
   4   4  -9 378.346 517.953   2
   3  -4   9 5185.28 1041.75   4
   3  -4  -9 3626.47 714.951   2
   3   4   9 5264.65 1208.97   1
   3  -4  -9 2687.43 749.103   5
   3   4  -9 4821.28 1168.69   2
   2   4   9 439.622 508.056   1
   2  -4   9-9.43875 408.483   4
   2  -4  -9 528.717 417.253   5
   2   4  -9 19.4031 367.717   2
   1  -4   9 9051.30 1308.67   4
   1   4   9 11007.0 1570.03   1
   1   4  -9 10463.4 1488.12   2
   0   4  -9 73.0821 317.783   2
   0  -4   9 197.266 338.438   4
   0   4   9-254.638 506.845   6
   0   4   9 779.751 523.042   1
  -1  -4   9 7482.89 1181.63   4
  -1   4  -9 9860.31 1328.19   2
  -1   4   9 6828.30 1499.95   6
  -2  -4   9 133.204 412.379   4
  -2   4  -9 1021.14 443.514   2
  -2   4   9 791.177 631.914   6
  -3  -4   9 4895.75 987.467   4
  -3   4  -9 5427.23 953.768   2
  -3   4   9 3146.08 1168.00   6
  -4   4  -9 1091.01 485.926   2
  -4   4   9 223.265 590.402   6
  -4  -4   9 512.512 392.943   3
  -4  -4   9 91.7479 334.548   4
  -5  -4   9 5937.98 1154.45   3
  -5  -4   9 6168.16 1115.00   4
  -6  -4   9 960.071 542.638   3
  -7  -4   9 2224.05 826.006   3
   7  -4  10 1505.51 699.681   4
   7  -4 -10 1196.32 839.942   5
   7   4  10-444.492 559.022   1
   7  -4  10 1795.40 882.108   5
   7   4 -10 2371.95 1084.22   2
   6  -4 -10 46682.5 3802.21   5
   6   4 -10 42483.5 3917.95   2
   6   4  10 43959.3 3921.23   1
   6  -4  10 44725.1 3402.66   4
   5  -4  10 3576.28 1018.09   4
   5  -4 -10 3233.43 956.343   5
   5   4 -10 3447.87 1160.57   2
   5   4  10 5098.20 1295.21   1
   4  -4 -10 78025.9 4076.32   5
   4   4 -10 77287.0 4740.60   2
   4   4  10 73157.5 4542.81   1
   4  -4  10 75145.8 4131.60   4
   3  -4 -10 4881.49 870.475   2
   3  -4  10 4105.28 998.505   4
   3   4  10 4817.92 1177.57   1
   3  -4 -10 5147.76 1001.05   5
   3   4 -10 5169.98 1269.96   2
   2  -4 -10 102497. 3799.13   5
   2   4 -10 103622. 4982.61   2
   2  -4  10 101993. 4527.78   4
   2   4  10 90490.8 4689.83   1
   1  -4  10 1444.34 565.366   4
   1   4  10 896.330 422.375   1
   1   4 -10 685.000 531.456   2
   0   4 -10 97074.4 4423.44   2
   0  -4  10 100405. 4352.39   4
   0   4  10 101454. 4814.93   1
  -1  -4  10 583.155 423.538   4
  -1   4 -10 864.800 488.835   2
  -1   4  10 1060.42 635.228   6
  -2   4  10 107598. 5832.39   6
  -2   4 -10 98068.0 4178.48   2
  -2  -4  10 102382. 4363.60   4
  -3  -4  10 4921.53 1004.32   4
  -3   4 -10 5474.68 1016.18   2
  -3   4  10 2939.57 1134.72   6
  -4   4  10 73014.0 5150.67   6
  -4   4 -10 71100.4 3484.31   2
  -4  -4  10 74813.7 3765.12   4
  -5  -4  10 5274.34 1040.95   4
  -5   4  10 3631.78 1323.38   6
  -6  -4  10 43949.8 3202.20   3
   7  -4  11 1767.82 847.556   4
   7  -4 -11 1555.04 892.185   5
   7   4 -11 2354.57 1080.58   2
   6  -4  11 1384.14 707.417   4
   6  -4 -11 727.577 666.105   5
   6   4  11 109.655 599.095   1
   6   4 -11-266.202 613.815   2
   5  -4  11 2991.14 939.970   4
   5  -4 -11 5468.95 1292.27   5
   5   4 -11 3842.47 1295.22   2
   5   4  11 4590.76 1326.98   1
   4  -4  11 377.018 529.249   4
   4   4  11 727.351 639.103   1
   4  -4 -11 1556.93 687.934   5
   4   4 -11 640.598 634.297   2
   3  -4  11 2842.87 925.950   4
   3  -4 -11 3174.74 757.962   2
   3   4  11 3250.55 984.888   1
   3  -4 -11 3583.68 901.345   5
   3   4 -11 2655.75 879.848   2
   2  -4  11 644.792 592.721   4
   2   4  11 1363.90 690.704   1
   2   4 -11 212.243 535.261   2
   1   4 -11 4200.14 1054.05   2
   1  -4  11 5043.28 1080.42   4
   1   4  11 5910.64 1253.69   1
   0   4  11 3897.18 1037.17   1
   0   4 -11 3685.69 952.510   2
   0  -4  11 4386.74 991.205   4
  -1  -4  11 5395.52 1083.40   4
  -1   4 -11 3481.70 912.124   2
  -1   4  11 2223.95 1027.19   6
  -2  -4  11-91.0763 320.850   4
  -2   4 -11 681.396 524.833   2
  -2   4  11 174.773 557.075   6
  -3  -4  11 2025.30 676.104   4
  -3   4 -11 2274.39 666.697   2
  -3   4  11 1650.78 785.710   6
  -4  -4  11 319.804 426.058   4
  -4   4 -11-351.265 444.604   2
  -5  -4  11 5220.68 1085.76   4
  -5   4  11 5636.09 1626.54   6
  -6   4  11 1428.37 994.888   6
   7  -4  12 3162.25 1013.44   4
   7  -4 -12 638.713 745.825   5
   6  -4 -12 26663.1 2991.86   5
   6   4  12 28430.3 3313.31   1
   6   4 -12 26299.2 3245.51   2
   6  -4  12 29270.4 2994.29   4
   5  -4  12 488.100 577.117   4
   5  -4 -12-85.1068 480.821   5
   5   4 -12 200.972 541.761   2
   5   4  12-994.999 827.111   1
   4  -4 -12 37973.6 3050.56   5
   4   4 -12 34312.4 3388.98   2
   4   4  12 40956.4 3596.99   1
   4  -4  12 39604.8 3238.71   4
   3  -4  12 2452.77 905.670   4
   3  -4 -12 5542.17 1032.33   2
   3   4  12 4196.33 1202.47   1
   3   4 -12 5780.12 1317.01   2
   2   4 -12 44735.4 3541.71   2
   2   4  12 49830.9 3716.74   1
   2  -4  12 54230.1 3553.14   4
   1   4 -12 445.279 578.416   2
   1  -4  12 1109.48 597.851   4
   1   4  12 191.153 457.470   1
   0   4 -12 47398.9 3386.31   2
   0  -4  12 47598.1 3240.60   4
   0   4  12 47673.3 3539.98   1
  -1  -4  12 913.782 516.449   4
  -1   4 -12 421.063 448.261   2
  -1   4  12 162.812 563.639   6
  -2   4  12 46828.5 4098.88   6
  -2   4 -12 54506.2 3431.72   2
  -2  -4  12 51064.7 3290.84   4
  -3  -4  12 3813.09 919.774   4
  -3   4 -12 4374.17 986.466   2
  -3   4  12 5749.99 1506.28   6
  -4   4  12 40069.0 4018.44   6
  -4   4 -12 37444.0 2816.24   2
  -4  -4  12 41436.1 2938.93   4
  -5  -4  12 252.033 328.108   4
  -5   4  12 943.949 808.288   6
  -6   4  12 24498.4 3448.16   6
   6  -4  13-103.976 430.425   4
   5  -4  13 7046.18 1504.12   4
   5   4 -13 8850.05 1930.48   2
   5   4  13 9630.31 1872.22   1
   4   4  13 133.777 623.566   1
   4  -4  13-174.047 509.534   4
   4   4 -13 1015.44 779.764   2
   3  -4  13 4894.38 1207.45   4
   3  -4 -13 6808.50 1234.37   2
   3   4  13 7139.97 1559.08   1
   3   4 -13 4912.53 1354.90   2
   2  -4  13 19.1731 394.724   4
   2  -4 -13-223.405 380.133   2
   2   4  13 183.337 489.524   1
   2   4 -13-656.319 655.023   2
   1   4 -13 6866.52 1423.17   2
   1  -4  13 7126.33 1347.37   4
   1   4  13 7026.49 1462.29   1
   0   4 -13 799.537 588.823   2
   0  -4  13 350.847 417.161   4
   0   4  13 1766.48 845.201   1
  -1  -4  13 7714.19 1354.86   4
  -1   4 -13 10105.0 1588.11   2
  -1   4  13 9169.62 1649.11   1
  -1   4  13 7320.52 1700.54   6
  -2  -4  13 25.3472 356.877   4
  -2   4 -13 228.050 356.269   2
  -2   4  13 766.059 709.458   6
  -3  -4  13 3882.43 1026.32   4
  -3   4 -13 4127.88 1033.50   2
  -3   4  13 3502.36 1164.30   6
  -4  -4  13 566.296 464.184   4
  -4   4 -13-251.564 430.521   2
  -4   4  13 894.563 723.778   6
  -5   4  13 5092.28 1549.98   6
  -6   4  13 1830.27 1066.66   6
   5  -4  14-1456.49 860.717   4
   5   4 -14-173.820 659.150   2
   4   4 -14 26453.0 3180.79   2
   4   4  14 28230.0 3149.31   1
   4  -4  14 29366.5 2978.70   4
   3  -4  14 300.284 743.490   4
   3  -4 -14 273.860 402.188   2
   3   4  14-904.049 708.090   1
   3   4 -14-40.2660 501.210   2
   2   4 -14 39985.9 3582.16   2
   2  -4 -14 33383.3 2758.98   2
   2   4  14 28629.2 3009.25   1
   2  -4  14 34777.1 3084.95   4
   1   4 -14 784.957 787.335   2
   1  -4  14 1443.00 668.846   4
   1   4  14 219.276 508.017   1
   0   4 -14 35282.2 3170.13   2
   0  -4  14 33735.9 2924.80   4
   0   4  14 34414.6 3183.21   1
  -1   4 -14 1558.95 731.331   2
  -1  -4  14 329.295 460.688   4
  -1   4  14 393.811 660.515   1
  -2   4  14 30852.7 3526.29   6
  -2   4 -14 34324.2 2996.29   2
  -2  -4  14 35751.7 2993.79   4
  -3  -4  14 708.821 518.267   4
  -3   4 -14 450.318 492.292   2
  -3   4  14 59.9707 578.648   6
  -4   4  14 25780.1 3432.40   6
  -4   4 -14 24923.2 2528.26   2
  -4  -4  14 30896.1 2708.88   4
  -5   4  14 1522.48 1014.72   6
   4   4  15 1206.86 827.941   1
   4  -4  15 49.0891 374.069   4
   4   4 -15 1640.23 985.212   2
   3  -4  15 2628.45 974.758   4
   3  -4 -15 2297.53 799.691   2
   3   4  15 1488.18 870.065   1
   3   4 -15 3727.11 1191.28   2
   2  -4  15 2158.32 902.453   4
   2  -4 -15-655.590 509.910   2
   2   4  15 1284.82 726.252   1
   2   4 -15 942.320 696.161   2
   1   4 -15 3147.10 1060.17   2
   1   4  15 2179.75 983.791   1
   1  -4  15 4936.94 1218.29   4
   0   4 -15 734.534 648.519   2
   0  -4  15 2030.91 771.017   4
   0   4  15 358.682 592.823   1
  -1   4 -15 4243.93 1148.92   2
  -1  -4  15 2994.11 955.885   4
  -1   4  15 3298.26 1054.12   1
  -2  -4  15 171.328 460.831   4
  -2   4 -15 141.795 301.486   2
  -2   4  15-457.410 607.213   1
  -2   4  15-110.393 606.814   6
  -3  -4  15 4529.09 1101.71   4
  -3   4 -15 1970.85 878.989   2
  -3   4  15 3773.06 1393.73   6
  -4  -4  15 827.629 601.200   4
  -4   4 -15-660.190 610.393   2
  -4   4  15 195.996 506.110   6
   3  -4  16-613.581 681.217   4
   3   4  16-169.096 481.452   1
   3   4 -16-1150.51 804.277   2
   2   4  16 21163.2 2726.66   1
   2  -4 -16 22836.9 2502.61   2
   2  -4  16 25770.8 2797.27   4
   2   4 -16 23884.8 2996.49   2
   1   4 -16 565.160 639.048   2
   1  -4  16 1332.14 764.749   4
   1  -4 -16 343.967 513.279   2
   1   4  16-358.651 587.537   1
   0   4 -16 15515.5 2346.91   2
   0  -4  16 19259.6 2424.10   4
   0   4  16 22436.2 2782.83   1
  -1   4 -16 620.070 635.362   2
  -1  -4  16-919.899 637.642   4
  -1   4  16 583.650 546.794   1
  -2   4 -16 20644.6 2565.03   2
  -2   4  16 19757.3 2598.93   1
  -2  -4  16 20284.0 2412.54   4
  -3   4 -16 691.678 630.089   2
  -3   4  16 292.179 543.326   6
  -4   4 -16 14472.8 2093.68   2
  -4   4  16 18104.4 3132.34   6
   2  -4 -17 187.226 305.901   2
   2   4  17-57.8257 514.647   1
   1   4 -17 6624.21 1672.06   2
   1  -4 -17 7323.92 1526.64   2
   1  -4  17 8123.71 1679.76   4
   1   4  17 6634.09 1581.32   1
   0   4 -17-470.714 700.826   2
   0  -4  17 1422.98 781.835   4
   0   4  17 901.167 718.985   1
  -1   4 -17 5521.60 1385.23   2
  -1  -4  17 7935.71 1568.45   4
  -1   4  17 5867.99 1429.51   1
  -2   4 -17 321.595 601.971   2
  -2  -4  17 524.646 530.340   4
  -2   4  17 719.002 615.780   1
  -3  -4  17 4884.89 1237.57   4
  -3   4 -17 4187.38 1230.71   2
  -3   4  17 2456.21 1169.27   6
  -3   4  17 3853.56 1294.03   1
  -4   4 -17 43.3446 452.971   2
   2  -4 -18 17748.3 2422.99   2
   1  -4 -18 807.330 637.768   2
   1   4  18 1200.28 803.524   1
   0   4  18 21435.3 2839.80   1
  -1  -4  18-959.747 666.441   4
  -1   4  18 366.070 581.573   1
  -2  -4  18 23361.5 2735.74   4
  -2   4  18 19960.8 2748.80   1
   9   5   0 1261.74 772.173   1
   8   5   0 6909.44 1530.80   1
   8  -5   0 5284.48 1494.62   5
   7   5   0-272.535 475.013   1
   7  -5   0 1737.64 901.559   5
   6   5   0 19383.1 2175.82   1
   6  -5   0 13021.1 1809.03   5
   5  -5   0 750.930 416.927   4
   5   5   0 330.678 596.056   1
   5  -5   0 374.247 557.693   5
   4  -5   0 11683.9 1444.98   5
   4   5   0 11641.1 1427.45   1
   4  -5   0 14111.8 1338.05   4
   3   5   0 127.786 347.786   1
   3  -5   0-254.465 294.663   4
   2  -5   0 27866.2 1362.77   2
   2  -5   0 27035.1 1897.79   4
   2   5   0 28814.8 2007.23   1
   1   5   0 309.510 351.296   1
   0   5   0 17832.6 1696.63   6
   0  -5   0 19081.1 1639.33   3
  -1   5   0 607.787 470.539   6
  -1  -5   0 300.847 367.699   3
  -2  -5   0 31728.0 2363.18   3
  -3  -5   0 425.167 454.997   3
   8   5  -1 999.341 753.991   1
   8   5   1 1168.26 715.088   1
   8  -5  -1 233.065 560.344   5
   8  -5   1-606.124 736.193   5
   7  -5  -1 30980.8 2989.00   5
   7  -5   1 31606.9 3051.41   5
   7   5  -1 27463.3 2768.96   1
   7   5   1 26028.3 2758.90   1
   6   5  -1-298.685 410.696   1
   6   5   1 809.493 604.906   1
   6  -5  -1-232.408 413.057   5
   6  -5   1-3.79322 433.576   5
   5  -5  -1 136890. 5253.47   5
   5  -5   1 138554. 5385.15   5
   5   5  -1 139370. 5139.39   1
   5   5   1 128515. 5200.48   1
   5  -5   1 134334. 4179.69   4
   4  -5  -1 444.583 301.035   4
   4  -5   1 354.131 304.351   4
   4  -5  -1 564.793 420.055   5
   4  -5   1 759.779 447.988   5
   4   5  -1 290.925 327.071   1
   4   5   1 362.284 399.744   1
   3  -5  -1 46228.1 2547.84   5
   3   5  -1 49604.5 2600.28   1
   3   5   1 46029.8 2736.10   1
   3  -5  -1 45223.3 2361.51   4
   3  -5   1 51460.7 2649.46   4
   2   5   1 3057.94 729.156   1
   2  -5   1 2615.51 435.650   2
   2   5  -1 3213.93 664.359   1
   2  -5  -1 2331.86 582.510   4
   2  -5   1 2492.20 631.573   4
   2  -5  -1 2477.56 421.090   2
   1  -5   1 178201. 5036.84   4
   1   5  -1 181319. 4686.54   1
   1   5   1 175800. 5099.14   1
   0   5  -1 3325.04 723.206   6
   0   5   1 3818.33 869.395   6
   0  -5  -1 4828.06 824.410   3
   0  -5   1 3508.65 735.144   3
  -1  -5  -1 181355. 5272.30   3
  -1   5   1 168573. 5630.66   6
  -1   5  -1 175644. 5285.67   6
  -1  -5   1 172296. 5169.03   3
  -2  -5  -1 2084.46 659.931   3
  -2  -5   1 1887.79 594.352   3
  -3  -5   1 47088.2 3044.57   3
  -4  -5   1 492.591 488.290   3
   8   5   2 5096.84 1387.34   1
   8  -5  -2 3120.65 1138.64   5
   8  -5   2 6147.47 1508.82   5
   7   5  -2 901.013 604.672   1
   7   5   2-147.824 496.083   1
   7  -5  -2 472.935 644.867   5
   7  -5   2 563.708 656.644   5
   6   5  -2 8336.07 1397.22   1
   6   5   2 8680.59 1539.38   1
   6  -5  -2 9885.89 1577.66   5
   6  -5   2 7939.22 1461.38   5
   5  -5   2 1463.00 487.006   4
   5   5  -2 2267.44 693.475   1
   5  -5  -2 2295.49 803.110   5
   5  -5   2 2664.01 922.526   5
   5   5   2 1726.73 711.602   1
   4  -5   2 6483.48 967.453   4
   4   5   2 7959.42 1266.86   1
   4   5  -2 6931.79 1032.52   1
   4  -5  -2 7247.14 1141.87   5
   4  -5  -2 5518.12 814.944   4
   3  -5   2 1594.96 530.268   4
   3   5   2 2103.72 693.828   1
   3  -5  -2 1717.90 594.881   5
   3  -5  -2 1271.63 494.520   4
   3   5  -2 1387.28 447.150   1
   2  -5  -2 18210.8 1417.87   5
   2  -5  -2 14138.9 1029.77   2
   2  -5   2 16677.8 1560.26   4
   2   5  -2 17448.3 1391.47   1
   2   5   2 15967.5 1642.15   1
   1  -5  -2 4920.84 810.411   3
   1   5   2 3140.80 760.928   1
   1   5  -2 5007.23 750.791   1
   1  -5   2 2665.05 669.956   4
   0   5  -2 11819.0 1230.91   6
   0  -5  -2 10494.0 1212.14   3
   0   5   2 9105.09 1358.83   6
   0  -5   2 13603.8 1450.89   3
   0  -5   2 12127.3 1373.77   4
  -1   5   2 3271.76 905.745   6
  -1   5  -2 2814.89 684.192   6
  -1  -5  -2 3079.20 760.564   3
  -1  -5   2 3948.80 829.130   3
  -2  -5   2 16795.3 1713.48   3
  -2   5   2 15229.3 1867.59   6
  -2  -5  -2 16353.1 1164.84   5
  -3  -5   2 2398.40 770.364   3
  -4  -5   2 6419.24 1238.67   3
  -5  -5   2 2758.13 959.733   3
  -6  -5   2 8867.25 1599.37   3
  -7  -5   2-255.560 467.930   3
  -8  -5   2 2298.04 956.366   3
   8   5   3 516.553 581.670   1
   8  -5  -3-826.305 678.477   5
   8  -5   3 1165.13 771.910   5
   7  -5  -3 40507.7 3455.58   5
   7  -5   3 32328.7 3142.20   5
   7   5   3 35580.7 3383.62   1
   6   5  -3 1060.92 540.479   1
   6   5   3 1105.72 627.844   1
   6  -5  -3 46.3681 586.594   5
   6  -5   3 124.278 355.741   5
   5  -5  -3 119542. 4937.07   5
   5  -5   3 135243. 5492.76   5
   5   5  -3 118742. 4462.11   1
   5   5   3 121519. 5329.00   1
   5  -5   3 121229. 4375.89   4
   4  -5   3 297.276 302.287   4
   4   5   3 692.874 558.920   1
   4   5  -3 140.234 281.982   1
   4  -5  -3-124.619 325.633   5
   4  -5  -3-139.001 234.127   4
   3  -5  -3 56757.8 2775.25   5
   3   5  -3 58007.9 2522.67   1
   3  -5  -3 56416.0 2559.84   4
   3   5   3 55357.6 3248.79   1
   3  -5   3 61214.1 3044.50   4
   2   5   3 83.6826 302.487   1
   2   5  -3 353.701 245.339   1
   2  -5  -3-3.24726 166.462   5
   2  -5  -3-165.577 164.799   2
   2  -5   3 688.730 396.644   4
   1  -5  -3 159501. 4252.85   3
   1  -5  -3 160866. 3610.89   5
   1   5  -3 161233. 5251.80   2
   1  -5   3 149650. 4786.45   4
   1   5  -3 158504. 3808.34   1
   1   5   3 146415. 5048.37   1
   0   5  -3 2417.73 550.951   6
   0   5   3 1044.13 585.059   6
   0  -5  -3 1808.79 549.049   3
   0   5  -3 2660.29 680.046   2
   0  -5   3 2441.21 648.345   4
  -1  -5  -3 157109. 4950.08   3
  -1   5  -3 164163. 4605.01   6
  -1  -5   3 170255. 5281.98   3
  -1  -5  -3 150176. 3097.27   5
  -1   5  -3 156952. 4449.82   2
  -1  -5   3 153656. 4981.43   4
  -1   5   3 159304. 5915.69   6
  -2   5   3 589.577 535.713   6
  -2  -5   3 546.132 466.991   3
  -2  -5  -3 392.517 167.991   5
  -2   5  -3-167.152 233.610   2
  -3  -5   3 59860.4 3405.07   3
  -4  -5   3 623.045 454.298   3
  -5  -5   3 138276. 5786.73   3
  -6  -5   3-41.9100 343.098   3
  -7  -5   3 30864.1 3087.67   3
  -8  -5   3-1064.62 692.011   3
   8   5   4 2442.43 1050.64   1
   8  -5  -4 779.695 723.168   5
   7   5   4 102.870 498.925   1
   7  -5  -4 205.332 574.816   5
   7  -5   4 776.196 628.526   5
   6  -5   4 4183.48 915.925   4
   6  -5  -4 4657.26 1132.45   5
   6   5   4 3930.92 1110.31   1
   6  -5   4 5422.07 1263.14   5
   5  -5   4 1305.63 611.969   4
   5   5  -4 524.443 442.123   1
   5  -5  -4 1322.91 614.581   5
   5   5   4 1264.78 648.983   1
   4  -5   4 1027.31 632.199   4
   4   5   4 1109.50 512.032   1
   4   5  -4 376.949 297.953   1
   4  -5  -4 889.144 513.096   5
   4  -5  -4 703.189 307.036   4
   3  -5   4 1391.91 508.776   4
   3   5  -4 898.079 332.955   1
   3   5   4 1572.93 691.304   1
   3  -5  -4 2107.18 602.094   5
   2   5   4 474.657 418.779   1
   2  -5  -4 1056.81 377.961   5
   2   5  -4 1087.20 570.597   2
   2   5  -4 531.980 257.586   1
   2  -5   4 1005.45 475.030   4
   1  -5  -4 489.442 334.159   3
   1  -5  -4 536.621 304.281   5
   1   5   4 867.571 500.753   1
   1   5  -4 318.725 453.293   2
   1   5  -4 613.738 263.816   1
   1  -5   4-0.82010 474.188   4
   0   5  -4 234.516 218.484   6
   0   5   4-224.381 428.864   6
   0  -5  -4-115.637 279.116   3
   0  -5  -4 360.907 172.448   5
   0   5  -4 600.213 416.313   2
   0  -5   4 483.134 387.303   4
  -1   5   4 812.202 531.513   6
  -1   5  -4 327.500 282.777   6
  -1  -5   4 1027.49 690.931   3
  -1  -5  -4 187.148 122.959   5
  -1   5  -4 968.144 513.071   2
  -1  -5   4 699.409 484.434   4
  -2   5   4 847.899 577.293   6
  -2  -5   4 321.561 325.622   3
  -2   5  -4 687.915 332.039   2
  -2  -5   4 432.382 337.162   4
  -3  -5   4 1298.44 663.899   3
  -3   5  -4 134.810 263.992   2
  -4  -5   4 366.506 459.232   3
  -5  -5   4 834.701 600.824   3
  -6  -5   4 2462.71 886.140   3
  -7  -5   4 895.074 673.787   3
  -8  -5   4 1074.26 742.740   3
   8   5   5 610.128 702.694   1
   8  -5  -5 1322.31 804.754   5
   7  -5  -5 45234.8 3719.96   5
   7  -5   5 37267.6 3449.57   5
   7   5   5 37449.1 3584.42   1
   6  -5  -5 300.669 499.358   5
   6   5   5-84.5633 365.663   1
   6  -5   5-622.073 611.332   5
   5  -5  -5 115773. 4979.04   5
   5   5   5 118216. 5555.22   1
   5  -5   5 115337. 4598.77   4
   4  -5   5 557.619 368.450   4
   4   5   5-12.0814 527.241   1
   4  -5  -5-306.295 399.191   5
   3  -5  -5 102121. 3807.25   5
   3   5  -5 98621.2 4848.39   2
   3   5  -5 96832.3 2729.44   1
   3   5   5 99506.3 4674.80   1
   3  -5   5 99396.0 4093.09   4
   2  -5   5 1584.51 560.395   4
   2   5   5 2807.79 849.567   1
   2   5  -5 1369.73 289.602   1
   2  -5  -5 1944.52 502.659   5
   2   5  -5 1631.55 670.773   2
   1  -5  -5 201336. 4624.83   3
   1  -5  -5 201278. 3923.30   5
   1   5  -5 199780. 6139.37   2
   1   5  -5 196256. 3251.17   1
   1  -5   5 205715. 5890.01   4
   1   5   5 203276. 6345.30   1
   0   5   5 752.629 566.976   6
   0  -5  -5 565.368 387.789   3
   0  -5  -5 655.919 187.412   5
   0   5  -5 886.279 455.006   2
   0  -5   5 513.363 453.038   4
  -1   5   5 199373. 7060.01   6
  -1   5  -5 193756. 4436.58   6
  -1   5  -5 205628. 5483.72   2
  -1  -5   5 197882. 5857.46   4
  -2  -5   5 403.231 332.320   3
  -2   5  -5 1422.27 476.198   2
  -2   5   5 683.903 635.265   6
  -3   5   5 101471. 5387.39   6
  -3  -5   5 102266. 4483.82   3
  -3   5  -5 101355. 3286.22   2
  -3  -5   5 95019.8 4178.49   4
  -4  -5   5 5.50722 286.989   3
  -4  -5   5 499.905 476.726   4
  -5  -5   5 116580. 5289.28   3
  -5  -5   5 118252. 4936.79   4
  -6  -5   5 358.046 465.361   3
  -6  -5   5 964.771 530.329   4
  -7  -5   5 42152.0 3558.96   3
  -7  -5   5 44385.8 3295.22   4
  -8  -5   5-782.396 695.271   3
   8  -5  -6 4313.02 1333.16   5
   7   5   6 911.942 735.654   1
   7  -5  -6 1033.48 734.124   5
   7  -5   6 903.427 758.814   5
   6  -5   6 8705.21 1398.45   4
   6  -5  -6 11315.6 1769.38   5
   6   5   6 14165.7 2126.83   1
   5  -5   6 626.795 614.921   4
   5  -5  -6 1377.33 667.880   5
   5   5   6 1229.24 776.735   1
   4  -5  -6 19479.8 1898.12   5
   4   5  -6 17956.3 2279.62   2
   4   5   6 18803.2 2203.10   1
   4  -5   6 19706.6 1938.57   4
   3  -5   6 94.5210 306.947   4
   3  -5  -6 1599.66 565.487   5
   3   5   6 1884.33 715.144   1
   3   5  -6 909.229 647.069   2
   2  -5  -6 29303.3 1821.21   5
   2   5  -6 28502.2 2526.72   2
   2  -5   6 25507.8 2136.37   4
   2   5   6 28865.2 2554.51   1
   1  -5   6 790.932 478.468   4
   1  -5  -6 333.344 288.470   3
   1   5   6 387.977 522.170   1
   1  -5  -6 609.076 284.772   5
   1   5  -6 137.239 347.998   2
   0  -5  -6 44052.5 2457.50   3
   0  -5  -6 38296.7 1064.95   5
   0   5  -6 44356.3 2793.39   2
   0  -5   6 43677.3 2802.40   4
   0   5  -6 41189.2 1464.90   1
   0   5   6 43025.9 3349.43   6
  -1   5   6 813.331 618.902   6
  -1   5  -6-73.1089 401.033   2
  -1  -5   6 199.507 443.203   4
  -2   5   6 20748.8 2484.63   6
  -2  -5   6 27991.9 2327.83   3
  -2   5  -6 28920.8 2021.76   2
  -2  -5   6 27093.3 2246.19   4
  -3   5   6 1401.09 800.322   6
  -3  -5   6 381.519 417.837   3
  -3   5  -6 960.438 421.558   2
  -3  -5   6 871.633 566.861   4
  -4  -5   6 21492.9 2187.49   3
  -4  -5   6 18215.6 1922.13   4
  -5  -5   6 534.303 453.696   3
  -5  -5   6 677.984 579.669   4
  -6  -5   6 16916.4 2151.34   3
  -6  -5   6 13138.7 1721.18   4
  -7  -5   6 576.609 537.807   3
  -8  -5   6 4094.39 1264.81   3
   7  -5  -7 23956.5 2886.02   5
   7  -5   7 25277.1 2932.15   5
   7   5   7 24744.0 3059.14   1
   6  -5   7-296.553 501.617   4
   6  -5  -7 477.169 599.713   5
   6   5   7 1350.94 856.417   1
   5  -5  -7 37544.9 2984.52   5
   5   5  -7 38021.7 3483.38   2
   5   5   7 31815.7 3062.09   1
   5  -5   7 34976.9 2741.69   4
   4  -5   7 289.802 370.146   4
   4   5   7 1696.93 790.711   1
   4  -5  -7 620.706 488.440   5
   4   5  -7 618.468 578.066   2
   3  -5  -7 34293.8 2290.69   5
   3   5  -7 31499.6 2886.73   2
   3   5   7 32048.1 2868.71   1
   3  -5   7 30094.8 2408.56   4
   2  -5   7 2056.23 648.024   4
   2   5   7 2577.97 899.635   1
   2  -5  -7 2164.73 542.412   5
   2   5  -7 2480.02 820.974   2
   1  -5  -7 39582.3 2045.60   3
   1  -5  -7 39459.4 1696.92   5
   1   5  -7 36980.4 2784.67   2
   1  -5   7 45465.8 2928.09   4
   1   5   7 38881.3 2978.53   1
   0   5   7 8817.49 1620.65   6
   0   5  -7 7942.47 1255.09   2
   0  -5   7 7786.78 1242.38   4
  -1   5   7 36833.5 3284.61   6
  -1   5  -7 41759.1 2676.80   2
  -1  -5   7 44464.0 2916.99   4
  -2   5   7 1140.90 838.155   6
  -2   5  -7 2290.55 632.528   2
  -2  -5   7 2237.17 744.912   4
  -3   5   7 32072.6 3250.26   6
  -3  -5   7 35280.3 2718.17   3
  -3   5  -7 30988.2 2094.38   2
  -3  -5   7 31504.1 2496.35   4
  -4   5   7 1483.51 826.333   6
  -4  -5   7 1663.13 665.581   3
  -4  -5   7 1004.49 530.367   4
  -5  -5   7 34833.3 2904.76   3
  -5  -5   7 35502.2 2766.20   4
  -6  -5   7 1212.44 666.380   3
  -6  -5   7-511.805 531.002   4
  -7  -5   7 24324.9 2703.24   3
  -8  -5   7 1539.07 792.976   3
   7  -5  -8-432.502 739.555   5
   7   5   8 2106.70 1061.96   1
   7  -5   8 1128.20 836.152   5
   6  -5   8 6713.22 1301.09   4
   6  -5  -8 8535.63 1607.53   5
   6   5   8 8919.55 1768.44   1
   5  -5   8 1884.17 759.160   4
   5  -5  -8 1132.78 691.364   5
   5   5  -8 1273.61 792.343   2
   5   5   8 1041.84 665.431   1
   4  -5   8 9260.71 1447.50   4
   4   5   8 6374.37 1362.02   1
   4  -5  -8 5432.74 1108.14   5
   4   5  -8 7059.90 1505.05   2
   3  -5   8 622.303 467.468   4
   3  -5  -8 602.110 424.661   5
   3   5   8 442.173 604.402   1
   3   5  -8 720.881 574.742   2
   2  -5   8 1179.18 553.851   4
   2   5   8 2207.66 814.816   1
   2  -5  -8 2038.94 561.914   5
   2   5  -8 1883.34 734.396   2
   1  -5   8 1869.86 695.170   4
   1   5   8 1882.14 797.435   1
   1  -5  -8 1104.70 406.829   3
   1   5  -8 2555.71 835.990   2
   0  -5   8 7246.30 1229.30   4
   0   5   8 7540.28 1371.75   1
   0   5   8 6597.61 1482.30   6
   0   5  -8 5200.10 1087.33   2
  -1   5   8 2009.59 961.832   6
  -1   5  -8 518.422 433.757   2
  -1  -5   8 2075.73 774.542   4
  -2   5   8 1487.67 841.165   6
  -2   5  -8 2021.62 669.656   2
  -2  -5   8 1940.13 699.960   4
  -3   5  -8 587.753 383.790   2
  -3   5   8 599.383 946.984   6
  -3  -5   8 199.847 408.850   4
  -4   5   8 4297.03 1284.70   6
  -4  -5   8 4896.03 1119.54   3
  -4  -5   8 6119.29 1159.32   4
  -5  -5   8 903.920 600.725   3
  -5  -5   8 2557.75 800.350   4
  -6  -5   8 10078.9 1634.59   3
  -6  -5   8 5473.76 1159.91   4
  -7  -5   8 952.126 633.418   3
  -8  -5   8 2703.90 1010.34   3
   7  -5  -9 36171.0 3631.28   5
   6  -5   9 1472.99 743.659   4
   6  -5  -9 86.4706 554.005   5
   6   5  -9 1535.11 859.290   2
   6   5   9 667.939 655.159   1
   5  -5  -9 48757.6 3528.98   5
   5   5  -9 52637.9 4277.23   2
   5   5   9 47649.4 3937.02   1
   5  -5   9 50105.3 3524.91   4
   4  -5   9 2615.36 825.112   4
   4  -5  -9 2755.42 781.189   5
   4   5  -9 1418.05 751.760   2
   4   5   9 1110.01 694.219   1
   3  -5  -9 93193.5 3909.74   5
   3   5  -9 84330.6 4891.76   2
   3   5   9 92970.5 5077.18   1
   3  -5   9 97243.7 4644.14   4
   2  -5   9 8587.61 1384.21   4
   2   5   9 7615.13 1477.09   1
   2   5  -9 6244.47 1336.07   2
   1  -5  -9 91877.9 3106.61   3
   1   5  -9 96894.7 4758.27   2
   1  -5   9 99175.1 4530.64   4
   1   5   9 101481. 5067.46   1
   0   5   9 4994.52 1199.83   1
   0   5  -9 4403.02 1038.23   2
  -1   5   9 98738.1 5667.52   6
  -1   5  -9 97899.0 4415.39   2
  -1  -5   9 91737.8 4362.63   4
  -2  -5   9 6480.82 1209.98   4
  -2   5  -9 8477.53 1246.97   2
  -2   5   9 9953.24 1886.04   6
  -3   5   9 91942.2 5758.63   6
  -3   5  -9 95467.7 4064.07   2
  -3  -5   9 97278.2 4590.02   4
  -4   5   9 2540.81 1092.30   6
  -4  -5   9 2835.90 899.951   4
  -5   5   9 43643.1 4306.36   6
  -5  -5   9 43581.2 3345.18   3
  -5  -5   9 46605.8 3247.42   4
  -6  -5   9-49.7338 335.011   3
  -6  -5   9 502.018 442.875   4
  -7  -5   9 37148.9 3307.63   3
   7  -5  10 524.682 619.378   4
   7  -5 -10 1821.28 854.139   5
   6  -5  10 4144.66 1153.72   4
   6  -5 -10 4143.37 1158.24   5
   6   5 -10 5446.80 1544.77   2
   6   5  10 3230.72 1216.08   1
   5   5  10 846.748 742.347   1
   5  -5 -10 2037.50 789.984   5
   5   5 -10 1041.95 799.649   2
   4  -5  10 4145.04 1037.13   4
   4   5  10 8544.96 1670.03   1
   4   5 -10 6669.55 1540.74   2
   3  -5  10 307.204 559.316   4
   3   5  10 629.518 609.867   1
   3   5 -10 236.908 548.466   2
   2  -5  10 3154.12 873.904   4
   2   5  10 4321.30 1234.96   1
   2   5 -10 3545.90 1100.09   2
   1  -5  10 504.622 451.219   4
   1   5  10 514.852 502.726   1
   1   5 -10 345.742 450.180   2
   0  -5  10 10879.2 1552.37   4
   0   5  10 15416.4 2067.52   1
   0   5 -10 11668.5 1668.87   2
  -1  -5  10 905.029 532.563   4
  -1   5  10 1052.33 709.709   6
  -1   5 -10 409.687 542.419   2
  -2  -5  10 3402.22 930.714   4
  -2   5 -10 3968.76 936.621   2
  -2   5  10 2640.87 1072.89   6
  -3  -5  10 841.622 578.975   4
  -3   5 -10 243.662 351.582   2
  -3   5  10 725.096 647.500   6
  -4  -5  10 4776.89 1099.52   4
  -4   5  10 5503.68 1554.56   6
  -5  -5  10-297.020 458.414   4
  -5   5  10 1628.85 1046.06   6
  -6   5  10 3989.26 1420.30   6
  -6  -5  10 3169.19 1001.35   3
  -7  -5  10-589.429 638.128   3
   7  -5  11 32104.6 3194.33   4
   6  -5  11 1462.57 754.430   4
   6   5 -11 42.8525 605.117   2
   5   5 -11 27902.1 3294.01   2
   5   5  11 28279.1 3208.79   1
   5  -5  11 28859.2 2890.97   4
   4  -5  11 1209.54 665.848   4
   4   5  11 2203.78 953.576   1
   4   5 -11-88.7343 455.419   2
   3   5 -11 68186.4 4659.70   2
   3   5  11 65552.1 4490.51   1
   3  -5  11 64903.1 4065.95   4
   2   5  11 507.103 504.096   1
   2  -5  11 2031.96 751.501   4
   2   5 -11 1979.83 852.889   2
   1   5 -11 52786.8 3771.00   2
   1  -5  11 56220.2 3631.90   4
   1   5  11 51698.3 3845.62   1
   0   5  11 4775.80 1235.29   1
   0  -5  11 5904.00 1180.76   4
   0   5 -11 4293.00 1101.79   2
  -1   5  11 54502.4 4472.91   6
  -1   5 -11 46963.4 3306.91   2
  -1  -5  11 51486.1 3443.00   4
  -2  -5  11 1020.65 612.574   4
  -2   5 -11 998.845 545.941   2
  -2   5  11 568.060 540.504   6
  -3   5  11 69875.4 5313.26   6
  -3   5 -11 62971.8 3650.02   2
  -3  -5  11 69944.4 4038.31   4
  -4  -5  11-1013.79 625.956   4
  -4   5  11 2560.79 1209.98   6
  -5   5  11 24652.7 3288.65   6
  -5  -5  11 22617.9 2320.50   4
  -6   5  11-703.462 803.342   6
   6  -5  12 2954.40 1063.53   4
   5   5  12 1516.83 1049.48   1
   5  -5  12 841.413 624.031   4
   5   5 -12-754.761 709.742   2
   4  -5  12 4921.38 1237.45   4
   4   5  12 3859.98 1311.34   1
   4   5 -12 6002.54 1556.29   2
   3  -5  12 694.648 461.910   4
   3   5  12 246.396 506.187   1
   3   5 -12 224.541 503.207   2
   2  -5  12 2363.33 820.103   4
   2   5 -12 2174.63 938.872   2
   2   5  12 3316.22 1122.65   1
   1  -5  12 391.033 518.835   4
   1   5  12 205.435 521.959   1
   1   5 -12-10.2407 394.997   2
   0  -5  12 5203.39 1192.81   4
   0   5  12 6395.24 1411.31   1
   0   5 -12 4561.07 1135.59   2
  -1   5 -12 1046.74 589.964   2
  -1  -5  12 763.791 539.507   4
  -1   5  12 295.077 736.509   6
  -1   5  12-471.984 570.617   1
  -2   5 -12 3277.69 953.423   2
  -2  -5  12 2313.66 848.896   4
  -2   5  12 635.552 747.997   6
  -3  -5  12 557.518 506.835   4
  -3   5 -12 695.493 535.755   2
  -4  -5  12 5081.12 1123.76   4
  -4   5  12 4481.30 1505.27   6
  -5  -5  12 944.585 588.400   4
  -5   5  12 996.854 906.451   6
   5  -5  13 9403.36 1752.48   4
   4  -5  13 1403.97 730.435   4
   4   5  13 1150.28 736.088   1
   4   5 -13 436.053 597.620   2
   3   5 -13 44663.8 4000.51   2
   3   5  13 44516.1 3923.98   1
   3  -5  13 35086.6 3211.61   4
   2  -5  13-187.359 445.721   4
   2   5  13 587.194 587.898   1
   2   5 -13 321.288 522.217   2
   1   5 -13 29340.4 3013.77   2
   1   5  13 27601.5 2999.38   1
   0  -5  13-13.3844 444.155   4
   0   5  13-660.692 647.113   1
   0   5 -13 654.444 672.726   2
  -1   5 -13 26882.8 2742.02   2
  -1  -5  13 26259.0 2638.92   4
  -1   5  13 21258.5 2631.07   1
  -2   5 -13 365.353 486.776   2
  -2  -5  13 956.241 567.370   4
  -3   5  13 39639.9 4225.10   6
  -3   5 -13 39359.7 3156.71   2
  -3  -5  13 41856.1 3293.68   4
  -4  -5  13 46.6551 318.248   4
  -4   5  13 770.136 966.785   6
   4  -5  14 4727.91 1330.03   4
   4   5  14 3662.95 1201.50   1
   4   5 -14 6160.03 1668.82   2
   3  -5  14-53.3461 498.805   4
   3   5  14 876.029 604.928   1
   3   5 -14 621.258 670.807   2
   2  -5  14 5199.48 1242.23   4
   2  -5 -14 5170.41 1162.06   2
   2   5  14 7566.58 1656.63   1
   2   5 -14 6512.54 1543.94   2
   1  -5  14-661.249 495.074   4
   1   5  14-482.886 593.800   1
   1   5 -14 136.335 462.985   2
   0   5 -14 9428.72 1817.37   2
   0  -5  14 8379.86 1573.74   4
   0   5  14 8968.47 1749.98   1
  -1   5 -14-92.4493 336.538   2
  -1  -5  14-384.246 547.160   4
  -1   5  14 491.868 601.288   1
  -2   5 -14 6559.97 1392.49   2
  -2  -5  14 5038.60 1234.98   4
  -2   5  14 4671.87 1477.91   6
  -3  -5  14-789.352 701.879   4
  -3   5 -14 338.858 566.663   2
  -3   5  14-131.245 632.313   6
  -4  -5  14 7293.90 1405.38   4
  -4   5  14 4548.29 1588.89   6
   3   5 -15 41606.4 4105.15   2
   3   5  15 36239.1 3755.39   1
   3  -5  15 36182.5 3466.59   4
   2  -5  15 149.489 504.720   4
   2  -5 -15 274.196 416.565   2
   2   5  15 929.538 792.881   1
   2   5 -15 34.6579 458.814   2
   1   5  15 21563.7 2789.90   1
   1  -5  15 23470.6 2715.91   4
   1   5 -15 21949.1 2806.73   2
   0   5 -15 184.437 581.344   2
   0  -5  15-169.328 476.976   4
   0   5  15 1.79165 468.166   1
  -1   5 -15 16823.9 2301.97   2
  -1   5  15 22699.8 2843.00   1
  -1  -5  15 23339.7 2636.14   4
  -2   5 -15-477.014 593.893   2
  -2  -5  15 1243.92 741.939   4
  -2   5  15-229.303 754.958   6
  -2   5  15 281.414 574.797   1
  -3   5  15 35503.6 4216.45   6
  -3   5 -15 30792.5 3063.38   2
  -3  -5  15 32629.5 3067.84   4
  -4  -5  15 2280.40 917.606   4
   1   5  16 347.436 663.835   1
   1  -5  16 1163.21 799.310   4
   1   5 -16 423.347 667.853   2
   0   5 -16 1414.74 794.845   2
   0  -5  16 2886.20 1067.34   4
   0   5  16 1769.04 990.127   1
  -1   5 -16 825.435 638.670   2
  -1  -5  16 1918.53 848.082   4
  -1   5  16 1030.50 735.279   1
  -2   5 -16 1528.06 843.643   2
  -2  -5  16 3566.03 1143.14   4
  -2   5  16 4460.80 1349.20   1
  -3   5 -16 1491.78 755.323   2
  -3  -5  16-449.013 652.093   4
   1  -5 -17 14382.5 2127.35   2
  -1   5 -17 18401.7 2616.30   2
  -2   5 -17 2574.92 1011.05   2
   7   6   0-115.601 445.857   1
   7  -6   0-331.067 545.495   5
   6  -6   0 68050.6 4322.47   5
   6   6   0 59337.1 3922.53   1
   5   6   0 700.810 552.266   1
   5  -6   0 127.909 399.428   5
   4  -6   0 83896.9 4074.64   5
   4   6   0 81123.9 3966.76   1
   4  -6   0 82536.4 3610.44   4
   3   6   0 114.999 318.979   1
   3  -6   0 176.259 292.000   4
   2  -6   0 68151.1 3375.42   4
   2   6   0 67787.2 3369.34   1
   1   6   0-254.456 360.694   1
   0   6   0 133524. 5102.99   6
   0  -6   0 135123. 4835.88   3
  -1   6   0 522.328 427.212   6
  -1  -6   0 77.1725 402.814   3
  -2  -6   0 63974.9 3635.82   3
  -2   6   0 63216.4 3851.60   6
  -3  -6   0 876.355 550.316   3
  -4  -6   0 82354.2 4612.38   3
  -5  -6   0-84.8438 496.494   3
  -6  -6   0 68550.6 4648.72   3
   8   6   1-341.206 609.950   1
   7   6   1 7751.49 1552.77   1
   7  -6  -1 4414.02 1261.62   5
   7  -6   1 4326.03 1215.42   5
   6   6  -1 860.053 614.544   1
   6   6   1 641.150 540.712   1
   6  -6  -1 1730.29 834.524   5
   6  -6   1 413.109 744.542   5
   5  -6   1 6893.64 1058.80   4
   5   6  -1 8766.24 1416.22   1
   5  -6  -1 7950.23 1357.26   5
   5  -6   1 8440.82 1449.37   5
   5   6   1 5649.71 1181.06   1
   4  -6   1 498.930 439.381   4
   4   6   1 558.598 417.738   1
   4  -6  -1 753.742 522.924   5
   4  -6   1 468.850 480.713   5
   4   6  -1 1014.90 519.778   1
   4  -6  -1 667.981 398.064   4
   3   6  -1 2846.16 708.482   1
   3   6   1 3257.00 863.397   1
   3  -6  -1 3572.70 817.436   5
   3  -6  -1 3126.94 760.438   4
   3  -6   1 4964.00 973.744   4
   2   6   1 100.099 339.185   1
   2  -6  -1 177.289 414.136   4
   2  -6   1 140.268 341.109   4
   1   6   1 7390.04 1196.81   1
   1   6  -1 6819.82 1060.56   1
   1  -6   1 7815.52 1208.48   4
   0   6  -1 557.111 435.685   6
   0   6   1 323.516 414.252   6
   0  -6  -1 224.006 432.385   3
   0  -6   1 215.365 390.341   3
  -1   6   1 8692.37 1470.23   6
  -1   6  -1 6611.97 1193.71   6
  -1  -6  -1 7909.22 1266.14   3
  -1  -6   1 6990.38 1192.47   3
  -2   6   1 396.306 475.344   6
  -2   6  -1 879.545 546.193   6
  -2  -6  -1 1277.52 593.442   3
  -2  -6   1 91.0074 367.869   3
  -3  -6  -1 5216.91 1170.31   3
  -3  -6   1 5191.12 1121.67   3
  -4  -6  -1 1076.96 663.725   3
  -4  -6   1-156.657 470.048   3
  -5  -6   1 7093.85 1489.27   3
  -6  -6   1 1652.64 826.765   3
  -7  -6   1 3757.47 1244.78   3
   8   6   2 24669.3 3103.95   1
   7  -6  -2-151.468 483.054   5
   7  -6   2-187.622 551.629   5
   6  -6  -2 52866.0 3773.72   5
   6  -6   2 60277.1 4150.69   5
   6   6   2 55276.2 3983.38   1
   5  -6   2 2645.47 695.048   4
   5   6  -2 4150.86 923.802   1
   5  -6  -2 2924.59 925.619   5
   5  -6   2 2970.53 927.862   5
   5   6   2 2602.55 868.637   1
   4  -6  -2 82644.9 3940.52   5
   4   6  -2 81775.7 3671.53   1
   4   6   2 83502.7 4327.42   1
   4  -6  -2 78972.1 3376.69   4
   4  -6   2 80033.8 3706.72   4
   3   6  -2-80.5062 217.021   1
   3   6   2 583.512 459.136   1
   3  -6  -2 284.952 316.746   5
   3  -6  -2-182.008 302.143   4
   3  -6   2 750.335 407.662   4
   2  -6  -2 90462.0 3422.66   5
   2  -6   2 87487.2 3946.59   4
   2   6  -2 87052.6 3432.53   1
   2   6   2 91008.8 4250.49   1
   1   6   2 2411.69 709.078   1
   1  -6  -2 2491.65 660.688   3
   1   6  -2 1502.92 526.675   1
   1  -6   2 1854.91 597.231   4
   0   6  -2 174818. 5170.11   6
   0   6   2 178193. 6387.23   6
   0  -6  -2 173659. 5322.77   3
   0  -6   2 171680. 5646.64   4
  -1   6   2 2211.96 773.324   6
  -1   6  -2 1909.96 676.388   6
  -1  -6  -2 2087.50 722.767   3
  -1  -6   2 1564.86 683.161   3
  -2  -6  -2 88729.4 4316.30   3
  -2   6   2 93426.7 4943.85   6
  -2   6  -2 86855.9 4222.36   6
  -2  -6   2 88469.0 4309.27   3
  -3  -6  -2-195.979 443.002   3
  -3  -6   2 552.969 500.473   3
  -4  -6   2 84135.6 4625.93   3
  -5  -6   2 4022.58 1164.04   3
  -6  -6   2 53462.7 4119.17   3
  -7  -6   2 1170.32 716.256   3
   8   6   3 897.500 718.911   1
   7   6   3 8705.86 1737.80   1
   7  -6  -3 7773.94 1569.54   5
   7  -6   3 7023.83 1644.90   5
   6   6   3 1028.86 754.024   1
   6  -6   3-65.0481 606.206   5
   5  -6  -3 11141.5 1606.28   5
   5  -6   3 13181.7 1885.53   5
   5  -6   3 13402.2 1589.41   4
   5   6   3 13085.7 1887.30   1
   4  -6   3 1742.48 726.047   4
   4   6   3 2536.02 902.294   1
   4  -6  -3 2971.58 834.587   5
   4  -6  -3 3475.50 724.406   4
   3  -6  -3 13972.8 1497.10   5
   3   6   3 11375.0 1635.03   1
   3   6  -3 12088.7 1251.27   1
   3  -6  -3 13136.0 1424.41   4
   3  -6   3 13176.5 1587.83   4
   2   6   3 3297.85 858.494   1
   2   6  -3 2598.61 605.431   1
   2  -6  -3 3202.44 668.506   5
   2  -6   3 3481.56 873.762   4
   1  -6  -3 23279.1 1844.64   3
   1  -6  -3 23755.1 1555.23   5
   1  -6   3 24896.9 2175.22   4
   1   6  -3 22099.9 1634.83   1
   1   6   3 24656.5 2270.86   1
   0  -6  -3 10239.5 1321.19   3
   0   6   3 9304.69 1530.99   6
   0  -6   3 9816.32 1391.65   4
  -1  -6  -3 22371.4 2062.97   3
  -1   6   3 23403.0 2471.57   6
  -1   6  -3 23089.6 1976.00   6
  -1  -6   3 22012.5 2130.10   3
  -1  -6   3 22890.8 2169.81   4
  -2  -6  -3 3506.36 956.471   3
  -2   6   3 3419.56 1032.41   6
  -2  -6   3 3170.65 902.692   3
  -3   6   3 10877.0 1855.81   6
  -3  -6   3 11972.1 1703.02   3
  -4  -6   3 3538.01 1007.02   3
  -5  -6   3 11826.1 1823.37   3
  -6  -6   3 1877.16 862.139   3
  -7  -6   3 8030.01 1691.80   3
   7   6   4 860.700 582.071   1
   7  -6  -4-600.866 620.415   5
   7  -6   4 1.73878 822.066   5
   6  -6  -4 52196.8 3764.97   5
   6  -6   4 47701.2 3764.10   5
   6   6   4 47627.0 3843.93   1
   5  -6   4 2264.88 725.733   4
   5  -6  -4 3621.86 987.182   5
   5   6   4 3804.47 1105.15   1
   4  -6  -4 59324.6 3368.74   5
   4   6   4 69379.5 4193.30   1
   4  -6   4 61324.5 3432.40   4
   3  -6   4 3816.28 892.159   4
   3   6   4 2453.99 802.371   1
   3  -6  -4 2311.28 666.533   5
   3  -6  -4 1764.69 562.835   4
   2  -6  -4 57440.1 2659.46   5
   2   6  -4 56781.9 2352.64   1
   2  -6   4 56658.9 3330.78   4
   2   6   4 61656.9 3760.26   1
   1   6  -4 803.164 325.845   1
   1   6   4 1944.70 720.601   1
   1  -6  -4 1567.95 558.914   3
   1  -6  -4 956.917 370.786   5
   1  -6   4 721.125 497.973   4
   0   6   4 102715. 5222.52   6
   0  -6  -4 97222.9 3995.21   3
   0  -6  -4 104315. 2626.79   5
   0   6  -4 95432.6 4241.67   2
   0  -6   4 103513. 4501.28   4
  -1   6   4 717.495 720.430   6
  -1   6  -4 1832.54 564.361   6
  -1  -6  -4 1085.04 521.269   3
  -1  -6   4 1228.69 610.050   3
  -1   6  -4 1108.61 542.797   2
  -1  -6   4 1351.89 586.153   4
  -2  -6  -4 57953.0 3540.92   3
  -2   6   4 52602.6 3946.65   6
  -2  -6   4 55259.0 3456.79   3
  -2  -6   4 58442.1 3509.08   4
  -3   6   4 1312.95 781.555   6
  -3  -6   4 2354.87 803.120   3
  -4  -6   4 64051.9 4018.88   3
  -5  -6   4 2297.22 830.883   3
  -6  -6   4 52744.7 4058.15   3
  -7  -6   4 847.358 602.592   3
   7   6   5 5556.43 1490.99   1
   7  -6  -5 2022.44 911.719   5
   6  -6  -5 3321.09 1006.10   5
   6  -6   5 2391.12 985.346   5
   6   6   5 1370.69 883.006   1
   5  -6   5 4212.18 1019.61   4
   5  -6  -5 3270.69 925.204   5
   5   6   5 4191.61 1157.47   1
   4  -6   5 2812.88 901.737   4
   4   6   5 2429.88 930.854   1
   4  -6  -5 3622.54 937.830   5
   3  -6   5 2851.23 814.264   4
   3  -6  -5 1463.79 564.633   5
   3   6   5 2148.15 799.982   1
   2  -6   5 10762.1 1502.30   4
   2   6   5 12112.2 1731.45   1
   2  -6  -5 9775.63 1135.55   5
   2   6  -5 8276.00 1495.60   2
   1   6   5 2895.99 882.242   1
   1  -6  -5 3756.32 757.112   3
   1  -6  -5 3517.29 589.140   5
   1   6  -5 3466.69 990.602   2
   1  -6   5 3506.00 895.254   4
   0   6  -5 7507.04 870.392   1
   0   6   5 9810.46 1700.80   6
   0  -6  -5 7749.41 1163.61   3
   0   6  -5 6888.28 1277.78   2
   0  -6   5 7184.43 1262.55   4
  -1   6   5 4795.99 1269.51   6
  -1  -6  -5 4807.31 1017.60   3
  -1   6  -5 5504.62 1025.47   2
  -1  -6   5 5619.01 1188.70   4
  -2   6   5 10799.8 1906.28   6
  -2  -6   5 12418.0 1704.69   3
  -2   6  -5 9677.02 1229.44   2
  -2  -6   5 9260.92 1463.67   4
  -3   6   5 1108.27 916.796   6
  -3  -6   5 1383.89 558.896   3
  -3  -6   5 997.923 591.825   4
  -4   6   5 2199.29 1078.51   6
  -4  -6   5 1876.58 844.997   3
  -4  -6   5 2345.19 824.508   4
  -5  -6   5 4198.12 1137.60   3
  -5  -6   5 6484.52 1351.96   4
  -6  -6   5 1928.39 817.041   3
  -6  -6   5 3202.82 1021.48   4
  -7  -6   5 4411.51 1304.54   3
  -7  -6   5 5622.24 1345.56   4
   7   6   6 1849.42 988.502   1
   7  -6  -6 2006.08 874.074   5
   6  -6  -6 46018.6 3663.08   5
   6   6   6 46671.2 4012.77   1
   6  -6   6 42530.0 3171.58   4
   5  -6   6-373.688 464.100   4
   5  -6  -6-369.364 527.866   5
   5   6   6 944.294 571.568   1
   4  -6  -6 64462.3 3593.10   5
   4   6   6 63494.3 4268.03   1
   4  -6   6 59296.3 3575.65   4
   3  -6   6 10998.9 1556.20   4
   3  -6  -6 13374.1 1490.80   5
   3   6   6 12343.2 1864.52   1
   3   6  -6 13824.2 2020.32   2
   2   6  -6 71072.3 4302.77   2
   2  -6   6 71391.0 3885.11   4
   2   6   6 75098.3 4389.36   1
   1   6   6 1667.30 773.573   1
   1  -6  -6 1029.06 439.111   3
   1   6  -6 1139.28 603.853   2
   1  -6   6 1689.13 682.325   4
   0   6   6 100820. 5536.83   6
   0  -6  -6 117229. 4367.19   3
   0   6  -6 110160. 4836.08   2
   0  -6   6 111757. 4884.60   4
  -1   6   6 1338.67 798.715   6
  -1  -6  -6 1987.48 698.525   3
  -1   6  -6 2012.64 678.164   2
  -1  -6   6 1136.99 612.799   4
  -2   6   6 77888.0 5074.43   6
  -2   6  -6 71591.4 3456.80   2
  -2  -6   6 68309.9 3898.25   4
  -3   6   6 10501.9 1981.56   6
  -3  -6   6 11763.0 1709.25   3
  -3  -6   6 13721.6 1799.98   4
  -4   6   6 63489.3 4930.91   6
  -4  -6   6 64144.4 4054.17   3
  -4  -6   6 61512.7 3843.60   4
  -5  -6   6 952.021 768.581   3
  -5  -6   6-400.252 430.197   4
  -6  -6   6 50829.9 3939.18   3
  -6  -6   6 45133.7 3490.77   4
  -7  -6   6 2111.23 1002.64   3
   7  -6  -7 5401.02 1435.89   5
   6  -6   7-427.454 579.689   4
   6  -6  -7 58.5494 474.597   5
   6   6   7-285.332 559.762   1
   5   6   7 7859.52 1606.55   1
   5  -6   7 8870.22 1495.01   4
   5  -6  -7 8085.02 1447.35   5
   4  -6   7 2946.93 898.554   4
   4   6   7 4405.69 1225.42   1
   4  -6  -7 3519.23 921.297   5
   4   6  -7 3858.97 1180.14   2
   3  -6   7 7543.76 1325.92   4
   3   6   7 7819.01 1553.27   1
   3   6  -7 8874.90 1611.79   2
   2  -6   7 1954.49 720.226   4
   2   6   7 2614.14 889.769   1
   2   6  -7 2125.06 834.748   2
   1  -6   7 11739.0 1662.10   4
   1   6   7 10219.2 1706.64   1
   1  -6  -7 11572.6 1253.84   3
   1   6  -7 10732.7 1637.55   2
   0  -6  -7 9232.42 1282.19   3
   0   6  -7 7769.04 1361.58   2
   0   6   7 8585.37 1525.21   1
   0  -6   7 8245.86 1401.24   4
  -1   6   7 12845.9 2126.93   6
  -1  -6  -7 8621.16 1333.52   3
  -1   6  -7 12464.8 1576.71   2
  -1  -6   7 10972.5 1659.20   4
  -2   6   7 1685.68 888.688   6
  -2   6  -7 2500.79 689.271   2
  -2  -6   7 2236.42 840.615   4
  -3   6   7 5922.59 1610.34   6
  -3  -6   7 6485.02 1315.65   3
  -3  -6   7 7552.08 1348.58   4
  -4   6   7 3974.12 1440.85   6
  -4  -6   7 2580.62 872.047   3
  -4  -6   7 1939.02 771.203   4
  -5   6   7 7229.89 1810.31   6
  -5  -6   7 7785.71 1542.07   3
  -5  -6   7 8982.89 1530.35   4
  -6  -6   7 1445.80 783.220   3
  -6  -6   7 452.178 545.939   4
  -7  -6   7 4922.16 1346.20   3
   6   6   8 34612.1 3645.45   1
   6  -6   8 38303.3 3224.87   4
   5   6   8 8247.14 1753.21   1
   5  -6   8 8934.60 1578.46   4
   4   6  -8 43345.7 3832.75   2
   4   6   8 50206.0 4022.54   1
   4  -6   8 50757.5 3529.36   4
   3  -6   8 806.477 537.728   4
   3   6   8 535.127 591.276   1
   3   6  -8-694.249 679.671   2
   2   6  -8 61515.1 4175.64   2
   2  -6   8 55763.4 3596.22   4
   2   6   8 57339.0 4053.37   1
   1  -6   8 6355.73 1227.31   4
   1   6  -8 5739.13 1256.96   2
   1   6   8 6853.58 1409.43   1
   0  -6  -8 69547.2 3443.32   3
   0   6  -8 69634.2 4041.01   2
   0  -6   8 67860.7 3979.25   4
   0   6   8 72049.3 4432.98   1
  -1   6   8 7088.27 1622.57   6
  -1   6  -8 5785.11 1122.70   2
  -1  -6   8 6491.26 1313.99   4
  -2   6   8 59783.0 4691.72   6
  -2   6  -8 58146.4 3385.79   2
  -2  -6   8 64809.3 3947.64   4
  -3   6   8-354.240 683.324   6
  -3  -6   8 294.403 352.817   4
  -4   6   8 42141.8 4210.77   6
  -4  -6   8 51170.0 3729.12   3
  -4  -6   8 47808.7 3483.99   4
  -5   6   8 10080.2 2132.93   6
  -5  -6   8 8556.96 1598.35   3
  -5  -6   8 10189.4 1636.21   4
  -6   6   8 33114.4 4219.46   6
  -6  -6   8 38001.9 3438.04   3
  -6  -6   8 38958.1 3270.24   4
   6  -6   9 2153.73 862.629   4
   5   6   9 3463.79 1225.30   1
   5  -6   9 3308.99 972.661   4
   5   6  -9 4254.11 1375.50   2
   4  -6   9 400.358 518.008   4
   4   6   9 1439.79 913.855   1
   4   6  -9-182.992 591.303   2
   3  -6   9 4412.95 1093.77   4
   3   6   9 6555.02 1517.26   1
   3   6  -9 4374.57 1282.76   2
   2  -6   9 300.791 507.800   4
   2   6   9 475.926 539.422   1
   2   6  -9 1325.40 835.343   2
   1  -6   9 7589.83 1361.82   4
   1   6   9 4966.52 1251.87   1
   1   6  -9 6892.12 1414.13   2
   0  -6   9 863.493 532.555   4
   0  -6  -9 833.667 503.592   3
   0   6   9 490.461 522.106   1
   0   6  -9 578.589 527.615   2
  -1  -6   9 7570.68 1415.46   4
  -1   6   9 6147.21 1566.32   6
  -1   6  -9 5147.25 1120.78   2
  -2   6   9-267.412 562.047   6
  -2   6  -9 4.34072 361.981   2
  -2  -6   9 855.637 613.232   4
  -3   6   9 5112.16 1574.97   6
  -3  -6   9 7424.00 1410.64   4
  -4   6   9-585.507 711.919   6
  -4  -6   9 379.533 468.509   4
  -5   6   9 1310.82 1028.97   6
  -5  -6   9 4037.75 1140.88   3
  -5  -6   9 5249.24 1249.63   4
  -6  -6   9 2182.36 882.690   3
  -6  -6   9 549.228 559.235   4
   6  -6  10 22457.8 2616.55   4
   5   6  10 2951.27 1172.89   1
   5  -6  10 1103.61 860.882   4
   5   6 -10 2074.24 999.147   2
   4   6 -10 36478.8 3708.29   2
   4   6  10 33799.1 3473.92   1
   4  -6  10 31431.0 3012.22   4
   3  -6  10 1591.33 773.658   4
   3   6  10 859.803 586.816   1
   3   6 -10 685.337 665.052   2
   2   6 -10 46792.4 3817.82   2
   2  -6  10 48343.6 3525.48   4
   2   6  10 48436.8 3925.07   1
   1  -6  10 1122.37 639.931   4
   1   6  10 288.344 553.441   1
   1   6 -10 861.205 657.271   2
   0   6 -10 44840.3 3456.87   2
   0  -6  10 48054.8 3487.15   4
   0   6  10 45877.4 3741.67   1
  -1  -6  10 757.418 629.162   4
  -1   6  10-249.363 681.544   6
  -1   6 -10 940.013 604.748   2
  -2   6  10 52808.7 4624.26   6
  -2   6 -10 46511.9 3281.62   2
  -2  -6  10 51048.8 3649.77   4
  -3  -6  10 1907.64 825.770   4
  -3   6  10 1316.32 963.475   6
  -4   6  10 35161.3 4011.56   6
  -4  -6  10 37925.2 3180.70   4
  -5   6  10 1883.98 1138.32   6
  -5  -6  10 2433.33 886.082   4
   6  -6  11 289.127 522.761   4
   5  -6  11 5664.31 1350.37   4
   4  -6  11 17.9750 412.109   4
   4   6  11 253.032 484.859   1
   4   6 -11-420.288 556.912   2
   3  -6  11 5084.43 1240.08   4
   3   6  11 3292.09 1129.88   1
   3   6 -11 4739.04 1384.08   2
   2   6  11 1417.14 759.958   1
   2  -6  11 242.135 544.211   4
   2   6 -11 429.902 582.554   2
   1  -6  11 3299.65 1031.39   4
   1   6  11 3903.12 1245.09   1
   1   6 -11 4143.08 1158.78   2
   0  -6  11 862.084 491.101   4
   0   6  11 379.699 607.247   1
   0   6 -11 484.418 691.578   2
  -1  -6  11 4277.18 1144.44   4
  -1   6  11 4991.06 1534.04   6
  -1   6 -11 4370.81 1097.62   2
  -1   6  11 2532.41 988.045   1
  -2  -6  11 368.141 511.597   4
  -2   6  11 323.209 719.537   6
  -2   6 -11-315.519 491.067   2
  -3  -6  11 4758.66 1226.05   4
  -3   6  11 5194.63 1721.13   6
  -4  -6  11 799.962 619.559   4
  -4   6  11-297.254 651.934   6
  -5  -6  11 4603.46 1173.20   4
   4   6  12 23004.8 3057.53   1
   4   6 -12 25216.2 3256.32   2
   4  -6  12 25496.3 2861.39   4
   3  -6  12 3765.31 1151.94   4
   3   6 -12 4568.12 1331.59   2
   2   6 -12 35414.8 3510.15   2
   2  -6  12 34070.7 3158.98   4
   2   6  12 36305.6 3599.15   1
   1  -6  12 927.738 683.278   4
   1   6  12 794.462 692.250   1
   1   6 -12 931.669 653.371   2
   0   6 -12 22865.2 2651.17   2
   0  -6  12 27193.8 2780.88   4
   0   6  12 23310.2 2838.50   1
  -1  -6  12 212.608 449.558   4
  -1   6  12 1227.20 769.223   1
  -1   6 -12 2296.26 857.501   2
  -2   6  12 36214.7 4087.93   6
  -2   6 -12 34135.1 3034.50   2
  -2  -6  12 38220.7 3293.11   4
  -3  -6  12 1398.40 729.733   4
  -3   6  12 2055.06 1100.35   6
  -4   6  12 22762.7 3422.08   6
  -4  -6  12 22010.8 2532.04   4
  -5  -6  12-720.625 577.945   4
   3  -6  13 6483.99 1503.28   4
   3   6  13 5224.78 1462.19   1
   3   6 -13 4747.24 1575.56   2
   2  -6  13-51.9307 503.867   4
   2   6 -13-711.535 660.990   2
   1  -6  13 7450.46 1550.79   4
   1   6  13 5893.81 1514.75   1
   1   6 -13 7417.76 1643.83   2
   0   6  13 1262.05 862.547   1
   0  -6  13 1739.44 812.809   4
   0   6 -13 2107.76 926.160   2
  -1  -6  13 4619.42 1244.33   4
  -1   6  13 7318.29 1648.26   1
  -1   6 -13 5185.89 1339.87   2
  -2  -6  13-94.0846 487.551   4
  -2   6  13 1383.73 1120.49   6
  -3  -6  13 5675.66 1383.78   4
  -3   6  13 3725.00 1370.46   6
  -4  -6  13-597.672 533.468   4
   2   6 -14 36843.9 3828.24   2
   2   6  14 42648.1 4089.47   1
   2  -6  14 34823.3 3374.39   4
   1   6  14-54.1781 447.657   1
   1   6 -14-1176.07 832.630   2
   0   6 -14 32275.0 3322.66   2
   0  -6  14 26328.4 2935.15   4
   0   6  14 29645.6 3352.00   1
  -1  -6  14 1406.62 787.570   4
  -1   6 -14 1933.61 912.519   2
  -1   6  14-94.7472 558.238   1
  -2   6  14 43878.0 4134.71   1
  -2   6  14 42314.8 4621.14   6
  -2   6 -14 39717.3 3526.73   2
  -2  -6  14 41433.4 3574.09   4
  -3  -6  14-660.709 591.389   4
  -4  -6  14 23674.8 2681.06   4
   1   6 -15 1304.43 805.591   2
   0   6 -15 593.094 697.095   2
  -1   6 -15-419.463 573.967   2
  -2   6 -15 3239.76 1089.39   2
  -1   6 -16-9.61924 305.284   2
   6  -7   0 3436.75 1129.76   5
   5  -7   0 35.9050 453.775   5
   4  -7   0 2449.52 783.208   4
   4  -7   0 3233.20 905.767   5
   4   7   0 2516.94 867.243   1
   3   7   0-652.458 526.850   1
   3  -7   0 1421.09 636.364   4
   2   7   0 870.993 497.071   1
   2  -7   0 39.0559 465.946   4
   1   7   0 192.475 422.114   1
   1  -7   0 271.584 376.720   4
   0   7   0 1752.21 650.971   1
   0  -7   0 3290.50 861.892   3
  -1   7   0 189.617 461.638   6
  -1  -7   0 1485.95 660.635   3
  -2   7   0-271.776 453.601   6
  -2  -7   0-9.93932 320.799   3
  -3   7   0 596.646 610.479   6
  -3  -7   0 2035.66 851.137   3
  -4  -7   0 1678.75 796.717   3
  -5  -7   0-19.9806 453.102   3
  -6  -7   0 1467.03 879.589   3
   7  -7  -1 50488.1 4201.74   5
   6  -7  -1-558.827 585.917   5
   6  -7   1-42.4753 537.141   5
   5  -7  -1 38129.4 3121.98   5
   5  -7   1 37592.9 3186.12   5
   5   7   1 34382.0 2993.40   1
   4  -7   1-64.2574 364.262   4
   4   7   1-287.995 554.950   1
   4  -7  -1 217.935 447.714   5
   4  -7   1 552.007 489.354   5
   4  -7  -1-310.571 417.534   4
   3  -7  -1 107106. 4467.52   5
   3   7  -1 102345. 4377.08   1
   3   7   1 100486. 4723.95   1
   3  -7  -1 106252. 4538.98   4
   3  -7   1 95758.4 4462.11   4
   2   7  -1-23.8551 309.550   1
   2  -7  -1 246.709 424.634   4
   2   7   1 674.388 494.864   1
   2  -7   1 122.985 311.600   4
   1  -7   1 81789.9 4199.47   4
   1   7  -1 76302.8 3698.70   1
   1   7   1 78979.9 4089.90   1
   0  -7  -1 2677.20 760.261   3
   0   7  -1 2749.88 718.675   1
   0  -7   1 2749.47 861.786   4
  -1   7   1 71062.6 4330.34   6
  -1   7  -1 76360.8 4192.49   6
  -1  -7  -1 80405.6 4223.61   3
  -1  -7   1 83354.1 4369.33   3
  -2   7   1 1644.01 758.589   6
  -2   7  -1 332.647 475.207   6
  -2  -7  -1 601.421 508.857   3
  -2  -7   1 1042.95 681.083   3
  -3  -7  -1 106086. 5345.55   3
  -3  -7   1 108775. 5393.85   3
  -3   7   1 113418. 5976.51   6
  -3   7  -1 114100. 5713.75   6
  -4  -7  -1-324.756 560.088   3
  -4  -7   1-391.274 532.259   3
  -5  -7  -1 36738.1 3511.09   3
  -5  -7   1 33186.1 3293.35   3
  -6  -7  -1-1245.55 793.361   3
  -6  -7   1 859.996 693.743   3
   7  -7  -2 1679.68 930.663   5
   6   7   2 5288.80 1331.56   1
   6  -7  -2 5731.07 1367.89   5
   6  -7   2 4606.69 1311.00   5
   5  -7  -2 446.428 508.532   5
   5  -7   2 820.120 681.263   5
   5   7   2 789.784 690.354   1
   4  -7   2 12467.6 1633.63   4
   4   7   2 10873.1 1672.15   1
   4  -7  -2 8873.72 1407.43   5
   3   7   2-10.9883 409.751   1
   3  -7  -2 121.217 372.485   5
   3  -7  -2 1163.13 557.437   4
   3  -7   2 759.411 539.480   4
   2   7   2 12372.4 1736.07   1
   2   7  -2 11426.8 1379.88   1
   2  -7  -2 10508.5 1273.35   5
   2  -7  -2 12917.3 1652.37   4
   2  -7   2 13234.9 1729.28   4
   1   7  -2 614.487 360.317   1
   1  -7   2 1.12771 525.599   4
   1   7   2 174.450 470.393   1
   0   7   2 24017.7 2364.02   1
   0  -7  -2 20065.8 2025.02   3
   0  -7   2 22129.2 2244.89   4
   0   7  -2 19542.2 1844.04   1
  -1   7   2 339.850 520.478   6
  -1   7  -2 831.716 516.536   6
  -1  -7  -2 565.400 523.984   3
  -1  -7   2 699.133 559.753   3
  -1  -7   2 13.2817 466.668   4
  -2   7   2 12169.0 1976.90   6
  -2   7  -2 9466.40 1548.72   6
  -2  -7  -2 13019.6 1809.98   3
  -2  -7   2 14058.9 1890.07   3
  -3   7   2 138.698 459.669   6
  -3  -7  -2 864.149 598.736   3
  -3   7  -2 223.408 502.438   6
  -3  -7   2 668.408 634.984   3
  -4  -7  -2 13469.2 2026.18   3
  -4   7   2 12938.3 2185.55   6
  -4  -7   2 10972.4 1841.82   3
  -5  -7  -2 668.466 574.662   3
  -5  -7   2 1782.02 871.004   3
  -6  -7  -2 3585.77 1154.16   3
  -6  -7   2 8268.41 1739.97   3
   7  -7  -3 35186.0 3490.42   5
   7   7   3 32815.3 3442.13   1
   6  -7  -3 851.200 674.152   5
   6   7   3 131.367 367.475   1
   6  -7   3 778.476 588.140   5
   5  -7  -3 27375.9 2642.40   5
   5  -7   3 31271.9 2973.81   5
   5   7   3 25582.7 2779.56   1
   4  -7   3 186.923 315.725   4
   4   7   3 114.536 390.736   1
   4  -7  -3-117.150 303.026   5
   3  -7  -3 76199.2 3674.49   5
   3  -7  -3 71851.5 3673.37   4
   3   7   3 67845.7 4157.60   1
   3  -7   3 66904.8 3877.40   4
   2  -7  -3 1713.22 559.766   5
   2  -7   3 1342.96 633.892   4
   1  -7   3 50778.1 3402.89   4
   1   7   3 51163.5 3527.00   1
   0   7  -3 769.334 416.250   1
   0   7   3 1081.50 597.024   1
   0  -7  -3 1450.79 585.622   3
   0  -7   3 713.286 518.795   4
  -1   7   3 51730.0 3941.01   6
  -1  -7  -3 51815.7 3373.62   3
  -1  -7   3 52711.9 3588.38   3
  -1  -7   3 52747.2 3561.56   4
  -2   7   3 3579.38 1208.45   6
  -2   7  -3 1526.87 583.025   6
  -2  -7  -3 1170.45 564.905   3
  -2  -7   3 1578.40 753.739   3
  -2  -7   3 2140.69 783.878   4
  -3  -7  -3 74960.1 4571.18   3
  -3   7   3 66985.1 4843.51   6
  -3  -7   3 68142.5 4262.01   3
  -4  -7  -3 1038.97 681.127   3
  -4   7   3 85.1737 473.968   6
  -4  -7   3 389.421 506.490   3
  -5  -7  -3 26269.7 3000.65   3
  -5  -7   3 27371.1 2966.22   3
  -6  -7   3-949.544 663.345   3
   7   7   4 434.917 605.518   1
   7  -7  -4-801.878 787.027   5
   6  -7  -4 6779.67 1497.78   5
   6   7   4 6157.83 1442.07   1
   6  -7   4 7565.23 1634.82   5
   5  -7   4 1555.60 659.226   4
   5  -7  -4 1616.98 723.945   5
   5   7   4 287.927 461.792   1
   4  -7   4 13442.8 1800.16   4
   4   7   4 8746.55 1628.98   1
   4  -7  -4 9746.94 1440.94   5
   3  -7   4 1510.70 705.659   4
   3   7   4 892.023 662.862   1
   3  -7  -4 331.441 440.380   4
   2   7   4 8727.35 1527.22   1
   2  -7   4 9237.69 1481.28   4
   1  -7  -4 1028.27 514.675   3
   1  -7   4 1187.61 754.224   4
   1   7   4 1193.24 614.903   1
   0  -7  -4 9297.05 1370.70   3
   0   7   4 10186.3 1628.63   1
   0  -7   4 7996.11 1407.69   4
  -1   7   4 1970.28 851.844   6
  -1  -7  -4 1291.67 639.827   3
  -1  -7   4 1295.50 644.865   4
  -2   7   4 10116.7 1872.28   6
  -2  -7  -4 10090.2 1608.15   3
  -2  -7   4 8210.67 1492.88   3
  -2  -7   4 9111.30 1543.67   4
  -3  -7  -4 950.203 689.639   3
  -3   7   4 1703.18 925.242   6
  -3  -7   4 2400.34 831.087   3
  -3  -7   4 772.432 571.238   4
  -4  -7  -4 10861.6 1859.97   3
  -4   7   4 11285.9 2180.90   6
  -4  -7   4 8509.35 1619.54   3
  -4  -7   4 9200.50 1669.26   4
  -5   7   4 388.712 615.696   6
  -5  -7   4 916.454 693.604   3
  -6  -7   4 7104.90 1680.03   3
  -7  -7   4 2041.96 945.762   4
   7  -7  -5 33498.0 3435.97   5
   6  -7  -5-1297.59 706.703   5
   6  -7   5-84.0634 610.143   5
   6   7   5-686.050 730.642   1
   5   7   5 35732.6 3438.53   1
   5  -7   5 32989.7 2851.84   4
   4  -7   5-253.228 386.219   4
   4   7   5 769.129 629.740   1
   3  -7  -5 64632.8 3487.89   4
   3  -7   5 70354.4 4092.21   4
   2  -7   5 881.444 660.109   4
   2   7   5 67.1686 477.498   1
   1  -7  -5 66036.8 3367.34   3
   1  -7   5 63666.0 3911.15   4
   1   7   5 63738.0 4154.08   1
   0   7   5 4341.87 1161.75   1
   0  -7  -5 5432.94 1061.19   3
   0  -7   5 6332.44 1302.07   4
  -1   7   5 64692.6 4686.71   6
  -1  -7  -5 63048.6 3765.18   3
  -1  -7   5 67230.6 4095.25   4
  -2   7   5 1218.00 779.629   6
  -2  -7  -5 1247.17 653.470   3
  -2  -7   5 671.725 454.351   3
  -2  -7   5 584.277 451.299   4
  -3  -7  -5 70472.4 4474.43   3
  -3   7   5 68479.3 5123.90   6
  -3  -7   5 71072.8 4472.52   3
  -3  -7   5 69592.9 4310.68   4
  -4   7   5 1384.58 870.000   6
  -4  -7   5 462.702 546.856   3
  -4  -7   5 1101.98 671.577   4
  -5   7   5 38869.5 4201.53   6
  -5  -7   5 42302.4 3689.19   3
  -5  -7   5 38355.3 3378.08   4
  -6  -7   5 1130.40 808.035   3
  -6  -7   5-3.21855 576.081   4
  -7  -7   5 30569.6 3246.92   4
   6   7   6 3866.82 1359.26   1
   5   7   6 328.488 664.833   1
   5  -7   6 1110.01 640.942   4
   4  -7   6 3669.60 1019.27   4
   4   7   6 1656.45 875.814   1
   3  -7   6-190.036 396.653   4
   3   7   6 1134.88 748.596   1
   2  -7   6 6029.70 1245.17   4
   2   7   6 5323.44 1326.74   1
   1  -7  -6 1032.72 497.087   3
   1   7  -6 1166.64 772.558   2
   1   7   6-165.623 453.960   1
   1  -7   6 692.250 543.320   4
   0  -7  -6 4185.21 947.354   3
   0   7  -6 5568.78 1222.53   2
   0   7   6 5754.26 1308.23   1
   0  -7   6 6280.47 1299.14   4
  -1   7   6 396.918 561.298   6
  -1  -7  -6 939.029 597.975   3
  -1   7  -6 1120.23 669.678   2
  -1  -7   6 1484.54 739.989   4
  -2   7   6 6568.77 1691.38   6
  -2  -7  -6 5017.79 1187.67   3
  -2  -7   6 4014.04 1092.81   4
  -3   7   6 502.049 680.965   6
  -3  -7   6-101.798 470.690   3
  -3  -7   6 476.693 601.112   4
  -4   7   6 2214.33 1067.82   6
  -4  -7   6 4442.85 1199.66   3
  -4  -7   6 5808.51 1327.12   4
  -5   7   6-526.560 763.466   6
  -5  -7   6 588.846 593.790   3
  -6  -7   6 1063.20 788.487   4
   5   7   7 36906.9 3710.71   1
   5  -7   7 38442.2 3239.92   4
   4  -7   7-48.2417 381.337   4
   4   7   7 1770.22 965.622   1
   3   7   7 50451.3 4048.22   1
   3  -7   7 48910.1 3574.85   4
   2  -7   7 2248.33 893.555   4
   2   7   7 3531.15 1105.64   1
   2   7  -7 3639.40 1135.78   2
   1   7  -7 58728.9 4120.50   2
   1  -7   7 62696.8 4038.03   4
   1   7   7 58371.3 4205.75   1
   0  -7  -7 4183.20 924.510   3
   0   7   7 2695.54 966.576   1
   0   7  -7 2194.28 821.382   2
   0  -7   7 2180.83 829.623   4
  -1   7   7 56896.4 4635.91   6
  -1  -7  -7 56135.6 3591.77   3
  -1   7  -7 60106.3 3768.89   2
  -1  -7   7 57383.7 3928.75   4
  -2   7   7 3259.58 1195.94   6
  -2  -7  -7 2058.16 832.801   3
  -2  -7   7 4981.71 1219.25   4
  -3   7   7 55281.4 4838.82   6
  -3  -7   7 48621.2 3679.98   4
  -4   7   7-837.607 842.787   6
  -4  -7   7 50.3404 421.787   3
  -4  -7   7-449.251 459.982   4
  -5   7   7 40536.7 4467.65   6
  -5  -7   7 40018.9 3633.49   3
  -5  -7   7 37578.0 3380.40   4
  -6  -7   7-303.588 558.726   4
   5   7   8 2385.19 1063.20   1
   5  -7   8 207.643 554.774   4
   4  -7   8 3013.74 1016.05   4
   4   7   8 5598.15 1493.02   1
   3  -7   8 664.216 589.691   4
   3   7   8 2202.68 900.036   1
   3   7  -8 1514.58 904.135   2
   2  -7   8 7233.16 1461.23   4
   2   7   8 6325.13 1536.41   1
   2   7  -8 7878.02 1632.19   2
   1  -7   8 967.130 589.622   4
   1   7  -8-871.804 691.720   2
   1   7   8 1057.56 718.923   1
   0  -7   8 2225.02 864.308   4
   0   7   8 2050.45 933.721   1
   0   7  -8 1779.32 800.725   2
  -1   7   8-509.147 643.998   6
  -1  -7  -8 480.109 454.632   3
  -1   7  -8 577.669 562.413   2
  -1  -7   8 1037.34 680.120   4
  -2   7   8 3980.21 1375.53   6
  -2  -7  -8 2967.86 1053.23   3
  -2  -7   8 4396.58 1155.75   4
  -3   7   8 1674.62 979.390   6
  -3  -7   8 1381.78 787.207   4
  -4   7   8 8065.91 2020.57   6
  -4  -7   8 4328.35 1228.84   4
  -5   7   8 171.099 485.408   6
  -5  -7   8 516.135 580.283   3
  -6  -7   8 3126.74 1109.92   4
   5  -7   9 34913.8 3272.78   4
   4  -7   9-586.846 573.667   4
   4   7   9 42.3676 578.575   1
   4   7  -9 912.367 840.346   2
   3   7  -9 40492.5 3917.62   2
   3   7   9 42068.3 3884.76   1
   3  -7   9 36236.9 3228.30   4
   2  -7   9-284.539 484.188   4
   2   7   9 94.8136 494.871   1
   2   7  -9 477.995 564.789   2
   1   7  -9 53560.2 4109.35   2
   1  -7   9 49291.1 3723.13   4
   1   7   9 56278.7 4333.81   1
   0  -7   9 5859.11 1307.65   4
   0   7  -9 4507.30 1177.57   2
   0   7   9 4131.50 1268.47   1
  -1  -7  -9 50091.7 3427.60   3
  -1   7   9 51796.0 4668.85   6
  -1   7  -9 48111.2 3566.05   2
  -1  -7   9 48583.7 3736.04   4
  -2   7   9-48.8899 449.927   6
  -2  -7   9-87.9551 373.693   4
  -3   7   9 37112.4 4143.38   6
  -3  -7   9 37798.3 3366.93   4
  -4   7   9 1637.68 897.742   6
  -4  -7   9 131.771 399.782   4
  -5  -7   9 36338.5 3371.19   4
   5  -7  10 1364.67 853.080   4
   4  -7  10 3173.05 1098.53   4
   4   7  10 3327.42 1257.88   1
   3  -7  10 962.423 680.341   4
   3   7  10 2903.88 1129.74   1
   3   7 -10 1895.78 963.033   2
   2  -7  10 10937.4 1828.80   4
   2   7  10 7754.14 1710.68   1
   2   7 -10 10730.8 2005.09   2
   1  -7  10-314.876 566.252   4
   1   7  10 398.676 623.145   1
   1   7 -10 1530.29 777.214   2
   0  -7  10 5934.58 1337.84   4
   0   7  10 7454.43 1637.53   1
   0   7 -10 4144.94 1178.07   2
  -1  -7  10 315.087 603.947   4
  -1   7  10-394.719 737.539   6
  -1   7  10 837.564 649.683   1
  -1   7 -10 1448.65 737.772   2
  -2  -7  10 8346.38 1645.77   4
  -2   7  10 11794.6 2351.47   6
  -3  -7  10 1243.96 780.850   4
  -3   7  10 1455.41 976.248   6
  -4  -7  10 5351.85 1254.26   4
  -5  -7  10 186.847 420.021   4
   3  -7  11 20291.9 2579.23   4
   3   7  11 17495.0 2614.98   1
   3   7 -11 15223.3 2557.50   2
   2  -7  11 878.953 704.954   4
   2   7 -11 1337.05 865.458   2
   2   7  11 3.86176 589.727   1
   1   7 -11 28780.2 3148.56   2
   1  -7  11 29538.4 3009.49   4
   1   7  11 27913.1 3212.87   1
   0  -7  11 457.274 493.642   4
   0   7  11 1644.70 844.611   1
   0   7 -11-75.4987 493.905   2
  -1   7 -11 28551.2 2948.91   2
  -1  -7  11 23407.4 2710.46   4
  -1   7  11 27076.5 3181.57   1
  -2  -7  11 919.442 695.272   4
  -2   7  11 1306.65 787.526   6
  -3  -7  11 20786.3 2584.25   4
  -3   7  11 16279.7 2925.08   6
  -4  -7  11-96.4842 510.414   4
   2  -7  12 4575.44 1280.42   4
   2   7 -12 5818.82 1588.14   2
   1  -7  12 572.706 565.683   4
   1   7  12 17.7410 462.686   1
   1   7 -12-1029.45 796.284   2
   0   7  12 1263.28 863.764   1
   0  -7  12 3530.68 1143.49   4
   0   7 -12 4085.54 1281.92   2
  -1  -7  12 171.207 425.562   4
  -1   7  12 445.335 587.857   1
  -1   7 -12 71.8517 444.212   2
  -2  -7  12 7441.60 1649.68   4
  -3  -7  12-2104.29 920.222   4
   1   7 -13 30652.8 3485.55   2
   0   7 -13 1224.75 833.465   2
  -1   7 -13 28300.6 3129.54   2
   0   7 -14 1709.16 830.607   2
  -1   7 -14 260.479 520.440   2
   6  -8   0 26832.8 3037.07   5
   5  -8   0 1121.91 735.630   5
   4  -8   0 44898.6 3361.11   5
   3  -8   0-2.24783 350.662   5
   3  -8   0-226.312 438.915   4
   2  -8   0 98858.0 4960.54   4
   1   8   0-271.996 501.096   1
   1  -8   0-606.135 533.808   4
   0  -8   0 28483.3 2775.83   4
   0   8   0 27959.0 2591.47   1
  -1   8   0-328.177 509.614   6
  -1  -8   0-46.6663 353.531   3
  -2   8   0 98239.9 5517.28   6
  -2  -8   0 98820.1 5292.52   3
  -3   8   0-816.514 811.388   6
  -3  -8   0 367.786 532.836   3
  -4  -8   0 41997.9 3757.46   3
  -4   8   0 43720.8 4062.13   6
   6  -8  -1-718.917 738.152   5
   5  -8  -1 4995.76 1216.08   5
   5  -8   1 4242.99 1156.85   5
   4  -8   1-39.0078 318.959   4
   4  -8  -1 1085.74 635.274   5
   4  -8   1 1097.80 655.573   5
   3   8   1 4319.29 1109.13   1
   3  -8  -1 5943.90 1213.16   4
   3  -8   1 5698.82 1242.29   4
   2   8   1 1649.24 736.743   1
   2  -8  -1 1349.47 689.064   4
   2  -8   1 407.535 528.148   4
   1   8   1 4266.80 1106.65   1
   1  -8  -1 5325.74 1230.71   4
   1  -8   1 4671.92 1163.29   4
   0   8   1 507.098 549.553   1
   0   8  -1 386.955 444.529   1
   0  -8   1 909.294 674.312   4
  -1   8   1 3635.21 1081.80   6
  -1  -8  -1 6026.14 1287.78   3
  -1  -8   1 3898.38 1119.02   3
  -2  -8  -1 351.524 533.782   3
  -2  -8   1 1141.65 719.603   3
  -3   8   1 6478.93 1571.12   6
  -3  -8  -1 6879.08 1515.90   3
  -3  -8   1 7073.23 1520.94   3
  -4   8   1 1547.22 905.534   6
  -4   8  -1 1790.54 921.855   6
  -4  -8  -1 13.8312 837.784   3
  -4  -8   1 605.313 683.916   3
  -5   8   1 5332.51 1607.31   6
   5  -8   2-178.954 369.013   5
   4   8   2 36783.9 3249.37   1
   4  -8   2 35875.4 2996.59   4
   3   8   2 918.863 602.773   1
   3  -8  -2 228.753 411.674   4
   3  -8   2-754.559 570.400   4
   2  -8  -2 79917.4 4408.62   4
   2  -8   2 82420.5 4627.40   4
   2   8   2 75154.5 4465.85   1
   1   8   2-226.023 449.811   1
   1  -8   2-13.5134 414.151   4
   0  -8  -2 32294.2 2826.83   3
   0  -8   2 27973.1 2761.52   4
   0   8   2 27502.1 2720.19   1
  -1   8   2-1168.71 730.723   6
  -1  -8  -2 44.0217 336.771   3
  -2   8   2 75811.9 5145.18   6
  -2  -8  -2 82559.4 4842.52   3
  -2  -8   2 77899.3 4791.14   3
  -3   8   2 729.427 644.654   6
  -3  -8  -2-9.53400 416.546   3
  -4  -8  -2 37922.5 3620.21   3
  -4   8   2 37284.5 3938.84   6
  -4  -8   2 40964.0 3714.42   3
  -5   8   2-1028.03 786.244   6
   5  -8   3 4094.96 1200.96   5
   5   8   3 5085.66 1368.63   1
   4  -8   3-91.2190 309.716   4
   4   8   3-465.751 553.752   1
   3  -8   3 8981.18 1565.45   4
   3   8   3 8775.84 1608.32   1
   3  -8  -3 10024.5 1550.33   4
   2  -8  -3 378.268 455.413   4
   2   8   3 1747.34 773.487   1
   2  -8   3 1529.61 721.522   4
   1   8   3 6288.62 1400.97   1
   1  -8   3 6938.52 1417.55   4
   0   8   3 464.843 540.602   1
   0  -8  -3 347.696 480.335   3
   0  -8   3 253.222 554.997   4
  -1   8   3 7634.17 1698.98   6
  -1  -8  -3 5682.69 1254.29   3
  -1  -8   3 4787.25 1202.26   4
  -2   8   3 1298.28 804.665   6
  -2  -8  -3 1905.08 839.739   3
  -2  -8   3 1242.64 732.995   3
  -2  -8   3 834.654 576.981   4
  -3   8   3 8036.54 1849.41   6
  -3  -8  -3 11255.6 1939.26   3
  -3  -8   3 8100.30 1661.91   3
  -3  -8   3 11697.6 1937.20   4
  -4   8   3 579.726 846.649   6
  -4  -8  -3 1491.31 877.251   3
  -4  -8   3 894.690 744.098   3
  -5   8   3 3953.98 1460.62   6
   5  -8   4-1067.72 743.761   5
   5   8   4-802.545 669.511   1
   4   8   4 38371.7 3517.85   1
   4  -8   4 35662.3 3091.53   4
   3  -8   4 1649.21 751.253   4
   3   8   4 1313.82 816.120   1
   2  -8   4 69478.3 4392.76   4
   2   8   4 66685.3 4508.41   1
   1   8   4-71.1110 471.788   1
   1  -8   4-231.299 468.685   4
   0  -8  -4 29318.9 2647.38   3
   0  -8   4 29295.5 2877.11   4
   0   8   4 26587.2 2840.32   1
  -1   8   4 228.149 529.460   6
  -1  -8  -4-677.599 570.460   3
  -1  -8   4 313.692 455.535   4
  -2   8   4 61592.7 4872.36   6
  -2  -8  -4 68497.2 4432.57   3
  -2  -8   4 68550.1 4592.18   3
  -2  -8   4 69183.3 4557.32   4
  -3   8   4 1925.93 996.014   6
  -3  -8  -4-410.837 570.962   3
  -3  -8   4 1264.06 829.238   3
  -3  -8   4 295.753 547.609   4
  -4  -8  -4 39363.4 3747.49   3
  -4  -8   4 37091.7 3550.36   3
  -4   8   4 27876.5 3558.79   6
  -4  -8   4 37986.0 3540.81   4
  -5   8   4-912.490 893.239   6
   5   8   5 2663.38 1052.92   1
   4  -8   5 239.303 484.204   4
   4   8   5 1085.90 405.400   1
   3  -8   5 5889.11 1310.73   4
   3   8   5 7704.73 1635.99   1
   2  -8   5 1432.35 784.010   4
   2   8   5 1446.38 825.115   1
   1   8   5 2829.10 996.092   1
   1  -8   5 4512.52 1210.00   4
   0   8   5 302.431 730.351   1
   0  -8  -5-150.492 442.446   3
   0  -8   5-315.953 503.365   4
  -1   8   5 3043.82 1213.62   6
  -1  -8  -5 5361.08 1187.33   3
  -1  -8   5 3085.88 1045.28   4
  -2   8   5 1716.06 1120.04   6
  -2  -8  -5 2700.41 939.751   3
  -2  -8   5 1556.32 842.043   4
  -3   8   5 6730.14 1815.04   6
  -3  -8  -5 8208.61 1718.01   3
  -3  -8   5 7801.87 1634.87   3
  -3  -8   5 5632.19 1358.76   4
  -4   8   5 1998.83 1237.47   6
  -4  -8  -5-1105.52 789.388   3
  -4  -8   5 914.461 626.822   3
  -4  -8   5-1498.06 901.069   4
   4   8   6 31225.9 3407.46   1
   4  -8   6 32475.5 3084.66   4
   3  -8   6-22.1142 467.532   4
   3   8   6-51.3726 643.610   1
   2  -8   6 55344.2 4022.32   4
   2   8   6 53735.8 4259.41   1
   1   8   6 642.948 700.347   1
   1  -8   6 979.629 543.914   4
   0  -8   6 39165.7 3416.47   4
   0   8   6 38451.9 3551.22   1
  -1   8   6 407.522 553.339   6
  -1  -8  -6 657.449 549.048   3
  -1  -8   6-137.545 432.662   4
  -2   8   6 50828.3 4638.65   6
  -2  -8  -6 48681.4 3764.53   3
  -2  -8   6 57313.9 4211.14   4
  -3   8   6-409.687 879.840   6
  -3  -8  -6 790.944 652.353   3
  -3  -8   6 790.498 608.737   4
  -4  -8  -6 31668.8 3437.16   3
  -4   8   6 30220.3 3868.54   6
  -4  -8   6 33762.2 3369.80   4
   5  -8   7 2207.43 861.307   4
   4  -8   7 896.923 619.926   4
   4   8   7-312.141 672.203   1
   3  -8   7 8854.42 1700.48   4
   3   8   7 10568.7 1963.64   1
   2  -8   7-99.9737 382.428   4
   2   8   7-361.654 600.054   1
   1  -8   7 6329.23 1490.01   4
   1   8   7 10174.0 1931.86   1
   0   8   7 1119.85 857.010   1
   0  -8   7 806.870 701.539   4
  -1   8   7 8104.64 1941.82   6
  -1  -8  -7 9073.85 1564.51   3
  -1  -8   7 9671.02 1798.23   4
  -2   8   7 1133.29 923.976   6
  -2  -8  -7 1086.28 682.576   3
  -2  -8   7-128.411 499.217   4
  -3   8   7 6120.98 1833.53   6
  -3  -8  -7 9269.17 1787.88   3
  -3  -8   7 8888.44 1734.68   4
  -4  -8  -7 834.704 738.957   3
   4  -8   8 31275.0 3201.44   4
   3  -8   8-79.6512 477.404   4
   3   8   8 1116.91 772.751   1
   2  -8   8 33387.7 3264.08   4
   2   8   8 37334.9 3754.01   1
   1  -8   8 1605.21 976.703   4
   1   8   8 910.883 773.741   1
   0   8  -8 38594.4 3473.98   2
   0  -8   8 37610.4 3455.05   4
   0   8   8 35707.6 3610.61   1
  -1   8   8 669.718 663.822   1
  -1  -8   8 582.546 650.084   4
  -2   8   8 35939.8 4106.49   6
  -2  -8  -8 37370.6 3339.48   3
  -2  -8   8 34377.4 3361.12   4
  -3   8   8 834.188 912.381   6
  -3  -8  -8 983.955 788.770   3
  -3  -8   8-563.318 620.331   4
  -4  -8  -8 32792.1 3575.88   3
   2  -8   9 1432.39 844.334   4
   2   8  -9-99.6940 418.630   2
   2   8   9-55.5995 534.896   1
   1  -8   9 1763.30 874.363   4
   1   8   9 114.228 628.349   1
   1   8  -9 127.155 516.350   2
   0  -8   9 1281.46 804.023   4
   0   8   9 842.490 674.195   1
   0   8  -9 1105.12 679.762   2
  -1  -8   9 1367.43 844.415   4
  -1   8   9 757.126 736.001   1
  -2   8   9 1188.35 1116.42   6
  -2  -8   9 1242.01 738.935   4
  -3  -8  -9 2171.11 994.157   3
   2   8 -10 25621.0 3224.83   2
   1   8 -10-30.4953 453.240   2
   0   8 -10 40030.5 3691.93   2
   1   8 -11 7984.47 1797.84   2
   0   8 -11-470.005 611.425   2
   3  -9   0 1994.59 892.207   4
   2  -9   0 2202.33 950.234   4
   1  -9   0 1253.26 801.419   4
   0  -9   0 353.371 541.263   4
  -1  -9   0 639.080 603.730   3
  -1  -9   0 1528.82 877.955   4
  -2  -9   0 3844.73 1223.37   3
   3  -9   1 44149.5 3633.57   4
   2  -9  -1-831.168 663.599   4
   2  -9   1 172.695 452.673   4
   1  -9  -1 46534.5 3754.42   4
   1  -9   1 45282.1 3753.91   4
   0  -9  -1-24.3045 631.546   4
   0  -9   1 281.451 455.894   4
  -1   9   1 52453.1 3980.74   1
  -1  -9  -1 57017.5 4255.33   3
  -1  -9   1 48025.6 3984.04   4
  -2  -9  -1-419.674 531.345   3
  -2  -9   1-135.078 622.177   3
  -2  -9   1-654.577 743.489   4
  -3  -9  -1 45874.5 4047.78   3
   3  -9   2 461.516 712.087   4
   2  -9  -2 8703.52 1662.92   4
   2  -9   2 6863.24 1575.13   4
   1  -9  -2 582.390 601.318   4
   1  -9   2 582.374 512.489   4
   0   9   2 3525.97 1164.56   1
   0  -9   2 4775.60 1357.37   4
  -1   9   2-72.5279 462.809   1
  -1  -9  -2 670.148 610.780   3
  -1  -9   2-78.0166 625.910   4
  -2  -9  -2 9727.63 1785.04   3
  -2  -9   2 9020.71 1806.15   3
  -2  -9   2 9594.38 1885.55   4
  -3  -9  -2 9.00632 441.652   3
   3  -9   3 29730.9 3067.33   4
   2   9   3 3030.35 996.081   1
   2  -9  -3 1429.38 821.009   4
   2  -9   3 2604.29 1058.96   4
   1  -9  -3 37367.1 3424.30   4
   1  -9   3 32794.9 3273.77   4
   1   9   3 30297.8 3115.49   1
   0   9   3-153.181 533.931   1
   0  -9   3 426.820 654.231   4
  -1   9   3 29129.6 3120.58   1
  -1  -9  -3 38454.2 3452.23   3
  -1  -9   3 35119.6 3440.40   4
  -2   9   3 483.137 770.212   6
  -2  -9  -3 906.432 649.584   3
  -3  -9  -3 26703.5 3100.76   3
  -3   9   3 26206.5 3426.39   6
  -4   9   3-807.205 878.540   6
   3  -9   4 1404.10 702.241   4
   3   9   4 1164.12 814.058   1
   2   9   4 6788.81 1570.15   1
   2  -9  -4 5615.92 1320.27   4
   2  -9   4 7883.88 1614.98   4
   1   9   4 543.766 619.831   1
   1  -9   4 1209.98 717.500   4
   0   9   4 3511.52 1149.35   1
   0  -9   4 5893.47 1482.98   4
  -1  -9  -4 1146.38 688.120   3
  -1   9   4 689.685 823.812   1
  -1  -9   4-284.033 644.404   4
  -2   9   4 7378.98 1905.61   6
  -2  -9  -4 7630.02 1577.77   3
  -3   9   4-401.855 786.537   6
  -3  -9  -4-580.019 654.331   3
   3   9   5 31003.9 3385.47   1
   3  -9   5 33449.5 3328.07   4
   2  -9   5 612.706 652.109   4
   2   9   5 1407.07 883.038   1
   1  -9   5 31795.9 3264.11   4
   1   9   5 36034.3 3594.04   1
   0   9   5 3549.86 1241.61   1
   0  -9   5 4297.86 1322.41   4
  -1  -9  -5 39208.4 3450.31   3
  -1   9   5 39689.8 3828.89   1
  -2   9   5 1253.66 771.272   6
  -2  -9  -5 417.618 444.637   3
  -3   9   5 30885.3 3877.84   6
   2   9   6 4627.52 1361.89   1
   1   9   6 713.664 729.892   1
   0   9   6 3117.52 1184.59   1
  -1   9   6-190.020 630.284   1
  -2   9   6 5189.17 1676.22   6
  -2  -9  -6 3319.45 1096.34   3
   0   0   0    0.00    0.00   0
;
_shelx_hkl_checksum              8393
loop_
_space_group_symop_operation_xyz
'x, y, z'
'-x+1/2, -y, z+1/2'
'x, -y, -z'
'-x+1/2, y, -z+1/2'
'-x, -y, -z'
'x-1/2, y, -z-1/2'
'-x, y, z'
'x-1/2, -y, z-1/2'
loop_
_atom_site_label
_atom_site_type_symbol
_atom_site_fract_x
_atom_site_fract_y
_atom_site_fract_z
_atom_site_U_iso_or_equiv
_atom_site_adp_type
_atom_site_occupancy
_atom_site_site_symmetry_order
_atom_site_calc_flag
_atom_site_refinement_flags_posn
_atom_site_refinement_flags_adp
_atom_site_refinement_flags_occupancy
Pd Pd 0.0000 0.0000 0.0000 0.01375(11) Uani 1 4 d S T P
Fe Fe 0.5000 -0.5000 0.0000 0.01576(16) Uani 1 4 d S T P
N1 N 0.5000 -0.3760(4) -0.1385(2) 0.0198(7) Uani 1 2 d S T P
N2 N 0.2981(3) -0.3004(3) 0.03664(16) 0.0230(5) Uani 1 1 d . . .
N3 N 0.5000 -0.2247(6) -0.3119(3) 0.0510(12) Uani 1 2 d S T P
C1 C 0.5000 -0.1919(5) -0.1522(3) 0.0291(10) Uani 1 2 d S T P
H1 H 0.5000 -0.1093 -0.1034 0.035 Uiso 1 2 calc R U P
C2 C 0.5000 -0.1243(6) -0.2396(3) 0.0451(14) Uani 1 2 d S T P
C3 C 0.5000 -0.4093(7) -0.2976(3) 0.0506(14) Uani 1 2 d S T P
H3 H 0.5000 -0.4899 -0.3471 0.061 Uiso 1 2 calc R U P
C4 C 0.5000 -0.4839(6) -0.2128(3) 0.0351(10) Uani 1 2 d S T P
H4 H 0.5000 -0.6140 -0.2062 0.042 Uiso 1 2 calc R U P
C5 C 0.1888(4) -0.1901(3) 0.02696(17) 0.0179(5) Uani 1 1 d . . .
F F 0.5000 0.0619(4) -0.2517(2) 0.0999(16) Uani 1 2 d S T P
loop_
_atom_site_aniso_label
_atom_site_aniso_U_11
_atom_site_aniso_U_22
_atom_site_aniso_U_33
_atom_site_aniso_U_23
_atom_site_aniso_U_13
_atom_site_aniso_U_12
Pd 0.01010(18) 0.00885(17) 0.0223(2) 0.00149(18) 0.000 0.000
Fe 0.0110(3) 0.0097(3) 0.0266(4) 0.0048(4) 0.000 0.000
N1 0.0169(17) 0.0161(15) 0.0265(17) 0.0023(13) 0.000 0.000
N2 0.0170(12) 0.0184(11) 0.0337(13) 0.0034(10) 0.0026(10) 0.0027(10)
N3 0.088(4) 0.038(2) 0.027(2) 0.0076(19) 0.000 0.000
C1 0.044(3) 0.0159(19) 0.028(2) 0.0025(17) 0.000 0.000
C2 0.081(4) 0.023(2) 0.031(3) 0.010(2) 0.000 0.000
C3 0.079(4) 0.042(3) 0.031(3) -0.009(2) 0.000 0.000
C4 0.052(3) 0.020(2) 0.033(2) -0.005(2) 0.000 0.000
C5 0.0148(13) 0.0156(11) 0.0232(13) 0.0020(10) 0.0005(10) -0.0018(11)
F 0.231(5) 0.0234(15) 0.0451(19) 0.0168(15) 0.000 0.000
loop_
_atom_type_symbol
_atom_type_description
_atom_type_scat_dispersion_real
_atom_type_scat_dispersion_imag
_atom_type_scat_source
C C 0.0033 0.0016 'International Tables Vol C Tables 4.2.6.8 and 6.1.1.4'
H H 0.0000 0.0000 'International Tables Vol C Tables 4.2.6.8 and 6.1.1.4'
N N 0.0061 0.0033 'International Tables Vol C Tables 4.2.6.8 and 6.1.1.4'
F F 0.0171 0.0103 'International Tables Vol C Tables 4.2.6.8 and 6.1.1.4'
Pd Pd -0.9988 1.0072 'International Tables Vol C Tables 4.2.6.8 and 6.1.1.4'
Fe Fe 0.3463 0.8444 'International Tables Vol C Tables 4.2.6.8 and 6.1.1.4'
loop_
_geom_angle_atom_site_label_1
_geom_angle_atom_site_label_2
_geom_angle_atom_site_label_3
_geom_angle
_geom_angle_site_symmetry_1
_geom_angle_site_symmetry_3
C5 Pd C5 180.0(2) 7 3
C5 Pd C5 90.08(14) 7 5
C5 Pd C5 89.92(14) 3 5
C5 Pd C5 89.92(14) 7 .
C5 Pd C5 90.08(14) 3 .
C5 Pd C5 180.0 5 .
N1 Fe N1 180.0 5_645 .
N2 Fe N1 91.73(8) 7_655 5_645
N2 Fe N1 88.27(8) 3_545 5_645
N2 Fe N1 88.27(8) 5_645 5_645
N2 Fe N1 91.73(8) . 5_645
N2 Fe N1 88.27(8) 7_655 .
N2 Fe N1 91.73(8) 3_545 .
N2 Fe N1 91.73(8) 5_645 .
N2 Fe N1 88.27(8) . .
N2 Fe N2 180.00(12) 7_655 3_545
N2 Fe N2 90.55(12) 7_655 5_645
N2 Fe N2 89.45(12) 3_545 5_645
N2 Fe N2 89.45(12) 7_655 .
N2 Fe N2 90.55(12) 3_545 .
N2 Fe N2 180.0 5_645 .
C1 N1 C4 116.2(4) . .
C1 N1 Fe 122.1(3) . .
C4 N1 Fe 121.7(3) . .
C5 N2 Fe 158.1(2) . .
C2 N3 C3 114.6(4) . .
N1 C1 C2 119.2(4) . .
N1 C1 H1 120.4 . .
C2 C1 H1 120.4 . .
N3 C2 F 116.0(4) . .
N3 C2 C1 125.8(4) . .
F C2 C1 118.2(4) . .
N3 C3 C4 122.1(5) . .
N3 C3 H3 118.9 . .
C4 C3 H3 118.9 . .
N1 C4 C3 122.1(4) . .
N1 C4 H4 119.0 . .
C3 C4 H4 119.0 . .
N2 C5 Pd 175.7(2) . .
loop_
_geom_bond_atom_site_label_1
_geom_bond_atom_site_label_2
_geom_bond_distance
_geom_bond_site_symmetry_2
Pd C5 1.992(3) 7
Pd C5 1.992(3) 3
Pd C5 1.992(3) 5
Pd C5 1.992(3) .
Fe N1 2.229(3) 5_645
Fe N1 2.229(3) .
Fe N2 2.138(2) 7_655
Fe N2 2.138(2) 3_545
Fe N2 2.138(2) 5_645
Fe N2 2.138(2) .
N1 C1 1.325(5) .
N1 C4 1.339(5) .
N2 C5 1.140(3) .
N3 C2 1.285(6) .
N3 C3 1.330(6) .
C1 C2 1.378(6) .
C1 H1 0.9300 .
C2 F 1.336(5) .
C3 C4 1.360(6) .
C3 H3 0.9300 .
C4 H4 0.9300 .
