#------------------------------------------------------------------------------
#$Date: 2016-03-24 01:57:54 +0200 (Thu, 24 Mar 2016) $
#$Revision: 179548 $
#$URL: svn://www.crystallography.net/cod/cif/4/50/17/4501722.cif $
#------------------------------------------------------------------------------
#
# This file is available in the Crystallography Open Database (COD),
# http://www.crystallography.net/
#
# All data on this site have been placed in the public domain by the
# contributors.
#
data_4501722
loop_
_publ_author_name
'Mart\'i-Rujas, Javier'
'Morte-R\'odenas, Anabel'
'Guo, Fang'
'Thomas, Nigel'
'Fujii, Kotaro'
'Kariuki, Benson M.'
'Harris, Kenneth D. M.'
_publ_section_title
;
 A Solid-State Dehydration Process in an Organic Material Associated with
 Substantial Hydrogen-Bond Reorganization, Investigated by Powder X-ray
 Diffraction
;
_journal_issue                   7
_journal_name_full               'Crystal Growth &amp; Design'
_journal_page_first              3176
_journal_paper_doi               10.1021/cg100330c
_journal_volume                  10
_journal_year                    2010
_chemical_formula_sum            'C6 H15 N O2'
_chemical_formula_weight         133.19
_chemical_name_systematic        ' ?'
_space_group_IT_number           2
_symmetry_cell_setting           triclinic
_symmetry_space_group_name_Hall  '-P 1'
_symmetry_space_group_name_H-M   'P -1'
_audit_creation_date             2010-02-05T11:14
_audit_creation_method           'from EXP file using GSAS2CIF'
_audit_update_record
' 2010-02-05T11:14  Initial CIF as created by GSAS2CIF'
_cell_angle_alpha                66.6999(13)
_cell_angle_beta                 84.6295(15)
_cell_angle_gamma                83.1542(10)
_cell_formula_units_Z            2
_cell_length_a                   6.42596(15)
_cell_length_b                   7.19411(17)
_cell_length_c                   10.04415(26)
_cell_volume                     422.873(18)
_computing_structure_refinement  GSAS
_diffrn_radiation_polarisn_ratio 0.5
_diffrn_radiation_probe          x-ray
_diffrn_radiation_wavelength     1.54056
_exptl_absorpt_correction_T_max  1.00000
_exptl_absorpt_correction_T_min  1.00000
_exptl_absorpt_process_details
;   GSAS Absorption/surface roughness correction: function number 0
 No correction is applied.
;
_pd_block_id                     2010-02-05T11:14|TBA-ACETATE||
_pd_calc_method                  'Rietveld Refinement'
_pd_instr_location               ' ?'
_pd_meas_2theta_range_inc        0.0167
_pd_meas_2theta_range_max        59.9293
_pd_meas_2theta_range_min        7.6917
_pd_meas_number_of_points        3129
_pd_phase_name
'from C:/data/Tba_Acac/Rietveld/RIETVELD_HADD_1.cif'
_pd_proc_2theta_range_inc        0.0167
_pd_proc_2theta_range_max        59.96237
_pd_proc_2theta_range_min        7.72477
_pd_proc_info_datetime           2010-02-05T11:14:46
_pd_proc_info_excluded_regions   ' ?'
_pd_proc_ls_background_function
;   GSAS Background function number 1 with 36 terms.
 Shifted Chebyshev function of 1st kind
      1:    9515.91     2:   -10425.1     3:    3338.13     4:    1.26907    
      5:   -1063.73     6:    723.388     7:    100.924     8:   -552.056    
      9:    499.559    10:   -333.391    11:    89.3579    12:    122.780    
     13:   -71.8137    14:    1.94855    15:   -103.363    16:    177.016    
     17:   -84.0958    18:   -39.8071    19:    98.9055    20:   -106.565    
     21:    61.5119    22:    4.86365    23:   -31.1755    24:    33.9334    
     25:   -56.8087    26:    33.7996    27:   -7.95281    28:   -2.87831    
     29:    11.7540    30:   -17.8772    31:    5.27995    32:    26.9935    
     33:   -24.5103    34:    20.4075    35:   -19.7317    36:    27.6906    
;
_pd_proc_ls_peak_cutoff          0.00500
_pd_proc_ls_pref_orient_corr
;   March-Dollase
 AXIS  1 Ratio=   1.17941  h= 0.000  k= 0.000  l= 1.000
 Prefered orientation correction range: Min=   0.60954, Max=   1.28082
;
_pd_proc_ls_profile_function
;
 CW Profile function number 3 with  19 terms
 Pseudovoigt profile coefficients as parameterized in
 P. Thompson, D.E. Cox & J.B. Hastings (1987). J. Appl. Cryst.,20,79-83.
 Asymmetry correction of L.W. Finger, D.E. Cox & A. P. Jephcoat (1994).
 J. Appl. Cryst.,27,892-900.
 Peak tails are ignored  where the intensity is below 0.0050 times the peak
   Aniso. broadening axis   0.0   0.0   1.0
;
_pd_proc_ls_prof_R_factor        0.0147
_pd_proc_ls_prof_wR_expected     0.0101
_pd_proc_ls_prof_wR_factor       0.0207
_pd_proc_number_of_points        3129
_pd_spec_mounting                ' ?'
_refine_ls_goodness_of_fit_all   2.11
_refine_ls_matrix_type           full
_refine_ls_number_parameters     119
_refine_ls_number_restraints     62
_refine_ls_R_Fsqd_factor         0.08426
_refine_ls_shift/su_max          0.04
_refine_ls_shift/su_mean         0.00
_reflns_d_resolution_high        1.551
_reflns_d_resolution_low         9.213
_reflns_limit_h_max              4
_reflns_limit_h_min              0
_reflns_limit_k_max              4
_reflns_limit_k_min              -4
_reflns_limit_l_max              6
_reflns_limit_l_min              -6
_reflns_number_total             242
_cod_data_source_file            cg100330c_si_001.cif
_cod_data_source_block           TBA-ACETATE_publ
_cod_depositor_comments
;
The following automatic conversions were performed:

'_geom_bond_publ_flag' value 'N' changed to 'n' according to
/home/saulius/struct/CIF-dictionaries/cif_core.dic dictionary named
'cif_core.dic' version 2.4.2 from 2011-04-26 (29
times).

'_geom_angle_publ_flag' value 'N' changed to 'n' according
to /home/saulius/struct/CIF-dictionaries/cif_core.dic dictionary
named 'cif_core.dic' version 2.4.2 from 2011-04-26 (39 times).

Automatic conversion script
Id: cif_fix_values 1715 2011-07-08 13:25:40Z adriana 
;
_cod_original_cell_volume        422.873(23)
_cod_database_code               4501722
#BEGIN Tags that were not found in dictionaries:
_gsas_exptl_extinct_corr_t_min   1.00000
_gsas_exptl_extinct_corr_t_max   1.00000
#END Tags that were not found in dictionaries
loop_
_symmetry_equiv_pos_site_id
_symmetry_equiv_pos_as_xyz
1 +x,+y,+z
-1 -x,-y,-z
loop_
_atom_site_type_symbol
_atom_site_label
_atom_site_fract_x
_atom_site_fract_y
_atom_site_fract_z
_atom_site_occupancy
_atom_site_thermal_displace_type
_atom_site_U_iso_or_equiv
_atom_site_symmetry_multiplicity
C C1 0.7828(5) 0.1524(4) 0.69856(31) 1.0 Uiso 0.1219(17) 2
C C2 1.0081(6) 0.0959(9) 0.6574(6) 1.0 Uiso 0.1219(17) 2
C C3 0.6316(6) 0.0596(7) 0.6409(6) 1.0 Uiso 0.1219(17) 2
C C4 0.7486(8) 0.0905(7) 0.8611(4) 1.0 Uiso 0.1219(17) 2
N N5 0.7382(8) 0.3797(4) 0.6314(5) 1.0 Uiso 0.1219(17) 2
C C6 0.1818(5) 0.53099(35) 0.75901(31) 1.0 Uiso 0.1149(17) 2
C C7 0.2756(7) 0.5535(7) 0.8829(4) 1.0 Uiso 0.1149(17) 2
O O8 0.3034(7) 0.4881(6) 0.6684(5) 1.0 Uiso 0.1149(17) 2
O O9 -0.0139(5) 0.5581(6) 0.7518(5) 1.0 Uiso 0.1149(17) 2
H H10 1.1020(33) 0.178(7) 0.678(5) 1.0 Uiso 0.1828(25) 2
H H11 1.046(4) -0.0483(26) 0.714(4) 1.0 Uiso 0.1828(25) 2
H H12 1.0210(34) 0.121(9) 0.5538(14) 1.0 Uiso 0.1828(25) 2
H H13 0.4875(25) 0.112(11) 0.657(6) 1.0 Uiso 0.1828(25) 2
H H14 0.662(7) 0.096(13) 0.5367(17) 1.0 Uiso 0.1828(25) 2
H H15 0.647(8) -0.0886(12) 0.692(7) 1.0 Uiso 0.1828(25) 2
H H16 0.6024(30) 0.129(8) 0.8842(16) 1.0 Uiso 0.1828(25) 2
H H17 0.779(10) -0.0569(13) 0.9099(5) 1.0 Uiso 0.1828(25) 2
H H18 0.842(8) 0.160(7) 0.8944(8) 1.0 Uiso 0.1828(25) 2
H H19 0.618(6) 0.4139(29) 0.664(10) 1.0 Uiso 0.1828(25) 2
H H20 0.834(8) 0.4357(35) 0.653(11) 1.0 Uiso 0.1828(25) 2
H H21 0.738(17) 0.4193(10) 0.5387(8) 1.0 Uiso 0.1828(25) 2
H H22 0.4157(29) 0.601(7) 0.8522(9) 1.0 Uiso 0.1723(26) 2
H H23 0.186(5) 0.652(5) 0.9122(29) 1.0 Uiso 0.1723(26) 2
H H24 0.286(7) 0.4219(25) 0.9652(27) 1.0 Uiso 0.1723(26) 2
loop_
_atom_type_symbol
_atom_type_number_in_cell
_atom_type_scat_dispersion_real
_atom_type_scat_dispersion_imag
_atom_type_scat_Cromer_Mann_a1
_atom_type_scat_Cromer_Mann_a2
_atom_type_scat_Cromer_Mann_a3
_atom_type_scat_Cromer_Mann_a4
_atom_type_scat_Cromer_Mann_b1
_atom_type_scat_Cromer_Mann_b2
_atom_type_scat_Cromer_Mann_b3
_atom_type_scat_Cromer_Mann_b4
_atom_type_scat_Cromer_Mann_c
_atom_type_scat_source
C 12.0 0.000 0.000 2.31000 20.8439 1.02000 10.2075 1.58860 0.56870 0.86500
51.6512 0.21560 International_Tables_Vol_C
N 2.0 0.000 0.000 12.2126 0.00570 3.13220 9.89330 2.01250 28.9975 1.16630
0.58260 -11.529 International_Tables_Vol_C
O 4.0 0.000 0.000 3.04850 13.2771 2.28680 5.70110 1.54630 0.32390 0.86700
32.9089 0.25080 International_Tables_Vol_C
H 30.0 0.000 0.000 0.49300 10.5109 0.32291 26.1257 0.14019 3.14236 0.04081
57.7997 0.00304 International_Tables_Vol_C
loop_
_geom_angle_atom_site_label_1
_geom_angle_atom_site_label_2
_geom_angle_atom_site_label_3
_geom_angle
_geom_angle_site_symmetry_1
_geom_angle_site_symmetry_3
_geom_angle_publ_flag
C2 C1 C3 110.45(22) 1_555 1_555 n
C2 C1 C4 111.34(22) 1_555 1_555 n
C2 C1 N5 108.97(21) 1_555 1_555 n
C3 C1 C4 111.25(23) 1_555 1_555 n
C3 C1 N5 108.14(23) 1_555 1_555 n
C4 C1 N5 106.53(24) 1_555 1_555 n
C1 C2 H10 109.5(11) 1_555 1_555 n
C1 C2 H11 109.46(19) 1_555 1_555 n
C1 C2 H12 109.46(31) 1_555 1_555 n
H10 C2 H11 109.49(19) 1_555 1_555 n
H10 C2 H12 109.5(13) 1_555 1_555 n
H11 C2 H12 109.45(26) 1_555 1_555 n
C1 C3 H13 109.5(17) 1_555 1_555 n
C1 C3 H14 109.4(14) 1_555 1_555 n
C1 C3 H15 109.4(6) 1_555 1_555 n
H13 C3 H14 109.5(10) 1_555 1_555 n
H13 C3 H15 109.5(7) 1_555 1_555 n
H14 C3 H15 109.5(7) 1_555 1_555 n
C1 C4 H16 109.4(12) 1_555 1_555 n
C1 C4 H17 109.5(4) 1_555 1_555 n
C1 C4 H18 109.5(10) 1_555 1_555 n
H16 C4 H17 109.5(7) 1_555 1_555 n
H16 C4 H18 109.48(14) 1_555 1_555 n
H17 C4 H18 109.50(10) 1_555 1_555 n
C1 N5 H19 109.5(18) 1_555 1_555 n
C1 N5 H20 109.5(15) 1_555 1_555 n
C1 N5 H21 109.5(12) 1_555 1_555 n
H19 N5 H20 109.5(5) 1_555 1_555 n
H19 N5 H21 109.48(18) 1_555 1_555 n
H20 N5 H21 109.5(12) 1_555 1_555 n
C7 C6 O8 118.20(22) 1_555 1_555 n
C7 C6 O9 118.04(23) 1_555 1_555 n
O8 C6 O9 123.76(22) 1_555 1_555 n
C6 C7 H22 109.5(14) 1_555 1_555 n
C6 C7 H23 109.5(5) 1_555 1_555 n
C6 C7 H24 109.4(7) 1_555 1_555 n
H22 C7 H23 109.5(5) 1_555 1_555 n
H22 C7 H24 109.5(5) 1_555 1_555 n
H23 C7 H24 109.5(7) 1_555 1_555 n
loop_
_geom_bond_atom_site_label_1
_geom_bond_atom_site_label_2
_geom_bond_distance
_geom_bond_site_symmetry_2
_geom_bond_publ_flag
C1 C2 1.5205(18) 1_555 n
C1 C3 1.5136(18) 1_555 n
C1 C4 1.5146(18) 1_555 n
C1 N5 1.5044(18) 1_555 n
C2 C1 1.5205(18) 1_555 n
C2 H10 0.9801(5) 1_555 n
C2 H11 0.9801(5) 1_555 n
C2 H12 0.9800(5) 1_555 n
C3 C1 1.5136(18) 1_555 n
C3 H13 0.9800(5) 1_555 n
C3 H14 0.9800(5) 1_555 n
C3 H15 0.9800(5) 1_555 n
C4 C1 1.5146(18) 1_555 n
C4 H16 0.9800(5) 1_555 n
C4 H17 0.9801(5) 1_555 n
C4 H18 0.9800(5) 1_555 n
N5 C1 1.5044(18) 1_555 n
N5 H19 0.8600(5) 1_555 n
N5 H20 0.8600(5) 1_555 n
N5 H21 0.8600(5) 1_555 n
C6 C7 1.5043(18) 1_555 n
C6 O8 1.2509(18) 1_555 n
C6 O9 1.2540(18) 1_555 n
C7 C6 1.5043(18) 1_555 n
C7 H22 0.9800(5) 1_555 n
C7 H23 0.9800(5) 1_555 n
C7 H24 0.9800(5) 1_555 n
O8 C6 1.2509(18) 1_555 n
O9 C6 1.2540(18) 1_555 n
loop_
_pd_meas_counts_total
_pd_proc_ls_weight
_pd_proc_intensity_bkg_calc
_pd_calc_intensity_total
22874.0 0.0000437 22561.73047 22561.74023
22767.0 0.0000439 22620.18750 22620.19336
22657.0 0.0000441 22660.94727 22660.95117
22527.0 0.0000444 22686.36523 22686.36719
22617.0 0.0000442 22698.58594 22698.58594
22726.0 0.0000440 22699.51758 22699.51953
22680.0 0.0000441 22690.89648 22690.89258
22593.0 0.0000443 22674.25391 22674.25000
22448.0 0.0000445 22650.96484 22650.97070
22499.0 0.0000444 22622.25977 22622.26367
22493.0 0.0000445 22589.21680 22589.20898
22555.0 0.0000443 22552.78516 22552.78320
22438.0 0.0000446 22513.80859 22513.80664
22293.0 0.0000449 22473.01563 22473.01563
22218.0 0.0000450 22431.03711 22431.03711
22179.0 0.0000451 22388.43359 22388.42773
22383.0 0.0000447 22345.65234 22345.65234
22160.0 0.0000451 22303.10547 22303.10742
22517.0 0.0000444 22261.11914 22261.11133
22417.0 0.0000446 22219.96484 22219.95898
22334.0 0.0000448 22179.85742 22179.85742
22282.0 0.0000449 22140.97656 22140.97266
22348.0 0.0000447 22103.45898 22103.45508
22122.0 0.0000452 22067.39258 22067.38672
21989.0 0.0000455 22032.85547 22032.84180
22355.0 0.0000447 21999.86914 21999.86328
22276.0 0.0000449 21968.45117 21968.44922
21825.0 0.0000458 21938.59375 21938.58984
21930.0 0.0000456 21910.27734 21910.26758
21938.0 0.0000456 21883.44336 21883.43555
21920.0 0.0000456 21858.04297 21858.04297
21727.0 0.0000460 21834.01563 21834.01172
21490.0 0.0000465 21811.28125 21811.27734
21814.0 0.0000458 21789.76953 21789.76172
21512.0 0.0000465 21769.38281 21769.36914
21674.0 0.0000461 21750.03125 21750.02539
21986.0 0.0000455 21731.63477 21731.62500
21742.0 0.0000460 21714.08984 21714.08789
21828.0 0.0000458 21697.31836 21697.31055
21944.0 0.0000456 21681.20898 21681.20313
21574.0 0.0000464 21665.69727 21665.68359
21507.0 0.0000465 21650.66992 21650.66602
21624.0 0.0000462 21636.06641 21636.05273
21784.0 0.0000459 21621.78320 21621.77539
21842.0 0.0000458 21607.76172 21607.75195
21560.0 0.0000464 21593.91797 21593.91211
21619.0 0.0000463 21580.18945 21580.18164
21679.0 0.0000461 21566.50977 21566.49805
21757.0 0.0000460 21552.81836 21552.81836
21570.0 0.0000464 21539.06055 21539.06055
21321.0 0.0000469 21525.19727 21525.18359
21484.0 0.0000465 21511.17383 21511.16406
21171.0 0.0000472 21496.93750 21496.93750
21379.0 0.0000468 21482.48242 21482.46484
21261.0 0.0000470 21467.74414 21467.73828
21480.0 0.0000466 21452.72266 21452.72070
21445.0 0.0000466 21437.38672 21437.38086
21330.0 0.0000469 21421.71289 21421.70117
21342.0 0.0000469 21405.68945 21405.68555
21492.0 0.0000465 21389.30664 21389.30469
21180.0 0.0000472 21372.56445 21372.56445
21209.0 0.0000471 21355.45703 21355.44727
21315.0 0.0000469 21337.97656 21337.97656
21267.0 0.0000470 21320.11914 21320.12305
21375.0 0.0000468 21301.92578 21301.92383
21429.0 0.0000467 21283.35938 21283.36719
21071.0 0.0000475 21264.46680 21264.46875
21433.0 0.0000467 21245.23828 21245.24023
21081.0 0.0000474 21225.69922 21225.70313
20865.0 0.0000479 21205.85742 21205.86719
21167.0 0.0000472 21185.75000 21185.74609
21206.0 0.0000472 21165.36719 21165.37305
21159.0 0.0000473 21144.75000 21144.75781
21087.0 0.0000474 21123.92383 21123.92969
20901.0 0.0000478 21102.89063 21102.90625
21135.0 0.0000473 21081.69336 21081.70117
20936.0 0.0000478 21060.33594 21060.35938
20939.0 0.0000478 21038.86523 21038.86719
21152.0 0.0000473 21017.29297 21114.19336
20850.0 0.0000480 20995.63477 21099.29492
20720.0 0.0000483 20973.92578 21085.09961
21354.0 0.0000468 20952.20117 21071.73242
21163.0 0.0000473 20930.45313 21059.36719
20951.0 0.0000477 20908.73047 21048.19727
20957.0 0.0000477 20887.05273 21038.44922
21048.0 0.0000475 20865.42969 21030.42383
20994.0 0.0000476 20843.90430 21024.47656
20866.0 0.0000479 20822.47266 21021.04102
21256.0 0.0000470 20801.17383 21020.69922
20883.0 0.0000479 20780.01172 21024.22461
21234.0 0.0000471 20759.02734 21032.61523
21208.0 0.0000472 20738.20703 21047.32422
21167.0 0.0000472 20717.59766 21070.47070
21511.0 0.0000465 20697.19531 21105.73633
21795.0 0.0000459 20677.02344 21160.49023
21568.0 0.0000464 20657.09375 21249.84766
22140.0 0.0000452 20637.43359 21399.95898
22136.0 0.0000452 20618.02734 21644.44531
22314.0 0.0000448 20598.90234 22001.99023
22653.0 0.0000441 20580.05664 22458.85352
23258.0 0.0000430 20561.51758 23070.74414
23787.0 0.0000420 20543.28125 23803.25977
24224.0 0.0000413 20525.36328 24620.85742
25574.0 0.0000391 20507.75000 25671.22852
26409.0 0.0000379 20490.46289 26825.64258
27829.0 0.0000359 20473.50977 28320.80469
29437.0 0.00003397 20456.87891 30124.78711
31731.0 0.00003151 20440.57617 32519.47266
35098.0 0.00002849 20424.61914 35645.92969
39921.0 0.00002505 20408.98828 39562.34375
43732.0 0.00002287 20393.69727 43355.19922
44362.0 0.00002254 20378.73633 44691.55859
40634.0 0.00002461 20364.11133 40860.40625
35145.0 0.00002845 20349.81055 33852.21875
29004.0 0.00003448 20335.84180 28074.73828
23974.0 0.0000417 20322.19531 24672.95313
22328.0 0.0000448 20308.86328 22972.64844
21832.0 0.0000458 20295.85156 22133.79102
21600.0 0.0000463 20283.16016 21662.50586
21068.0 0.0000475 20270.77148 21354.80859
21179.0 0.0000472 20258.68164 21135.06445
21208.0 0.0000472 20246.88477 20970.43164
20728.0 0.0000482 20235.38086 20843.04688
20926.0 0.0000478 20224.15430 20741.84375
20770.0 0.0000481 20213.22070 20659.63281
20659.0 0.0000484 20202.53906 20591.53906
20723.0 0.0000483 20192.12891 20534.18164
20699.0 0.0000483 20181.97461 20485.14063
20539.0 0.0000487 20172.06836 20442.65820
20343.0 0.0000492 20162.40820 20405.43164
20494.0 0.0000488 20152.98438 20372.46875
20387.0 0.0000491 20143.80078 20343.02539
20329.0 0.0000492 20134.82617 20316.48633
20320.0 0.0000492 20126.06836 20292.40430
20057.0 0.0000499 20117.51367 20270.39844
20377.0 0.0000491 20109.16992 20250.16406
20381.0 0.0000491 20101.02734 20231.48633
20190.0 0.0000495 20093.06445 20214.12305
20185.0 0.0000495 20085.29883 20197.94141
20347.0 0.0000491 20077.70117 20182.78125
20205.0 0.0000495 20070.28906 20168.53516
20392.0 0.0000490 20063.03125 20155.10742
20228.0 0.0000494 20055.94531 20055.94531
19858.0 0.0000504 20049.01953 20049.02344
20078.0 0.0000498 20042.24219 20042.24219
20040.0 0.0000499 20035.63477 20035.62891
19787.0 0.0000505 20029.15234 20029.15820
19943.0 0.0000501 20022.83008 20022.82422
19576.0 0.0000511 20016.63867 20016.63867
20211.0 0.0000495 20010.59766 20010.59961
19902.0 0.0000502 20004.68945 20004.69141
19943.0 0.0000501 19998.92188 19998.91211
19932.0 0.0000502 19993.28711 19993.27539
19852.0 0.0000504 19987.77734 19987.77148
20190.0 0.0000495 19982.40430 19982.40820
19854.0 0.0000504 19977.16797 19977.16602
19965.0 0.0000501 19972.06641 19972.05469
19905.0 0.0000502 19967.08594 19967.07813
19641.0 0.0000509 19962.25000 19962.24805
20133.0 0.0000497 19957.54492 19957.52930
19956.0 0.0000501 19952.97266 19952.96289
19873.0 0.0000503 19948.54297 19948.53711
19976.0 0.0000501 19944.24219 19944.24023
19933.0 0.0000502 19940.10547 19940.08984
19817.0 0.0000505 19936.09766 19936.08789
20290.0 0.0000493 19932.23633 19932.22852
19847.0 0.0000504 19928.53516 19928.52734
19783.0 0.0000505 19924.97852 19924.97070
19732.0 0.0000507 19921.58203 19921.57813
20288.0 0.0000493 19918.34961 19918.34570
19836.0 0.0000504 19915.28711 19915.27734
19869.0 0.0000503 19912.38477 19912.37695
19812.0 0.0000505 19909.66602 19909.65820
19967.0 0.0000501 19907.12500 19907.11719
19903.0 0.0000502 19904.76563 19904.76172
19822.0 0.0000504 19902.60352 19902.58984
19818.0 0.0000505 19900.63086 19900.62109
19586.0 0.0000511 19898.84766 19898.83398
19700.0 0.0000508 19897.27930 19897.27148
20041.0 0.0000499 19895.92578 19895.91211
19688.0 0.0000508 19894.77734 19894.76758
20035.0 0.0000499 19893.85547 19893.85352
20057.0 0.0000499 19893.16016 19893.15430
19737.0 0.0000507 19892.70117 19892.68750
19831.0 0.0000504 19892.47070 19892.46094
19856.0 0.0000504 19892.49219 19892.48047
19844.0 0.0000504 19892.75781 19892.74414
19952.0 0.0000501 19893.27734 19893.26367
19792.0 0.0000505 19894.05859 19894.04492
19938.0 0.0000502 19895.09766 19895.08594
19790.0 0.0000505 19896.41016 19896.40430
19948.0 0.0000501 19898.00586 19897.99023
20016.0 0.0000500 19899.87695 19899.86328
19982.0 0.0000500 19902.01953 19902.00781
19957.0 0.0000501 19904.45703 19904.45898
19726.0 0.0000507 19907.20117 19907.18555
19967.0 0.0000501 19910.23242 19910.22461
19794.0 0.0000505 19913.56250 19913.55469
20267.0 0.0000493 19917.21094 19917.19922
19735.0 0.0000507 19921.16211 19921.15234
19935.0 0.0000502 19925.41992 19925.41602
19856.0 0.0000504 19930.00391 19929.99219
19848.0 0.0000504 19934.90039 19934.88867
20241.0 0.0000494 19940.12109 19940.11523
19853.0 0.0000504 19945.66797 19945.65820
20169.0 0.0000496 19951.54297 19951.53516
19944.0 0.0000501 19957.74023 19957.73047
19913.0 0.0000502 19964.27148 19964.26367
20040.0 0.0000499 19971.13672 19971.12305
19792.0 0.0000505 19978.32227 19978.32031
19906.0 0.0000502 19985.85742 19985.84961
19972.0 0.0000501 19993.72070 19993.71680
19941.0 0.0000501 20001.91602 20001.90625
20008.0 0.0000500 20010.44336 20010.44141
19955.0 0.0000501 20019.31250 20019.30078
20029.0 0.0000499 20028.50781 20028.49805
20167.0 0.0000496 20038.03516 20038.03125
20144.0 0.0000496 20047.89648 20047.88867
20239.0 0.0000494 20058.07617 20058.07617
19998.0 0.0000500 20068.59766 20068.58789
20215.0 0.0000495 20079.43164 20079.42578
20387.0 0.0000491 20090.58984 20090.58398
20067.0 0.0000498 20102.06836 20102.05664
20038.0 0.0000499 20113.84570 20113.84375
20124.0 0.0000497 20125.94727 20125.95313
20301.0 0.0000493 20138.36328 20138.36328
20216.0 0.0000495 20151.06836 20151.06445
20242.0 0.0000494 20164.08398 20164.08203
20247.0 0.0000494 20177.38281 20177.38281
19967.0 0.0000501 20190.97070 20190.96875
20242.0 0.0000494 20204.84766 20204.83594
20209.0 0.0000495 20218.98633 20218.99023
20331.0 0.0000492 20233.41211 20233.40430
20523.0 0.0000487 20248.08984 20248.09180
20214.0 0.0000495 20263.03125 20263.02930
19950.0 0.0000501 20278.22070 20278.22266
20363.0 0.0000491 20293.65820 20293.64844
20498.0 0.0000488 20309.31836 20309.31641
20439.0 0.0000489 20325.21289 20325.20508
20538.0 0.0000487 20341.32813 20341.32813
20504.0 0.0000488 20357.65430 20357.65234
20389.0 0.0000490 20374.17773 20374.17578
20437.0 0.0000489 20390.90039 20390.89648
20695.0 0.0000483 20407.81055 20407.80273
20230.0 0.0000494 20424.88672 20424.88867
20374.0 0.0000491 20442.14063 20442.14063
20501.0 0.0000488 20459.54883 20459.54297
20723.0 0.0000483 20477.10938 20477.11328
20491.0 0.0000488 20494.80078 20494.79883
20693.0 0.0000483 20512.62305 20512.62695
20619.0 0.0000485 20530.56250 20530.56445
20587.0 0.0000486 20548.60352 20548.60547
20379.0 0.0000491 20566.75195 20566.74805
20734.0 0.0000482 20584.97461 20584.98047
20519.0 0.0000487 20603.29102 20603.28320
20674.0 0.0000484 20621.66406 20621.66602
20764.0 0.0000482 20640.08789 20640.08789
20656.0 0.0000484 20658.55469 20658.55273
20732.0 0.0000482 20677.05469 20677.05664
21079.0 0.0000474 20695.58984 20695.58398
20582.0 0.0000486 20714.11328 20714.11328
20596.0 0.0000486 20732.65625 20732.66016
20871.0 0.0000479 20751.17773 20751.16797
20580.0 0.0000486 20769.67383 20769.66602
20874.0 0.0000479 20788.14844 20788.14258
20791.0 0.0000481 20806.56836 20806.57227
20953.0 0.0000477 20824.93359 20824.93555
20828.0 0.0000480 20843.23438 20843.23633
20795.0 0.0000481 20861.45508 20861.45703
20771.0 0.0000481 20879.58398 20879.58203
20805.0 0.0000481 20897.60547 20897.61328
20721.0 0.0000483 20915.53320 20915.53711
20984.0 0.0000477 20933.33594 20933.33008
20738.0 0.0000482 20950.99414 20950.99219
21083.0 0.0000474 20968.51953 20968.51953
21189.0 0.0000472 20985.88867 20985.87891
21108.0 0.0000474 21003.08008 21003.08203
21060.0 0.0000475 21020.11719 21020.11328
21083.0 0.0000474 21036.94727 21036.95898
21067.0 0.0000475 21053.60156 21053.60547
20963.0 0.0000477 21070.04297 21070.03906
20888.0 0.0000479 21086.26563 21086.26953
20948.0 0.0000477 21102.26563 21102.26172
21118.0 0.0000474 21118.03125 21118.03516
21177.0 0.0000472 21133.55469 21133.55664
20936.0 0.0000478 21148.82227 21148.82617
21218.0 0.0000471 21163.82422 21163.83203
21137.0 0.0000473 21178.56836 21178.56641
21075.0 0.0000474 21193.01758 21193.01758
21179.0 0.0000472 21207.18945 21207.18555
21247.0 0.0000471 21221.05664 21312.38281
20962.0 0.0000477 21234.61719 21332.00781
21555.0 0.0000464 21247.86523 21351.96094
21546.0 0.0000464 21260.79883 21372.29883
21215.0 0.0000471 21273.40430 21393.14258
21204.0 0.0000472 21285.66797 21414.59375
21174.0 0.0000472 21297.60156 21436.83008
21120.0 0.0000473 21309.17578 21460.01172
21178.0 0.0000472 21320.38672 21484.36719
21556.0 0.0000464 21331.25781 21510.17383
21382.0 0.0000468 21341.75000 21537.78125
21544.0 0.0000464 21351.85742 21567.62695
21613.0 0.0000463 21361.60742 21600.30273
21447.0 0.0000466 21370.95898 21636.51953
21587.0 0.0000463 21379.91992 21677.25781
21751.0 0.0000460 21388.48047 21723.84375
21551.0 0.0000464 21396.65820 21778.07617
21981.0 0.0000455 21404.41992 21842.55859
22059.0 0.0000453 21411.78711 21921.34570
22459.0 0.0000445 21418.71875 22164.87305
22424.0 0.0000446 21425.25391 22310.52148
22456.0 0.0000445 21431.36914 22520.05469
22957.0 0.0000436 21437.05664 22838.05859
23621.0 0.0000423 21442.32227 23324.18555
24226.0 0.0000413 21447.15625 24031.52344
25120.0 0.0000398 21451.57227 24970.32813
26242.0 0.0000381 21455.54492 26218.87695
27401.0 0.0000365 21459.08984 27875.59766
29322.0 0.00003410 21462.19727 29898.07031
31768.0 0.00003148 21464.87305 32595.55664
35623.0 0.00002807 21467.10547 36037.84766
39727.0 0.00002517 21468.90234 40083.33984
43148.0 0.00002318 21470.25586 43896.31250
43987.0 0.00002273 21471.16797 45490.71875
41994.0 0.00002381 21471.64844 42796.64063
36767.0 0.00002720 21471.68555 36911.04297
31964.0 0.00003129 21471.28906 31338.40430
27988.0 0.0000357 21470.44922 27639.79688
25736.0 0.0000389 21469.16797 25664.48828
24722.0 0.0000404 21467.45313 24795.15039
24662.0 0.0000405 21465.31055 24546.43555
25229.0 0.0000396 21462.72656 24698.83789
25623.0 0.0000390 21459.70703 25210.36133
26653.0 0.0000375 21456.26172 26089.89453
27158.0 0.0000368 21452.38477 27313.20313
29178.0 0.00003427 21448.09375 29066.55859
31154.0 0.00003210 21443.36914 31434.82422
34069.0 0.00002935 21438.21484 34374.03906
37805.0 0.00002645 21432.65625 38058.74219
43407.0 0.00002304 21426.67773 42649.68750
48960.0 0.00002042 21420.28906 47202.90234
51931.0 0.00001926 21413.48633 50354.35156
50311.0 0.00001988 21406.28906 49663.89844
44913.0 0.00002227 21398.67578 44308.05859
37834.0 0.00002643 21390.67383 37265.62109
30824.0 0.00003244 21382.28906 31512.72461
26718.0 0.0000374 21373.50195 27759.40430
24654.0 0.0000406 21364.33398 25600.80273
23801.0 0.0000420 21354.78320 24417.74219
23190.0 0.0000431 21344.85938 23742.99219
23070.0 0.0000433 21334.57422 23320.88867
22787.0 0.0000439 21323.91016 23035.11914
22608.0 0.0000442 21312.89063 22835.23828
22330.0 0.0000448 21301.50977 22697.87109
22787.0 0.0000439 21289.78906 22521.25195
22652.0 0.0000441 21277.70703 22490.43750
22759.0 0.0000439 21265.31055 22518.33008
22883.0 0.0000437 21252.56250 22630.43945
23229.0 0.0000430 21239.49414 22870.48242
23457.0 0.0000426 21226.09375 23293.95703
24340.0 0.0000411 21212.38867 23939.97852
24805.0 0.0000403 21198.36133 24834.86328
26241.0 0.0000381 21184.03711 26084.32031
27679.0 0.0000361 21169.41602 27709.81250
30121.0 0.00003320 21154.49805 29848.82813
33012.0 0.00003029 21139.29492 32687.20898
36748.0 0.00002721 21123.81445 36048.01563
39711.0 0.00002518 21108.05469 39290.58203
40986.0 0.00002440 21092.03320 40747.89844
38910.0 0.00002570 21075.75391 38642.13281
34718.0 0.00002880 21059.21094 33715.24219
30054.0 0.00003327 21042.42578 28889.84375
26396.0 0.0000379 21025.39453 25593.06055
23985.0 0.0000417 21008.12695 23610.38477
22765.0 0.0000439 20990.63867 22676.33008
22456.0 0.0000445 20972.91797 22186.45313
21869.0 0.0000457 20954.99414 21891.42969
21701.0 0.0000461 20936.84180 21687.66406
21633.0 0.0000462 20918.50000 21535.01172
21213.0 0.0000471 20899.96094 21415.31836
21596.0 0.0000463 20881.22852 21318.39258
21453.0 0.0000466 20862.31250 21237.80273
21210.0 0.0000471 20843.22461 21169.22656
20772.0 0.0000481 20823.95898 21109.64648
21120.0 0.0000473 20804.53516 21056.95313
21006.0 0.0000476 20784.94336 21009.58984
20956.0 0.0000477 20765.20898 20966.42383
20772.0 0.0000481 20745.32813 20926.61133
20811.0 0.0000481 20725.30078 20889.46680
20685.0 0.0000483 20705.14258 20854.51367
20824.0 0.0000480 20684.86719 20821.36133
20581.0 0.0000486 20664.45703 20789.66992
20628.0 0.0000485 20643.93750 20759.21289
20715.0 0.0000483 20623.30859 20729.78320
20716.0 0.0000483 20602.57422 20701.22461
20705.0 0.0000483 20581.74805 20673.40820
20466.0 0.0000489 20560.82617 20646.21094
20152.0 0.0000496 20539.81836 20619.54297
20504.0 0.0000488 20518.73438 20593.35742
20754.0 0.0000482 20497.57422 20497.58398
20377.0 0.0000491 20476.33594 20476.35156
20378.0 0.0000491 20455.04688 20455.05664
20401.0 0.0000490 20433.69141 20433.69922
20514.0 0.0000487 20412.28320 20412.29297
20425.0 0.0000490 20390.82617 20390.83203
20227.0 0.0000494 20369.33398 20369.33984
20207.0 0.0000495 20347.79102 20347.79688
20308.0 0.0000492 20326.21875 20326.22656
20291.0 0.0000493 20304.61914 20304.63281
20425.0 0.0000490 20282.99219 20282.99805
20182.0 0.0000495 20261.35352 20261.35938
20217.0 0.0000495 20239.69336 20239.69922
20318.0 0.0000492 20218.02930 20218.03125
20481.0 0.0000488 20196.35156 20196.35742
20042.0 0.0000499 20174.67188 20174.67773
20007.0 0.0000500 20152.99609 20153.00195
19979.0 0.0000501 20131.33203 20131.33398
19750.0 0.0000506 20109.66211 20109.67578
19947.0 0.0000501 20088.02148 20088.02539
20089.0 0.0000498 20066.39063 20066.39844
19907.0 0.0000502 20044.78906 20044.79102
19960.0 0.0000501 20023.20313 20023.20898
20014.0 0.0000500 20001.64063 20001.64648
19919.0 0.0000502 19980.12500 19980.12500
19853.0 0.0000504 19958.63281 19958.64258
19775.0 0.0000506 19937.17578 19937.17578
19841.0 0.0000504 19915.76563 19915.76953
19977.0 0.0000501 19894.38867 19894.39453
19840.0 0.0000504 19873.06641 19873.07227
20007.0 0.0000500 19851.79297 19851.78906
19690.0 0.0000508 19830.56445 19830.57031
19873.0 0.0000503 19809.39648 19809.40039
19773.0 0.0000506 19788.28125 19788.27734
19626.0 0.0000510 19767.22070 19767.21875
19555.0 0.0000511 19746.21875 19746.22266
19878.0 0.0000503 19725.28711 19725.28906
19753.0 0.0000506 19704.41406 19704.41406
19617.0 0.0000510 19683.60938 19683.60742
19404.0 0.0000515 19662.86719 19662.86328
19767.0 0.0000506 19642.19727 19642.19727
19382.0 0.0000516 19621.60352 19621.59766
19851.0 0.0000504 19601.07227 19601.07031
19588.0 0.0000511 19580.61719 19580.60742
19610.0 0.0000510 19560.24219 19560.23438
19570.0 0.0000511 19539.93945 19539.92773
19635.0 0.0000509 19519.71289 19519.70313
19697.0 0.0000508 19499.56641 19499.54688
19435.0 0.0000515 19479.49609 19479.48047
19673.0 0.0000508 19459.50000 19459.49609
19084.0 0.0000524 19439.59375 19439.58594
19409.0 0.0000515 19419.75391 19419.75000
19410.0 0.0000515 19400.01172 19400.00391
19363.0 0.0000516 19380.34570 19380.32813
19340.0 0.0000517 19360.75977 19360.75195
19405.0 0.0000515 19341.25977 19341.24805
19421.0 0.0000515 19321.83984 19321.83203
19292.0 0.0000518 19302.50586 19302.50195
19155.0 0.0000522 19283.25391 19283.24414
19254.0 0.0000519 19264.08398 19264.07422
19198.0 0.0000521 19245.00586 19244.99023
19247.0 0.0000520 19225.99805 19225.98242
19022.0 0.0000526 19207.07227 19207.06250
19025.0 0.0000526 19188.23633 19188.22656
19175.0 0.0000522 19169.47461 19169.47070
19295.0 0.0000518 19150.80469 19150.79102
19172.0 0.0000522 19132.20508 19132.19531
19244.0 0.0000520 19113.69531 19113.68164
19078.0 0.0000524 19095.25781 19095.25195
19098.0 0.0000524 19076.91602 19076.89648
19199.0 0.0000521 19058.63281 19058.61914
18993.0 0.0000527 19040.43945 19040.42383
19062.0 0.0000525 19022.31641 19022.30078
19038.0 0.0000525 19004.27148 19004.25781
19056.0 0.0000525 18986.30859 18986.29883
19016.0 0.0000526 18968.40820 18968.39453
19215.0 0.0000520 18950.59180 18950.57422
19089.0 0.0000524 18932.84375 18932.83594
18916.0 0.0000529 18915.16797 18915.15430
18890.0 0.0000529 18897.56250 18897.55469
19139.0 0.0000522 18880.03320 18880.01563
18861.0 0.0000530 18862.55859 18862.55273
18709.0 0.0000535 18845.16211 18845.15039
18649.0 0.0000536 18827.82617 18827.81641
18880.0 0.0000530 18810.56250 18810.54492
18677.0 0.0000535 18793.35352 18793.34180
18648.0 0.0000536 18776.22266 18776.19531
18687.0 0.0000535 18759.13477 18759.11328
18723.0 0.0000534 18742.11328 18742.09375
18985.0 0.0000527 18725.14063 18725.12500
18815.0 0.0000531 18708.23242 18708.21289
18726.0 0.0000534 18691.38477 18691.35938
18845.0 0.0000531 18674.58398 18683.27734
19015.0 0.0000526 18657.82813 18667.10352
18838.0 0.0000531 18641.14648 18651.03320
18719.0 0.0000534 18624.49805 18635.06836
18679.0 0.0000535 18607.90039 18619.22656
18748.0 0.0000533 18591.35156 18603.52539
18445.0 0.0000542 18574.84180 18587.95703
18522.0 0.0000540 18558.37891 18572.55273
18727.0 0.0000534 18541.96094 18557.32813
18491.0 0.0000541 18525.58789 18542.28125
18574.0 0.0000538 18509.24805 18527.47461
18687.0 0.0000535 18492.94531 18512.92773
18546.0 0.0000539 18476.67969 18498.68555
18432.0 0.0000543 18460.45117 18484.80078
18374.0 0.0000544 18444.24805 18471.34570
18494.0 0.0000541 18428.08203 18458.41602
18529.0 0.0000540 18411.94531 18446.14258
18106.0 0.0000552 18395.83789 18434.68164
18313.0 0.0000546 18379.75977 18424.29492
18373.0 0.0000544 18363.70508 18415.32422
18574.0 0.0000538 18347.67578 18408.29102
18119.0 0.0000552 18331.67383 18404.22656
18480.0 0.0000541 18315.69336 18405.13867
18391.0 0.0000544 18299.72070 18415.19141
18361.0 0.0000545 18283.76953 18441.89648
18900.0 0.0000529 18267.84766 18496.79883
18799.0 0.0000532 18251.92969 18594.20508
19019.0 0.0000526 18236.03711 18747.60352
18578.0 0.0000538 18220.14258 18975.81250
19290.0 0.0000518 18204.26758 19300.64063
19192.0 0.0000521 18188.40820 19740.43945
19957.0 0.0000501 18172.54492 20282.49805
19735.0 0.0000507 18156.70508 20815.53711
20190.0 0.0000495 18140.85547 21101.67578
20109.0 0.0000497 18125.02734 20865.79492
19335.0 0.0000517 18109.19141 20155.77734
19030.0 0.0000525 18093.36328 19382.17578
18622.0 0.0000537 18077.53320 18811.81836
18622.0 0.0000537 18061.70898 18474.17578
18298.0 0.0000547 18045.88281 18297.04297
18169.0 0.0000550 18030.05078 18202.86523
18044.0 0.0000554 18014.21484 18144.71484
18156.0 0.0000551 17998.36523 18102.07031
18251.0 0.0000548 17982.52930 18067.26758
18041.0 0.0000554 17966.68359 18037.26758
17822.0 0.0000561 17950.82031 18010.51367
18106.0 0.0000552 17934.96289 17986.09180
18329.0 0.0000546 17919.07813 17963.36719
18276.0 0.0000547 17903.19141 17941.91992
17991.0 0.0000556 17887.29883 17928.05664
18125.0 0.0000552 17871.38672 17908.77539
17755.0 0.0000563 17855.47266 17890.11523
17922.0 0.0000558 17839.52930 17871.98828
17983.0 0.0000556 17823.58008 17854.28516
18005.0 0.0000555 17807.61523 17836.94922
17931.0 0.0000558 17791.63086 17819.94141
18055.0 0.0000554 17775.62500 17803.22656
17639.0 0.0000567 17759.61133 17786.78125
17768.0 0.0000563 17743.57031 17770.59180
17834.0 0.0000561 17727.51367 17754.66992
17658.0 0.0000566 17711.43750 17739.01367
18045.0 0.0000554 17695.33594 17723.64063
17826.0 0.0000561 17679.21680 17708.59570
17686.0 0.0000565 17663.08008 17693.91016
17883.0 0.0000559 17646.91406 17670.34180
17813.0 0.0000561 17630.72266 17657.18750
17687.0 0.0000565 17614.51172 17644.64453
17771.0 0.0000563 17598.27930 17632.90625
17806.0 0.0000562 17582.01953 17622.27539
17699.0 0.0000565 17565.73438 17613.20117
17653.0 0.0000566 17549.41992 17606.59180
17601.0 0.0000568 17533.08398 17604.16016
17668.0 0.0000566 17516.71484 17609.06445
17705.0 0.0000565 17500.32422 17626.52734
17690.0 0.0000565 17483.90430 17663.97852
17956.0 0.0000557 17467.46094 17730.50977
17977.0 0.0000556 17450.98047 17834.27344
18017.0 0.0000555 17434.47461 17984.75977
17794.0 0.0000562 17417.94336 18199.11914
18428.0 0.0000543 17401.38281 18468.26953
18405.0 0.0000543 17384.79297 18747.97852
18647.0 0.0000536 17368.16992 18964.32227
18715.0 0.0000534 17351.51172 18981.77539
18700.0 0.0000535 17334.83594 18993.15625
18325.0 0.0000546 17318.11719 18606.55859
18168.0 0.0000550 17301.37891 18249.39258
18147.0 0.0000551 17284.59961 17998.75586
17818.0 0.0000561 17267.79492 17852.10938
17910.0 0.0000558 17250.95898 17778.02148
17772.0 0.0000563 17234.09180 17745.61719
17394.0 0.0000575 17217.19531 17735.50195
17634.0 0.0000567 17200.26563 17738.49023
17651.0 0.0000567 17183.29883 17751.17578
17769.0 0.0000563 17166.30859 17772.64844
17492.0 0.0000572 17149.28711 17803.14844
17616.0 0.0000568 17132.22852 17843.56445
17840.0 0.0000561 17115.14453 17895.37500
17998.0 0.0000556 17098.02148 17960.69922
17753.0 0.0000563 17080.86133 18042.51172
17922.0 0.0000558 17063.68164 18144.82422
18091.0 0.0000553 17046.46680 18273.19727
18264.0 0.0000548 17029.21289 18435.52539
18658.0 0.0000536 17011.93555 18643.35742
18957.0 0.0000528 16994.61719 18915.80273
19899.0 0.0000503 16977.26758 19288.49414
20570.0 0.0000486 16959.89648 19833.61328
21610.0 0.0000463 16942.48242 20691.50586
23712.0 0.0000422 16925.03711 22107.08008
26013.0 0.0000384 16907.57031 24455.38086
29960.0 0.00003338 16890.05859 28221.80859
34685.0 0.00002883 16872.52539 33917.86719
42265.0 0.00002366 16854.95508 42192.65234
53080.0 0.00001884 16837.35352 53628.41797
68126.0 0.00001468 16819.72852 67788.85156
84135.0 0.00001189 16802.05469 82744.03125
94954.0 0.00001053 16784.36133 93470.86719
94066.0 0.00001063 16766.63672 93319.67969
81715.0 0.00001224 16748.87500 79768.30469
63011.0 0.00001587 16731.08984 60279.19531
44999.0 0.00002222 16713.27539 43505.51172
32298.0 0.00003096 16695.41406 32259.48633
25191.0 0.0000397 16677.53516 25938.90625
22105.0 0.0000452 16659.61914 22712.26172
20806.0 0.0000481 16641.66602 21043.35938
19797.0 0.0000505 16623.69727 20072.72852
19297.0 0.0000518 16605.68555 19425.16992
18891.0 0.0000529 16587.65430 18953.27539
18509.0 0.0000540 16569.58984 18593.96289
18370.0 0.0000544 16551.49414 18313.64063
18109.0 0.0000552 16533.36523 18091.49805
18122.0 0.0000552 16515.20117 17913.50391
17711.0 0.0000565 16497.01172 17770.09180
17582.0 0.0000569 16478.79883 17654.59375
17570.0 0.0000569 16460.54102 17562.38867
17535.0 0.0000570 16442.26367 17494.56641
17366.0 0.0000576 16423.95703 17441.43164
17309.0 0.0000578 16405.61523 17406.17383
17354.0 0.0000576 16387.24805 17389.28906
17386.0 0.0000575 16368.84961 17392.67969
17470.0 0.0000572 16350.41699 17420.49414
17499.0 0.0000571 16331.95898 17481.08008
17732.0 0.0000564 16313.47168 17591.04688
17929.0 0.0000558 16294.95605 17781.83008
18476.0 0.0000541 16276.41113 18107.57617
18657.0 0.0000536 16257.84180 18652.96094
19734.0 0.0000507 16239.23145 19536.24609
21057.0 0.0000475 16220.59668 20891.36914
22653.0 0.0000441 16201.93652 22570.64258
25546.0 0.0000391 16183.23633 25238.77930
28759.0 0.00003477 16164.51953 28565.24023
32254.0 0.00003100 16145.76660 32034.22266
35343.0 0.00002829 16126.98535 34783.72656
35761.0 0.00002796 16108.17480 35457.40625
32949.0 0.00003035 16089.33594 33179.71875
28458.0 0.0000351 16070.47363 28974.48047
24413.0 0.0000410 16051.57129 24759.49023
20763.0 0.0000482 16032.64453 21555.37109
19030.0 0.0000525 16013.69336 19489.81641
18041.0 0.0000554 15994.70410 18301.36133
17588.0 0.0000569 15975.69434 17662.48438
17078.0 0.0000586 15956.65625 17331.19531
17001.0 0.0000588 15937.57910 17175.76953
16870.0 0.0000593 15918.47852 17141.03711
17091.0 0.0000585 15899.35254 17204.58984
17078.0 0.0000586 15880.19141 17337.94141
16954.0 0.0000590 15861.00195 17484.57227
16962.0 0.0000590 15841.78418 17657.80664
16796.0 0.0000595 15822.53711 17526.10742
16847.0 0.0000594 15803.26465 17204.36328
16419.0 0.0000609 15783.96094 16839.30273
16558.0 0.0000604 15764.62305 16546.10938
16262.0 0.0000615 15745.25684 16352.35547
15884.0 0.0000630 15725.86230 16237.72949
16093.0 0.0000621 15706.44336 16217.97168
15880.0 0.0000630 15686.99023 16179.32813
15874.0 0.0000630 15667.51074 16154.21680
15746.0 0.0000635 15647.99219 16137.95313
15677.0 0.0000638 15628.45605 16128.99609
15983.0 0.0000626 15608.88379 16127.01270
15915.0 0.0000628 15589.28711 16132.28027
16014.0 0.0000624 15569.65527 16145.51660
15977.0 0.0000626 15549.99219 16167.89551
16071.0 0.0000622 15530.30078 16201.15137
15903.0 0.0000629 15510.58008 16158.29883
16224.0 0.0000616 15490.82715 16227.20117
16154.0 0.0000619 15471.04590 16317.81152
16598.0 0.0000602 15451.23047 16438.87500
16576.0 0.0000603 15431.38672 16606.50781
17037.0 0.0000587 15411.51855 16852.97266
17663.0 0.0000566 15391.61328 17241.30664
18727.0 0.0000534 15371.68164 17882.62695
19680.0 0.0000508 15351.71777 18952.14453
21455.0 0.0000466 15331.72168 20694.20117
24179.0 0.0000414 15311.69629 23383.90430
27342.0 0.0000366 15291.63965 27277.21875
32770.0 0.00003052 15271.55566 32598.07813
40119.0 0.00002493 15251.43164 38973.96875
47124.0 0.00002122 15231.28418 45120.51953
51107.0 0.00001957 15211.10254 48957.16406
49573.0 0.00002017 15190.89063 48062.38281
44667.0 0.00002239 15170.64746 42584.22266
37411.0 0.00002673 15150.37695 35870.64453
31030.0 0.00003223 15130.06934 30775.53320
27430.0 0.0000365 15109.73242 28091.19727
26517.0 0.0000377 15089.36523 27132.37500
26195.0 0.0000382 15068.96777 26637.52344
24976.0 0.0000400 15048.53320 25578.96680
23372.0 0.0000428 15028.06934 23630.65430
21355.0 0.0000468 15007.57813 21372.63281
19185.0 0.0000521 14987.05078 19427.14453
17895.0 0.0000559 14966.49707 18008.61328
16980.0 0.0000589 14945.91016 17076.42188
16560.0 0.0000604 14925.28809 16496.46094
16516.0 0.0000605 14904.64160 16133.04102
15992.0 0.0000625 14883.95801 15889.85156
15962.0 0.0000626 14863.24121 15712.23730
15541.0 0.0000643 14842.49512 15572.79785
15672.0 0.0000638 14821.71582 15458.14063
15512.0 0.0000645 14800.90820 15361.15332
15150.0 0.0000660 14780.07031 15277.41797
15096.0 0.0000662 14759.19727 15203.91992
15231.0 0.0000657 14738.29102 15138.51855
15512.0 0.0000645 14717.35840 15079.59082
14924.0 0.0000670 14696.38965 15025.89160
15219.0 0.0000657 14675.39453 15116.23145
14962.0 0.0000668 14654.36426 15079.32617
14960.0 0.0000668 14633.30664 15046.26953
15190.0 0.0000658 14612.21289 15016.71289
14868.0 0.0000673 14591.09570 14990.43066
15141.0 0.0000660 14569.93945 14967.26367
14906.0 0.0000671 14548.75586 14833.39941
14707.0 0.0000680 14527.53809 14823.14941
14787.0 0.0000676 14506.29395 14940.78516
14765.0 0.0000677 14485.02051 14944.05176
14502.0 0.0000690 14463.71289 14951.35449
14925.0 0.0000670 14442.37988 14963.28418
14618.0 0.0000684 14421.01465 14980.58789
14667.0 0.0000682 14399.61230 14958.10449
14873.0 0.0000672 14378.18555 14991.95605
14799.0 0.0000676 14356.72559 15034.64941
14709.0 0.0000680 14335.24512 15088.21191
14678.0 0.0000681 14313.72852 15155.34180
15004.0 0.0000666 14292.18555 15239.66309
14976.0 0.0000668 14270.61035 15346.14258
15302.0 0.0000654 14249.01172 15482.18555
15240.0 0.0000656 14227.37402 15659.93066
15583.0 0.0000642 14205.71875 15901.43359
16126.0 0.0000620 14184.03125 16249.03223
16790.0 0.0000596 14162.31055 16780.86523
17794.0 0.0000562 14140.57129 17628.31836
19354.0 0.0000517 14118.80176 18991.13281
21134.0 0.0000473 14097.00098 21138.23242
24227.0 0.0000413 14075.17383 24349.11523
28189.0 0.0000355 14053.32520 28766.00781
33772.0 0.00002961 14031.44922 34367.71094
40563.0 0.00002465 14009.54102 40802.99219
46416.0 0.00002154 13987.61230 46567.46875
49160.0 0.00002034 13965.66113 49529.69141
47914.0 0.00002087 13943.67383 48305.51172
43950.0 0.00002275 13921.67188 43819.87109
39200.0 0.00002551 13899.64258 39338.83594
36763.0 0.00002720 13877.58789 37221.23438
37825.0 0.00002644 13855.50391 38077.23828
41705.0 0.00002398 13833.40332 41361.52734
46327.0 0.00002159 13811.28125 45174.36328
47873.0 0.00002089 13789.12988 46878.98047
45507.0 0.00002197 13766.96191 44566.49609
39346.0 0.00002542 13744.76660 38474.57813
31480.0 0.00003177 13722.55176 31313.97656
24540.0 0.0000407 13700.31641 25287.78711
20329.0 0.0000492 13678.05664 21079.56836
17785.0 0.0000562 13655.78027 18490.66992
16729.0 0.0000598 13633.48145 17009.00781
15975.0 0.0000626 13611.16406 16158.75879
15471.0 0.0000646 13588.82813 15630.71387
15047.0 0.0000665 13566.47559 15264.52246
14869.0 0.0000673 13544.09668 14987.43652
14885.0 0.0000672 13521.70410 14766.68359
14636.0 0.0000683 13499.29785 14585.37500
14513.0 0.0000689 13476.86719 14433.30273
14334.0 0.0000698 13454.42188 14303.61914
14157.0 0.0000706 13431.96875 14191.37012
14290.0 0.0000700 13409.48828 14092.86328
14050.0 0.0000712 13386.99902 14005.45508
13819.0 0.0000724 13364.49414 13927.02930
13948.0 0.0000717 13341.97461 13855.96289
13664.0 0.0000732 13319.44238 13791.02148
13974.0 0.0000716 13296.90234 13731.19727
13687.0 0.0000731 13274.34180 13523.39160
13622.0 0.0000734 13251.76855 13480.78223
13584.0 0.0000736 13229.18652 13440.47949
13627.0 0.0000734 13206.59473 13402.13867
13479.0 0.0000742 13183.99316 13365.47852
13649.0 0.0000733 13161.38184 13330.28027
13371.0 0.0000748 13138.75000 13296.32129
13427.0 0.0000745 13116.12500 13263.46582
13407.0 0.0000746 13093.48145 13231.56152
13455.0 0.0000743 13070.83496 13070.81641
13213.0 0.0000757 13048.17871 13048.16406
13266.0 0.0000754 13025.52148 13025.49609
13212.0 0.0000757 13002.85645 13002.83789
12985.0 0.0000770 12980.17969 12980.15430
13172.0 0.0000759 12957.50000 12957.48047
13227.0 0.0000756 12934.81641 12934.79688
13118.0 0.0000762 12912.12793 12912.11133
13178.0 0.0000759 12889.44043 12889.42676
12953.0 0.0000772 12866.75781 12866.73535
12883.0 0.0000776 12844.05566 12844.03906
13130.0 0.0000762 12821.36133 12821.34570
12981.0 0.0000770 12798.66602 12798.65137
12747.0 0.0000784 12775.96680 12775.95410
12788.0 0.0000782 12753.27344 12753.25684
12831.0 0.0000779 12730.58008 12730.56641
13038.0 0.0000767 12707.88379 12707.86719
12606.0 0.0000793 12685.19531 12685.18164
12483.0 0.0000801 12662.50879 12662.49414
12584.0 0.0000795 12639.82031 12639.81250
12766.0 0.0000783 12617.14355 12617.12891
12433.0 0.0000804 12594.47266 12594.46191
12617.0 0.0000793 12571.79980 12571.78418
12568.0 0.0000796 12549.13184 12549.12207
12755.0 0.0000784 12526.47949 12526.46680
12492.0 0.0000801 12503.82813 12503.81543
12554.0 0.0000797 12481.18457 12481.17383
12486.0 0.0000801 12458.55371 12458.54102
12406.0 0.0000806 12435.93066 12435.91699
12367.0 0.0000809 12413.30664 12413.30078
12507.0 0.0000800 12390.69824 12390.69531
12529.0 0.0000798 12368.11133 12368.10449
12311.0 0.0000812 12345.52344 12345.51855
12477.0 0.0000801 12322.95703 12322.95215
12316.0 0.0000812 12300.40527 12305.18750
12395.0 0.0000807 12277.85645 12282.94043
12186.0 0.0000821 12255.32422 12260.75293
12363.0 0.0000809 12232.80762 12238.61328
12484.0 0.0000801 12210.30762 12216.52734
12316.0 0.0000812 12187.82422 12194.50488
12304.0 0.0000813 12165.36035 12172.55273
12343.0 0.0000810 12142.90527 12150.67676
12256.0 0.0000816 12120.46777 12128.89063
12265.0 0.0000815 12098.05566 12107.20605
12153.0 0.0000823 12075.65918 12085.63867
12309.0 0.0000812 12053.28125 12064.21680
12146.0 0.0000823 12030.92969 12042.95410
12053.0 0.0000830 12008.58105 12021.87500
12086.0 0.0000827 11986.26953 12001.03320
12193.0 0.0000820 11963.97949 11980.47559
12104.0 0.0000826 11941.71191 11960.26465
11997.0 0.0000834 11919.45996 11940.48047
11936.0 0.0000838 11897.23633 11921.25586
12058.0 0.0000829 11875.03906 11902.73633
11952.0 0.0000837 11852.85742 11885.17188
11945.0 0.0000837 11830.71387 11868.98047
12182.0 0.0000821 11808.58789 11854.97168
12027.0 0.0000831 11786.48828 11844.89258
11886.0 0.0000841 11764.41895 11842.51563
12015.0 0.0000832 11742.38086 11855.26074
11944.0 0.0000837 11720.35938 11896.16602
11825.0 0.0000846 11698.37891 11985.02637
11992.0 0.0000834 11676.42285 12146.00098
12075.0 0.0000828 11654.49707 12398.20117
12194.0 0.0000820 11632.59863 12736.68262
12488.0 0.0000801 11610.74121 13104.96680
12644.0 0.0000791 11588.89844 13385.26465
12532.0 0.0000798 11567.10059 13425.42188
12213.0 0.0000819 11545.33008 13153.42676
12064.0 0.0000829 11523.59277 12694.12500
11966.0 0.0000836 11501.89258 12243.63867
11815.0 0.0000846 11480.22754 11906.90625
11667.0 0.0000857 11458.59375 11695.81445
11535.0 0.0000867 11436.99609 11576.10742
11687.0 0.0000856 11415.43555 11507.18066
11458.0 0.0000873 11393.91016 11461.66406
11329.0 0.0000883 11372.41992 11426.07422
11667.0 0.0000857 11350.96875 11395.02441
11425.0 0.0000875 11329.55664 11366.47949
11366.0 0.0000880 11308.17676 11339.57715
11490.0 0.0000870 11286.84180 11313.86523
11426.0 0.0000875 11265.54492 11289.04199
11135.0 0.0000898 11244.28613 11264.90137
11311.0 0.0000884 11223.06543 11241.29883
11388.0 0.0000878 11201.89453 11218.13379
11237.0 0.0000890 11180.75391 11195.30566
11194.0 0.0000893 11159.65918 11172.77051
11079.0 0.0000903 11138.60840 11150.48730
11173.0 0.0000895 11117.59766 11128.41211
11184.0 0.0000894 11096.62891 11106.51172
11173.0 0.0000895 11075.70996 11084.77637
11080.0 0.0000903 11054.82520 11063.17578
10978.0 0.0000911 11033.99023 11041.70410
11122.0 0.0000899 11013.19727 11020.34668
11030.0 0.0000907 10992.45801 10999.09570
11109.0 0.0000900 10971.75488 10977.94141
11014.0 0.0000908 10951.10547 10956.88477
10851.0 0.0000922 10930.49414 10935.90137
11095.0 0.0000901 10909.93652 10909.95313
10883.0 0.0000919 10889.42285 10889.43750
10921.0 0.0000916 10868.95605 10868.97363
10950.0 0.0000913 10848.53711 10848.55664
10859.0 0.0000921 10828.17285 10828.18750
10756.0 0.0000930 10807.85547 10807.87207
10723.0 0.0000933 10787.57617 10787.59570
10780.0 0.0000928 10767.35547 10767.37695
10696.0 0.0000935 10747.19043 10747.71289
10709.0 0.0000934 10727.06738 10727.62012
10805.0 0.0000925 10706.99805 10707.58887
10664.0 0.0000938 10686.98438 10687.60938
10896.0 0.0000918 10667.00781 10667.68262
10528.0 0.0000950 10647.09570 10647.81836
10537.0 0.0000949 10627.23242 10628.00781
10685.0 0.0000936 10607.41992 10608.25586
10467.0 0.0000955 10587.66309 10588.56348
10592.0 0.0000944 10567.96680 10568.93848
10511.0 0.0000951 10548.30664 10549.37012
10590.0 0.0000944 10528.71582 10529.87207
10764.0 0.0000929 10509.17480 10510.43750
10261.0 0.0000975 10489.68848 10491.08008
10481.0 0.0000954 10470.25488 10471.79590
10654.0 0.0000939 10450.87891 10452.59277
10500.0 0.0000952 10431.55859 10492.93555
10501.0 0.0000952 10412.29297 10477.77539
10584.0 0.0000945 10393.08594 10463.11426
10520.0 0.0000951 10373.93359 10449.01270
10539.0 0.0000949 10354.84082 10435.55762
10402.0 0.0000961 10335.79883 10422.85645
10312.0 0.0000970 10316.82422 10411.06934
10442.0 0.0000958 10297.90332 10400.41113
10212.0 0.0000979 10279.03223 10391.28711
10354.0 0.0000966 10260.23242 10384.40137
10469.0 0.0000955 10241.48535 10380.93750
10211.0 0.0000979 10222.79883 10382.77832
10255.0 0.0000975 10204.17871 10392.40918
10257.0 0.0000975 10185.60742 10412.31152
10380.0 0.0000963 10167.09570 10443.41992
10591.0 0.0000944 10148.65039 10483.33887
10546.0 0.0000948 10130.25977 10524.38379
10372.0 0.0000964 10111.93555 10555.06543
10303.0 0.0000971 10093.67480 10565.88770
10476.0 0.0000955 10075.46680 10561.37500
10364.0 0.0000965 10057.32324 10561.01953
10597.0 0.0000944 10039.24609 10585.15723
10532.0 0.0000949 10021.22461 10651.48242
10668.0 0.0000937 10003.27148 10782.41797
10943.0 0.0000914 9985.38086 11015.07813
11416.0 0.0000876 9967.54492 11409.59570
11868.0 0.0000843 9949.78223 12048.98828
12596.0 0.0000794 9932.08008 13025.47656
13671.0 0.0000731 9914.44238 14397.38770
15307.0 0.0000653 9896.86523 16107.38379
17267.0 0.0000579 9879.35254 17928.36328
19657.0 0.0000509 9861.91113 19553.38477
20734.0 0.0000482 9844.52148 20556.77148
20554.0 0.0000487 9827.20801 20336.03711
18450.0 0.0000542 9809.95703 18804.07227
16441.0 0.0000608 9792.76758 16663.66992
14233.0 0.0000703 9775.64258 14619.79980
12524.0 0.0000798 9758.59375 13002.43652
11598.0 0.0000862 9741.60254 11871.33691
11092.0 0.0000902 9724.67969 11149.22852
10633.0 0.0000940 9707.82129 10711.00586
10463.0 0.0000956 9691.03223 10444.12402
10325.0 0.0000969 9674.31055 10271.58203
10278.0 0.0000973 9657.65332 10149.51563
10227.0 0.0000978 9641.06152 10055.77344
10086.0 0.0000991 9624.54004 9979.71094
10088.0 0.0000991 9608.08887 9915.79590
10052.0 0.0000995 9591.70020 9860.81055
10036.0 0.0000996 9575.38086 9812.10547
9866.0 0.0001014 9559.13672 9769.36035
10127.0 0.0000987 9542.95313 9730.84961
9762.0 0.0001024 9526.84180 9748.92773
9920.0 0.0001008 9510.79980 9720.03613
9788.0 0.0001022 9494.82324 9693.77148
9811.0 0.0001019 9478.91699 9712.95313
9904.0 0.0001010 9463.08398 9693.74512
9895.0 0.0001011 9447.32129 9676.65918
9695.0 0.0001031 9431.62109 9661.60547
9701.0 0.0001031 9415.99023 9648.56152
9405.0 0.0001063 9400.44043 9637.55469
9692.0 0.0001032 9384.95020 9628.64941
9680.0 0.0001033 9369.53613 9622.00488
9543.0 0.0001048 9354.18750 9617.82129
9527.0 0.0001050 9338.91016 9616.38086
9681.0 0.0001033 9323.70801 9558.00195
9632.0 0.0001038 9308.57813 9566.87402
9696.0 0.0001031 9293.51563 9579.71680
9765.0 0.0001024 9278.52051 9597.41113
9612.0 0.0001040 9263.60938 9621.12598
9570.0 0.0001045 9248.75586 9652.42871
9567.0 0.0001045 9233.97949 9693.45605
9841.0 0.0001016 9219.27637 9778.06836
9790.0 0.0001021 9204.64258 9852.25781
10057.0 0.0000994 9190.08398 9954.44531
10398.0 0.0000962 9175.59668 10102.76563
10375.0 0.0000964 9161.17773 10331.32813
10878.0 0.0000919 9146.83496 10699.89648
11695.0 0.0000855 9132.56543 11304.49219
12761.0 0.0000784 9118.36719 12279.28613
14156.0 0.0000706 9104.23926 13774.48633
16304.0 0.0000613 9090.18945 15890.81348
19063.0 0.0000525 9076.20605 18599.39453
21688.0 0.0000461 9062.30078 21686.46289
24194.0 0.0000413 9048.46680 24639.81836
25683.0 0.0000389 9034.70508 26726.86133
26329.0 0.0000380 9021.01563 27444.97266
26059.0 0.0000384 9007.40137 26871.99609
24660.0 0.0000406 8993.86133 25339.95313
22104.0 0.0000452 8980.39160 22843.47070
19382.0 0.0000516 8966.99805 19778.18359
16249.0 0.0000615 8953.67676 16795.16016
14037.0 0.0000712 8940.42676 14375.94141
12508.0 0.0000799 8927.25488 12654.95508
11534.0 0.0000867 8914.15625 11555.16797
11000.0 0.0000909 8901.12988 10921.13574
10699.0 0.0000935 8888.17480 10606.22461
10758.0 0.0000930 8875.29883 10517.87305
10808.0 0.0000925 8862.48926 10631.32617
11233.0 0.0000890 8849.75879 10979.29297
11818.0 0.0000846 8837.10059 11625.26270
12616.0 0.0000793 8824.51563 12614.74121
13772.0 0.0000726 8812.00391 13905.45215
15073.0 0.0000663 8799.57227 15325.70020
16250.0 0.0000615 8787.20410 16538.25000
16702.0 0.0000599 8774.91797 17071.40039
16276.0 0.0000614 8762.70215 16604.73047
15068.0 0.0000664 8750.56250 15307.16406
13374.0 0.0000748 8738.48926 13740.32031
12179.0 0.0000821 8726.49805 12375.03027
11280.0 0.0000887 8714.57422 11421.03125
10986.0 0.0000910 8702.72461 10913.43262
10894.0 0.0000918 8690.95703 10816.12695
11259.0 0.0000888 8679.25684 11099.75293
11832.0 0.0000845 8667.62500 11777.37305
12744.0 0.0000785 8656.07324 12886.27246
14396.0 0.0000695 8644.59277 14366.54980
15997.0 0.0000625 8633.18066 16198.05762
17642.0 0.0000567 8621.85156 18018.55859
18551.0 0.0000539 8610.59180 19392.80664
19074.0 0.0000524 8599.39551 19908.71680
17909.0 0.0000558 8588.28027 19091.04492
16660.0 0.0000600 8577.23828 17223.42773
14541.0 0.0000688 8566.26270 15048.72363
12409.0 0.0000806 8555.36621 13107.45898
11312.0 0.0000884 8544.54004 11617.28711
10411.0 0.0000961 8533.78027 10590.12598
9936.0 0.0001006 8523.10156 9936.53320
9783.0 0.0001022 8512.48926 9537.43750
9647.0 0.0001037 8501.95410 9291.51172
9345.0 0.0001070 8491.48047 9130.66895
9171.0 0.0001090 8481.08398 9016.24414
9137.0 0.0001094 8470.76172 8928.45410
9161.0 0.0001092 8460.50684 8857.49902
9080.0 0.0001101 8450.32031 8798.32715
8849.0 0.0001130 8440.20703 8747.91406
8853.0 0.0001130 8430.16504 8670.10254
8831.0 0.0001132 8420.18945 8633.90234
8982.0 0.0001113 8410.28613 8601.81445
8839.0 0.0001131 8400.45215 8573.04297
8873.0 0.0001127 8390.69141 8547.00391
8844.0 0.0001131 8380.99219 8523.21777
9026.0 0.0001108 8371.36523 8501.30859
8946.0 0.0001118 8361.80957 8480.99316
8623.0 0.0001160 8352.32324 8462.02246
8908.0 0.0001123 8342.90234 8444.19531
8540.0 0.0001171 8333.54492 8427.36914
8641.0 0.0001157 8324.25977 8411.40234
8690.0 0.0001151 8315.04395 8396.18750
8538.0 0.0001171 8305.89160 8381.63672
8435.0 0.0001186 8296.80469 8367.67578
8436.0 0.0001185 8287.78613 8354.22754
8456.0 0.0001183 8278.83301 8278.81250
8359.0 0.0001196 8269.94824 8269.92969
8506.0 0.0001176 8261.12891 8261.10449
8598.0 0.0001163 8252.37207 8252.34766
8372.0 0.0001194 8243.68359 8243.65527
8386.0 0.0001192 8235.05566 8235.03125
8358.0 0.0001196 8226.49219 8226.46680
8386.0 0.0001192 8217.99023 8217.96973
8440.0 0.0001185 8209.55957 8209.53516
8224.0 0.0001216 8201.18164 8201.15625
8306.0 0.0001204 8192.87305 8192.84863
8406.0 0.0001190 8184.62988 8184.60254
8177.0 0.0001223 8176.43555 8176.41309
8258.0 0.0001211 8168.31396 8168.28809
8237.0 0.0001214 8160.24902 8160.22412
8295.0 0.0001206 8152.24512 8152.22070
8115.0 0.0001232 8144.30078 8144.27490
8228.0 0.0001215 8136.41748 8136.39404
8103.0 0.0001234 8128.59521 8128.57129
8152.0 0.0001227 8120.82764 8120.80127
8303.0 0.0001204 8113.12207 8113.09766
8185.0 0.0001222 8105.47217 8105.44482
8231.0 0.0001215 8097.87891 8097.85254
8138.0 0.0001229 8090.34424 8090.32227
8218.0 0.0001217 8082.86426 8082.84229
8095.0 0.0001235 8075.44434 8075.41748
8216.0 0.0001217 8068.07715 8068.05225
8049.0 0.0001242 8060.76367 8069.29443
8087.0 0.0001237 8053.50684 8062.59375
8136.0 0.0001229 8046.30469 8056.00586
8225.0 0.0001216 8039.15576 8049.53467
8043.0 0.0001243 8032.05908 8043.18896
8061.0 0.0001241 8025.01563 8036.97852
7963.0 0.0001256 8018.02393 8030.91846
8052.0 0.0001242 8011.08154 8025.02197
8100.0 0.0001235 8004.19482 8019.30713
7875.0 0.0001270 7997.35645 8013.79736
8203.0 0.0001219 7990.56641 8008.51904
8064.0 0.0001240 7983.82764 8003.50586
8021.0 0.0001247 7977.13721 7998.80322
7863.0 0.0001272 7970.49414 7994.45850
8027.0 0.0001246 7963.89941 7990.54736
7883.0 0.0001269 7957.35352 7987.15869
8079.0 0.0001238 7950.85205 7984.40527
8114.0 0.0001232 7944.39844 7982.44580
8034.0 0.0001245 7937.99023 7981.49805
7991.0 0.0001251 7931.62402 7981.89795
8109.0 0.0001233 7925.30518 7984.21729
8153.0 0.0001227 7919.03076 7989.50732
8203.0 0.0001219 7912.79443 8002.46631
8034.0 0.0001245 7906.60547 8022.17090
8239.0 0.0001214 7900.45947 8058.48584
8189.0 0.0001221 7894.35059 8123.46045
8557.0 0.0001169 7888.28369 8233.83203
8596.0 0.0001163 7882.25732 8407.64063
8670.0 0.0001153 7876.27246 8655.45996
8997.0 0.0001111 7870.32471 8966.97656
9274.0 0.0001078 7864.41699 9300.31152
9479.0 0.0001055 7858.54346 9579.83398
9696.0 0.0001031 7852.70996 9705.25879
9481.0 0.0001055 7846.91406 9607.17676
9280.0 0.0001078 7841.15332 9317.44238
8906.0 0.0001123 7835.42529 8950.06445
8588.0 0.0001164 7829.73438 8607.04590
8252.0 0.0001212 7824.07959 8496.82129
8271.0 0.0001209 7818.45313 8320.53027
8189.0 0.0001221 7812.86084 8214.18945
8273.0 0.0001209 7807.30664 8156.48975
8198.0 0.0001220 7801.77686 8207.45996
8119.0 0.0001232 7796.27979 8201.63574
8172.0 0.0001224 7790.81348 8206.57813
8105.0 0.0001234 7785.37891 8219.53223
8114.0 0.0001232 7779.97168 8240.34863
8080.0 0.0001238 7774.59326 8271.06836
8022.0 0.0001247 7769.24219 8316.37891
8245.0 0.0001213 7763.91943 8384.09570
8152.0 0.0001227 7758.62207 8484.89746
8415.0 0.0001188 7753.35400 8629.22852
8526.0 0.0001173 7748.10693 8820.45020
8383.0 0.0001193 7742.88818 9046.48926
8626.0 0.0001159 7737.69141 9276.45898
8861.0 0.0001129 7732.51709 9463.07422
8691.0 0.0001151 7727.36670 9563.43359
8825.0 0.0001133 7722.24023 9579.65430
8890.0 0.0001125 7717.13428 9570.91992
8985.0 0.0001113 7712.04834 9612.15723
9133.0 0.0001095 7706.98486 9765.19043
9476.0 0.0001055 7701.94092 10087.59570
10150.0 0.0000985 7696.91553 10653.73438
11184.0 0.0000894 7691.91016 11576.62402
12455.0 0.0000803 7686.92090 13017.07129
14531.0 0.0000688 7681.94971 15158.75977
17346.0 0.0000577 7676.99756 18191.54492
21343.0 0.0000469 7672.06055 22163.00195
26497.0 0.0000377 7667.13770 26876.33984
31514.0 0.00003173 7662.22998 31873.81836
35933.0 0.00002783 7657.33691 36345.66016
38666.0 0.00002586 7652.45947 39394.03516
39372.0 0.00002540 7647.59375 40277.08203
38594.0 0.00002591 7642.74072 39174.26953
36099.0 0.00002770 7637.90186 36783.16406
32652.0 0.00003063 7633.07568 33405.34766
28280.0 0.0000354 7628.25635 29074.88086
23938.0 0.0000418 7623.44971 24309.81445
19296.0 0.0000518 7618.65332 19907.14648
15808.0 0.0000633 7613.86670 16343.19922
13223.0 0.0000756 7609.08936 13721.00781
11682.0 0.0000856 7604.31738 11933.49707
10628.0 0.0000941 7599.55615 10804.50977
10201.0 0.0000980 7594.80322 10082.11621
9766.0 0.0001024 7590.05420 9624.45801
9314.0 0.0001074 7585.31396 9321.36035
9084.0 0.0001101 7580.57764 9108.68945
9063.0 0.0001103 7575.84668 8950.22949
8849.0 0.0001130 7571.12402 8834.70117
8917.0 0.0001121 7566.40137 8751.33496
8807.0 0.0001135 7561.68457 8697.62988
8789.0 0.0001138 7556.97119 8676.04102
8897.0 0.0001124 7552.25928 8696.04688
8930.0 0.0001120 7547.55078 8777.83301
9170.0 0.0001091 7542.84424 8956.47461
9490.0 0.0001054 7538.14014 9283.61230
10042.0 0.0000996 7533.43701 9821.41113
10637.0 0.0000940 7528.73291 10623.89941
11457.0 0.0000873 7524.02979 11701.57715
12886.0 0.0000776 7519.32813 12970.02930
14037.0 0.0000712 7514.62305 14225.15430
14682.0 0.0000681 7509.91748 15179.59082
14866.0 0.0000673 7505.21045 15348.41797
14334.0 0.0000698 7500.50195 14844.79883
13078.0 0.0000765 7495.79443 13671.81738
11930.0 0.0000838 7491.07861 12261.72559
10700.0 0.0000935 7486.36426 10872.43457
9971.0 0.0001003 7481.64355 9843.16992
9129.0 0.0001095 7476.92041 9115.12109
8942.0 0.0001118 7472.19238 8647.22754
8976.0 0.0001114 7467.46143 8369.28418
8597.0 0.0001163 7462.72168 8214.30469
8544.0 0.0001170 7457.98242 8133.97949
8452.0 0.0001183 7453.23242 8100.19336
8581.0 0.0001165 7448.47998 8101.56641
8484.0 0.0001179 7443.71973 8140.51611
8895.0 0.0001124 7438.95605 8234.51953
9026.0 0.0001108 7434.18311 8421.99121
9362.0 0.0001068 7429.40381 8769.01270
9978.0 0.0001002 7424.61914 9370.35840
11157.0 0.0000896 7419.82227 10331.50684
12349.0 0.0000810 7415.02148 11719.41309
14136.0 0.0000707 7410.21143 13485.70703
15534.0 0.0000644 7405.39209 15401.17285
17235.0 0.0000580 7400.56689 17040.98242
17365.0 0.0000576 7395.73193 17854.51953
16922.0 0.0000591 7390.88672 17441.70508
15932.0 0.0000628 7386.03271 15932.90918
13937.0 0.0000718 7381.16992 13925.98730
12063.0 0.0000829 7376.29883 11997.53711
10803.0 0.0000926 7371.41602 10458.44824
9717.0 0.0001029 7366.52148 9389.66504
9248.0 0.0001081 7361.61963 8728.37695
9105.0 0.0001098 7356.70410 8312.43750
8668.0 0.0001154 7351.78271 8127.18164
8546.0 0.0001170 7346.85059 8054.58643
8703.0 0.0001149 7341.90479 8067.26807
8710.0 0.0001148 7336.94775 8174.15137
8929.0 0.0001120 7331.98145 8412.65918
9300.0 0.0001075 7327.00488 8837.17090
9566.0 0.0001045 7322.01367 9495.67773
10326.0 0.0000968 7317.01611 10390.97461
10870.0 0.0000920 7312.00000 11437.36230
11661.0 0.0000858 7306.97656 12438.74512
12271.0 0.0000815 7301.94287 13108.51758
12212.0 0.0000819 7296.89600 13159.36719
11584.0 0.0000863 7291.83545 12537.70410
10596.0 0.0000944 7286.76709 11475.29980
9789.0 0.0001022 7281.68213 10333.89453
8924.0 0.0001121 7276.59082 9352.34570
8551.0 0.0001169 7271.48242 8624.70117
8166.0 0.0001225 7266.36182 8144.49561
7902.0 0.0001266 7261.22998 7854.09326
8043.0 0.0001243 7256.08838 7686.41113
7876.0 0.0001270 7250.93359 7588.25684
7552.0 0.0001324 7245.76416 7526.29297
7665.0 0.0001305 7240.58447 7482.87744
7735.0 0.0001293 7235.39404 7449.59229
7653.0 0.0001307 7230.18994 7422.57568
7443.0 0.0001344 7224.97510 7399.94775
7453.0 0.0001342 7219.75000 7380.65039
7465.0 0.0001340 7214.50684 7363.98535
7448.0 0.0001343 7209.25488 7349.48633
7415.0 0.0001349 7203.99170 7336.80176
7333.0 0.0001364 7198.71680 7325.67676
7309.0 0.0001368 7193.42822 7315.93750
7314.0 0.0001367 7188.13086 7308.04395
7446.0 0.0001343 7182.81689 7278.26514
7499.0 0.0001334 7177.49609 7273.43262
7410.0 0.0001350 7172.16064 7269.70947
7260.0 0.0001377 7166.81494 7267.16357
7585.0 0.0001318 7161.45703 7265.91797
7360.0 0.0001359 7156.08984 7266.15332
7271.0 0.0001375 7150.70801 7268.12695
7439.0 0.0001344 7145.31982 7272.22705
7261.0 0.0001377 7139.91602 7279.02930
7431.0 0.0001346 7134.50488 7289.54785
7374.0 0.0001356 7129.07959 7305.72900
7387.0 0.0001354 7123.64600 7331.67725
7436.0 0.0001345 7118.20117 7375.99414
7515.0 0.0001331 7112.74365 7455.63232
7637.0 0.0001309 7107.28125 7600.13037
7703.0 0.0001298 7101.80469 7853.76074
8336.0 0.0001200 7096.31885 8269.67969
9005.0 0.0001110 7090.82373 8890.62109
9531.0 0.0001049 7085.32080 9717.29785
10402.0 0.0000961 7079.80518 10674.65625
11170.0 0.0000895 7074.27930 11581.50000
11799.0 0.0000848 7068.74609 12240.20508
11855.0 0.0000844 7063.20117 12426.77637
11487.0 0.0000871 7057.65088 12045.40234
10851.0 0.0000922 7052.09375 11206.87793
9783.0 0.0001022 7046.52100 10185.37305
9053.0 0.0001105 7040.94336 9233.25586
8324.0 0.0001201 7035.35889 8481.06836
8041.0 0.0001244 7029.76270 7956.18359
7789.0 0.0001284 7024.16406 7625.17432
7532.0 0.0001328 7018.55420 7431.61377
7451.0 0.0001342 7012.93604 7322.94580
7395.0 0.0001352 7007.31006 7262.50439
7311.0 0.0001368 7001.68213 7229.88428
7246.0 0.0001380 6996.04199 7217.18994
7349.0 0.0001361 6990.39551 7225.17871
7310.0 0.0001368 6984.74121 7260.79443
7485.0 0.0001336 6979.08545 7339.03223
7571.0 0.0001321 6973.41943 7463.35303
7859.0 0.0001272 6967.74756 7641.63232
7817.0 0.0001279 6962.06836 7861.56689
8032.0 0.0001245 6956.38574 8087.35986
8093.0 0.0001236 6950.69629 8261.75000
8220.0 0.0001217 6945.00342 8320.50586
8099.0 0.0001235 6939.30127 8227.10742
7857.0 0.0001273 6933.59814 8012.78174
7633.0 0.0001310 6927.88770 7751.04053
7490.0 0.0001335 6922.17432 7505.65186
7328.0 0.0001365 6916.45508 7310.22705
7200.0 0.0001389 6910.73291 7172.36328
7090.0 0.0001410 6905.00342 7083.55811
7289.0 0.0001372 6899.27295 7029.30127
7090.0 0.0001410 6893.53760 6995.99609
7023.0 0.0001424 6887.79932 6974.12939
7126.0 0.0001403 6882.05713 6958.19189
6960.0 0.0001437 6876.31152 6945.42188
7034.0 0.0001422 6870.56201 6934.52393
6894.0 0.0001451 6864.81055 6924.92090
6929.0 0.0001443 6859.05811 6916.31494
6946.0 0.0001440 6853.29785 6908.54736
7133.0 0.0001402 6847.53857 6901.51904
6893.0 0.0001451 6841.77881 6895.18457
7062.0 0.0001416 6836.01416 6887.77832
6910.0 0.0001447 6830.25000 6882.89600
6979.0 0.0001433 6824.47900 6868.29688
7000.0 0.0001429 6818.71045 6865.48975
6906.0 0.0001448 6812.94043 6863.67236
6895.0 0.0001450 6807.16748 6863.14551
6993.0 0.0001430 6801.39453 6864.47900
7013.0 0.0001426 6795.62012 6868.80127
6795.0 0.0001472 6789.84180 6878.33008
6958.0 0.0001437 6784.06738 6897.16992
7168.0 0.0001395 6778.28760 6932.24805
6937.0 0.0001442 6772.50977 6993.68311
6966.0 0.0001436 6766.73438 7093.81250
7192.0 0.0001390 6760.95313 7243.85107
7366.0 0.0001358 6755.17480 7447.27344
7572.0 0.0001321 6749.39648 7691.72949
7717.0 0.0001296 6743.61719 7942.65527
7853.0 0.0001273 6737.83691 8147.09033
7952.0 0.0001258 6732.06055 8246.82031
7915.0 0.0001263 6726.27979 8203.71484
7830.0 0.0001277 6720.50098 8040.33252
7483.0 0.0001336 6714.72266 7825.03857
7363.0 0.0001358 6708.94580 7614.38965
7281.0 0.0001373 6703.16699 7432.54395
7075.0 0.0001413 6697.39258 7285.23291
7190.0 0.0001391 6691.61865 7159.08398
7088.0 0.0001411 6685.84082 7047.52637
7012.0 0.0001426 6680.06787 6951.77344
6763.0 0.0001479 6674.29541 6877.06055
6873.0 0.0001455 6668.52441 6816.72559
6796.0 0.0001471 6662.75195 6772.02930
6783.0 0.0001474 6656.98438 6739.88379
6775.0 0.0001476 6651.21387 6716.79883
6658.0 0.0001502 6645.44678 6699.68604
6643.0 0.0001505 6639.67920 6686.23438
6809.0 0.0001469 6633.91455 6674.96143
6637.0 0.0001507 6628.14893 6665.02588
6695.0 0.0001494 6622.38770 6655.97119
6715.0 0.0001489 6616.62451 6647.54541
6683.0 0.0001496 6610.86377 6639.61230
6774.0 0.0001476 6605.10596 6632.07861
6647.0 0.0001504 6599.34570 6625.85059
6785.0 0.0001474 6593.59131 6619.28174
6529.0 0.0001532 6587.83594 6612.68359
6675.0 0.0001498 6582.07910 6606.31299
6778.0 0.0001475 6576.32715 6600.15820
6604.0 0.0001514 6570.57520 6594.20557
6566.0 0.0001523 6564.82471 6588.45264
6384.0 0.0001566 6559.07422 6582.89502
6605.0 0.0001514 6553.32471 6577.54590
6657.0 0.0001502 6547.57959 6572.41602
6668.0 0.0001500 6541.82910 6567.51611
6573.0 0.0001521 6536.08350 6562.88623
6452.0 0.0001550 6530.34033 6558.55518
6592.0 0.0001517 6524.59375 6554.57813
6518.0 0.0001534 6518.85205 6551.02100
6629.0 0.0001509 6513.11035 6547.98096
6584.0 0.0001519 6507.36768 6545.60498
6572.0 0.0001522 6501.62451 6544.12549
6649.0 0.0001504 6495.88379 6543.96582
6425.0 0.0001556 6490.14111 6541.74756
6534.0 0.0001530 6484.40137 6547.38135
6610.0 0.0001513 6478.66162 6558.94336
6585.0 0.0001519 6472.92041 6580.18408
6591.0 0.0001517 6467.17920 6616.64014
6608.0 0.0001513 6461.43896 6674.47852
6694.0 0.0001494 6455.69678 6758.51416
6727.0 0.0001487 6449.95508 6872.45361
7156.0 0.0001397 6444.21484 7011.00000
7228.0 0.0001384 6438.47119 7159.09717
7458.0 0.0001341 6432.72852 7285.17578
7446.0 0.0001343 6426.98340 7357.85840
7336.0 0.0001363 6421.23828 7348.80322
7312.0 0.0001368 6415.49219 7256.95605
7166.0 0.0001395 6409.74561 7113.24561
6705.0 0.0001491 6403.99658 6958.68604
6734.0 0.0001485 6398.24463 6822.81201
6691.0 0.0001495 6392.49414 6721.46045
6506.0 0.0001537 6386.74072 6660.85938
6726.0 0.0001487 6380.98193 6641.20996
6712.0 0.0001490 6375.22656 6658.58496
6669.0 0.0001499 6369.46631 6705.15186
6576.0 0.0001521 6363.70215 6768.16846
6740.0 0.0001484 6357.93896 6829.44385
6728.0 0.0001486 6352.17188 6867.68896
6743.0 0.0001483 6346.39941 6864.05859
6739.0 0.0001484 6340.62695 6813.57617
6681.0 0.0001497 6334.85205 6730.53027
6522.0 0.0001533 6329.06836 6637.04004
6428.0 0.0001556 6323.28564 6550.70752
6483.0 0.0001542 6317.49951 6480.89648
6348.0 0.0001575 6311.70703 6429.41064
6326.0 0.0001581 6305.91113 6394.15039
6443.0 0.0001552 6300.11377 6370.91016
6403.0 0.0001562 6294.30957 6355.53516
6169.0 0.0001621 6288.50098 6344.92871
6442.0 0.0001552 6282.68848 6337.18164
6299.0 0.0001588 6276.87158 6331.31250
6188.0 0.0001616 6271.04736 6326.95801
6248.0 0.0001601 6265.22119 6324.15771
6201.0 0.0001613 6259.38721 6323.36523
6355.0 0.0001574 6253.54785 6325.64697
6281.0 0.0001592 6247.70313 6333.07959
6370.0 0.0001570 6241.85449 6349.34961
6563.0 0.0001524 6235.99756 6380.20801
6471.0 0.0001545 6230.13428 6433.35986
6483.0 0.0001542 6224.26758 6517.20410
6615.0 0.0001512 6218.39160 6657.19482
6707.0 0.0001491 6212.50781 6815.65527
7107.0 0.0001407 6206.62012 6999.64258
7146.0 0.0001399 6200.72266 7190.05762
7143.0 0.0001400 6194.82080 7341.91748
7283.0 0.0001373 6188.91309 7426.55518
7415.0 0.0001349 6182.99365 7425.18164
7168.0 0.0001395 6177.06787 7363.05225
6912.0 0.0001447 6171.13379 7268.75977
6972.0 0.0001434 6165.19092 7160.28516
6802.0 0.0001470 6159.24365 7037.11279
6671.0 0.0001499 6153.28662 6895.92090
6711.0 0.0001490 6147.32129 6745.40723
6497.0 0.0001539 6141.34570 6603.14648
6408.0 0.0001561 6135.36230 6483.15527
6333.0 0.0001579 6129.37158 6391.40723
6417.0 0.0001558 6123.37061 6327.07617
6138.0 0.0001629 6117.36084 6285.45654
6379.0 0.0001568 6111.34375 6260.80908
6466.0 0.0001547 6105.31299 6252.98145
6258.0 0.0001598 6099.27637 6250.12354
6217.0 0.0001608 6093.22998 6276.56689
6166.0 0.0001622 6087.17041 6291.01514
6404.0 0.0001562 6081.10645 6311.86182
6198.0 0.0001613 6075.03174 6336.10791
6280.0 0.0001592 6068.94482 6359.07080
6199.0 0.0001613 6062.84863 6375.48291
6402.0 0.0001562 6056.74023 6382.42188
6175.0 0.0001619 6050.62305 6382.31885
6294.0 0.0001589 6044.49854 6382.14600
6261.0 0.0001597 6038.36182 6389.85010
6328.0 0.0001580 6032.21289 6413.04980
6577.0 0.0001520 6026.05518 6460.20361
6324.0 0.0001581 6019.88672 6542.98877
6585.0 0.0001519 6013.70801 6678.77344
6735.0 0.0001485 6007.51807 6891.53418
7012.0 0.0001426 6001.31934 7209.93750
7472.0 0.0001338 5995.10645 7661.66016
7789.0 0.0001284 5988.88379 8262.86230
8395.0 0.0001191 5982.64893 9006.32129
9230.0 0.0001083 5976.40723 9844.03711
10017.0 0.0000998 5970.15186 10666.62207
10959.0 0.0000912 5963.88623 11302.22852
11318.0 0.0000884 5957.61084 11593.09473
11518.0 0.0000868 5951.32324 11509.01563
11315.0 0.0000884 5945.02686 11135.66797
10833.0 0.0000923 5938.71729 10562.29297
10068.0 0.0000993 5932.39746 9853.36719
9424.0 0.0001061 5926.06592 9094.96191
8612.0 0.0001161 5919.72803 8384.31934
8219.0 0.0001217 5913.37109 7793.42139
7656.0 0.0001306 5907.01074 7351.57617
7322.0 0.0001366 5900.63818 7060.36328
6925.0 0.0001444 5894.25391 6908.93848
7224.0 0.0001384 5887.85986 6891.60010
7288.0 0.0001372 5881.45459 7021.90186
7639.0 0.0001309 5875.03760 7339.03564
8258.0 0.0001211 5868.61426 7901.93359
8902.0 0.0001123 5862.17725 8768.90918
10175.0 0.0000983 5855.73096 9961.85156
11314.0 0.0000884 5849.27441 11424.32617
13269.0 0.0000754 5842.81152 12992.41797
14606.0 0.0000685 5836.33203 14396.06055
15345.0 0.0000652 5829.84619 15321.70996
16070.0 0.0000622 5823.35010 15534.53418
15473.0 0.0000646 5816.84717 14948.97363
14105.0 0.0000709 5810.33398 13688.05371
12439.0 0.0000804 5803.81152 12083.37305
10824.0 0.0000924 5797.28125 10484.72949
9296.0 0.0001076 5790.73779 9113.81641
8382.0 0.0001193 5784.18701 8058.27246
7793.0 0.0001283 5777.63135 7312.34180
7305.0 0.0001369 5771.06494 6820.73779
6941.0 0.0001441 5764.48975 6512.35596
6715.0 0.0001489 5757.90820 6322.41846
6540.0 0.0001529 5751.31494 6202.80811
6295.0 0.0001589 5744.72021 6122.94824
6231.0 0.0001605 5738.11572 6065.41309
6307.0 0.0001586 5731.50244 6021.30029
6201.0 0.0001613 5724.88232 5986.50977
6103.0 0.0001639 5718.25879 5959.56055
6081.0 0.0001644 5711.62451 5940.51758
6057.0 0.0001651 5704.98779 5930.44629
5931.0 0.0001686 5698.34131 5930.79297
5905.0 0.0001693 5691.69385 5943.38135
6032.0 0.0001658 5685.03906 5946.99805
5983.0 0.0001671 5678.37842 5977.79980
6102.0 0.0001639 5671.71143 6008.72754
6146.0 0.0001627 5665.04346 6023.79297
6081.0 0.0001644 5658.36914 6024.14893
5968.0 0.0001676 5651.69141 5998.01221
5920.0 0.0001689 5645.00879 5949.75684
5805.0 0.0001723 5638.32568 5891.03467
5878.0 0.0001701 5631.63867 5832.76611
5859.0 0.0001707 5624.94629 5781.63232
5799.0 0.0001724 5618.25244 5740.42529
5698.0 0.0001755 5611.55762 5709.05518
5673.0 0.0001763 5604.85986 5685.82422
5645.0 0.0001771 5598.16016 5668.54395
5614.0 0.0001781 5591.45996 5655.32959
5564.0 0.0001797 5584.76025 5644.98730
5558.0 0.0001799 5578.05957 5637.18555
5791.0 0.0001727 5571.35889 5632.46387
5575.0 0.0001794 5564.66016 5632.21289
5741.0 0.0001742 5557.95898 5632.55176
5806.0 0.0001722 5551.26123 5647.55762
5605.0 0.0001784 5544.56250 5649.40869
5613.0 0.0001782 5537.86816 5682.38965
5706.0 0.0001753 5531.17285 5717.46094
5829.0 0.0001716 5524.48340 5745.65820
5792.0 0.0001727 5517.79590 5756.59326
5862.0 0.0001706 5511.11182 5743.41455
5843.0 0.0001711 5504.42871 5708.24512
5675.0 0.0001762 5497.75537 5661.08105
5617.0 0.0001780 5491.08252 5612.77783
5604.0 0.0001784 5484.41650 5570.74268
5662.0 0.0001766 5477.75195 5538.31641
5471.0 0.0001828 5471.09912 5515.75977
5503.0 0.0001817 5464.45166 5501.71582
5597.0 0.0001787 5457.80566 5494.68799
5561.0 0.0001798 5451.16846 5493.93799
5552.0 0.0001801 5444.54199 5499.66113
5518.0 0.0001812 5437.92041 5512.56592
5620.0 0.0001779 5431.30957 5533.10742
5469.0 0.0001828 5424.70557 5560.51221
5701.0 0.0001754 5418.11035 5591.86621
5537.0 0.0001806 5411.52490 5621.47998
5611.0 0.0001782 5404.95361 5641.46436
5620.0 0.0001779 5398.38818 5643.86377
5707.0 0.0001752 5391.83447 5624.82275
5502.0 0.0001818 5385.29639 5587.27734
5561.0 0.0001798 5378.76270 5548.43213
5583.0 0.0001791 5372.24463 5503.29102
5421.0 0.0001845 5365.74023 5463.07471
5468.0 0.0001829 5359.24707 5430.05957
5512.0 0.0001814 5352.77197 5404.44287
5324.0 0.0001878 5346.30664 5385.15137
5349.0 0.0001870 5339.85596 5370.59082
5385.0 0.0001857 5333.42188 5359.24805
5352.0 0.0001868 5327.00244 5349.91309
5507.0 0.0001816 5320.59863 5341.78418
5340.0 0.0001873 5314.21094 5334.38184
5271.0 0.0001897 5307.84180 5327.44434
5211.0 0.0001919 5301.48730 5320.83545
5193.0 0.0001926 5295.14990 5314.47949
5297.0 0.0001888 5288.83105 5308.35400
5410.0 0.0001848 5282.53369 5302.43799
5389.0 0.0001856 5276.24902 5296.72363
5332.0 0.0001875 5269.98633 5291.21240
5343.0 0.0001872 5263.74658 5285.91309
5280.0 0.0001894 5257.52246 5280.83301
5319.0 0.0001880 5251.32031 5276.00098
5331.0 0.0001876 5245.13965 5270.98047
5282.0 0.0001893 5238.97803 5266.74170
5218.0 0.0001916 5232.84082 5262.84570
5153.0 0.0001941 5226.72559 5259.35547
5183.0 0.0001929 5220.63086 5256.34082
5343.0 0.0001872 5214.55957 5253.89600
5186.0 0.0001928 5208.51270 5252.72070
5387.0 0.0001856 5202.48779 5251.89844
5236.0 0.0001910 5196.48877 5252.27637
5265.0 0.0001899 5190.51318 5254.36963
5263.0 0.0001900 5184.56250 5259.09131
5294.0 0.0001889 5178.63672 5268.03760
5253.0 0.0001904 5172.73682 5283.88916
5164.0 0.0001936 5166.86328 5310.78467
5259.0 0.0001902 5161.01807 5354.54443
5338.0 0.0001873 5155.19580 5422.39990
5383.0 0.0001858 5149.40381 5521.10205
5499.0 0.0001819 5143.63672 5654.89063
5519.0 0.0001812 5137.89697 5825.43652
5730.0 0.0001745 5132.18457 6023.23047
5861.0 0.0001706 5126.50293 6227.61768
6169.0 0.0001621 5120.85107 6402.27295
6164.0 0.0001622 5115.22607 6499.16064
6168.0 0.0001621 5109.63086 6481.74658
6068.0 0.0001648 5104.06299 6354.67432
5945.0 0.0001682 5098.52930 6159.54150
5648.0 0.0001771 5093.02246 5943.14941
5627.0 0.0001777 5087.54932 5738.63721
5325.0 0.0001878 5082.10352 5563.95068
5351.0 0.0001869 5076.68799 5425.62305
5118.0 0.0001954 5071.30566 5322.66895
5093.0 0.0001963 5065.95654 5249.46338
5037.0 0.0001985 5060.63818 5198.76318
5228.0 0.0001913 5055.34912 5163.70361
5093.0 0.0001963 5050.09619 5138.82031
5056.0 0.0001978 5044.87305 5120.29102
5203.0 0.0001922 5039.68359 5105.74609
5009.0 0.0001996 5034.52588 5093.81934
5091.0 0.0001964 5029.40234 5083.84131
5074.0 0.0001971 5024.31396 5075.62939
5088.0 0.0001965 5019.25684 5069.40967
4895.0 0.0002043 5014.23242 5065.83057
4999.0 0.0002000 5009.24170 5066.82568
4986.0 0.0002006 5004.28760 5072.09570
5088.0 0.0001965 4999.36621 5083.78662
5101.0 0.0001960 4994.47803 5102.57227
5061.0 0.0001976 4989.62744 5127.66016
5031.0 0.0001988 4984.81006 5156.06201
5089.0 0.0001965 4980.02588 5182.32715
4883.0 0.0002048 4975.27734 5199.24365
5147.0 0.0001943 4970.56201 5200.30078
4985.0 0.0002006 4965.88525 5183.44482
5080.0 0.0001969 4961.24072 5153.47314
5015.0 0.0001994 4956.63477 5118.78711
5010.0 0.0001996 4952.05908 5086.54004
4968.0 0.0002013 4947.52100 5060.82617
5003.0 0.0001999 4943.01807 5042.60693
5036.0 0.0001986 4938.55127 5030.35449
5052.0 0.0001979 4934.11670 5025.39893
5073.0 0.0001971 4929.72021 5015.93506
4987.0 0.0002005 4925.36084 5004.19092
5114.0 0.0001955 4921.03564 4990.29443
4992.0 0.0002003 4916.74463 4975.63623
4943.0 0.0002023 4912.48779 4961.63428
4911.0 0.0002036 4908.26855 4942.30908
4849.0 0.0002062 4904.08350 4932.13916
4963.0 0.0002015 4899.93506 4923.87891
4930.0 0.0002028 4895.81836 4917.65967
4826.0 0.0002072 4891.74170 4912.31299
4797.0 0.0002085 4887.69922 4907.93896
4897.0 0.0002042 4883.68896 4904.18701
4836.0 0.0002068 4879.71631 4900.96045
4817.0 0.0002076 4875.77441 4898.22705
4770.0 0.0002096 4871.87207 4896.05420
5040.0 0.0001984 4868.00439 4894.66455
4792.0 0.0002087 4864.16748 4894.49121
5101.0 0.0001960 4860.36621 4896.30029
4896.0 0.0002042 4856.60107 4901.26123
4944.0 0.0002023 4852.87061 4910.95801
4878.0 0.0002050 4849.16895 4927.18555
5063.0 0.0001975 4845.50488 4951.45068
5096.0 0.0001962 4841.87451 4984.23291
5161.0 0.0001938 4838.27539 5024.08203
5352.0 0.0001868 4834.71289 5066.81006
5482.0 0.0001824 4831.17969 5105.26855
5505.0 0.0001817 4827.68359 5130.48389
5514.0 0.0001814 4824.21631 5143.70166
5455.0 0.0001833 4820.78467 5125.95313
5302.0 0.0001886 4817.38184 5092.54883
5245.0 0.0001907 4814.01221 5054.41650
5185.0 0.0001929 4810.67432 5021.72363
4934.0 0.0002027 4807.36963 5002.07080
5227.0 0.0001913 4804.09180 5003.92676
5102.0 0.0001960 4800.84863 5033.75732
4919.0 0.0002033 4797.63428 5098.91504
5159.0 0.0001938 4794.45117 5205.95313
5347.0 0.0001870 4791.29785 5357.78857
5499.0 0.0001819 4788.17432 5549.75879
5684.0 0.0001759 4785.08105 5765.53320
5972.0 0.0001674 4782.01563 5974.04395
6051.0 0.0001653 4778.97949 6132.20752
6179.0 0.0001618 4775.97266 6196.98975
6019.0 0.0001661 4772.99414 6145.81885
5920.0 0.0001689 4770.04297 5996.37646
5707.0 0.0001752 4767.11816 5795.52930
5585.0 0.0001791 4764.22217 5590.44287
5366.0 0.0001864 4761.35156 5412.39258
5101.0 0.0001960 4758.50732 5275.59180
5173.0 0.0001933 4755.69189 5180.25342
5182.0 0.0001930 4752.89990 5117.11279
4986.0 0.0002006 4750.13477 5073.23047
5025.0 0.0001990 4747.39258 5037.85352
4841.0 0.0002066 4744.67725 5005.63623
4882.0 0.0002048 4741.98486 4975.61670
4858.0 0.0002058 4739.31641 4948.87207
4864.0 0.0002056 4736.67188 4927.45605
4746.0 0.0002107 4734.05029 4913.82813
4993.0 0.0002003 4731.44922 4910.83496
4867.0 0.0002055 4728.87354 4922.72461
5006.0 0.0001998 4726.31836 4957.04834
5011.0 0.0001996 4723.78467 5027.71240
5169.0 0.0001935 4721.27100 5153.10498
5305.0 0.0001885 4718.78027 5359.59570
5778.0 0.0001731 4716.30615 5672.88574
6114.0 0.0001636 4713.85693 6107.34033
6662.0 0.0001501 4711.42334 6652.36475
7572.0 0.0001321 4709.00781 7258.86621
8196.0 0.0001220 4706.61230 7832.11816
8770.0 0.0001140 4704.23730 8247.69434
8916.0 0.0001122 4701.87500 8383.55469
8523.0 0.0001173 4699.53320 8186.60693
8085.0 0.0001237 4697.20654 7717.95654
7321.0 0.0001366 4694.89697 7112.07324
6629.0 0.0001509 4692.60156 6498.06885
6089.0 0.0001642 4690.32568 5961.87793
5646.0 0.0001771 4688.06055 5543.47314
5398.0 0.0001853 4685.81152 5246.83643
5071.0 0.0001972 4683.57568 5056.38037
5183.0 0.0001929 4681.35547 4936.90967
5037.0 0.0001985 4679.14600 4865.64844
4909.0 0.0002037 4676.95215 4822.77832
4834.0 0.0002069 4674.76953 4795.54248
4797.0 0.0002085 4672.59766 4776.68555
4744.0 0.0002108 4670.43701 4757.88330
4678.0 0.0002138 4668.28809 4746.69629
4725.0 0.0002116 4666.15088 4737.40039
4699.0 0.0002128 4664.02295 4729.53223
4635.0 0.0002157 4661.90527 4722.81934
4768.0 0.0002097 4659.79688 4717.09668
4786.0 0.0002089 4657.69580 4712.28906
4709.0 0.0002124 4655.60449 4708.41064
4747.0 0.0002107 4653.52148 4705.60693
4807.0 0.0002080 4651.44531 4703.79541
4796.0 0.0002085 4649.37793 4704.44482
4585.0 0.0002181 4647.31494 4708.02930
4769.0 0.0002097 4645.25684 4715.67188
4593.0 0.0002177 4643.20947 4728.72656
4841.0 0.0002066 4641.16357 4748.03076
4738.0 0.0002111 4639.12354 4773.59961
4778.0 0.0002093 4637.09033 4804.01855
4868.0 0.0002054 4635.05859 4835.96777
4756.0 0.0002103 4633.03320 4870.01855
4865.0 0.0002055 4631.01221 4886.82080
4884.0 0.0002048 4628.99219 4886.48486
4935.0 0.0002026 4626.97656 4869.08691
4779.0 0.0002092 4624.96240 4840.58789
4726.0 0.0002116 4622.95020 4808.46338
4670.0 0.0002141 4620.93994 4778.62402
4708.0 0.0002124 4618.93066 4755.09521
4745.0 0.0002107 4616.92480 4740.75635
4762.0 0.0002100 4614.91553 4738.73682
4765.0 0.0002099 4612.90967 4745.17920
4779.0 0.0002092 4610.90234 4789.00488
4893.0 0.0002044 4608.89648 4876.83252
4954.0 0.0002019 4606.88867 5030.34424
5113.0 0.0001956 4604.88135 5271.37451
5432.0 0.0001841 4602.87109 5611.18555
5957.0 0.0001679 4600.86035 6036.65186
6402.0 0.0001562 4598.84668 6499.69727
6851.0 0.0001460 4596.83057 6916.99170
7070.0 0.0001414 4594.81445 7185.51904
7348.0 0.0001361 4592.79492 7221.47070
7078.0 0.0001413 4590.77197 7009.22949
6454.0 0.0001549 4588.74609 6616.49609
6047.0 0.0001654 4586.71729 6149.73633
5577.0 0.0001793 4584.68359 5702.64746
5261.0 0.0001901 4582.64893 5334.43262
5044.0 0.0001983 4580.60693 5066.49072
4961.0 0.0002016 4578.56299 4891.96094
4844.0 0.0002064 4576.51221 4789.33984
4868.0 0.0002054 4574.45801 4735.07324
4858.0 0.0002058 4572.40039 4710.00146
4772.0 0.0002096 4570.33594 4702.94775
4865.0 0.0002055 4568.26660 4709.74951
4725.0 0.0002116 4566.19238 4732.84961
4852.0 0.0002061 4564.11084 4781.54102
4855.0 0.0002060 4562.02588 4872.64453
5097.0 0.0001962 4559.93506 5030.11963
5168.0 0.0001935 4557.83594 5281.27588
5654.0 0.0001769 4555.73389 5646.95068
6059.0 0.0001650 4553.62305 6127.79688
6787.0 0.0001473 4551.50635 6689.24023
7407.0 0.0001350 4549.38525 7252.84424
8036.0 0.0001244 4547.25684 7703.15088
8526.0 0.0001173 4545.12109 7917.83398
8320.0 0.0001202 4542.97900 7823.37451
7997.0 0.0001250 4540.83105 7449.16016
7282.0 0.0001373 4538.67676 6904.91064
6509.0 0.0001536 4536.51416 6318.10693
5777.0 0.0001731 4534.34521 5786.11621
5421.0 0.0001845 4532.17090 5362.60059
4958.0 0.0002017 4529.98828 5059.16016
4747.0 0.0002107 4527.79980 4861.07031
4791.0 0.0002087 4525.60254 4740.89746
4672.0 0.0002140 4523.39941 4671.25342
4595.0 0.0002176 4521.19092 4631.09814
4714.0 0.0002121 4518.97559 4606.81592
4677.0 0.0002138 4516.75488 4590.70605
4538.0 0.0002204 4514.52539 4578.87012
4581.0 0.0002183 4512.28906 4569.44287
4515.0 0.0002215 4510.04785 4561.57861
4577.0 0.0002185 4507.79980 4554.90674
4469.0 0.0002238 4505.54639 4545.13379
4596.0 0.0002176 4503.28467 4540.73193
4628.0 0.0002161 4501.01660 4537.44482
4613.0 0.0002168 4498.74463 4535.40137
4561.0 0.0002193 4496.46582 4534.72412
4435.0 0.0002255 4494.18213 4535.44482
4463.0 0.0002241 4491.89355 4537.40576
4546.0 0.0002200 4489.59668 4540.18408
4380.0 0.0002283 4487.29883 4543.00293
4414.0 0.0002266 4484.99219 4544.69629
4432.0 0.0002256 4482.68018 4543.94727
4423.0 0.0002261 4480.36816 4539.95166
4302.0 0.0002325 4478.04932 4533.03418
4437.0 0.0002254 4475.72314 4524.36816
4417.0 0.0002264 4473.39404 4515.23486
4366.0 0.0002290 4471.06445 4506.56689
4300.0 0.0002326 4468.72900 4498.93262
4518.0 0.0002213 4466.39014 4492.60693
4328.0 0.0002311 4464.04834 4487.67627
4344.0 0.0002302 4461.70313 4484.14014
4286.0 0.0002333 4459.35645 4482.03271
4482.0 0.0002231 4457.00781 4481.49854
4325.0 0.0002312 4454.65234 4484.85156
4393.0 0.0002276 4452.30078 4488.60742
4390.0 0.0002278 4449.94385 4488.56348
4493.0 0.0002226 4447.58740 4498.48828
4378.0 0.0002284 4445.22998 4511.46045
4445.0 0.0002250 4442.87207 4526.86963
4471.0 0.0002237 4440.51172 4543.30859
4600.0 0.0002174 4438.15479 4562.37549
4722.0 0.0002118 4435.79492 4572.83594
4538.0 0.0002204 4433.43701 4575.11279
4675.0 0.0002139 4431.08008 4567.79834
4633.0 0.0002158 4428.72314 4552.60352
4527.0 0.0002209 4426.36963 4533.03027
4461.0 0.0002242 4424.01611 4512.39160
4485.0 0.0002230 4421.66602 4494.50879
4292.0 0.0002330 4419.31982 4477.75146
4359.0 0.0002294 4416.97314 4464.07324
4382.0 0.0002282 4414.63330 4453.44727
4264.0 0.0002345 4412.29590 4445.49023
4355.0 0.0002296 4409.95898 4439.65527
4361.0 0.0002293 4407.63135 4435.40723
4434.0 0.0002255 4405.30811 4432.29248
4382.0 0.0002282 4402.98926 4429.98047
4431.0 0.0002257 4400.67578 4428.25830
4360.0 0.0002294 4398.36816 4427.01221
4361.0 0.0002293 4396.06738 4426.19385
4336.0 0.0002306 4393.77197 4425.80615
4391.0 0.0002277 4391.48486 4425.90283
4434.0 0.0002255 4389.20410 4426.59180
4363.0 0.0002292 4386.93262 4434.26563
4400.0 0.0002273 4384.66992 4437.22217
4329.0 0.0002310 4382.41260 4447.42041
4440.0 0.0002252 4380.16748 4455.38428
4419.0 0.0002263 4377.93066 4467.84180
4486.0 0.0002229 4375.70605 4486.98975
4537.0 0.0002204 4373.48828 4515.48389
4472.0 0.0002236 4371.28418 4556.00293
4510.0 0.0002217 4369.08984 4610.68066
4697.0 0.0002129 4366.90869 4680.43457
4744.0 0.0002108 4364.73828 4764.58447
4815.0 0.0002077 4362.57861 4861.25586
5051.0 0.0001980 4360.43311 4967.96533
5140.0 0.0001946 4358.30176 5082.90576
5299.0 0.0001887 4356.18262 5211.77588
5453.0 0.0001834 4354.07715 5371.83691
5660.0 0.0001767 4351.98730 5586.83545
5903.0 0.0001694 4349.91211 5871.45264
6392.0 0.0001564 4347.85205 6214.34375
6714.0 0.0001489 4345.80566 6571.84131
7102.0 0.0001408 4343.77783 6872.35352
7223.0 0.0001384 4341.76367 7036.74268
7192.0 0.0001390 4339.76758 7012.49414
7130.0 0.0001403 4337.78857 6811.18896
6641.0 0.0001506 4335.82617 6498.78564
6387.0 0.0001566 4333.88281 6156.47510
6034.0 0.0001657 4331.95801 5846.06885
5847.0 0.0001710 4330.04932 5596.44775
5502.0 0.0001818 4328.16064 5406.16650
5461.0 0.0001831 4326.29102 5256.43750
5279.0 0.0001894 4324.44287 5128.90820
5151.0 0.0001941 4322.61182 5016.97070
5064.0 0.0001975 4320.80322 4924.61523
4903.0 0.0002040 4319.01514 4860.79541
4905.0 0.0002039 4317.24658 4834.98389
4997.0 0.0002001 4315.50195 4855.84473
4823.0 0.0002073 4313.77588 4931.19482
4958.0 0.0002017 4312.07324 5065.47314
5160.0 0.0001938 4310.38965 5258.54980
5491.0 0.0001821 4308.73486 5503.99805
5666.0 0.0001765 4307.09814 5786.15771
5930.0 0.0001686 4305.48633 6077.10938
6251.0 0.0001600 4303.89648 6335.68701
6406.0 0.0001561 4302.32910 6514.95703
6593.0 0.0001517 4300.78760 6578.45020
6428.0 0.0001556 4299.27148 6513.40674
6306.0 0.0001586 4297.77783 6334.09424
5895.0 0.0001696 4296.30859 6077.66553
5628.0 0.0001777 4294.86475 5791.19141
5379.0 0.0001859 4293.44678 5516.72363
5262.0 0.0001900 4292.05273 5276.98291
5014.0 0.0001994 4290.68848 5085.25977
5041.0 0.0001984 4289.34229 4941.67578
4935.0 0.0002026 4288.02686 4838.58887
4929.0 0.0002029 4286.73682 4764.38867
4763.0 0.0002100 4285.47412 4707.30371
4869.0 0.0002054 4284.23486 4656.44971
4681.0 0.0002136 4283.02539 4611.31494
4649.0 0.0002151 4281.84033 4568.32617
4580.0 0.0002183 4280.68311 4527.99854
4617.0 0.0002166 4279.55273 4491.74463
4561.0 0.0002193 4278.44824 4460.83545
4625.0 0.0002162 4277.37256 4435.71826
4591.0 0.0002178 4276.32275 4411.64258
4634.0 0.0002158 4275.30420 4396.44775
4500.0 0.0002222 4274.30957 4384.55615
4421.0 0.0002262 4273.34180 4375.46045
4521.0 0.0002212 4272.40186 4369.53564
4459.0 0.0002243 4271.49121 4367.98926
4347.0 0.0002300 4270.60986 4372.53711
4287.0 0.0002333 4269.75195 4383.38135
4320.0 0.0002315 4268.92383 4405.41406
4449.0 0.0002248 4268.12207 4437.33984
4411.0 0.0002267 4267.34961 4477.80566
4484.0 0.0002230 4266.60449 4523.08008
4438.0 0.0002253 4265.88574 4566.84131
4421.0 0.0002262 4265.19922 4600.67773
4607.0 0.0002171 4264.53564 4616.28174
4485.0 0.0002230 4263.89941 4609.07227
4528.0 0.0002208 4263.29248 4581.28857
4354.0 0.0002297 4262.71143 4541.06348
4357.0 0.0002295 4262.15674 4498.34424
4433.0 0.0002256 4261.62939 4461.91406
4420.0 0.0002262 4261.13281 4438.28516
4413.0 0.0002266 4260.65820 4431.65332
4464.0 0.0002240 4260.21387 4437.51172
4431.0 0.0002257 4259.79297 4468.51318
4413.0 0.0002266 4259.40137 4509.11279
4493.0 0.0002226 4259.03271 4565.87939
4669.0 0.0002142 4258.69336 4624.07373
4571.0 0.0002188 4258.37842 4672.29297
4570.0 0.0002188 4258.08838 4697.77637
4637.0 0.0002157 4257.82568 4691.97852
4461.0 0.0002242 4257.58691 4656.11084
4413.0 0.0002266 4257.37305 4599.94971
4557.0 0.0002194 4257.18457 4535.50879
4412.0 0.0002267 4257.01904 4472.26318
4313.0 0.0002319 4256.87793 4417.81152
4396.0 0.0002275 4256.76025 4372.59814
4364.0 0.0002291 4256.66748 4338.93799
4356.0 0.0002296 4256.59668 4314.94385
4313.0 0.0002319 4256.55029 4299.02148
4295.0 0.0002328 4256.52344 4288.71191
4243.0 0.0002357 4256.52246 4282.13379
4249.0 0.0002353 4256.54248 4277.88184
4301.0 0.0002325 4256.58203 4275.03418
4221.0 0.0002369 4256.64404 4272.98389
4126.0 0.0002424 4256.72607 4277.95703
4318.0 0.0002316 4256.82910 4277.12939
4251.0 0.0002352 4256.95215 4277.84033
4186.0 0.0002389 4257.09668 4277.57178
4441.0 0.0002252 4257.25732 4277.50049
4272.0 0.0002341 4257.43701 4277.60400
4246.0 0.0002355 4257.63623 4277.87109
4211.0 0.0002375 4257.85303 4278.29932
4195.0 0.0002384 4258.08496 4278.87793
4290.0 0.0002331 4258.33643 4279.61035
4292.0 0.0002330 4258.60352 4280.49854
4185.0 0.0002389 4258.88770 4281.09229
4301.0 0.0002325 4259.18652 4281.80811
4140.0 0.0002415 4259.50098 4283.28760
4181.0 0.0002392 4259.82666 4284.99512
4352.0 0.0002298 4260.16943 4286.98438
4268.0 0.0002343 4260.52539 4289.49609
4294.0 0.0002329 4260.89307 4292.30469
4169.0 0.0002399 4261.27393 4295.70703
4300.0 0.0002326 4261.66699 4303.46143
4355.0 0.0002296 4262.07031 4308.82129
4323.0 0.0002313 4262.48535 4315.53369
4362.0 0.0002293 4262.90869 4324.11133
4268.0 0.0002343 4263.34229 4335.40332
4285.0 0.0002334 4263.78564 4350.76221
4374.0 0.0002286 4264.23682 4372.17285
4472.0 0.0002236 4264.69580 4402.26611
4333.0 0.0002308 4265.16260 4442.42090
4425.0 0.0002260 4265.63672 4498.29395
4491.0 0.0002227 4266.11377 4568.91846
4624.0 0.0002163 4266.59863 4651.92725
4753.0 0.0002104 4267.08789 4741.09033
4734.0 0.0002112 4267.57910 4826.96729
4748.0 0.0002106 4268.07715 4899.11230
4833.0 0.0002069 4268.57910 4950.80469
4946.0 0.0002022 4269.08008 4984.60449
4953.0 0.0002019 4269.58350 5013.45020
5008.0 0.0001997 4270.08838 5054.59814
5185.0 0.0001929 4270.59326 5122.06250
5339.0 0.0001873 4271.09766 5222.12988
5469.0 0.0001828 4271.59912 5350.84961
5916.0 0.0001690 4272.10352 5492.93359
5908.0 0.0001693 4272.60303 5622.06201
5986.0 0.0001671 4273.10107 5705.43213
6146.0 0.0001627 4273.59326 5717.83496
6182.0 0.0001618 4274.08203 5652.34717
5819.0 0.0001719 4274.56641 5522.74902
5515.0 0.0001813 4275.04590 5354.51563
5279.0 0.0001894 4275.51758 5174.34033
5165.0 0.0001936 4275.98291 5003.90771
4904.0 0.0002039 4276.44092 4857.95264
4818.0 0.0002076 4276.88965 4745.32861
4697.0 0.0002129 4277.33350 4670.42188
4897.0 0.0002042 4277.76416 4634.63135
4673.0 0.0002140 4278.18701 4637.46680
4741.0 0.0002109 4278.59619 4677.07715
4783.0 0.0002091 4278.99463 4749.83057
4868.0 0.0002054 4279.38428 4849.37305
5183.0 0.0001929 4279.75879 4965.43750
5195.0 0.0001925 4280.11865 5082.92920
5460.0 0.0001832 4280.46631 5181.76318
5596.0 0.0001787 4280.79785 5239.03076
5562.0 0.0001798 4281.11475 5237.20410
5668.0 0.0001764 4281.41309 5174.77344
5460.0 0.0001832 4281.69971 5067.46436
5303.0 0.0001886 4281.96777 4938.04688
4962.0 0.0002015 4282.21484 4806.06201
4784.0 0.0002090 4282.44678 4685.62549
4509.0 0.0002218 4282.65771 4584.39600
4505.0 0.0002220 4282.84863 4505.19629
4387.0 0.0002279 4283.02051 4446.88770
4338.0 0.0002305 4283.17188 4406.17969
4345.0 0.0002301 4283.30078 4381.29834
4244.0 0.0002356 4283.40576 4363.82715
4285.0 0.0002334 4283.49121 4352.94043
4307.0 0.0002322 4283.55078 4346.10303
4300.0 0.0002326 4283.58789 4343.05762
4131.0 0.0002421 4283.59912 4342.98828
4344.0 0.0002302 4283.58545 4345.07568
4277.0 0.0002338 4283.54834 4349.54199
4286.0 0.0002333 4283.48193 4356.27637
4234.0 0.0002362 4283.39111 4364.93994
4289.0 0.0002332 4283.27246 4374.83350
4244.0 0.0002356 4283.12646 4384.78076
4269.0 0.0002342 4282.94971 4393.09766
4319.0 0.0002315 4282.74658 4394.65137
4325.0 0.0002312 4282.51367 4394.98584
4447.0 0.0002249 4282.25293 4388.85889
4305.0 0.0002323 4281.95898 4380.05859
4190.0 0.0002387 4281.63477 4368.88281
4126.0 0.0002424 4281.28125 4357.02686
4137.0 0.0002417 4280.89209 4345.80225
4318.0 0.0002316 4280.47461 4336.08350
4208.0 0.0002376 4280.02344 4328.28076
4311.0 0.0002320 4279.53906 4322.48828
4194.0 0.0002384 4279.02100 4318.57080
4229.0 0.0002365 4278.46924 4316.29883
4115.0 0.0002430 4277.88232 4315.42432
4148.0 0.0002411 4277.26416 4315.79590
4075.0 0.0002454 4276.60742 4317.38721
4189.0 0.0002387 4275.91650 4320.32861
4394.0 0.0002276 4275.19043 4324.75049
4235.0 0.0002361 4274.42676 4331.47070
4171.0 0.0002398 4273.62891 4340.90918
4289.0 0.0002332 4272.79102 4350.19336
4200.0 0.0002381 4271.91992 4367.51416
4237.0 0.0002360 4271.00879 4389.98438
4254.0 0.0002351 4270.06152 4418.50342
4274.0 0.0002340 4269.07520 4453.93994
4473.0 0.0002236 4268.05078 4497.88086
4493.0 0.0002226 4266.98926 4549.66504
4534.0 0.0002206 4265.88672 4610.18311
4470.0 0.0002237 4264.74707 4678.16406
4585.0 0.0002181 4263.56836 4749.80811
4729.0 0.0002115 4262.34912 4818.32129
4892.0 0.0002044 4261.09277 4875.05273
4761.0 0.0002100 4259.79199 4912.96143
4895.0 0.0002043 4258.45654 4930.02979
4876.0 0.0002051 4257.07764 4930.17236
4947.0 0.0002021 4255.65918 4921.97559
4937.0 0.0002026 4254.20068 4917.74268
4959.0 0.0002017 4252.70313 4931.29150
4988.0 0.0002005 4251.16309 4974.09961
5330.0 0.0001876 4249.58203 5051.43115
5313.0 0.0001882 4247.96094 5159.87842
5775.0 0.0001732 4246.30029 5284.59521
5702.0 0.0001754 4244.59863 5401.93799
6046.0 0.0001654 4242.85400 5480.47021
6166.0 0.0001622 4241.07031 5492.30811
5991.0 0.0001669 4239.24414 5425.55908
5714.0 0.0001750 4237.37793 5293.41992
5453.0 0.0001834 4235.47021 5123.17627
5210.0 0.0001919 4233.52148 4942.66992
5067.0 0.0001974 4231.53467 4773.25928
4790.0 0.0002088 4229.50244 4628.23877
4698.0 0.0002129 4227.43164 4513.29785
4553.0 0.0002196 4225.31934 4428.17383
4548.0 0.0002199 4223.16797 4368.63428
4323.0 0.0002313 4220.97412 4328.86523
4316.0 0.0002317 4218.74170 4303.18652
4310.0 0.0002320 4216.46875 4287.09277
4333.0 0.0002308 4214.15430 4277.58643
4230.0 0.0002364 4211.79932 4273.18262
4192.0 0.0002385 4209.40576 4273.57520
4305.0 0.0002323 4206.97119 4279.30127
4159.0 0.0002404 4204.49902 4291.27637
4290.0 0.0002331 4201.98584 4312.82080
4122.0 0.0002426 4199.43359 4338.97656
4153.0 0.0002408 4196.84229 4370.90625
4231.0 0.0002364 4194.21191 4405.59961
4360.0 0.0002294 4191.54199 4438.26953
4461.0 0.0002242 4188.83496 4462.64551
4307.0 0.0002322 4186.09180 4472.81738
4276.0 0.0002339 4183.30908 4465.11523
4206.0 0.0002378 4180.48633 4440.64307
4284.0 0.0002334 4177.62939 4404.77051
4278.0 0.0002338 4174.73584 4364.21729
4269.0 0.0002342 4171.80566 4324.97217
4251.0 0.0002352 4168.83838 4289.05713
4155.0 0.0002407 4165.83350 4264.15674
4062.0 0.0002462 4162.79492 4248.25439
4020.0 0.0002488 4159.72168 4243.03467
4157.0 0.0002406 4156.61133 4246.49854
4235.0 0.0002361 4153.46680 4257.63086
4249.0 0.0002353 4150.28857 4273.66699
4141.0 0.0002415 4147.07861 4291.34814
4265.0 0.0002345 4143.83105 4306.75244
4298.0 0.0002327 4140.55273 4315.69189
4284.0 0.0002334 4137.24170 4314.92578
4315.0 0.0002317 4133.89795 4303.60059
4260.0 0.0002347 4130.52441 4279.88867
4158.0 0.0002405 4127.11719 4255.40283
4240.0 0.0002358 4123.68115 4229.95654
4117.0 0.0002429 4120.21191 4206.34082
4140.0 0.0002415 4116.71338 4186.60010
4125.0 0.0002424 4113.18701 4171.78027
4000.0 0.0002500 4109.62939 4162.37256
4236.0 0.0002361 4106.04395 4158.77441
3982.0 0.0002511 4102.43164 4161.72949
4230.0 0.0002364 4098.78857 4172.71582
4143.0 0.0002414 4095.12036 4193.98047
4156.0 0.0002406 4091.42773 4228.29932
4302.0 0.0002325 4087.70483 4278.26270
4276.0 0.0002339 4083.96021 4345.24365
4550.0 0.0002198 4080.18799 4428.18359
4646.0 0.0002152 4076.38940 4522.57764
4674.0 0.0002139 4072.56934 4620.28760
4979.0 0.0002008 4068.72607 4707.00195
5015.0 0.0001994 4064.86011 4767.03467
4952.0 0.0002019 4060.96826 4785.32764
4939.0 0.0002025 4057.05786 4755.77100
4848.0 0.0002063 4053.12329 4685.23975
4721.0 0.0002118 4049.16968 4589.19189
4655.0 0.0002148 4045.19531 4483.75391
4597.0 0.0002175 4041.20068 4380.92529
4330.0 0.0002309 4037.18774 4290.71729
4282.0 0.0002335 4033.15576 4216.52393
4158.0 0.0002405 4029.10645 4159.10498
4128.0 0.0002422 4025.03687 4116.78857
4045.0 0.0002472 4020.95166 4086.67065
4177.0 0.0002394 4016.84985 4066.90479
4056.0 0.0002465 4012.73218 4051.96045
4048.0 0.0002470 4008.59937 4040.97363
4001.0 0.0002499 4004.45386 4032.46216
4034.0 0.0002479 4000.28955 4025.52954
4002.0 0.0002499 3996.11353 4020.26050
3984.0 0.0002510 3991.92578 4015.52588
4037.0 0.0002477 3987.72412 4011.94165
3936.0 0.0002541 3983.51147 4009.77051
3984.0 0.0002510 3979.28638 4008.84131
4070.0 0.0002457 3975.04956 4010.28613
4057.0 0.0002465 3970.80176 4014.49512
3890.0 0.0002571 3966.54761 4019.02490
4042.0 0.0002474 3962.28174 4023.82031
4072.0 0.0002456 3958.00830 4027.53296
4077.0 0.0002453 3953.72632 4028.74731
4123.0 0.0002425 3949.43506 4027.65918
4113.0 0.0002431 3945.13843 4022.09473
4090.0 0.0002445 3940.83447 4014.41504
3975.0 0.0002516 3936.52539 4006.65356
3968.0 0.0002520 3932.20972 4001.00464
4060.0 0.0002463 3927.89014 3999.34961
4025.0 0.0002484 3923.56543 4002.93799
4024.0 0.0002485 3919.23535 4012.14941
4079.0 0.0002452 3914.90308 4026.36670
4116.0 0.0002430 3910.56860 4050.57788
4149.0 0.0002410 3906.23096 4069.22144
4071.0 0.0002456 3901.89160 4085.48804
4245.0 0.0002356 3897.55200 4094.90625
4146.0 0.0002412 3893.20825 4094.92896
4123.0 0.0002425 3888.86450 4085.30469
4091.0 0.0002444 3884.52344 4066.11816
4125.0 0.0002424 3880.18042 4047.18921
4043.0 0.0002473 3875.83911 4030.19971
4057.0 0.0002465 3871.50073 4019.00537
3888.0 0.0002572 3867.16089 4016.56519
4004.0 0.0002498 3862.82397 4026.66724
3924.0 0.0002548 3858.49194 4046.35059
3887.0 0.0002573 3854.16138 4076.52393
3858.0 0.0002592 3849.83545 4115.08057
4016.0 0.0002490 3845.51294 4158.30127
4033.0 0.0002480 3841.19312 4201.05225
4136.0 0.0002418 3836.87939 4237.10693
4140.0 0.0002415 3832.57129 4261.17480
4005.0 0.0002497 3828.26709 4271.70117
4138.0 0.0002417 3823.97119 4272.27490
4091.0 0.0002444 3819.67944 4269.63428
4099.0 0.0002440 3815.39453 4270.53418
4241.0 0.0002358 3811.11743 4280.03613
4178.0 0.0002393 3806.84668 4301.27441
4208.0 0.0002376 3802.58398 4335.43018
4290.0 0.0002331 3798.32983 4380.92529
4382.0 0.0002282 3794.08276 4432.62158
4371.0 0.0002288 3789.84692 4482.29883
4485.0 0.0002230 3785.61499 4521.13330
4380.0 0.0002283 3781.39526 4543.44287
4375.0 0.0002286 3777.18433 4549.79980
4391.0 0.0002277 3772.98486 4545.67041
4576.0 0.0002185 3768.79297 4538.25293
4495.0 0.0002225 3764.61328 4534.20703
4461.0 0.0002242 3760.44214 4540.71045
4602.0 0.0002173 3756.28247 4565.35840
4641.0 0.0002155 3752.13452 4613.83691
4719.0 0.0002119 3747.99756 4687.17334
4901.0 0.0002040 3743.87134 4780.20166
5119.0 0.0001954 3739.75830 4880.92920
5149.0 0.0001942 3735.65332 4971.22998
5288.0 0.0001891 3731.56226 5030.20703
5333.0 0.0001875 3727.48438 5042.69824
5284.0 0.0001893 3723.41675 5006.51465
5309.0 0.0001884 3719.36401 4932.45313
5079.0 0.0001969 3715.32227 4838.09082
4871.0 0.0002053 3711.29272 4742.52490
4678.0 0.0002138 3707.27588 4661.86426
4535.0 0.0002205 3703.27417 4606.71875
4537.0 0.0002204 3699.28345 4579.74121
4714.0 0.0002121 3695.30688 4575.05420
4658.0 0.0002147 3691.34351 4579.18506
4589.0 0.0002179 3687.39478 4574.18506
4567.0 0.0002190 3683.45532 4543.46631
4635.0 0.0002157 3679.53223 4478.99414
4378.0 0.0002284 3675.62183 4384.40576
4205.0 0.0002378 3671.72607 4271.43311
4117.0 0.0002429 3667.84277 4153.68750
4060.0 0.0002463 3663.97363 4042.62891
3986.0 0.0002509 3660.11719 3944.50879
3927.0 0.0002546 3656.27539 3866.01270
3893.0 0.0002569 3652.44653 3805.84180
3936.0 0.0002541 3648.63208 3761.83496
3820.0 0.0002618 3644.83105 3730.64478
3828.0 0.0002612 3641.04639 3708.22412
3816.0 0.0002621 3637.26929 3692.65674
3726.0 0.0002684 3633.51001 3681.10864
3593.0 0.0002783 3629.76343 3672.02148
3853.0 0.0002595 3626.02905 3664.42212
3691.0 0.0002709 3622.30908 3657.90649
3752.0 0.0002665 3618.60376 3650.78394
3790.0 0.0002639 3614.90942 3645.32715
3727.0 0.0002683 3611.22876 3640.05664
3659.0 0.0002733 3607.56226 3635.45117
3656.0 0.0002735 3603.90747 3630.88159
3680.0 0.0002717 3600.26758 3625.68335
3702.0 0.0002701 3596.63843 3622.37744
3612.0 0.0002769 3593.02368 3620.18994
3617.0 0.0002765 3589.41895 3619.74878
3611.0 0.0002769 3585.82886 3621.94189
3627.0 0.0002757 3582.25024 3627.86743
3726.0 0.0002684 3578.68457 3638.68433
3607.0 0.0002772 3575.13159 3655.29468
3618.0 0.0002764 3571.58789 3677.94214
3608.0 0.0002772 3568.05786 3699.25366
3636.0 0.0002750 3564.53833 3730.30225
3727.0 0.0002683 3561.03271 3760.15601
3815.0 0.0002621 3557.53760 3785.20508
3782.0 0.0002644 3554.05151 3798.75781
3796.0 0.0002634 3550.57983 3797.53589
3773.0 0.0002650 3547.11523 3780.93018
3742.0 0.0002672 3543.66162 3751.99194
3592.0 0.0002784 3540.21899 3717.97827
3544.0 0.0002822 3536.78833 3679.80884
3593.0 0.0002783 3533.36719 3643.69385
3633.0 0.0002753 3529.95557 3610.37573
3604.0 0.0002775 3526.55298 3584.96606
3558.0 0.0002811 3523.16064 3565.64502
3462.0 0.0002889 3519.77710 3552.46533
3558.0 0.0002811 3516.40283 3542.63794
3430.0 0.0002915 3513.03735 3535.96289
3350.0 0.0002985 3509.68164 3531.64844
3589.0 0.0002786 3506.33423 3529.22559
3525.0 0.0002837 3502.99243 3528.55859
3478.0 0.0002875 3499.66138 3529.77490
3534.0 0.0002830 3496.33691 3533.19971
3420.0 0.0002924 3493.02173 3540.15894
3643.0 0.0002745 3489.71362 3549.40405
3522.0 0.0002839 3486.41113 3562.17505
3570.0 0.0002801 3483.11597 3578.63257
3709.0 0.0002696 3479.82886 3598.47241
3538.0 0.0002826 3476.54736 3620.81934
3720.0 0.0002688 3473.27393 3643.99268
3733.0 0.0002679 3470.00537 3666.01025
3812.0 0.0002623 3466.74512 3684.50293
3747.0 0.0002669 3463.48608 3696.84277
3689.0 0.0002711 3460.23511 3700.51733
3624.0 0.0002759 3456.99023 3694.16504
3735.0 0.0002677 3453.74951 3678.55225
3787.0 0.0002641 3450.51392 3656.73340
3539.0 0.0002826 3447.28442 3633.15112
3604.0 0.0002775 3444.05859 3612.47412
3527.0 0.0002835 3440.83667 3598.83569
3614.0 0.0002767 3437.61816 3595.44653
3541.0 0.0002824 3434.40625 3604.40063
3625.0 0.0002759 3431.19653 3626.64111
3530.0 0.0002833 3427.99170 3661.97729
3670.0 0.0002725 3424.79102 3709.17163
3769.0 0.0002653 3421.59009 3765.51587
3790.0 0.0002639 3418.39600 3827.40503
3707.0 0.0002698 3415.20313 3890.80688
3834.0 0.0002608 3412.01318 3951.56177
3992.0 0.0002505 3408.82593 4007.68188
4002.0 0.0002499 3405.64258 4054.38403
4017.0 0.0002489 3402.45850 4086.91699
4076.0 0.0002453 3399.27905 4097.17236
4036.0 0.0002478 3396.10205 4083.92480
3940.0 0.0002538 3392.92700 4050.81348
4039.0 0.0002476 3389.75366 4005.48120
3927.0 0.0002546 3386.58179 3955.65479
3998.0 0.0002501 3383.40991 3906.65430
3792.0 0.0002637 3380.24194 3861.40137
3785.0 0.0002642 3377.07446 3821.39673
3788.0 0.0002640 3373.90869 3788.21191
3803.0 0.0002630 3370.74292 3763.51147
3793.0 0.0002636 3367.57861 3747.91724
3793.0 0.0002636 3364.41650 3740.06177
3798.0 0.0002633 3361.25366 3738.95459
3746.0 0.0002670 3358.09180 3734.58984
3737.0 0.0002676 3354.93237 3723.88672
3692.0 0.0002709 3351.77222 3703.16797
3657.0 0.0002734 3348.61377 3672.24731
3722.0 0.0002687 3345.45508 3633.91040
3529.0 0.0002834 3342.29541 3591.87842
3515.0 0.0002845 3339.13843 3549.38770
3467.0 0.0002884 3335.98193 3509.28320
3501.0 0.0002856 3332.82495 3473.40210
3487.0 0.0002868 3329.66846 3442.37476
3434.0 0.0002912 3326.51245 3416.48633
3535.0 0.0002829 3323.35718 3396.37378
3305.0 0.0003026 3320.20264 3381.08032
3420.0 0.0002924 3317.04810 3370.11157
3406.0 0.0002936 3313.89331 3362.75610
3314.0 0.0003018 3310.74023 3358.51831
3439.0 0.0002908 3307.58789 3357.10889
3382.0 0.0002957 3304.43286 3358.49780
3358.0 0.0002978 3301.28027 3362.92017
3402.0 0.0002939 3298.12964 3370.84229
3342.0 0.0002992 3294.97778 3383.51025
3464.0 0.0002887 3291.82739 3400.22070
3390.0 0.0002950 3288.67603 3421.95679
3351.0 0.0002984 3285.52881 3448.68335
3550.0 0.0002817 3282.37939 3479.12769
3468.0 0.0002884 3279.23120 3512.73071
3584.0 0.0002790 3276.08569 3545.95825
3537.0 0.0002827 3272.93945 3574.65039
3683.0 0.0002715 3269.79541 3594.02417
3700.0 0.0002703 3266.65332 3598.15820
3741.0 0.0002673 3263.50977 3590.46045
3635.0 0.0002751 3260.36963 3571.88916
3628.0 0.0002756 3257.23267 3548.06348
3510.0 0.0002849 3254.09570 3524.90283
3414.0 0.0002929 3250.96069 3507.27368
3517.0 0.0002843 3247.82739 3497.47900
3422.0 0.0002922 3244.69678 3498.96484
3491.0 0.0002865 3241.56689 3510.40454
3415.0 0.0002928 3238.44141 3529.78833
3530.0 0.0002833 3235.31689 3553.60791
3632.0 0.0002753 3232.19727 3578.09717
3498.0 0.0002859 3229.08008 3596.28711
3683.0 0.0002715 3225.96289 3604.76685
3583.0 0.0002791 3222.85156 3601.28809
3559.0 0.0002810 3219.74292 3589.94507
3571.0 0.0002800 3216.63721 3573.99561
3493.0 0.0002863 3213.53711 3557.53442
3474.0 0.0002879 3210.43994 3542.95190
3499.0 0.0002858 3207.34741 3530.44214
3382.0 0.0002957 3204.25732 3518.54346
3469.0 0.0002883 3201.17163 3504.40698
3405.0 0.0002937 3198.09277 3485.43188
3350.0 0.0002985 3195.01758 3462.67676
3382.0 0.0002957 3191.94727 3433.24072
3335.0 0.0002999 3188.88477 3402.04785
3394.0 0.0002946 3185.82324 3372.35571
3304.0 0.0003027 3182.76904 3346.97754
3247.0 0.0003080 3179.72217 3327.65601
3310.0 0.0003021 3176.68042 3314.96655
3258.0 0.0003069 3173.64624 3308.32813
3295.0 0.0003035 3170.61719 3306.20776
3303.0 0.0003028 3167.59424 3306.41870
3203.0 0.0003122 3164.57837 3306.59399
3296.0 0.0003034 3161.57104 3304.84521
3272.0 0.0003056 3158.57104 3300.32007
3334.0 0.0002999 3155.57764 3293.81592
3281.0 0.0003048 3152.59326 3286.48145
3221.0 0.0003105 3149.61523 3279.52368
3210.0 0.0003115 3146.64551 3273.71655
3298.0 0.0003032 3143.68604 3269.21021
3205.0 0.0003120 3140.73413 3265.60620
3231.0 0.0003095 3137.79004 3261.00317
3272.0 0.0003056 3134.85620 3257.52344
3176.0 0.0003149 3131.93140 3252.88501
3088.0 0.0003238 3129.01636 3248.26660
3218.0 0.0003108 3126.11035 3244.90747
3252.0 0.0003075 3123.21460 3244.05420
3296.0 0.0003034 3120.33032 3246.59839
3287.0 0.0003042 3117.45459 3252.88403
3289.0 0.0003040 3114.59033 3262.62988
3345.0 0.0002990 3111.73511 3274.91602
3336.0 0.0002998 3108.89185 3288.19214
3337.0 0.0002997 3106.05981 3300.56909
3393.0 0.0002947 3103.23926 3311.06885
3314.0 0.0003018 3100.42871 3315.18066
3376.0 0.0002962 3097.63135 3320.37061
3297.0 0.0003033 3094.84497 3327.12793
3323.0 0.0003009 3092.07056 3339.31567
3447.0 0.0002901 3089.30835 3360.19141
3461.0 0.0002889 3086.55786 3391.48853
3469.0 0.0002883 3083.82056 3432.86328
3488.0 0.0002867 3081.09741 3483.51050
3633.0 0.0002753 3078.38306 3534.44995
3793.0 0.0002636 3075.68433 3579.50488
3982.0 0.0002511 3072.99854 3610.57202
3760.0 0.0002660 3070.32397 3618.96777
3832.0 0.0002610 3067.66479 3600.66821
3802.0 0.0002630 3065.01831 3558.62305
3738.0 0.0002675 3062.38477 3498.78760
3567.0 0.0002803 3059.76440 3430.39746
3456.0 0.0002894 3057.15967 3361.62817
3329.0 0.0003004 3054.56738 3297.48584
3272.0 0.0003056 3051.98853 3242.20337
3214.0 0.0003111 3049.42480 3197.75000
3141.0 0.0003184 3046.87451 3164.57935
3259.0 0.0003068 3044.33716 3141.37524
3143.0 0.0003182 3041.81470 3128.71313
3111.0 0.0003214 3039.30640 3123.64185
3146.0 0.0003179 3036.81250 3125.05664
3203.0 0.0003122 3034.33252 3131.51221
3112.0 0.0003213 3031.86768 3141.57129
3133.0 0.0003192 3029.41626 3153.73828
3140.0 0.0003185 3026.98022 3166.37891
3177.0 0.0003148 3024.55811 3177.71606
3140.0 0.0003185 3022.14990 3185.74878
3200.0 0.0003125 3019.75586 3189.82764
3112.0 0.0003213 3017.37646 3189.83130
3115.0 0.0003210 3015.01099 3187.39966
3185.0 0.0003140 3012.66064 3185.03662
3155.0 0.0003170 3010.32324 3185.19116
3191.0 0.0003134 3008.00049 3189.70801
3157.0 0.0003168 3005.69189 3199.49902
3070.0 0.0003257 3003.39771 3214.61304
3194.0 0.0003131 3001.11768 3234.18018
3185.0 0.0003140 2998.84961 3256.92407
3250.0 0.0003077 2996.59741 3279.40576
3246.0 0.0003081 2994.35864 3302.76733
3242.0 0.0003085 2992.13330 3326.26587
3300.0 0.0003030 2989.92188 3350.99634
3473.0 0.0002879 2987.72388 3377.92676
3453.0 0.0002896 2985.53735 3406.78638
3417.0 0.0002927 2983.36621 3435.43115
3558.0 0.0002811 2981.20605 3460.02051
3583.0 0.0002791 2979.06006 3475.88477
3497.0 0.0002860 2976.92651 3479.52930
3601.0 0.0002777 2974.80469 3470.90820
3465.0 0.0002886 2972.69482 3452.47046
3400.0 0.0002941 2970.59863 3426.21948
3407.0 0.0002935 2968.51343 3400.02612
3460.0 0.0002890 2966.44043 3373.38135
3372.0 0.0002966 2964.37842 3347.00073
3310.0 0.0003021 2962.32910 3321.29077
3347.0 0.0002988 2960.28857 3296.71851
3380.0 0.0002959 2958.26074 3273.66284
3352.0 0.0002983 2956.24390 3252.04614
3321.0 0.0003011 2954.23779 3231.50244
3251.0 0.0003076 2952.23999 3211.47266
3194.0 0.0003131 2950.25366 3191.09253
3210.0 0.0003115 2948.27612 3169.26929
3132.0 0.0003193 2946.30664 3145.23413
3127.0 0.0003198 2944.34985 3119.19043
3038.0 0.0003292 2942.40063 3092.92773
3048.0 0.0003281 2940.45874 3066.65161
3065.0 0.0003263 2938.52588 3042.39795
2994.0 0.0003340 2936.60107 3021.23047
2955.0 0.0003384 2934.68457 3003.81348
2990.0 0.0003344 2932.77515 2990.85962
2966.0 0.0003372 2930.87231 2981.26831
2904.0 0.0003444 2928.97827 2977.66992
2911.0 0.0003435 2927.08887 2976.56128
2803.0 0.000357 2925.20557 2978.89136
2870.0 0.0003484 2923.32983 2984.82813
3032.0 0.0003298 2921.45752 2992.28760
2966.0 0.0003372 2919.59204 3001.54272
2964.0 0.0003374 2917.73169 3010.26367
2958.0 0.0003381 2915.87598 3017.58447
3017.0 0.0003315 2914.02417 3022.03149
2887.0 0.0003464 2912.17603 3022.43530
3058.0 0.0003270 2910.33252 3017.72461
2887.0 0.0003464 2908.49023 3009.99561
2894.0 0.0003455 2906.65308 2999.87329
2928.0 0.0003415 2904.81812 2988.86426
2940.0 0.0003401 2902.98535 2978.25708
2871.0 0.0003483 2901.15381 2968.95776
2855.0 0.0003503 2899.32422 2961.43555
2955.0 0.0003384 2897.49585 2955.74951
3018.0 0.0003313 2895.66919 2949.65283
2844.0 0.000352 2893.84229 2946.58789
2915.0 0.0003431 2892.01733 2943.95386
2811.0 0.000356 2890.19067 2941.37476
2817.0 0.000355 2888.36279 2938.82324
2772.0 0.000361 2886.53564 2936.61768
2931.0 0.0003412 2884.70654 2934.64844
2754.0 0.000363 2882.87769 2934.88843
2843.0 0.000352 2881.04639 2937.35840
2897.0 0.0003452 2879.21216 2942.76514
2909.0 0.0003438 2877.37598 2951.35596
2957.0 0.0003382 2875.53711 2964.64429
2848.0 0.000351 2873.69531 2982.69849
2947.0 0.0003393 2871.85107 3005.93604
2915.0 0.0003431 2870.00317 3034.63086
3045.0 0.0003284 2868.15063 3068.45776
3138.0 0.0003187 2866.29272 3108.10864
3072.0 0.0003255 2864.43213 3152.82227
3283.0 0.0003046 2862.56616 3202.52075
3301.0 0.0003029 2860.69629 3258.23633
3417.0 0.0002927 2858.82007 3319.34106
3468.0 0.0002884 2856.93774 3386.19141
3598.0 0.0002779 2855.05054 3456.67285
3747.0 0.0002669 2853.15576 3526.43140
3884.0 0.0002575 2851.25513 3590.32153
3879.0 0.0002578 2849.34961 3639.37793
3920.0 0.0002551 2847.43579 3668.58667
3827.0 0.0002613 2845.51514 3673.28247
3851.0 0.0002597 2843.58813 3651.51514
3791.0 0.0002638 2841.65283 3603.75317
3614.0 0.0002767 2839.71021 3533.73462
3463.0 0.0002888 2837.75903 3446.78076
3333.0 0.0003000 2835.79980 3350.90796
3294.0 0.0003036 2833.83423 3253.96851
3158.0 0.0003167 2831.85840 3163.36523
3107.0 0.0003219 2829.87329 3083.62744
3047.0 0.0003282 2827.88135 3017.31030
3110.0 0.0003215 2825.88013 2964.86108
2867.0 0.0003488 2823.86914 2925.22046
2908.0 0.0003439 2821.85034 2896.40796
2974.0 0.0003362 2819.82324 2876.09009
2800.0 0.000357 2817.78247 2862.35522
2854.0 0.0003504 2815.73706 2852.61694
2847.0 0.000351 2813.67944 2845.76050
2807.0 0.000356 2811.61401 2840.57056
2792.0 0.000358 2809.53809 2836.83154
2763.0 0.000362 2807.45264 2833.98901
2710.0 0.000369 2805.35913 2831.96045
2947.0 0.0003393 2803.25366 2830.71533
2803.0 0.000357 2801.13989 2830.49365
2860.0 0.0003497 2799.01587 2831.62793
2779.0 0.000360 2796.88232 2834.60498
2724.0 0.000367 2794.73901 2839.90649
2741.0 0.000365 2792.58813 2848.14502
2847.0 0.000351 2790.42480 2859.86963
2802.0 0.000357 2788.25220 2875.44116
2865.0 0.0003490 2786.07275 2894.97461
2935.0 0.0003407 2783.88110 2918.23926
2987.0 0.0003348 2781.68335 2944.38013
2980.0 0.0003356 2779.47437 2972.14502
3019.0 0.0003312 2777.25635 2999.04346
3046.0 0.0003283 2775.02930 3024.45850
3155.0 0.0003170 2772.79419 3046.02881
3128.0 0.0003197 2770.55005 3063.02832
3296.0 0.0003034 2768.29834 3075.51489
3069.0 0.0003258 2766.03882 3083.27979
3123.0 0.0003202 2763.76904 3086.74902
3090.0 0.0003236 2761.49268 3083.56665
3075.0 0.0003252 2759.20923 3076.56958
3147.0 0.0003178 2756.91821 3064.89966
3067.0 0.0003261 2754.61938 3049.00732
3056.0 0.0003272 2752.31445 3031.31226
2972.0 0.0003365 2750.00220 3011.36670
2897.0 0.0003452 2747.68311 2990.11011
2990.0 0.0003344 2745.35791 2967.94214
2937.0 0.0003405 2743.02808 2946.18042
2903.0 0.0003445 2740.69092 2926.55347
2933.0 0.0003409 2738.35034 2910.78223
2946.0 0.0003394 2736.00488 2900.19409
2939.0 0.0003403 2733.65308 2895.35229
2928.0 0.0003415 2731.29712 2895.85645
2808.0 0.000356 2728.93774 2900.25195
2880.0 0.0003472 2726.57373 2906.64331
2940.0 0.0003401 2724.20850 2911.25806
2923.0 0.0003421 2721.83960 2911.69971
2899.0 0.0003449 2719.46680 2906.02417
2941.0 0.0003400 2717.09229 2893.82153
2884.0 0.0003467 2714.71753 2876.16235
2872.0 0.0003482 2712.33960 2854.93335
2837.0 0.000352 2709.96191 2832.18042
2808.0 0.000356 2707.58301 2809.71191
2855.0 0.0003503 2705.20337 2788.96729
2769.0 0.000361 2702.82495 2770.75220
2819.0 0.000355 2700.44751 2755.50293
2710.0 0.000369 2698.07031 2743.17529
2697.0 0.000371 2695.69458 2733.43335
2724.0 0.000367 2693.32104 2725.82861
2772.0 0.000361 2690.95166 2719.81567
2638.0 0.000379 2688.58203 2714.93726
2775.0 0.000360 2686.21631 2710.79297
2673.0 0.000374 2683.85547 2707.08374
2759.0 0.000362 2681.49976 2703.66284
2643.0 0.000378 2679.14673 2700.52368
2763.0 0.000362 2676.80127 2698.51392
2690.0 0.000372 2674.45874 2695.70947
2670.0 0.000375 2672.12231 2694.25415
2704.0 0.000370 2669.79419 2693.62891
2747.0 0.000364 2667.47192 2693.92554
2717.0 0.000368 2665.15820 2695.16602
2635.0 0.000380 2662.85254 2696.17017
2603.0 0.000384 2660.55371 2699.10669
2716.0 0.000368 2658.26392 2702.43384
2537.0 0.000394 2655.98462 2706.15723
2618.0 0.000382 2653.71436 2709.80078
2679.0 0.000373 2651.45435 2713.22241
2665.0 0.000375 2649.20532 2715.76343
2675.0 0.000374 2646.96558 2718.43115
2626.0 0.000381 2644.73950 2721.52246
2651.0 0.000377 2642.52490 2725.69946
2707.0 0.000369 2640.32251 2731.65894
2671.0 0.000374 2638.13354 2739.43848
2706.0 0.000370 2635.95801 2748.61182
2753.0 0.000363 2633.79639 2758.18652
2764.0 0.000362 2631.64697 2766.77612
2769.0 0.000361 2629.51221 2772.38672
2842.0 0.000352 2627.39355 2773.43213
2858.0 0.0003499 2625.29053 2768.58472
2800.0 0.000357 2623.20239 2758.91138
2822.0 0.000354 2621.13208 2745.34106
2739.0 0.000365 2619.07471 2729.68750
2740.0 0.000365 2617.03613 2713.77637
2779.0 0.000360 2615.01440 2699.11206
2717.0 0.000368 2613.01001 2686.76929
2699.0 0.000371 2611.02393 2677.53735
2730.0 0.000366 2609.05664 2673.30176
2713.0 0.000369 2607.10620 2671.07324
2741.0 0.000365 2605.17432 2672.20166
2713.0 0.000369 2603.26318 2676.45288
2703.0 0.000370 2601.37012 2683.30859
2697.0 0.000371 2599.49731 2692.19360
2738.0 0.000365 2597.64355 2702.81714
2683.0 0.000373 2595.80908 2713.27271
2767.0 0.000361 2593.99561 2723.05542
2714.0 0.000368 2592.20313 2731.10815
2753.0 0.000363 2590.43091 2739.29541
2803.0 0.000357 2588.67896 2740.76929
2614.0 0.000383 2586.94873 2737.24487
2748.0 0.000364 2585.23877 2729.89258
2667.0 0.000375 2583.55103 2720.31860
2698.0 0.000371 2581.88379 2710.47437
2617.0 0.000382 2580.23926 2702.18872
2782.0 0.000359 2578.61523 2696.47266
2661.0 0.000376 2577.01440 2693.92627
2663.0 0.000376 2575.43286 2694.32373
2809.0 0.000356 2573.87451 2696.75537
2721.0 0.000368 2572.33838 2699.79590
2761.0 0.000362 2570.82349 2701.91943
2729.0 0.000366 2569.33008 2701.14404
2741.0 0.000365 2567.85913 2697.47876
2664.0 0.000375 2566.40967 2690.71948
2693.0 0.000371 2564.98193 2681.79883
2721.0 0.000368 2563.57593 2672.08643
2599.0 0.000385 2562.19141 2662.97778
2586.0 0.000387 2560.82837 2659.19727
2602.0 0.000384 2559.48633 2654.68652
2699.0 0.000371 2558.16724 2653.30835
2544.0 0.000393 2556.86694 2655.30249
2683.0 0.000373 2555.58789 2660.33594
2692.0 0.000371 2554.33154 2669.58667
2672.0 0.000374 2553.09448 2682.76660
2684.0 0.000373 2551.87720 2700.06714
2769.0 0.000361 2550.68140 2721.57690
2704.0 0.000370 2549.50464 2747.19604
2872.0 0.0003482 2548.34717 2776.56714
2749.0 0.000364 2547.20996 2808.94360
2838.0 0.000352 2546.09204 2843.22998
2769.0 0.000361 2544.99194 2878.08716
2919.0 0.0003426 2543.91113 2912.69434
2853.0 0.0003505 2542.84863 2946.72729
2957.0 0.0003382 2541.80225 2980.62012
2916.0 0.0003429 2540.77539 3014.70215
3079.0 0.0003248 2539.76489 3048.62134
3165.0 0.0003160 2538.77051 3081.06982
3128.0 0.0003197 2537.79248 3109.83887
3233.0 0.0003093 2536.83203 3132.75708
3128.0 0.0003197 2535.88525 3145.80640
3102.0 0.0003224 2534.95386 3146.36792
3120.0 0.0003205 2534.03784 3132.19873
3167.0 0.0003158 2533.13574 3102.48608
3043.0 0.0003286 2532.24634 3061.51416
3034.0 0.0003296 2531.37134 3012.72095
2978.0 0.0003358 2530.50879 2961.22266
2941.0 0.0003400 2529.65796 2911.51831
2764.0 0.000362 2528.81885 2867.09155
2857.0 0.0003500 2527.99146 2830.59204
2861.0 0.0003495 2527.17407 2803.92529
2799.0 0.000357 2526.36816 2788.28296
2765.0 0.000362 2525.57031 2784.11816
2894.0 0.0003455 2524.78271 2791.15308
2742.0 0.000365 2524.00317 2808.22998
2771.0 0.000361 2523.23120 2833.97314
2891.0 0.0003459 2522.46680 2865.88306
2918.0 0.0003427 2521.71069 2901.09595
2988.0 0.0003347 2520.95972 2935.33667
3074.0 0.0003253 2520.21411 2964.59766
3138.0 0.0003187 2519.47217 2983.13403
3057.0 0.0003271 2518.73706 2987.29346
3040.0 0.0003289 2518.00513 2975.32422
2953.0 0.0003386 2517.27661 2948.41162
2917.0 0.0003428 2516.55151 2910.45435
2817.0 0.000355 2515.82739 2865.78931
2824.0 0.000354 2515.10645 2818.73853
2617.0 0.000382 2514.38574 2772.71313
2698.0 0.000371 2513.66553 2730.22144
2598.0 0.000385 2512.94458 2692.96021
2702.0 0.000370 2512.22290 2661.95654
2566.0 0.000390 2511.50146 2637.56567
2620.0 0.000382 2510.77686 2619.82715
2622.0 0.000381 2510.04932 2608.38232
2507.0 0.000399 2509.31982 2601.05737
2572.0 0.000389 2508.58594 2600.35889
2549.0 0.000392 2507.85034 2603.73999
2638.0 0.000379 2507.10791 2610.19312
2651.0 0.000377 2506.36060 2618.57690
2537.0 0.000394 2505.60693 2627.53711
2622.0 0.000381 2504.84863 2635.18750
2589.0 0.000386 2504.08325 2641.22070
2614.0 0.000383 2503.31030 2644.00635
2598.0 0.000385 2502.53003 2642.87256
2681.0 0.000373 2501.74121 2634.83862
2680.0 0.000373 2500.94409 2626.77026
2628.0 0.000381 2500.13770 2617.01587
2650.0 0.000377 2499.32129 2605.80469
2672.0 0.000374 2498.49585 2593.89258
2573.0 0.000389 2497.66016 2582.07275
2483.0 0.000403 2496.81226 2571.00732
2583.0 0.000387 2495.95435 2561.52075
2545.0 0.000393 2495.08423 2553.89087
2456.0 0.000407 2494.20264 2548.31592
2551.0 0.000392 2493.30908 2544.63843
2500.0 0.000400 2492.40283 2542.78760
2573.0 0.000389 2491.48267 2542.20654
2576.0 0.000388 2490.55151 2542.43945
2564.0 0.000390 2489.60474 2543.01172
2538.0 0.000394 2488.64526 2543.45313
2589.0 0.000386 2487.67041 2543.46729
2491.0 0.000401 2486.68359 2543.07568
2558.0 0.000391 2485.68140 2542.64014
2542.0 0.000393 2484.66382 2539.03809
2482.0 0.000403 2483.63281 2540.50562
2405.0 0.000416 2482.58545 2543.68652
2498.0 0.000400 2481.52490 2548.91333
2561.0 0.000390 2480.44775 2556.23364
2525.0 0.000396 2479.35596 2565.35645
2590.0 0.000386 2478.24707 2575.73071
2573.0 0.000389 2477.12524 2586.48608
2643.0 0.000378 2475.98755 2595.81519
2722.0 0.000367 2474.83276 2602.54736
2683.0 0.000373 2473.66431 2605.38940
2678.0 0.000373 2472.47876 2603.65747
2658.0 0.000376 2471.27856 2597.56714
2699.0 0.000371 2470.06323 2588.11890
2588.0 0.000386 2468.83325 2576.64990
2552.0 0.000392 2467.58716 2564.44971
2632.0 0.000380 2466.32666 2552.54395
2564.0 0.000390 2465.05029 2541.64258
2427.0 0.000412 2463.75903 2532.12500
2478.0 0.000404 2462.45337 2524.09741
2519.0 0.000397 2461.13379 2517.40063
2486.0 0.000402 2459.80103 2511.23975
2460.0 0.000407 2458.45215 2506.36157
2544.0 0.000393 2457.09106 2501.79224
2445.0 0.000409 2455.71606 2497.56494
2546.0 0.000393 2454.32690 2493.77075
2481.0 0.000403 2452.92480 2490.41064
2389.0 0.000419 2451.51147 2488.04736
2499.0 0.000400 2450.08521 2486.59180
2571.0 0.000389 2448.64624 2486.04395
2504.0 0.000399 2447.19824 2486.27026
2484.0 0.000403 2445.73560 2487.02563
2445.0 0.000409 2444.26294 2488.00586
2544.0 0.000393 2442.78052 2488.94409
2499.0 0.000400 2441.28735 2489.75537
2464.0 0.000406 2439.78491 2490.67847
2585.0 0.000387 2438.27368 2492.33252
2511.0 0.000398 2436.75195 2495.60718
2489.0 0.000402 2435.22241 2501.48657
2468.0 0.000405 2433.68555 2510.69995
2539.0 0.000394 2432.14087 2524.12231
2615.0 0.000382 2430.58984 2541.65552
2600.0 0.000385 2429.03247 2562.67554
2581.0 0.000387 2427.46655 2585.82373
2730.0 0.000366 2425.89697 2608.97046
2671.0 0.000374 2424.32178 2629.52979
2862.0 0.0003494 2422.74194 2644.77734
2791.0 0.000358 2421.15918 2652.41797
2736.0 0.000365 2419.57080 2651.24194
2725.0 0.000367 2417.97998 2641.64209
2680.0 0.000373 2416.38623 2625.56372
2641.0 0.000379 2414.79126 2605.95483
2696.0 0.000371 2413.19312 2585.99048
2597.0 0.000385 2411.59595 2568.10522
2562.0 0.000390 2409.99683 2555.16235
2479.0 0.000403 2408.39746 2548.30151
2527.0 0.000396 2406.79785 2546.48633
2555.0 0.000391 2405.19873 2549.17822
2520.0 0.000397 2403.60156 2554.53638
2559.0 0.000391 2402.00684 2560.44482
2685.0 0.000372 2400.41406 2563.90552
2571.0 0.000389 2398.82227 2563.07788
2470.0 0.000405 2397.23389 2556.86963
2495.0 0.000401 2395.64990 2545.48828
2452.0 0.000408 2394.06934 2530.15967
2455.0 0.000407 2392.49341 2512.58350
2543.0 0.000393 2390.92188 2494.47705
2476.0 0.000404 2389.35522 2477.24902
2351.0 0.000425 2387.79346 2462.62109
2379.0 0.000420 2386.23706 2449.96313
2379.0 0.000420 2384.68726 2440.07617
2329.0 0.000429 2383.14429 2432.93213
2441.0 0.000410 2381.60767 2428.12573
2407.0 0.000415 2380.07715 2424.95313
2342.0 0.000427 2378.55493 2422.78662
2450.0 0.000408 2377.03955 2420.93970
2415.0 0.000414 2375.53076 2418.88892
2414.0 0.000414 2374.03174 2416.18042
2392.0 0.000418 2372.53979 2412.76563
2282.0 0.000438 2371.05591 2408.79004
2440.0 0.000410 2369.58081 2404.54956
2360.0 0.000424 2368.11353 2400.40039
2382.0 0.000420 2366.65381 2396.63428
2383.0 0.000420 2365.20435 2393.57104
2249.0 0.000445 2363.76245 2391.44067
2384.0 0.000419 2362.32935 2390.69653
2371.0 0.000422 2360.90527 2390.83276
2442.0 0.000410 2359.48804 2392.07031
2339.0 0.000428 2358.08105 2394.13403
2358.0 0.000424 2356.68286 2396.92139
2362.0 0.000423 2355.29272 2399.94922
2349.0 0.000426 2353.90967 2402.80396
2337.0 0.000428 2352.53564 2405.18823
2381.0 0.000420 2351.16919 2406.83374
2305.0 0.000434 2349.81006 2407.98389
2384.0 0.000419 2348.45898 2409.28516
2399.0 0.000417 2347.11548 2411.79810
2362.0 0.000423 2345.77905 2416.86255
2311.0 0.000433 2344.44897 2425.90747
2449.0 0.000408 2343.12402 2440.20923
2459.0 0.000407 2341.80737 2460.83984
2480.0 0.000403 2340.49609 2487.98682
2478.0 0.000404 2339.18994 2522.10352
2668.0 0.000375 2337.88794 2560.46973
2605.0 0.000384 2336.59082 2601.25732
2651.0 0.000377 2335.29932 2641.33105
2828.0 0.000354 2334.00903 2677.07056
2947.0 0.0003393 2332.72339 2704.79639
2824.0 0.000354 2331.44067 2721.66284
2792.0 0.000358 2330.16064 2726.33813
2874.0 0.0003479 2328.88062 2719.11914
2792.0 0.000358 2327.60376 2702.13037
2777.0 0.000360 2326.32666 2678.51636
2743.0 0.000365 2325.04932 2651.77783
2664.0 0.000375 2323.77222 2625.22925
2587.0 0.000387 2322.49463 2601.18579
2607.0 0.000384 2321.21460 2581.41675
2568.0 0.000389 2319.93237 2567.30396
2476.0 0.000404 2318.64697 2558.69312
2589.0 0.000386 2317.35889 2554.15186
2502.0 0.000400 2316.06787 2552.26245
2617.0 0.000382 2314.77173 2550.98364
2543.0 0.000393 2313.46948 2548.29395
2616.0 0.000382 2312.16260 2542.71191
2560.0 0.000391 2310.84888 2533.71558
2515.0 0.000398 2309.52881 2521.94165
2476.0 0.000404 2308.20166 2508.14185
2399.0 0.000417 2306.86475 2493.88892
2403.0 0.000416 2305.52124 2479.88770
2515.0 0.000398 2304.16724 2467.05396
2426.0 0.000412 2302.80420 2455.80200
2440.0 0.000410 2301.42993 2446.28027
2321.0 0.000431 2300.04541 2438.85376
2424.0 0.000413 2298.65112 2433.21655
2252.0 0.000444 2297.24365 2429.36963
2399.0 0.000417 2295.82397 2427.06226
2401.0 0.000416 2294.39233 2425.82886
2386.0 0.000419 2292.94604 2425.00952
2394.0 0.000418 2291.48706 2423.80859
2363.0 0.000423 2290.01514 2421.46265
2393.0 0.000418 2288.52808 2417.47998
2443.0 0.000409 2287.02637 2411.93921
2413.0 0.000414 2285.51123 2405.34399
2347.0 0.000426 2283.98022 2398.72534
2350.0 0.000426 2282.43286 2393.24097
2357.0 0.000424 2280.87085 2390.01392
2443.0 0.000409 2279.29395 2390.08838
2436.0 0.000411 2277.70044 2394.16211
2375.0 0.000421 2276.09155 2402.74927
2428.0 0.000412 2274.46582 2416.11133
2421.0 0.000413 2272.82568 2433.87915
2449.0 0.000408 2271.16870 2455.16333
2521.0 0.000397 2269.49634 2478.49731
2606.0 0.000384 2267.80859 2501.83203
2452.0 0.000408 2266.10596 2522.63281
2645.0 0.000378 2264.38745 2538.13867
2553.0 0.000392 2262.65259 2545.94775
2606.0 0.000384 2260.90552 2544.56763
2542.0 0.000393 2259.14185 2534.20361
2477.0 0.000404 2257.36646 2516.49341
2495.0 0.000401 2255.57666 2493.92896
2595.0 0.000385 2253.77393 2469.16675
2568.0 0.000389 2251.95752 2444.31250
2503.0 0.000400 2250.13062 2421.74194
2389.0 0.000419 2248.29224 2401.95557
2454.0 0.000407 2246.44360 2386.74414
2363.0 0.000423 2244.58472 2375.81104
2439.0 0.000410 2242.71582 2369.01489
2403.0 0.000416 2240.83813 2365.70020
2406.0 0.000416 2238.95483 2365.98120
2390.0 0.000418 2237.06470 2369.07715
2442.0 0.000410 2235.16846 2374.73853
2414.0 0.000414 2233.26733 2382.68750
2474.0 0.000404 2231.36353 2392.59937
2381.0 0.000420 2229.45581 2404.03564
2436.0 0.000411 2227.54492 2416.40430
2482.0 0.000403 2225.63599 2429.13672
2538.0 0.000394 2223.72876 2440.33691
2629.0 0.000380 2221.82153 2449.45728
2512.0 0.000398 2219.91895 2454.48120
2511.0 0.000398 2218.01880 2453.96631
2530.0 0.000395 2216.12402 2447.08643
2507.0 0.000399 2214.23730 2434.25000
2465.0 0.000406 2212.35840 2416.30444
2397.0 0.000417 2210.48926 2395.01392
2423.0 0.000413 2208.63013 2372.07129
2335.0 0.000428 2206.78296 2349.17041
2291.0 0.000436 2204.94897 2327.39380
2201.0 0.000454 2203.13110 2307.54150
2262.0 0.000442 2201.32788 2290.07666
2269.0 0.000441 2199.54297 2275.18945
2196.0 0.000455 2197.77612 2262.92505
2168.0 0.000461 2196.03101 2253.63892
2229.0 0.000449 2194.30347 2245.87598
2214.0 0.000452 2192.60132 2239.51733
2176.0 0.000460 2190.92163 2234.73853
2175.0 0.000460 2189.26929 2230.86304
2184.0 0.000458 2187.64111 2227.57349
2128.0 0.000470 2186.04150 2224.62549
2191.0 0.000456 2184.46973 2221.84644
2187.0 0.000457 2182.92700 2219.11304
2227.0 0.000449 2181.41553 2216.31128
2196.0 0.000455 2179.93530 2213.59009
2150.0 0.000465 2178.48828 2210.97144
2137.0 0.000468 2177.07422 2208.55664
2109.0 0.000474 2175.69531 2206.42700
2102.0 0.000476 2174.34937 2204.59863
2204.0 0.000454 2173.03906 2203.09985
2165.0 0.000462 2171.76636 2201.72876
2187.0 0.000457 2170.53027 2200.42676
2131.0 0.000469 2169.33008 2199.09082
2183.0 0.000458 2168.16772 2196.87622
2214.0 0.000452 2167.04346 2195.45044
2186.0 0.000457 2165.95605 2194.25415
2212.0 0.000452 2164.90649 2193.50854
2138.0 0.000468 2163.89429 2193.52368
2073.0 0.000482 2162.92090 2194.55981
2167.0 0.000461 2161.98315 2196.86572
2143.0 0.000467 2161.08203 2200.53809
2087.0 0.000479 2160.21729 2205.74951
2191.0 0.000456 2159.38892 2212.38184
2135.0 0.000468 2158.59521 2220.45581
2186.0 0.000457 2157.83472 2229.30225
2152.0 0.000465 2157.10742 2238.67358
2238.0 0.000447 2156.41284 2248.43286
2252.0 0.000444 2155.74658 2258.19116
2205.0 0.000454 2155.11035 2267.76563
2271.0 0.000440 2154.50146 2276.72729
2307.0 0.000433 2153.91943 2285.39722
2225.0 0.000449 2153.36035 2293.15869
2272.0 0.000440 2152.82373 2299.57544
2381.0 0.000420 2152.30786 2304.09277
2270.0 0.000441 2151.80981 2306.49878
2411.0 0.000415 2151.32764 2306.94800
2370.0 0.000422 2150.85864 2305.78687
2374.0 0.000421 2150.40015 2304.16748
2371.0 0.000422 2149.95068 2302.57202
2317.0 0.000432 2149.50684 2302.14453
2380.0 0.000420 2149.06494 2303.45093
2341.0 0.000427 2148.62305 2307.12817
2332.0 0.000429 2148.17798 2313.58472
2363.0 0.000423 2147.72632 2322.73193
2428.0 0.000412 2147.26465 2334.25439
2454.0 0.000407 2146.78979 2347.06348
2559.0 0.000391 2146.29858 2359.34692
2523.0 0.000396 2145.78857 2369.19165
2507.0 0.000399 2145.25513 2374.49219
2458.0 0.000407 2144.69507 2373.54663
2544.0 0.000393 2144.10449 2365.61035
2599.0 0.000385 2143.48047 2351.15649
2420.0 0.000413 2142.81909 2331.63403
2390.0 0.000418 2142.11646 2309.00391
2273.0 0.000440 2141.36914 2285.11670
2316.0 0.000432 2140.57373 2261.66602
2229.0 0.000449 2139.72632 2239.94214
2228.0 0.000449 2138.82520 2220.76416
2214.0 0.000452 2137.86377 2204.66797
2188.0 0.000457 2136.84131 2191.73071
2142.0 0.000467 2135.75269 2181.70117
2151.0 0.000465 2134.59766 2174.21021
2139.0 0.000468 2133.37012 2168.77808
2087.0 0.000479 2132.06909 2164.93555
2182.0 0.000458 2130.68945 2162.29419
2168.0 0.000461 2129.23169 2160.60620
2126.0 0.000470 2127.69165 2159.72266
2140.0 0.000467 2126.06641 2159.72534
1990.0 0.000503 2124.35522 2160.62866
2148.0 0.000466 2122.55786 2162.55420
2087.0 0.000479 2120.66772 2165.32373
2047.0 0.000489 2118.68823 2168.90625
2117.0 0.000472 2116.61621 2173.11011
2273.0 0.000440 2114.45239 2177.55884
2147.0 0.000466 2112.19409 2181.91528
2178.0 0.000459 2109.84277 2185.52173
2238.0 0.000447 2107.39917 2187.87573
2224.0 0.000450 2104.86206 2188.44263
2188.0 0.000457 2102.23389 2186.88525
2154.0 0.000464 2099.51440 2183.17822
2124.0 0.000471 2096.70654 2177.56079
2173.0 0.000460 2093.81299 2170.61646
2137.0 0.000468 2090.83423 2162.80713
2094.0 0.000478 2087.77173 2154.58301
2144.0 0.000466 2084.63354 2146.33521
2221.0 0.000450 2081.42065 2138.31128
2143.0 0.000467 2078.13623 2130.70215
2169.0 0.000461 2074.78540 2123.42700
2058.0 0.000486 2071.37451 2116.68506
2091.0 0.000478 2067.90649 2111.05347
2063.0 0.000485 2064.38770 2106.35156
2023.0 0.000494 2060.82739 2102.72607
2091.0 0.000478 2057.22803 2100.27271
2092.0 0.000478 2053.59814 2098.91650
2048.0 0.000488 2049.94727 2098.79907
2136.0 0.000468 2046.27820 2099.59302
2031.0 0.000492 2042.60278 2100.96118
2052.0 0.000487 2038.92993 2102.54199
2070.0 0.000483 2035.26526 2103.63574
2106.0 0.000475 2031.62134 2103.82080
2056.0 0.000486 2028.00403 2102.70923
2117.0 0.000472 2024.42444 2100.14917
2074.0 0.000482 2020.89075 2096.22900
2114.0 0.000473 2017.41638 2090.61499
1985.0 0.000504 2014.00940 2084.80322
2061.0 0.000485 2010.67847 2078.42822
2166.0 0.000462 2007.43555 2071.65942
2079.0 0.000481 2004.29016 2064.61890
2123.0 0.000471 2001.24951 2057.41602
1975.0 0.000506 1998.32727 2050.22119
2034.0 0.000492 1995.53296 2043.21875
2063.0 0.000485 1992.87317 2036.58923
2130.0 0.000469 1990.35889 2030.47644
2029.0 0.000493 1987.99902 2024.98914
2024.0 0.000494 1985.79956 2020.21338
2104.0 0.000475 1983.77039 2016.23682
2091.0 0.000478 1981.91809 2013.14185
2051.0 0.000488 1980.24817 2010.99109
2078.0 0.000481 1978.76733 2009.74500
2023.0 0.000494 1977.47937 2009.48584
2043.0 0.000489 1976.38770 2010.03918
2042.0 0.000490 1975.49573 2011.22510
1975.0 0.000506 1974.80579 2012.79211
1994.0 0.000502 1974.31763 2014.45618
1920.0 0.000521 1974.02954 2015.93152
1987.0 0.000503 1973.94080 2016.98267
2026.0 0.000494 1974.04749 2017.43823
2064.0 0.000484 1974.34534 2017.24158
1929.0 0.000518 1974.82495 2016.36194
2025.0 0.000494 1975.48120 2014.85620
2061.0 0.000485 1976.30212 2012.85571
2055.0 0.000487 1977.27661 2010.55615
1960.0 0.000510 1978.39148 2007.99744
2065.0 0.000484 1979.63293 2005.76160
2096.0 0.000477 1980.98108 2003.82727
1957.0 0.000511 1982.41895 2002.30615
2106.0 0.000475 1983.92542 2001.26318
1968.0 0.000508 1985.47778 2000.72412
1979.0 0.000505 1987.05249 2000.68311
2019.0 0.000495 1988.62415 2001.11902
2016.0 0.000496 1990.16443 2002.01111
1983.0 0.000504 1991.64575 2003.28687
2047.0 0.000489 1993.03711 2005.01404
1941.0 0.000515 1994.30896 2007.10388
2030.0 0.000493 1995.42834 2009.48560
2082.0 0.000480 1996.36365 2012.08215
1988.0 0.000503 1997.08240 2014.75720
1966.0 0.000509 1997.55237 2017.34485
1973.0 0.000507 1997.74084 2019.65344
1939.0 0.000516 1997.61865 2021.44421
2020.0 0.000495 1997.15515 2022.46436
1992.0 0.000502 1996.32458 2022.47559
1984.0 0.000504 1995.10229 2021.42712
2026.0 0.000494 1993.46826 2019.02649
2101.0 0.000476 1991.40649 2015.37341
1988.0 0.000503 1988.90649 2010.80579
1932.0 0.000518 1985.96582 2005.44006
1995.0 0.000501 1982.58728 1999.48132
2002.0 0.000500 1978.77930 1993.10474
1991.0 0.000502 1974.57251 1986.47827
1932.0 0.000518 1969.99792 1979.72437
2021.0 0.000495 1965.10645 1973.16614
1933.0 0.000517 1959.95789 1966.43042
1982.0 0.000505 1954.63696 1959.85828
1980.0 0.000505 1949.24280 1953.49243
1951.0 0.000513 1943.90125 1947.42041
1919.0 0.000521 1938.75647 1941.74377
1919.0 0.000521 1933.98682 1936.59814
2000.0 0.000500 1929.79407 1932.13147
2003.0 0.000499 1926.41980 1928.62646
1933.0 0.000517 1924.13586 1926.26782
1951.0 0.000513 1923.26355 1925.54468
1910.0 0.000524 1924.16431 1926.54175
1962.0 0.000510 1927.24805 1929.82568
1909.0 0.000524 1932.98206 1935.90771
1948.0 0.000513 1941.88855 1945.36328
1903.0 0.000525 1954.56311 1958.85352
1994.0 . . .
loop_
_refln_index_h
_refln_index_k
_refln_index_l
_refln_observed_status
_refln_F_squared_meas
_refln_F_squared_calc
_refln_phase_calc
_refln_d_spacing
_gsas_i100_meas
0 0 1 o 330.809 327.695 180.00 9.21303 33.74
0 1 1 o 296.609 305.171 0.00 6.73502 30.35
0 1 0 o 437.877 433.168 180.00 6.58066 41.56
1 0 0 o 256.165 247.176 0.00 6.37186 25.91
1 0 1 o 58.435 65.814 180.00 5.37012 3.18
1 0 -1 o 46.207 46.263 0.00 5.12001 2.18
1 1 1 o 1720.001 1679.684 180.00 4.95962 100.00
1 1 0 o 513.606 521.377 0.00 4.79818 26.22
0 1 2 o 33.891 46.363 180.00 4.73716 1.15
0 0 2 o 1751.120 1672.876 180.00 4.60652 43.29
0 1 -1 o 410.946 415.505 180.00 4.57864 12.94
1 -1 0 o 990.828 1009.734 180.00 4.38493 44.24
1 -1 -1 o 967.863 961.625 0.00 4.35617 42.06
1 1 2 o 72.747 78.589 180.00 4.03452 2.05
1 0 2 o 9.837 10.213 180.00 3.82682 0.21
1 1 -1 o 659.591 682.133 0.00 3.78560 15.60
1 -1 1 o 707.236 709.177 180.00 3.65435 16.76
1 0 -2 o 743.889 765.661 180.00 3.64599 13.78
1 -1 -2 o 456.719 466.900 0.00 3.60494 10.36
0 2 1 o 563.388 561.421 0.00 3.56929 17.03
0 2 2 o 116.756 109.000 180.00 3.36751 2.83
0 1 3 o 49.752 77.622 0.00 3.32153 0.70
0 2 0 o 1701.770 1786.950 0.00 3.29033 37.78
1 2 1 o 872.704 907.439 0.00 3.28238 22.12
0 1 -2 o 891.753 890.531 0.00 3.22963 11.79
2 0 0 o 669.080 614.675 180.00 3.18593 15.82
1 2 2 o 365.825 380.089 180.00 3.15019 7.89
1 1 3 o 109.389 113.142 0.00 3.07469 1.46
0 0 3 o 580.764 596.529 0.00 3.07101 6.07
2 0 1 o 0.272 0.231 180.00 3.05950 0.01
1 2 0 o 14.797 13.421 0.00 3.03693 0.28
2 1 1 o 80.686 77.285 180.00 3.03557 1.72
2 1 0 o 103.051 111.571 0.00 2.97430 2.01
1 -2 -1 o 2.134 2.292 180.00 2.96915 0.04
2 0 -1 o 23.462 24.048 180.00 2.96470 0.41
1 1 -2 o 137.503 137.441 0.00 2.89052 1.54
1 -1 2 o 35.637 45.238 0.00 2.87102 0.43
0 2 3 o 11.121 14.359 0.00 2.86966 0.15
1 -1 -3 o 34.465 38.380 0.00 2.83111 0.39
1 -2 -2 o 63.819 72.192 180.00 2.83006 1.07
1 0 3 o 48.401 59.075 180.00 2.82328 0.48
1 -2 0 o 8.322 9.922 0.00 2.82199 0.14
2 1 2 o 7.494 9.955 180.00 2.79981 0.11
0 2 -1 o 571.559 600.654 180.00 2.77559 7.16
2 -1 0 o 183.129 176.111 0.00 2.77152 3.15
1 2 3 o 343.141 323.023 180.00 2.74944 4.54
2 -1 -1 o 739.316 681.057 180.00 2.74607 12.31
1 0 -3 o 58.139 51.570 0.00 2.71295 0.51
2 0 2 o 33.948 26.328 180.00 2.68506 0.42
2 1 -1 o 35.743 31.546 180.00 2.66199 0.46
1 2 -1 o 162.504 228.309 180.00 2.60292 1.81
2 -1 1 o 10.117 25.652 0.00 2.57067 0.14
2 0 -2 o 8.051 8.957 0.00 2.56001 0.08
2 2 1 o 57.938 32.210 0.00 2.52862 0.82
2 -1 -2 o 186.800 194.653 0.00 2.51104 2.22
1 -2 -3 o 17.203 20.720 180.00 2.50123 0.19
0 1 4 o 4.382 5.874 180.00 2.49779 0.03
1 -2 1 o 0.026 0.028 180.00 2.49012 0.00
2 2 2 o 485.721 440.322 180.00 2.47981 6.35
0 1 -3 o 49.136 55.107 180.00 2.44261 0.33
2 1 3 o 387.948 399.785 0.00 2.42410 3.66
1 1 4 o 664.907 614.090 180.00 2.39949 4.61
2 2 0 o 74.023 69.813 180.00 2.39909 0.85
0 3 2 o 0.049 6.711 180.00 2.37032 0.00
0 2 4 o -0.001 0.003 0.00 2.36858 0.00
0 3 1 o 6.923 22.122 0.00 2.34969 0.08
1 3 2 o 74.723 77.679 0.00 2.31691 0.88
1 2 4 o 526.101 490.291 0.00 2.31024 4.02
0 0 4 o 193.439 172.143 180.00 2.30326 1.06
0 2 -2 o 330.934 335.995 180.00 2.28932 2.34
1 3 1 o 199.054 200.266 180.00 2.28718 2.21
1 -1 3 o 0.720 0.724 180.00 2.28624 0.00
2 2 3 o 16.238 13.502 180.00 2.27982 0.16
2 1 -2 o 27.949 21.616 0.00 2.27766 0.22
1 1 -3 o 22.294 15.528 0.00 2.27533 0.13
2 0 3 o 7.766 4.330 180.00 2.26956 0.06
2 -1 2 o 22.207 30.049 180.00 2.25863 0.18
1 -1 -4 o 35.921 49.153 0.00 2.25796 0.22
2 -2 -1 o 0.064 0.074 180.00 2.24943 0.00
0 3 3 o 60.681 79.139 0.00 2.24501 0.60
1 3 3 o 2.238 2.903 0.00 2.20876 0.02
1 0 4 o 133.169 148.675 0.00 2.20225 0.71
0 3 0 o 290.893 256.060 180.00 2.19355 2.61
2 -2 0 o 21.672 18.581 180.00 2.19246 0.21
2 -1 -3 o 70.276 59.695 0.00 2.19187 0.52
1 2 -2 o 11.341 9.687 180.00 2.18046 0.07
2 -2 -2 o 210.129 174.446 180.00 2.17809 2.01
2 2 -1 o -0.165 18.864 180.00 2.15841 0.00
2 0 -3 o -0.238 5.580 180.00 2.15683 0.00
1 -2 -4 o 1.818 9.435 0.00 2.13984 0.01
1 -3 -2 o 0.316 0.634 0.00 2.13713 0.00
1 3 0 o 72.916 99.406 0.00 2.13396 0.61
1 0 -4 o 70.105 77.053 0.00 2.13165 0.34
1 -3 -1 o 12.061 12.516 0.00 2.13031 0.11
1 -2 2 o 0.465 0.454 180.00 2.12941 0.00
3 0 0 o 292.355 222.395 0.00 2.12395 2.79
3 1 1 o 18.103 50.110 0.00 2.10514 0.17
3 0 1 o 16.252 31.073 180.00 2.09314 0.15
3 1 0 o 181.480 151.848 180.00 2.07657 1.61
2 1 4 o 22.110 16.248 180.00 2.05695 0.13
3 0 -1 o 47.926 39.783 180.00 2.04697 0.39
1 -3 -3 o 50.436 79.376 0.00 2.03656 0.40
2 -2 1 o 23.830 31.633 180.00 2.03279 0.18
0 3 4 o 0.017 0.021 180.00 2.03113 0.00
3 1 2 o 82.824 95.646 0.00 2.02876 0.67
2 3 2 o 62.847 65.005 180.00 2.02507 0.53
1 -3 0 o 345.663 303.211 180.00 2.01900 2.62
2 2 4 o 68.360 59.463 0.00 2.01726 0.42
1 3 4 o 212.843 189.969 180.00 2.01119 1.43
2 -2 -3 o 7.279 6.233 0.00 2.01003 0.05
2 3 1 o 0.552 0.216 0.00 1.99817 0.00
0 1 5 o 83.096 106.878 180.00 1.98620 0.34
3 -1 0 o 11.109 11.215 0.00 1.97019 0.09
0 3 -1 o 8.472 8.493 180.00 1.96840 0.05
3 0 2 o 38.774 36.803 180.00 1.96728 0.27
0 2 5 o 12.996 12.723 180.00 1.96637 0.06
2 3 3 o 38.264 44.883 0.00 1.95815 0.29
3 1 -1 o 45.237 49.262 180.00 1.95471 0.31
3 -1 -1 o 88.066 95.443 180.00 1.95447 0.68
0 1 -4 o 106.634 106.528 180.00 1.95030 0.41
2 -1 3 o 108.332 103.197 0.00 1.94518 0.55
1 1 5 o 15.952 14.250 180.00 1.94201 0.06
1 2 5 o 0.158 0.124 0.00 1.93890 0.00
2 1 -3 o 10.737 9.749 0.00 1.93179 0.05
3 2 1 o 82.285 75.980 180.00 1.92721 0.62
1 3 -1 o 128.058 140.752 0.00 1.91883 0.73
2 0 4 o 60.848 77.364 0.00 1.91341 0.27
3 2 2 o 0.215 0.281 180.00 1.91137 0.00
0 2 -3 o 45.663 56.435 0.00 1.90566 0.19
3 -1 1 o 15.717 19.856 0.00 1.89994 0.11
2 2 -2 o 77.316 68.022 0.00 1.89280 0.39
3 0 -2 o 5.775 5.010 180.00 1.89250 0.04
2 3 0 o 1.816 1.470 0.00 1.88770 0.01
2 -1 -4 o 301.601 231.142 180.00 1.88559 1.39
3 1 3 o 1.753 1.638 180.00 1.87701 0.01
1 -1 4 o 60.222 67.482 180.00 1.87357 0.23
1 -3 -4 o 54.047 61.639 0.00 1.86720 0.31
3 2 0 o 132.818 126.938 0.00 1.86235 0.87
3 -1 -2 o 52.104 48.204 180.00 1.85854 0.32
1 1 -4 o 52.515 49.448 180.00 1.85635 0.19
1 -1 -5 o 59.385 62.274 180.00 1.85350 0.22
1 -3 1 o 0.318 1.434 180.00 1.84476 0.00
0 0 5 o 15.384 55.380 180.00 1.84261 0.05
1 2 -3 o -0.260 17.196 0.00 1.83609 0.00
2 -2 2 o 49.389 59.422 0.00 1.82718 0.25
1 -2 -5 o 57.423 51.134 0.00 1.82421 0.23
2 0 -4 o 179.728 159.773 0.00 1.82300 0.70
2 3 4 o 110.555 95.348 0.00 1.82175 0.61
3 2 3 o 92.361 81.263 0.00 1.82038 0.55
1 -2 3 o 0.067 0.074 180.00 1.81559 0.00
2 -2 -4 o 64.888 63.987 0.00 1.80247 0.31
2 -3 -1 o 68.218 63.989 180.00 1.79944 0.44
2 -3 -2 o 9.002 8.565 0.00 1.79847 0.06
0 3 5 o 44.034 43.521 180.00 1.79621 0.20
1 0 5 o 16.685 16.539 0.00 1.79464 0.05
3 0 3 o 65.057 61.720 0.00 1.79004 0.32
1 3 5 o 8.053 7.322 180.00 1.78731 0.04
0 4 2 o 2.030 1.908 0.00 1.78465 0.01
3 1 -2 o 4.279 3.972 0.00 1.78147 0.02
1 4 2 o 5.737 18.430 180.00 1.77335 0.04
3 -1 2 o 57.925 52.350 0.00 1.76779 0.30
0 4 3 o 5.983 4.323 180.00 1.76344 0.04
2 2 5 o 10.161 8.056 0.00 1.76050 0.04
1 4 3 o 51.284 49.931 180.00 1.75723 0.31
2 1 5 o 54.730 50.754 180.00 1.75120 0.19
1 0 -5 o 14.657 16.331 180.00 1.74650 0.04
0 4 1 o 82.150 85.642 0.00 1.74093 0.47
3 2 -1 o 4.065 4.135 180.00 1.73824 0.02
3 -2 -1 o 41.757 42.278 0.00 1.73791 0.25
0 3 -2 o 249.150 248.414 0.00 1.73574 0.99
2 -3 0 o 32.526 32.318 0.00 1.73535 0.18
2 -3 -3 o 7.457 7.335 0.00 1.73276 0.04
2 3 -1 o 7.980 7.755 0.00 1.72938 0.04
1 4 1 o 204.069 203.204 0.00 1.72596 1.13
3 -2 0 o 36.379 40.205 0.00 1.71560 0.20
3 -1 -3 o 17.060 17.933 0.00 1.71300 0.08
3 0 -3 o 17.485 20.607 0.00 1.70667 0.07
3 -2 -2 o 59.682 51.909 180.00 1.70009 0.32
1 3 -2 o 6.409 6.253 180.00 1.69721 0.02
3 1 4 o 9.198 11.182 0.00 1.69450 0.04
3 3 2 o 16.166 13.571 180.00 1.68870 0.09
0 4 4 o 8.877 6.891 0.00 1.68376 0.04
1 4 4 o 25.262 19.476 0.00 1.68246 0.13
3 2 4 o 99.330 74.905 180.00 1.68221 0.44
2 -1 4 o 19.525 23.987 180.00 1.67573 0.06
1 -3 -5 o 54.540 67.056 180.00 1.67574 0.21
3 3 1 o 1.289 4.295 0.00 1.66896 0.01
1 -4 -2 o 3.074 10.945 0.00 1.66847 0.02
0 2 6 o 6.838 26.924 180.00 1.66076 0.02
2 3 5 o 123.121 105.852 180.00 1.65432 0.48
1 -3 2 o 54.505 49.475 0.00 1.65309 0.20
3 3 3 o 37.679 32.564 0.00 1.65321 0.19
2 1 -4 o 55.938 51.407 180.00 1.65129 0.17
2 2 -3 o 0.517 0.493 0.00 1.65035 0.00
1 2 6 o 13.882 14.030 180.00 1.64798 0.04
1 -4 -3 o 73.113 77.190 180.00 1.64721 0.37
0 4 0 o 5.140 6.010 180.00 1.64517 0.02
0 1 6 o 25.867 34.863 0.00 1.64343 0.07
2 4 2 o 2.244 2.961 180.00 1.64119 0.01
3 -2 1 o 36.280 44.829 180.00 1.63959 0.17
1 -4 -1 o 5.810 5.947 180.00 1.63637 0.03
2 4 3 o 128.253 113.677 180.00 1.63215 0.64
2 0 5 o 24.002 20.685 0.00 1.63147 0.07
1 4 0 o 7.544 6.279 180.00 1.62875 0.03
2 -1 -5 o 33.176 26.646 0.00 1.62664 0.10
2 -3 1 o 40.664 33.363 0.00 1.62465 0.17
1 1 6 o 132.876 112.325 0.00 1.62182 0.34
2 -2 3 o 0.279 0.267 0.00 1.62089 0.00
2 -3 -4 o 31.755 29.560 180.00 1.62111 0.13
0 1 -5 o 18.810 28.724 0.00 1.61846 0.05
0 2 -4 o 0.651 10.662 180.00 1.61481 0.00
3 -2 -3 o -0.080 8.333 0.00 1.61282 0.00
3 -1 3 o -0.289 9.790 180.00 1.60847 0.00
3 0 4 o 9.139 22.516 180.00 1.60262 0.03
2 4 1 o 20.671 22.344 0.00 1.59985 0.10
3 3 0 o 41.020 41.093 180.00 1.59939 0.18
2 -2 -5 o 2.381 1.995 0.00 1.59792 0.01
3 1 -3 o 5.646 4.584 180.00 1.59712 0.02
4 1 1 o 21.496 16.958 0.00 1.59711 0.10
4 0 0 o 145.724 104.085 0.00 1.59297 0.69
3 2 -2 o 3.148 9.116 180.00 1.58676 0.01
4 0 1 o 0.946 2.604 0.00 1.58327 0.00
4 1 0 o 25.736 34.988 180.00 1.58108 0.12
0 3 6 o 4.759 5.637 0.00 1.57905 0.01
1 -4 -4 o 0.028 0.034 0.00 1.57829 0.00
1 -1 5 o 11.551 15.752 0.00 1.57719 0.03
1 3 6 o 2.025 3.160 180.00 1.57638 0.01
2 4 4 o 0.752 1.267 0.00 1.57509 0.00
3 3 4 o 21.871 29.540 0.00 1.57200 0.09
1 -2 -6 o 24.104 19.482 180.00 1.56907 0.06
1 4 5 o 7.436 5.866 0.00 1.56891 0.03
1 2 -4 o 1.851 1.386 0.00 1.56847 0.00
0 4 5 o 0.000 0.000 180.00 1.56662 0.00
4 1 2 o 9.155 5.118 0.00 1.56630 0.04
1 -1 -6 o 0.433 0.348 180.00 1.56253 0.00
1 -2 4 o 25.570 20.325 0.00 1.56221 0.07
2 0 -5 o 8.215 6.647 0.00 1.56096 0.02
1 1 -5 o 25.064 19.128 180.00 1.56025 0.06
1 -4 0 o 0.234 0.164 180.00 1.55937 0.00
2 3 -2 o 0.443 0.308 180.00 1.55858 0.00
4 0 -1 o 2.134 1.563 180.00 1.55642 0.01
3 -1 -4 o 12.457 19.632 180.00 1.55111 0.04
