#------------------------------------------------------------------------------
#$Date: 2016-03-24 01:50:36 +0200 (Thu, 24 Mar 2016) $
#$Revision: 179542 $
#$URL: svn://www.crystallography.net/cod/cif/4/50/11/4501135.cif $
#------------------------------------------------------------------------------
#
# This file is available in the Crystallography Open Database (COD),
# http://www.crystallography.net/
#
# All data on this site have been placed in the public domain by the
# contributors.
#
data_4501135
loop_
_publ_author_name
'Prohens, Rafel'
'Portell, Anna'
'Puigjaner, Cristina'
'Tom\`as, Salvador'
'Fujii, Kotaro'
'Harris, Kenneth D. M.'
'Alcob\'e, Xavier'
'Font-Bardia, Merc\`e'
'Barbas, Rafael'
_publ_section_title
;
 Cooperativity in Solid-State Squaramides
;
_journal_issue                   9
_journal_name_full               'Crystal Growth &amp; Design'
_journal_page_first              3725
_journal_paper_doi               10.1021/cg200772e
_journal_volume                  11
_journal_year                    2011
_chemical_formula_sum            'C8 H7 N2 O'
_chemical_formula_weight         147.16
_chemical_name_systematic        ' ?'
_space_group_IT_number           2
_symmetry_cell_setting           triclinic
_symmetry_space_group_name_Hall  '-P 1'
_symmetry_space_group_name_H-M   'P -1'
_audit_creation_date             2009-05-29T18:07
_audit_creation_method           'from EXP file using GSAS2CIF'
_audit_update_record
' 2009-05-29T18:07  Initial CIF as created by GSAS2CIF'
_cell_angle_alpha                93.0202(26)
_cell_angle_beta                 103.1757(26)
_cell_angle_gamma                92.4776(34)
_cell_formula_units_Z            4
_cell_length_a                   6.03426(25)
_cell_length_b                   10.9211(5)
_cell_length_c                   11.9179(6)
_cell_volume                     762.43(6)
_computing_structure_refinement  GSAS
_diffrn_radiation_polarisn_ratio 0.55
_diffrn_radiation_probe          x-ray
_exptl_absorpt_correction_T_max  1.00000
_exptl_absorpt_correction_T_min  1.00000
_exptl_absorpt_process_details
;   GSAS Absorption/surface roughness correction: function number 0
 No correction is applied.
;
_pd_block_id                     2009-05-29T18:07|SQ8B_NEW|Kotaro_Fujii|
_pd_calc_method                  'Rietveld Refinement'
_pd_instr_location               ' ?'
_pd_meas_2theta_range_inc        0.017
_pd_meas_2theta_range_max        69.909
_pd_meas_2theta_range_min        4.17
_pd_meas_number_of_points        3868
_pd_phase_name                   'sq8 b'
_pd_proc_2theta_range_inc        0.017
_pd_proc_2theta_range_max        69.72575
_pd_proc_2theta_range_min        3.98676
_pd_proc_info_datetime           2009-05-29T18:07:10
_pd_proc_info_excluded_regions   ' ?'
_pd_proc_ls_background_function
;   GSAS Background function number 7 with 36 terms.
 Linear interpolation
      1:    1932.81     2:    1483.41     3:    1423.24     4:    1278.55    
      5:    1351.30     6:    1632.29     7:    1375.77     8:    1410.17    
      9:    1262.01    10:    1059.45    11:    885.867    12:    777.232    
     13:    654.118    14:    602.445    15:    534.486    16:    539.778    
     17:    523.270    18:    403.113    19:    373.988    20:    377.487    
     21:    388.204    22:    367.595    23:    332.011    24:    305.118    
     25:    280.465    26:    265.026    27:    252.389    28:    235.924    
     29:    218.533    30:    210.059    31:    200.902    32:    200.334    
     33:    197.811    34:    184.524    35:    184.382    36:    183.946    
;
_pd_proc_ls_peak_cutoff          0.00500
_pd_proc_ls_pref_orient_corr
;   March-Dollase
 AXIS  1 Ratio=   0.92609  h= 2.000  k= 1.000  l= 0.000
 Prefered orientation correction range: Min=   0.89134, Max=   1.25866
;
_pd_proc_ls_profile_function
;
 CW Profile function number 3 with  19 terms
 Pseudovoigt profile coefficients as parameterized in
 P. Thompson, D.E. Cox & J.B. Hastings (1987). J. Appl. Cryst.,20,79-83.
 Asymmetry correction of L.W. Finger, D.E. Cox & A. P. Jephcoat (1994).
 J. Appl. Cryst.,27,892-900.
 Peak tails are ignored  where the intensity is below 0.0050 times the peak
   Aniso. broadening axis   0.0   0.0   1.0
;
_pd_proc_ls_prof_R_factor        0.0527
_pd_proc_ls_prof_wR_expected     0.0342
_pd_proc_ls_prof_wR_factor       0.0757
_pd_proc_number_of_points        3868
_pd_spec_mounting                ' ?'
_refine_ls_goodness_of_fit_all   2.30
_refine_ls_matrix_type           full
_refine_ls_number_parameters     167
_refine_ls_number_restraints     122
_refine_ls_R_Fsqd_factor         0.12563
_refine_ls_shift/su_max          0.09
_refine_ls_shift/su_mean         0.01
_reflns_d_resolution_high        1.349
_reflns_d_resolution_low         11.580
_reflns_limit_h_max              4
_reflns_limit_h_min              0
_reflns_limit_k_max              8
_reflns_limit_k_min              -8
_reflns_limit_l_max              8
_reflns_limit_l_min              -8
_reflns_number_total             1304
_cod_data_source_file            cg200772e_si_003.cif
_cod_data_source_block           SQ8B_NEW_publ
_cod_depositor_comments
;
The following automatic conversions were performed:

'_geom_bond_publ_flag' value 'N' changed to 'n' according to
/home/saulius/struct/CIF-dictionaries/cif_core.dic dictionary named
'cif_core.dic' version 2.4.1 from 2010-06-29 (140
times).

'_geom_angle_publ_flag' value 'N' changed to 'n' according
to /home/saulius/struct/CIF-dictionaries/cif_core.dic dictionary
named 'cif_core.dic' version 2.4.1 from 2010-06-29 (62 times).

Automatic conversion script
Id: cif_fix_values 1715 2011-07-08 13:25:40Z adriana 
;
_cod_original_cell_volume        762.42(8)
_cod_database_code               4501135
#BEGIN Tags that were not found in dictionaries:
_gsas_exptl_extinct_corr_t_min   1.00000
_gsas_exptl_extinct_corr_t_max   1.00000
#END Tags that were not found in dictionaries
loop_
_symmetry_equiv_pos_site_id
_symmetry_equiv_pos_as_xyz
1 +x,+y,+z
-1 -x,-y,-z
loop_
_atom_site_type_symbol
_atom_site_label
_atom_site_fract_x
_atom_site_fract_y
_atom_site_fract_z
_atom_site_occupancy
_atom_site_thermal_displace_type
_atom_site_U_iso_or_equiv
_atom_site_symmetry_multiplicity
N N1 0.8372(4) 0.9287(10) 0.7946(6) 1.0 Uiso 0.219(9) 2
C C2 0.8540(4) 1.0504(10) 0.8050(7) 1.0 Uiso 0.219(9) 2
C C3 0.8232(4) 1.1229(8) 0.7168(9) 1.0 Uiso 0.219(9) 2
C C4 0.7723(4) 1.0644(9) 0.6129(8) 1.0 Uiso 0.219(9) 2
C C5 0.7508(4) 0.9426(9) 0.5927(6) 1.0 Uiso 0.219(9) 2
C C6 0.7852(4) 0.8735(8) 0.6874(7) 1.0 Uiso 0.219(9) 2
C C7 0.7673(6) 0.7394(7) 0.6784(7) 1.0 Uiso 0.093(4) 2
N N8 0.6482(12) 0.6879(4) 0.5660(7) 1.0 Uiso 0.093(4) 2
C C9 0.7552(14) 0.6520(4) 0.4865(6) 1.0 Uiso 0.093(4) 2
C C10 1.0021(14) 0.6491(4) 0.4895(7) 1.0 Uiso 0.093(4) 2
O O11 1.1768(15) 0.6784(5) 0.5637(9) 1.0 Uiso 0.093(4) 2
O O12 1.0401(18) 0.5628(5) 0.2921(9) 1.0 Uiso 0.093(4) 2
C C13 0.9405(14) 0.5967(4) 0.3666(7) 1.0 Uiso 0.093(4) 2
C C14 0.6954(14) 0.6024(4) 0.3698(6) 1.0 Uiso 0.093(4) 2
N N15 0.5057(14) 0.5722(4) 0.2933(6) 1.0 Uiso 0.093(4) 2
C C16 0.4950(18) 0.5287(6) 0.1740(7) 1.0 Uiso 0.093(4) 2
C C17 0.4461(13) 0.6273(5) 0.0916(6) 1.0 Uiso 0.125(7) 2
N N18 0.2283(12) 0.6434(6) 0.0476(8) 1.0 Uiso 0.125(7) 2
C C19 0.1863(14) 0.7316(8) -0.0259(6) 1.0 Uiso 0.125(7) 2
C C20 0.3449(21) 0.8041(7) -0.0583(7) 1.0 Uiso 0.125(7) 2
C C21 0.5756(19) 0.7912(5) -0.0147(10) 1.0 Uiso 0.125(7) 2
C C22 0.6255(12) 0.7003(6) 0.0621(8) 1.0 Uiso 0.148(17) 2
H H23 0.8922(5) 1.0899(14) 0.8833(8) 1.0 Uiso 0.317(14) 2
H H24 0.8369(5) 1.2127(8) 0.7279(13) 1.0 Uiso 0.317(14) 2
H H25 0.7471(5) 1.1142(11) 0.5455(9) 1.0 Uiso 0.317(14) 2
H H26 0.7126(5) 0.9044(11) 0.5140(6) 1.0 Uiso 0.317(14) 2
H H27 0.9216(8) 0.7097(9) 0.6955(11) 1.0 Uiso 0.107(5) 2
H H28 0.6855(16) 0.7114(9) 0.7354(8) 1.0 Uiso 0.107(5) 2
H H29 0.6419(25) 0.4960(13) 0.1701(10) 1.0 Uiso 0.107(5) 2
H H30 0.3742(28) 0.4633(5) 0.1510(9) 1.0 Uiso 0.107(5) 2
H H31 0.0261(16) 0.7452(12) -0.0598(8) 1.0 Uiso 0.175(11) 2
H H32 0.2960(29) 0.8667(9) -0.1133(8) 1.0 Uiso 0.175(11) 2
H H33 0.6942(25) 0.8424(6) -0.0366(14) 1.0 Uiso 0.175(11) 2
H H34 0.7848(12) 0.6854(9) 0.0966(9) 1.0 Uiso 0.175(11) 2
H H35 0.3632(15) 0.5957(32) 0.3124(12) 1.0 Uiso 0.107(5) 2
H H36 0.4837(9) 0.6972(28) 0.5422(12) 1.0 Uiso 0.107(5) 2
loop_
_atom_type_symbol
_atom_type_number_in_cell
_atom_type_scat_dispersion_real
_atom_type_scat_dispersion_imag
_atom_type_scat_Cromer_Mann_a1
_atom_type_scat_Cromer_Mann_a2
_atom_type_scat_Cromer_Mann_a3
_atom_type_scat_Cromer_Mann_a4
_atom_type_scat_Cromer_Mann_b1
_atom_type_scat_Cromer_Mann_b2
_atom_type_scat_Cromer_Mann_b3
_atom_type_scat_Cromer_Mann_b4
_atom_type_scat_Cromer_Mann_c
_atom_type_scat_source
N 8.0 0.000 0.000 12.2126 0.00570 3.13220 9.89330 2.01250 28.9975 1.16630
0.58260 -11.529 International_Tables_Vol_C
C 32.0 0.000 0.000 2.31000 20.8439 1.02000 10.2075 1.58860 0.56870 0.86500
51.6512 0.21560 International_Tables_Vol_C
O 4.0 0.000 0.000 3.04850 13.2771 2.28680 5.70110 1.54630 0.32390 0.86700
32.9089 0.25080 International_Tables_Vol_C
H 28.0 0.000 0.000 0.49300 10.5109 0.32291 26.1257 0.14019 3.14236 0.04081
57.7997 0.00304 International_Tables_Vol_C
loop_
_diffrn_radiation_wavelength
_diffrn_radiation_wavelength_wt
_diffrn_radiation_type
_diffrn_radiation_wavelength_id
1.540600 1.000 K\a~1~ 1
1.540600 0.500 K\a~2~ 2
loop_
_geom_angle_atom_site_label_1
_geom_angle_atom_site_label_2
_geom_angle_atom_site_label_3
_geom_angle
_geom_angle_site_symmetry_1
_geom_angle_site_symmetry_3
_geom_angle_publ_flag
C2 N1 C6 118.03(28) 1_555 1_555 n
N1 C2 C3 124.81(21) 1_555 1_555 n
N1 C2 H23 117.58(17) 1_555 1_555 n
C3 C2 H23 117.61(16) 1_555 1_555 n
C2 C3 C4 114.98(17) 1_555 1_555 n
C2 C3 H24 122.54(19) 1_555 1_555 n
C4 C3 H24 122.48(18) 1_555 1_555 n
C3 C4 C5 125.09(17) 1_555 1_555 n
C3 C4 H25 117.73(14) 1_555 1_555 n
C5 C4 H25 117.17(18) 1_555 1_555 n
C4 C5 C6 116.89(19) 1_555 1_555 n
C4 C5 H26 121.51(16) 1_555 1_555 n
C6 C5 H26 121.60(15) 1_555 1_555 n
N1 C6 C5 120.20(26) 1_555 1_555 n
N1 C6 C7 116.9(4) 1_555 1_555 n
C5 C6 C7 122.9(4) 1_555 1_555 n
C6 C7 N8 113.51(27) 1_555 1_555 n
C6 C7 H27 108.45(16) 1_555 1_555 n
C6 C7 H28 108.38(19) 1_555 1_555 n
N8 C7 H27 108.41(17) 1_555 1_555 n
N8 C7 H28 108.40(24) 1_555 1_555 n
H27 C7 H28 109.65(17) 1_555 1_555 n
C7 N8 C9 122.4(4) 1_555 1_555 n
C7 N8 H36 118.04(18) 1_555 1_555 n
C9 N8 H36 118.07(18) 1_555 1_555 n
N8 C9 C10 131.06(35) 1_555 1_555 n
N8 C9 C14 137.23(35) 1_555 1_555 n
C10 C9 C14 91.71(24) 1_555 1_555 n
C9 C10 O11 133.95(35) 1_555 1_555 n
C9 C10 C13 88.64(24) 1_555 1_555 n
O11 C10 C13 137.41(33) 1_555 1_555 n
C10 C13 O12 137.7(4) 1_555 1_555 n
C10 C13 C14 88.41(23) 1_555 1_555 n
O12 C13 C14 133.9(4) 1_555 1_555 n
C9 C14 C13 91.24(24) 1_555 1_555 n
C9 C14 N15 135.95(31) 1_555 1_555 n
C13 C14 N15 132.81(32) 1_555 1_555 n
C14 N15 C16 124.1(4) 1_555 1_555 n
C14 N15 H35 117.39(20) 1_555 1_555 n
C16 N15 H35 117.34(18) 1_555 1_555 n
N15 C16 C17 112.92(28) 1_555 1_555 n
N15 C16 H29 108.51(20) 1_555 1_555 n
N15 C16 H30 108.68(23) 1_555 1_555 n
C17 C16 H29 108.66(16) 1_555 1_555 n
C17 C16 H30 108.49(19) 1_555 1_555 n
H29 C16 H30 109.54(18) 1_555 1_555 n
C16 C17 N18 116.1(4) 1_555 1_555 n
C16 C17 C22 121.7(4) 1_555 1_555 n
N18 C17 C22 122.20(26) 1_555 1_555 n
C17 N18 C19 115.64(26) 1_555 1_555 n
N18 C19 C20 125.82(19) 1_555 1_555 n
N18 C19 H31 117.19(15) 1_555 1_555 n
C20 C19 H31 117.00(15) 1_555 1_555 n
C19 C20 C21 120.93(17) 1_555 1_555 n
C19 C20 H32 119.48(15) 1_555 1_555 n
C21 C20 H32 119.60(15) 1_555 1_555 n
C20 C21 C22 114.81(16) 1_555 1_555 n
C20 C21 H33 122.64(15) 1_555 1_555 n
C22 C21 H33 122.55(16) 1_555 1_555 n
C17 C22 C21 120.61(18) 1_555 1_555 n
C17 C22 H34 119.70(15) 1_555 1_555 n
C21 C22 H34 119.69(14) 1_555 1_555 n
loop_
_geom_bond_atom_site_label_1
_geom_bond_atom_site_label_2
_geom_bond_distance
_geom_bond_site_symmetry_2
_geom_bond_publ_flag
N1 C2 1.3257(31) 1_555 n
N1 C6 1.3473(31) 1_555 n
N1 H23 1.9801(34) 1_555 n
C2 N1 1.3257(31) 1_555 n
C2 C3 1.3332(31) 1_555 n
C2 H23 0.9800(8) 1_555 n
C2 H24 2.0355(35) 1_555 n
C3 C2 1.3332(31) 1_555 n
C3 C4 1.3280(17) 1_555 n
C3 H23 1.9871(34) 1_555 n
C3 H24 0.9800(8) 1_555 n
C3 H25 1.9846(8) 1_555 n
C4 C3 1.3280(17) 1_555 n
C4 C5 1.3339(31) 1_555 n
C4 H24 2.0301(26) 1_555 n
C4 H25 0.9811(8) 1_555 n
C4 H26 2.0263(34) 1_555 n
C5 C4 1.3339(31) 1_555 n
C5 C6 1.3723(31) 1_555 n
C5 H25 1.984(4) 1_555 n
C5 H26 0.9800(8) 1_555 n
C6 N1 1.3473(31) 1_555 n
C6 C5 1.3723(31) 1_555 n
C6 C7 1.4594(31) 1_555 n
C6 H26 2.0622(34) 1_555 n
C6 H27 1.999(4) 1_555 n
C6 H28 1.998(4) 1_555 n
C7 C6 1.4594(31) 1_555 n
C7 N8 1.4407(32) 1_555 n
C7 H27 0.9801(8) 1_555 n
C7 H28 0.9800(8) 1_555 n
C7 H36 2.0889(33) 1_555 n
N8 C7 1.4407(32) 1_555 n
N8 C9 1.3151(31) 1_555 n
N8 H27 1.9819(33) 1_555 n
N8 H28 1.982(4) 1_555 n
N8 H36 0.9800(8) 1_555 n
C9 N8 1.3151(31) 1_555 n
C9 C10 1.4833(30) 1_555 n
C9 C13 2.086(4) 1_555 n
C9 C14 1.4259(30) 1_555 n
C9 H36 1.976(4) 1_555 n
C10 C9 1.4833(30) 1_555 n
C10 O11 1.2295(32) 1_555 n
C10 C13 1.5025(31) 1_555 n
C10 C14 2.088(5) 1_555 n
O11 C10 1.2295(32) 1_555 n
O11 H36 1.930(12) 1_655 n
O12 C13 1.2301(32) 1_555 n
O12 H35 1.924(12) 1_655 n
C13 C9 2.086(4) 1_555 n
C13 C10 1.5025(31) 1_555 n
C13 O12 1.2301(32) 1_555 n
C13 C14 1.4922(30) 1_555 n
C14 C9 1.4259(30) 1_555 n
C14 C10 2.088(5) 1_555 n
C14 C13 1.4922(30) 1_555 n
C14 N15 1.3074(31) 1_555 n
C14 H35 1.9618(31) 1_555 n
N15 C14 1.3074(31) 1_555 n
N15 C16 1.4615(32) 1_555 n
N15 H29 2.001(4) 1_555 n
N15 H30 2.004(4) 1_555 n
N15 H35 0.9800(8) 1_555 n
C16 N15 1.4615(32) 1_555 n
C16 C17 1.4895(31) 1_555 n
C16 H29 0.9800(8) 1_555 n
C16 H30 0.9800(8) 1_555 n
C17 C16 1.4895(31) 1_555 n
C17 N18 1.3229(31) 1_555 n
C17 C22 1.4345(31) 1_555 n
C17 H29 2.0280(33) 1_555 n
C17 H30 2.026(4) 1_555 n
N18 C17 1.3229(31) 1_555 n
N18 C19 1.3290(31) 1_555 n
N18 H31 1.9791(32) 1_555 n
C19 N18 1.3290(31) 1_555 n
C19 C20 1.3513(31) 1_555 n
C19 H31 0.9800(8) 1_555 n
C19 H32 2.0224(32) 1_555 n
C20 C19 1.3513(31) 1_555 n
C20 C21 1.3868(31) 1_555 n
C20 H31 1.9972(35) 1_555 n
C20 H32 0.9801(8) 1_555 n
C20 H33 2.0855(32) 1_555 n
C21 C20 1.3868(31) 1_555 n
C21 C22 1.3815(31) 1_555 n
C21 H32 2.056(4) 1_555 n
C21 H33 0.9800(8) 1_555 n
C21 H34 2.0518(32) 1_555 n
C22 C17 1.4345(31) 1_555 n
C22 C21 1.3815(31) 1_555 n
C22 H33 2.080(4) 1_555 n
C22 H34 0.9800(8) 1_555 n
H23 N1 1.9801(34) 1_555 n
H23 C2 0.9800(8) 1_555 n
H23 C3 1.9871(34) 1_555 n
H24 C2 2.0355(35) 1_555 n
H24 C3 0.9800(8) 1_555 n
H24 C4 2.0301(26) 1_555 n
H25 C3 1.9846(8) 1_555 n
H25 C4 0.9811(8) 1_555 n
H25 C5 1.984(4) 1_555 n
H26 C4 2.0263(34) 1_555 n
H26 C5 0.9800(8) 1_555 n
H26 C6 2.0622(34) 1_555 n
H27 C6 1.999(4) 1_555 n
H27 C7 0.9801(8) 1_555 n
H27 N8 1.9819(33) 1_555 n
H27 H28 1.6021(19) 1_555 n
H28 C6 1.998(4) 1_555 n
H28 C7 0.9800(8) 1_555 n
H28 N8 1.982(4) 1_555 n
H28 H27 1.6021(19) 1_555 n
H29 N15 2.001(4) 1_555 n
H29 C16 0.9800(8) 1_555 n
H29 C17 2.0280(33) 1_555 n
H29 H30 1.6010(20) 1_555 n
H30 N15 2.004(4) 1_555 n
H30 C16 0.9800(8) 1_555 n
H30 C17 2.026(4) 1_555 n
H30 H29 1.6010(20) 1_555 n
H31 N18 1.9791(32) 1_555 n
H31 C19 0.9800(8) 1_555 n
H31 C20 1.9972(35) 1_555 n
H32 C19 2.0224(32) 1_555 n
H32 C20 0.9801(8) 1_555 n
H32 C21 2.056(4) 1_555 n
H33 C20 2.0855(32) 1_555 n
H33 C21 0.9800(8) 1_555 n
H33 C22 2.080(4) 1_555 n
H34 C21 2.0518(32) 1_555 n
H34 C22 0.9800(8) 1_555 n
H35 O12 1.924(12) 1_455 n
H35 C14 1.9618(31) 1_555 n
H35 N15 0.9800(8) 1_555 n
H36 C7 2.0889(33) 1_555 n
H36 N8 0.9800(8) 1_555 n
H36 C9 1.976(4) 1_555 n
H36 O11 1.930(12) 1_455 n
loop_
_pd_meas_counts_total
_pd_proc_ls_weight
_pd_proc_intensity_bkg_calc
_pd_calc_intensity_total
1973.0 0.000507 1932.81006 1932.80994
1934.0 0.000517 1928.74146 1928.74133
1939.0 0.000516 1924.67297 1924.67273
1863.0 0.000537 1920.60449 1920.60425
1906.0 0.000525 1916.53589 1916.53564
1915.0 0.000522 1912.46729 1912.46704
1891.0 0.000529 1908.39868 1908.39832
1927.0 0.000519 1904.33020 1904.32983
1907.0 0.000524 1900.26172 1900.26135
1925.0 0.000519 1896.19312 1896.19275
1842.0 0.000543 1892.12463 1892.12402
1976.0 0.000506 1888.05603 1888.05542
1861.0 0.000537 1883.98755 1883.98694
1907.0 0.000524 1879.91907 1879.91846
1743.0 0.000574 1875.85046 1875.84973
1947.0 0.000514 1871.78186 1871.78113
1852.0 0.000540 1867.71338 1867.71265
1889.0 0.000529 1863.64478 1863.64404
1784.0 0.000561 1859.57629 1859.57544
1738.0 0.000575 1855.50769 1855.50684
1862.0 0.000537 1851.43909 1851.43823
1918.0 0.000521 1847.37061 1847.36975
1836.0 0.000545 1843.30200 1843.30103
1825.0 0.000548 1839.23352 1839.23254
1818.0 0.000550 1835.16492 1835.16394
1850.0 0.000541 1831.09644 1831.09546
1853.0 0.000540 1827.02783 1827.02673
1837.0 0.000544 1822.95935 1822.95825
1763.0 0.000567 1818.89075 1818.88965
1764.0 0.000567 1814.82214 1814.82104
1766.0 0.000566 1810.75366 1810.75244
1832.0 0.000546 1806.68518 1806.68384
1829.0 0.000547 1802.61670 1802.61536
1851.0 0.000540 1798.54810 1798.54663
1794.0 0.000557 1794.47961 1794.47815
1761.0 0.000568 1790.41101 1790.40955
1747.0 0.000572 1786.34241 1786.34094
1755.0 0.000570 1782.27393 1782.27234
1769.0 0.000565 1778.20532 1778.20374
1692.0 0.000591 1774.13684 1774.13525
1739.0 0.000575 1770.06824 1770.06665
1784.0 0.000561 1765.99963 1765.99792
1791.0 0.000558 1761.93115 1761.92944
1738.0 0.000575 1757.86267 1757.86096
1757.0 0.000569 1753.79407 1753.79236
1804.0 0.000554 1749.72546 1749.72363
1745.0 0.000573 1745.65686 1745.65503
1751.0 0.000571 1741.58838 1741.58655
1712.0 0.000584 1737.51990 1737.51807
1733.0 0.000577 1733.45129 1733.44934
1699.0 0.000589 1729.38269 1729.38074
1725.0 0.000580 1725.31421 1725.31213
1727.0 0.000579 1721.24573 1721.24365
1809.0 0.000553 1717.17725 1717.17505
1767.0 0.000566 1713.10864 1713.10645
1742.0 0.000574 1709.04004 1709.03784
1669.0 0.000599 1704.97144 1704.96924
1650.0 0.000606 1700.90283 1700.90051
1776.0 0.000563 1696.83447 1696.83215
1678.0 0.000596 1692.76599 1692.76367
1789.0 0.000559 1688.69727 1688.69495
1660.0 0.000602 1684.62891 1684.62646
1628.0 0.000614 1680.56006 1680.55762
1658.0 0.000603 1676.49170 1676.48926
1613.0 0.000620 1672.42322 1672.42065
1717.0 0.000582 1668.35449 1668.35193
1688.0 0.000592 1664.28613 1664.28357
1737.0 0.000576 1660.21741 1660.21484
1689.0 0.000592 1656.14893 1656.14624
1677.0 0.000596 1652.08044 1652.07776
1695.0 0.000590 1648.01184 1648.00903
1642.0 0.000609 1643.94336 1643.94067
1566.0 0.000639 1639.87476 1639.87183
1639.0 0.000610 1635.80627 1635.80334
1646.0 0.000608 1631.73779 1631.73486
1622.0 0.000617 1627.66907 1627.66614
1695.0 0.000590 1623.60071 1623.59766
1628.0 0.000614 1619.53198 1619.52893
1653.0 0.000605 1615.46350 1615.46045
1596.0 0.000627 1611.39514 1611.39197
1679.0 0.000596 1607.32629 1607.32312
1589.0 0.000629 1603.25793 1603.25476
1605.0 0.000623 1599.18921 1599.18604
1553.0 0.000644 1595.12073 1595.11755
1630.0 0.000613 1591.05237 1591.04907
1553.0 0.000644 1586.98364 1586.98035
1644.0 0.000608 1582.91516 1582.91187
1568.0 0.000638 1578.84644 1578.84314
1600.0 0.000625 1574.77795 1574.77454
1549.0 0.000646 1570.70959 1570.70618
1547.0 0.000646 1566.64087 1566.63745
1639.0 0.000610 1562.57239 1562.56885
1552.0 0.000644 1558.50378 1558.50012
1552.0 0.000644 1554.43530 1554.43164
1634.0 0.000612 1550.36694 1550.36328
1563.0 0.000640 1546.29822 1546.29443
1568.0 0.000638 1542.22974 1542.22595
1644.0 0.000608 1538.16101 1538.15723
1547.0 0.000646 1534.09253 1534.08875
1595.0 0.000627 1530.02417 1530.02026
1558.0 0.000642 1525.95544 1525.95154
1545.0 0.000647 1521.88696 1521.88306
1535.0 0.000651 1517.81824 1517.81433
1534.0 0.000652 1513.74988 1513.74585
1456.0 0.000687 1509.68140 1509.67737
1516.0 0.000660 1505.61267 1505.60864
1618.0 0.000618 1501.54419 1501.54016
1495.0 0.000669 1497.47546 1497.47131
1573.0 0.000636 1493.40710 1493.40295
1569.0 0.000637 1489.33862 1489.33447
1479.0 0.000676 1485.26990 1485.26575
1604.0 0.000623 1483.11438 1483.11011
1475.0 0.000678 1482.56958 1482.56543
1473.0 0.000679 1482.02490 1482.02087
1527.0 0.000655 1481.48010 1481.47620
1468.0 0.000681 1480.93542 1480.93152
1553.0 0.000644 1480.39063 1480.38696
1483.0 0.000674 1479.84595 1479.84229
1539.0 0.000650 1479.30115 1479.29773
1495.0 0.000669 1478.75647 1478.75305
1544.0 0.000648 1478.21167 1478.20837
1522.0 0.000657 1477.66699 1477.66382
1580.0 0.000633 1477.12219 1477.11914
1501.0 0.000666 1476.57751 1476.57446
1516.0 0.000660 1476.03271 1476.02991
1531.0 0.000653 1475.48804 1475.48523
1506.0 0.000664 1474.94324 1474.94067
1503.0 0.000665 1474.39856 1474.39600
1445.0 0.000692 1473.85376 1473.85132
1443.0 0.000693 1473.30908 1473.30676
1515.0 0.000660 1472.76428 1472.76208
1483.0 0.000674 1472.21960 1472.21741
1437.0 0.000696 1471.67480 1471.67285
1480.0 0.000676 1471.13013 1471.12817
1419.0 0.000705 1470.58545 1470.58350
1460.0 0.000685 1470.04065 1470.03894
1467.0 0.000682 1469.49597 1469.49426
1425.0 0.000702 1468.95117 1468.94958
1430.0 0.000699 1468.40649 1468.40503
1485.0 0.000673 1467.86169 1467.86035
1482.0 0.000675 1467.31689 1467.31567
1390.0 0.000719 1466.77222 1466.77112
1480.0 0.000676 1466.22754 1466.22644
1450.0 0.000690 1465.68274 1465.68188
1421.0 0.000704 1465.13806 1465.13721
1381.0 0.000724 1464.59326 1464.59253
1471.0 0.000680 1464.04858 1464.04797
1496.0 0.000668 1463.50378 1463.50330
1369.0 0.000730 1462.95911 1462.95862
1413.0 0.000708 1462.41431 1462.41406
1414.0 0.000707 1461.86963 1461.86938
1442.0 0.000693 1461.32483 1461.32471
1406.0 0.000711 1460.78015 1460.78015
1498.0 0.000668 1460.23535 1460.23547
1405.0 0.000712 1459.69067 1459.69092
1416.0 0.000706 1459.14587 1459.14624
1420.0 0.000704 1458.60120 1458.60156
1404.0 0.000712 1458.05640 1458.05688
1419.0 0.000705 1457.51172 1457.51233
1479.0 0.000676 1456.96704 1456.96765
1456.0 0.000687 1456.42224 1456.42310
1400.0 0.000714 1455.87756 1455.87842
1413.0 0.000708 1455.33276 1455.33374
1374.0 0.000728 1454.78796 1454.78918
1418.0 0.000705 1454.24329 1454.24451
1385.0 0.000722 1453.69861 1453.69983
1377.0 0.000726 1453.15381 1453.15527
1402.0 0.000713 1452.60901 1452.61060
1372.0 0.000729 1452.06433 1452.06604
1354.0 0.000739 1451.51965 1451.52136
1302.0 0.000768 1450.97485 1450.97668
1443.0 0.000693 1450.43018 1450.43213
1397.0 0.000716 1449.88538 1449.88745
1406.0 0.000711 1449.34070 1449.34277
1355.0 0.000738 1448.79590 1448.79822
1455.0 0.000687 1448.25122 1448.25354
1407.0 0.000711 1447.70642 1447.70886
1391.0 0.000719 1447.16174 1447.16431
1428.0 0.000700 1446.61694 1446.61963
1410.0 0.000709 1446.07227 1446.07507
1422.0 0.000703 1445.52747 1445.53040
1363.0 0.000734 1444.98279 1444.98572
1457.0 0.000686 1444.43799 1453.83582
1405.0 0.000712 1443.89331 1454.03027
1347.0 0.000742 1443.34851 1454.31982
1417.0 0.000706 1442.80383 1454.72339
1438.0 0.000695 1442.25916 1455.26367
1372.0 0.000729 1441.71436 1455.97131
1466.0 0.000682 1441.16956 1456.88647
1457.0 0.000686 1440.62488 1458.06372
1471.0 0.000680 1440.08008 1459.58069
1379.0 0.000725 1439.53540 1461.55103
1431.0 0.000699 1438.99060 1464.15479
1535.0 0.000651 1438.44592 1467.71851
1473.0 0.000679 1437.90125 1473.07471
1533.0 0.000652 1437.35645 1482.63831
1536.0 0.000651 1436.81177 1501.11682
1570.0 0.000637 1436.26697 1531.10461
1613.0 0.000620 1435.72229 1572.85315
1536.0 0.000651 1435.17749 1621.54724
1572.0 0.000636 1434.63281 1677.05127
1754.0 0.000570 1434.08801 1741.13000
1754.0 0.000570 1433.54333 1812.54199
1758.0 0.000569 1432.99854 1892.52063
1961.0 0.000510 1432.45386 1985.67505
1952.0 0.000512 1431.90906 2095.04614
2111.0 0.000474 1431.36438 2223.29932
2231.0 0.000448 1430.81958 2376.58740
2444.0 0.000409 1430.27490 2565.35327
2668.0 0.000375 1429.73022 2805.91748
3030.0 0.0003300 1429.18542 3127.72510
3603.0 0.0002775 1428.64063 3624.11328
4331.0 0.0002309 1428.09595 4333.92285
5392.0 0.0001855 1427.55115 5155.19727
5130.0 0.0001949 1427.00647 5109.08350
3660.0 0.0002732 1426.46167 3592.85278
2318.0 0.000431 1425.91699 2370.15967
1909.0 0.000524 1425.37219 1886.09631
1812.0 0.000552 1424.82751 1725.59729
1857.0 0.000539 1424.28284 1656.75586
1833.0 0.000546 1423.73804 1620.26819
1753.0 0.000570 1423.12769 1601.00745
1795.0 0.000557 1421.81775 1592.64746
1877.0 0.000533 1420.50781 1594.09998
1884.0 0.000531 1419.19800 1607.80286
1886.0 0.000530 1417.88806 1643.93713
1889.0 0.000529 1416.57813 1718.01660
1902.0 0.000526 1415.26819 1826.66052
2055.0 0.000487 1413.95825 1982.90588
2239.0 0.000447 1412.64832 2150.85547
2244.0 0.000446 1411.33850 2367.84082
2441.0 0.000410 1410.02856 2587.63452
2661.0 0.000376 1408.71863 2863.16528
2851.0 0.000351 1407.40869 3176.14282
3101.0 0.0003225 1406.09888 3523.75098
3542.0 0.0002823 1404.78882 3972.60400
4154.0 0.0002407 1403.47900 4479.89502
4698.0 0.0002129 1402.16895 5122.92090
5439.0 0.0001839 1400.85913 5973.09863
6769.0 0.0001477 1399.54919 7134.78076
8678.0 0.0001152 1398.23926 8842.04297
11533.0 0.0000867 1396.92932 11225.23535
13244.0 0.0000755 1395.61938 12961.17480
10661.0 0.0000938 1394.30957 10529.28711
5643.0 0.0001772 1392.99963 5893.53809
3187.0 0.0003138 1391.68970 3352.18140
2232.0 0.000448 1390.37976 2423.76099
2026.0 0.000494 1389.06982 2061.16064
1893.0 0.000528 1387.75989 1869.62073
1838.0 0.000544 1386.45007 1750.14844
1779.0 0.000562 1385.14001 1669.84705
1708.0 0.000585 1383.83020 1613.05164
1666.0 0.000600 1382.52014 1571.22314
1623.0 0.000616 1381.21033 1539.39417
1605.0 0.000623 1379.90051 1514.50122
1581.0 0.000633 1378.59045 1494.57446
1598.0 0.000626 1377.28064 1478.30334
1563.0 0.000640 1375.97058 1464.78113
1549.0 0.000646 1374.66077 1453.37024
1538.0 0.000650 1373.35083 1443.60632
1573.0 0.000636 1372.04089 1435.14685
1439.0 0.000695 1370.73096 1427.73596
1528.0 0.000654 1369.42102 1421.17590
1433.0 0.000698 1368.11108 1415.31543
1473.0 0.000679 1366.80127 1410.03418
1502.0 0.000666 1365.49121 1365.49133
1445.0 0.000692 1364.18140 1364.18140
1408.0 0.000710 1362.87134 1362.87122
1466.0 0.000682 1361.56152 1361.56116
1402.0 0.000713 1360.25171 1360.25110
1364.0 0.000733 1358.94165 1358.94092
1473.0 0.000679 1357.63184 1357.63098
1465.0 0.000683 1356.32178 1356.32080
1436.0 0.000696 1355.01196 1355.01074
1444.0 0.000693 1353.70203 1353.70068
1370.0 0.000730 1352.39209 1352.39063
1380.0 0.000725 1351.08215 1351.08057
1327.0 0.000754 1349.77222 1349.77039
1357.0 0.000737 1348.46228 1348.46033
1407.0 0.000711 1347.15247 1347.15039
1461.0 0.000684 1345.84241 1345.84021
1339.0 0.000747 1344.53259 1344.53015
1348.0 0.000742 1343.22253 1343.21997
1404.0 0.000712 1341.91272 1341.91003
1379.0 0.000725 1340.60291 1340.59998
1338.0 0.000747 1339.29285 1339.28979
1287.0 0.000777 1337.98303 1337.97974
1311.0 0.000763 1336.67310 1336.66968
1337.0 0.000748 1335.36316 1335.35962
1292.0 0.000774 1334.05322 1334.04956
1367.0 0.000732 1332.74329 1332.73938
1325.0 0.000755 1331.43335 1331.42944
1282.0 0.000780 1330.12341 1330.11926
1320.0 0.000758 1328.81348 1328.80920
1263.0 0.000792 1327.50366 1327.49915
1388.0 0.000720 1326.19360 1326.18896
1411.0 0.000709 1324.88379 1324.87903
1345.0 0.000743 1323.57385 1323.56885
1261.0 0.000793 1322.26392 1322.25879
1313.0 0.000762 1320.95410 1320.94885
1346.0 0.000743 1319.64404 1319.63867
1278.0 0.000782 1318.33423 1318.32861
1300.0 0.000769 1317.02429 1317.01855
1297.0 0.000771 1315.71436 1315.70837
1344.0 0.000744 1314.40442 1314.39844
1326.0 0.000754 1313.09448 1313.08826
1390.0 0.000719 1311.78455 1311.77820
1327.0 0.000754 1310.47461 1310.46814
1352.0 0.000740 1309.16467 1309.15808
1257.0 0.000796 1307.85486 1307.84802
1290.0 0.000775 1306.54492 1306.53796
1272.0 0.000786 1305.23499 1305.22778
1223.0 0.000818 1303.92505 1303.91772
1240.0 0.000806 1302.61511 1302.60767
1244.0 0.000804 1301.30530 1301.29761
1356.0 0.000737 1299.99536 1299.98755
1303.0 0.000767 1298.68542 1298.67749
1256.0 0.000796 1297.37549 1297.36731
1320.0 0.000758 1296.06555 1296.05725
1244.0 0.000804 1294.75562 1294.74719
1266.0 0.000790 1293.44568 1293.43713
1321.0 0.000757 1292.13574 1292.12708
1233.0 0.000811 1290.82581 1290.81702
1337.0 0.000748 1289.51599 1289.50696
1270.0 0.000787 1288.20605 1288.19690
1288.0 0.000776 1286.89612 1286.88672
1259.0 0.000794 1285.58618 1285.57666
1260.0 0.000794 1284.27625 1284.26660
1315.0 0.000760 1282.96643 1282.95654
1234.0 0.000810 1281.65649 1281.64648
1319.0 0.000758 1280.34656 1280.33643
1253.0 0.000798 1279.03662 1279.02625
1222.0 0.000818 1278.96411 1278.95398
1301.0 0.000769 1279.62268 1279.61304
1257.0 0.000796 1280.28125 1280.27209
1280.0 0.000781 1280.93994 1280.93127
1225.0 0.000816 1281.59851 1281.59033
1326.0 0.000754 1282.25720 1282.24939
1266.0 0.000790 1282.91577 1282.90845
1249.0 0.000801 1283.57446 1283.56763
1259.0 0.000794 1284.23303 1284.22668
1338.0 0.000747 1284.89160 1284.88574
1296.0 0.000772 1285.55029 1285.54492
1339.0 0.000747 1286.20886 1286.20398
1261.0 0.000793 1286.86755 1286.86304
1241.0 0.000806 1287.52625 1287.52209
1273.0 0.000786 1288.18481 1288.18115
1268.0 0.000789 1288.84351 1288.84033
1289.0 0.000776 1289.50208 1289.49939
1342.0 0.000745 1290.16064 1290.15857
1299.0 0.000770 1290.81934 1290.81763
1238.0 0.000808 1291.47791 1291.47668
1346.0 0.000743 1292.13660 1292.13586
1331.0 0.000751 1292.79517 1292.79492
1369.0 0.000730 1293.45386 1293.45398
1300.0 0.000769 1294.11243 1294.11304
1282.0 0.000780 1294.77100 1294.77209
1330.0 0.000752 1295.42969 1295.43127
1310.0 0.000763 1296.08838 1296.09033
1284.0 0.000779 1296.74695 1296.74951
1367.0 0.000732 1297.40564 1297.40857
1298.0 0.000770 1298.06421 1298.06763
1318.0 0.000759 1298.72290 1298.72668
1258.0 0.000795 1299.38147 1299.38586
1273.0 0.000786 1300.04016 1300.04492
1342.0 0.000745 1300.69873 1300.70398
1272.0 0.000786 1301.35730 1301.36304
1306.0 0.000766 1302.01599 1302.02222
1244.0 0.000804 1302.67468 1302.68127
1314.0 0.000761 1303.33325 1303.34033
1302.0 0.000768 1303.99182 1303.99951
1357.0 0.000737 1304.65039 1304.65857
1239.0 0.000807 1305.30908 1305.31763
1307.0 0.000765 1305.96777 1305.97681
1308.0 0.000765 1306.62634 1306.63586
1243.0 0.000805 1307.28503 1307.29492
1265.0 0.000791 1307.94360 1308.48035
1273.0 0.000786 1308.60229 1309.19641
1272.0 0.000786 1309.26086 1309.92236
1420.0 0.000704 1309.91956 1310.66138
1319.0 0.000758 1310.57813 1311.41687
1338.0 0.000747 1311.23669 1312.19482
1373.0 0.000728 1311.89539 1313.00330
1284.0 0.000779 1312.55408 1313.85559
1324.0 0.000755 1313.21265 1314.77576
1292.0 0.000774 1313.87122 1315.82202
1265.0 0.000791 1314.52991 1317.18860
1308.0 0.000765 1315.18848 1319.30176
1289.0 0.000776 1315.84717 1322.33411
1247.0 0.000802 1316.50574 1326.41028
1257.0 0.000796 1317.16443 1331.13025
1357.0 0.000737 1317.82300 1336.53406
1300.0 0.000769 1318.48169 1343.09106
1362.0 0.000734 1319.14026 1350.99634
1333.0 0.000750 1319.79895 1360.58582
1322.0 0.000756 1320.45752 1372.84790
1425.0 0.000702 1321.11609 1389.62183
1392.0 0.000718 1321.77478 1414.88464
1325.0 0.000755 1322.43347 1453.79773
1300.0 0.000769 1323.09204 1485.62927
1399.0 0.000715 1323.75061 1440.08435
1299.0 0.000770 1324.40930 1371.24194
1327.0 0.000754 1325.06787 1343.64551
1358.0 0.000736 1325.72656 1335.93738
1356.0 0.000737 1326.38513 1333.15479
1319.0 0.000758 1327.04382 1331.89673
1387.0 0.000721 1327.70239 1331.36047
1256.0 0.000796 1328.36108 1331.22290
1338.0 0.000747 1329.01965 1331.32385
1316.0 0.000760 1329.67834 1331.57605
1300.0 0.000769 1330.33691 1335.03821
1386.0 0.000722 1330.99548 1335.68726
1369.0 0.000730 1331.65417 1336.41211
1374.0 0.000728 1332.31287 1337.20374
1362.0 0.000734 1332.97144 1338.05798
1362.0 0.000734 1333.63000 1338.97437
1367.0 0.000732 1334.28870 1339.95630
1351.0 0.000740 1334.94727 1341.01013
1349.0 0.000741 1335.60596 1342.14465
1385.0 0.000722 1336.26453 1343.37378
1358.0 0.000736 1336.92322 1344.71619
1353.0 0.000739 1337.58179 1346.19751
1408.0 0.000710 1338.24048 1347.46619
1409.0 0.000710 1338.89905 1349.37732
1386.0 0.000722 1339.55774 1351.58240
1379.0 0.000725 1340.21631 1354.19202
1328.0 0.000753 1340.87488 1357.38257
1365.0 0.000733 1341.53357 1361.47632
1379.0 0.000725 1342.19226 1367.21924
1439.0 0.000695 1342.85083 1376.44421
1392.0 0.000718 1343.50940 1392.29773
1448.0 0.000691 1344.16809 1415.40063
1455.0 0.000687 1344.82666 1445.98413
1422.0 0.000703 1345.48535 1487.85779
1469.0 0.000681 1346.14392 1532.70703
1538.0 0.000650 1346.80261 1594.43433
1485.0 0.000673 1347.46118 1663.96472
1624.0 0.000616 1348.11987 1757.52771
1677.0 0.000596 1348.77844 1882.92065
1758.0 0.000569 1349.43713 2055.09058
1982.0 0.000505 1350.09570 2288.87134
2065.0 0.000484 1350.75427 2473.23877
1920.0 0.000521 1351.73621 2294.96606
1724.0 0.000580 1354.28027 1863.84436
1539.0 0.000650 1356.82397 1599.71912
1561.0 0.000641 1359.36780 1490.90625
1453.0 0.000688 1361.91162 1446.60059
1464.0 0.000683 1364.45557 1424.59705
1488.0 0.000672 1366.99963 1412.06458
1475.0 0.000678 1369.54346 1404.60193
1447.0 0.000691 1372.08716 1400.15918
1436.0 0.000696 1374.63110 1397.63000
1381.0 0.000724 1377.17505 1396.37183
1478.0 0.000677 1379.71912 1395.99170
1432.0 0.000698 1382.26282 1396.23730
1489.0 0.000672 1384.80664 1396.94141
1454.0 0.000688 1387.35046 1397.98926
1406.0 0.000711 1389.89441 1399.29980
1464.0 0.000683 1392.43848 1400.81494
1506.0 0.000664 1394.98230 1402.49097
1441.0 0.000694 1397.52600 1404.29639
1480.0 0.000676 1400.06995 1406.20642
1460.0 0.000685 1402.61389 1408.20227
1452.0 0.000689 1405.15784 1410.26904
1434.0 0.000697 1407.70166 1407.73279
1509.0 0.000663 1410.24548 1410.27600
1452.0 0.000689 1412.78918 1412.81934
1460.0 0.000685 1415.33325 1415.36304
1464.0 0.000683 1417.87732 1417.90662
1456.0 0.000687 1420.42102 1420.44995
1451.0 0.000689 1422.96484 1422.99329
1458.0 0.000686 1425.50867 1425.53650
1466.0 0.000682 1428.05273 1428.08020
1536.0 0.000651 1430.59668 1430.62378
1503.0 0.000665 1433.14050 1433.16711
1479.0 0.000676 1435.68433 1435.71045
1523.0 0.000657 1438.22803 1438.25366
1516.0 0.000660 1440.77209 1440.79736
1458.0 0.000686 1443.31616 1443.34094
1473.0 0.000679 1445.85986 1445.88428
1473.0 0.000679 1448.40369 1448.42761
1502.0 0.000666 1450.94751 1450.97095
1537.0 0.000651 1453.49146 1453.51453
1482.0 0.000675 1456.03540 1456.05798
1508.0 0.000663 1458.57935 1458.60144
1540.0 0.000649 1461.12305 1461.14478
1526.0 0.000655 1463.66687 1463.68811
1460.0 0.000685 1466.21094 1466.23169
1551.0 0.000645 1468.75488 1468.77515
1496.0 0.000668 1471.29871 1471.31860
1482.0 0.000675 1473.84253 1473.86194
1557.0 0.000642 1476.38635 1476.40527
1447.0 0.000691 1478.93030 1478.94885
1476.0 0.000678 1481.47424 1481.49231
1527.0 0.000655 1484.01819 1484.03577
1584.0 0.000631 1486.56189 1486.57910
1552.0 0.000644 1489.10571 1489.12244
1586.0 0.000631 1491.64978 1491.66602
1424.0 0.000702 1494.19373 1494.20947
1505.0 0.000664 1496.73755 1496.75293
1518.0 0.000659 1499.28137 1499.29626
1534.0 0.000652 1501.82507 1501.83960
1594.0 0.000627 1504.36914 1504.38318
1557.0 0.000642 1506.91309 1506.92664
1475.0 0.000678 1509.45703 1509.47009
1554.0 0.000644 1512.00073 1512.01343
1523.0 0.000657 1514.54456 1514.55676
1484.0 0.000674 1517.08862 1517.10034
1606.0 0.000623 1519.63257 1519.64380
1598.0 0.000626 1522.17639 1522.18726
1528.0 0.000654 1524.72021 1524.73059
1522.0 0.000657 1527.26392 1527.27393
1551.0 0.000645 1529.80798 1529.81750
1548.0 0.000646 1532.35193 1532.36096
1544.0 0.000648 1534.89587 1534.90454
1529.0 0.000654 1537.43958 1537.44775
1531.0 0.000653 1539.98340 1539.99109
1550.0 0.000645 1542.52747 1542.53467
1601.0 0.000625 1545.07141 1545.07825
1525.0 0.000656 1547.61511 1547.62146
1526.0 0.000655 1550.15906 1550.16492
1539.0 0.000650 1552.70276 1552.70825
1512.0 0.000661 1555.24683 1555.25195
1603.0 0.000624 1557.79077 1557.79541
1568.0 0.000638 1560.33459 1560.33875
1573.0 0.000636 1562.87842 1562.88220
1534.0 0.000652 1565.42224 1565.42542
1568.0 0.000638 1567.96631 1567.96912
1643.0 0.000609 1570.51013 1570.51257
1613.0 0.000620 1573.05396 1573.05591
1495.0 0.000669 1575.59790 1575.59937
1585.0 0.000631 1578.14160 1578.14270
1545.0 0.000647 1580.68567 1580.68628
1539.0 0.000650 1583.22961 1583.22974
1554.0 0.000644 1585.77344 1585.77307
1600.0 0.000625 1588.31726 1588.31653
1534.0 0.000652 1590.86108 1590.85986
1587.0 0.000630 1593.40503 1593.40332
1548.0 0.000646 1595.94897 1595.94690
1572.0 0.000636 1598.49280 1598.49023
1537.0 0.000651 1601.03674 1601.03369
1571.0 0.000637 1603.58044 1603.57703
1505.0 0.000664 1606.12439 1606.12048
1592.0 0.000628 1608.66846 1608.66406
1558.0 0.000642 1611.21216 1611.20740
1502.0 0.000666 1613.75610 1613.75085
1576.0 0.000635 1616.29993 1616.29419
1559.0 0.000641 1618.84375 1618.83765
1622.0 0.000617 1621.38782 1621.38123
1535.0 0.000651 1623.93164 1623.92456
1551.0 0.000645 1626.47559 1626.46802
1567.0 0.000638 1629.01929 1629.01135
1621.0 0.000617 1631.56323 1631.55481
1573.0 0.000636 1630.63110 1630.62256
1520.0 0.000658 1628.30884 1628.30042
1592.0 0.000628 1625.98657 1625.97827
1583.0 0.000632 1623.66418 1623.65601
1510.0 0.000662 1621.34180 1621.33374
1529.0 0.000654 1619.01929 1619.01135
1519.0 0.000658 1616.69702 1616.68933
1595.0 0.000627 1614.37476 1614.36719
1570.0 0.000637 1612.05249 1612.04492
1532.0 0.000653 1609.73010 1609.72266
1589.0 0.000629 1607.40759 1607.40027
1591.0 0.000629 1605.08533 1605.07813
1646.0 0.000608 1602.76306 1602.75598
1558.0 0.000642 1600.44067 1600.43372
1535.0 0.000651 1598.11829 1598.11145
1539.0 0.000650 1595.79578 1595.78906
1551.0 0.000645 1593.47351 1593.46692
1605.0 0.000623 1591.15137 1591.14478
1527.0 0.000655 1588.82898 1588.82251
1518.0 0.000659 1586.50659 1586.50024
1561.0 0.000641 1584.18408 1584.17786
1610.0 0.000621 1581.86182 1581.85571
1534.0 0.000652 1579.53955 1579.53357
1640.0 0.000610 1577.21716 1577.21130
1518.0 0.000659 1574.89478 1574.88904
1531.0 0.000653 1572.57227 1572.56665
1601.0 0.000625 1570.25000 1570.24451
1570.0 0.000637 1567.92786 1567.92236
1626.0 0.000615 1565.60547 1565.60010
1591.0 0.000629 1563.28308 1563.27795
1502.0 0.000666 1560.96057 1560.95544
1592.0 0.000628 1558.63831 1558.63342
1576.0 0.000635 1556.31604 1556.31128
1564.0 0.000639 1553.99365 1553.98901
1521.0 0.000657 1551.67126 1551.66675
1489.0 0.000672 1549.34875 1549.34436
1556.0 0.000643 1547.02661 1547.02222
1543.0 0.000648 1544.70435 1544.70007
1480.0 0.000676 1542.38208 1542.37793
1522.0 0.000657 1540.05957 1540.05554
1538.0 0.000650 1537.73706 1537.73315
1556.0 0.000643 1535.41479 1535.41101
1520.0 0.000658 1533.09253 1533.08887
1442.0 0.000693 1530.77026 1530.76672
1586.0 0.000631 1528.44775 1528.44434
1545.0 0.000647 1526.12524 1526.12195
1578.0 0.000634 1523.80310 1523.79980
1539.0 0.000650 1521.48083 1521.47766
1532.0 0.000653 1519.15857 1519.15552
1554.0 0.000644 1516.83606 1516.83313
1472.0 0.000679 1514.51355 1514.51074
1533.0 0.000652 1512.19128 1512.18860
1554.0 0.000644 1509.86902 1509.86646
1561.0 0.000641 1507.54688 1507.54443
1528.0 0.000654 1505.22437 1505.22205
1523.0 0.000657 1502.90198 1502.89978
1530.0 0.000654 1500.57959 1500.57751
1501.0 0.000666 1498.25732 1498.25537
1510.0 0.000662 1495.93506 1495.93323
1523.0 0.000657 1493.61255 1493.61084
1497.0 0.000668 1491.29016 1491.28857
1533.0 0.000652 1488.96777 1488.96631
1484.0 0.000674 1486.64551 1486.64417
1503.0 0.000665 1484.32336 1484.32202
1462.0 0.000684 1482.00085 1481.99963
1564.0 0.000639 1479.67847 1479.67737
1561.0 0.000641 1477.35608 1477.35510
1540.0 0.000649 1475.03381 1475.03296
1587.0 0.000630 1472.71155 1473.21777
1532.0 0.000653 1470.38904 1470.92151
1437.0 0.000696 1468.06665 1468.62756
1537.0 0.000651 1465.74426 1466.33569
1530.0 0.000654 1463.42212 1464.04663
1511.0 0.000662 1461.09985 1461.76025
1523.0 0.000657 1458.77734 1459.47705
1537.0 0.000651 1456.45496 1457.19739
1496.0 0.000668 1454.13257 1454.92175
1460.0 0.000685 1451.81030 1452.65088
1489.0 0.000672 1449.48804 1450.38525
1506.0 0.000664 1447.16553 1448.12524
1540.0 0.000649 1444.84314 1448.70251
1514.0 0.000661 1442.52075 1446.65588
1453.0 0.000688 1440.19861 1444.64014
1508.0 0.000663 1437.87634 1442.66003
1546.0 0.000647 1435.55383 1440.72119
1567.0 0.000638 1433.23145 1438.83081
1562.0 0.000640 1430.90906 1436.99768
1592.0 0.000628 1428.58679 1435.23254
1583.0 0.000632 1426.26453 1433.54858
1540.0 0.000649 1423.94202 1431.96313
1524.0 0.000656 1421.61963 1430.49866
1495.0 0.000669 1419.29749 1429.18457
1539.0 0.000650 1416.97510 1428.05811
1563.0 0.000640 1414.65283 1427.16614
1554.0 0.000644 1412.33032 1426.57874
1650.0 0.000606 1410.00793 1426.39172
1710.0 0.000585 1407.68567 1426.73218
1829.0 0.000547 1405.36328 1427.81628
2021.0 0.000495 1403.04102 1429.95935
2035.0 0.000491 1400.71851 1433.72534
1982.0 0.000505 1398.39624 1440.16992
1785.0 0.000560 1396.07397 1451.59644
1674.0 0.000597 1393.75159 1472.63708
1536.0 0.000651 1391.42932 1509.11560
1596.0 0.000627 1389.10681 1564.53796
1605.0 0.000623 1386.78442 1646.71667
1568.0 0.000638 1384.46216 1761.78040
1673.0 0.000598 1382.13977 1903.05908
1549.0 0.000646 1379.81763 2098.27734
1622.0 0.000617 1377.49524 2357.62744
1773.0 0.000564 1375.85010 2657.06958
1749.0 0.000572 1376.16150 2853.04346
1697.0 0.000589 1376.47302 2626.34985
1611.0 0.000621 1376.78442 2082.97876
1539.0 0.000650 1377.09583 1708.88257
1557.0 0.000642 1377.40735 1546.41882
1499.0 0.000667 1377.71875 1483.14551
1483.0 0.000674 1378.03015 1452.78748
1458.0 0.000686 1378.34155 1434.60242
1497.0 0.000668 1378.65295 1422.58167
1508.0 0.000663 1378.96448 1414.23291
1465.0 0.000683 1379.27588 1408.22717
1463.0 0.000684 1379.58728 1403.78735
1464.0 0.000683 1379.89868 1400.43359
1423.0 0.000703 1380.21021 1397.85767
1405.0 0.000712 1380.52161 1395.85339
1498.0 0.000668 1380.83301 1394.27869
1479.0 0.000676 1381.14441 1393.03345
1495.0 0.000669 1381.45593 1392.04443
1437.0 0.000696 1381.76733 1391.25879
1528.0 0.000654 1382.07874 1390.63574
1491.0 0.000671 1382.39026 1390.14465
1483.0 0.000674 1382.70166 1389.76147
1469.0 0.000681 1383.01306 1389.46826
1352.0 0.000740 1383.32446 1389.24951
1425.0 0.000702 1383.63599 1389.09387
1411.0 0.000709 1383.94739 1388.99146
1404.0 0.000712 1384.25879 1389.86108
1431.0 0.000699 1384.57019 1389.90662
1415.0 0.000707 1384.88171 1389.99280
1402.0 0.000713 1385.19312 1390.11597
1470.0 0.000680 1385.50452 1386.73206
1434.0 0.000697 1385.81592 1387.14111
1394.0 0.000717 1386.12744 1387.56213
1466.0 0.000682 1386.43884 1387.99756
1387.0 0.000721 1386.75024 1388.45007
1325.0 0.000755 1387.06177 1388.92261
1464.0 0.000683 1387.37317 1389.41968
1422.0 0.000703 1387.68457 1389.94592
1458.0 0.000686 1387.99597 1390.50867
1412.0 0.000708 1388.30750 1391.11633
1372.0 0.000729 1388.61890 1391.78040
1383.0 0.000723 1388.93030 1392.51672
1421.0 0.000704 1389.24170 1393.34680
1422.0 0.000703 1389.55322 1394.30139
1444.0 0.000693 1389.86462 1395.42542
1391.0 0.000719 1390.17603 1396.78711
1349.0 0.000741 1390.48743 1398.50049
1403.0 0.000713 1390.79895 1400.79431
1381.0 0.000724 1391.11035 1404.21069
1446.0 0.000692 1391.42175 1409.91809
1423.0 0.000703 1391.73315 1419.76624
1361.0 0.000735 1392.04468 1435.17566
1370.0 0.000730 1392.35608 1456.83240
1396.0 0.000716 1392.66748 1488.31580
1456.0 0.000687 1392.97900 1534.28345
1464.0 0.000683 1393.29041 1593.64148
1430.0 0.000699 1393.60181 1670.59973
1531.0 0.000653 1393.91321 1749.33850
1452.0 0.000689 1394.22473 1765.31409
1484.0 0.000674 1394.53613 1668.04639
1328.0 0.000753 1394.84753 1548.35339
1457.0 0.000686 1395.15894 1476.62085
1438.0 0.000695 1395.47034 1445.05017
1349.0 0.000741 1395.78186 1432.33350
1423.0 0.000703 1396.09326 1426.61047
1350.0 0.000741 1396.40466 1423.80017
1435.0 0.000697 1396.71619 1422.62634
1449.0 0.000690 1397.02759 1424.97351
1413.0 0.000708 1397.33899 1425.94958
1357.0 0.000737 1397.65039 1427.74670
1345.0 0.000743 1397.96191 1435.81506
1381.0 0.000724 1398.27332 1439.94189
1385.0 0.000722 1398.58472 1445.32214
1376.0 0.000727 1398.89612 1452.35388
1432.0 0.000698 1399.20764 1461.73987
1497.0 0.000668 1399.51904 1474.88525
1495.0 0.000669 1399.83044 1494.74536
1458.0 0.000686 1400.14185 1526.77246
1554.0 0.000644 1400.45337 1578.74878
1687.0 0.000593 1400.76477 1657.02161
1827.0 0.000547 1401.07617 1756.62305
1872.0 0.000534 1401.38757 1898.05603
2085.0 0.000480 1401.69910 2112.52832
2209.0 0.000453 1402.01050 2367.13257
2418.0 0.000414 1402.32202 2668.00928
2512.0 0.000398 1402.63342 2927.80469
2594.0 0.000386 1402.94482 2933.50977
2654.0 0.000377 1403.25623 2655.43188
2515.0 0.000398 1403.56763 2384.51099
2703.0 0.000370 1403.87915 2304.98242
3067.0 0.0003261 1404.19055 2432.36230
3612.0 0.0002769 1404.50195 2748.97021
4014.0 0.0002491 1404.81335 3120.16699
4132.0 0.0002420 1405.12488 3142.40820
3375.0 0.0002963 1405.43628 2576.37646
2579.0 0.000388 1405.74768 1989.58447
2073.0 0.000482 1406.05908 1693.22351
1701.0 0.000588 1406.37061 1646.26404
1738.0 0.000575 1406.68201 1614.96582
1618.0 0.000618 1406.99341 1608.19861
1627.0 0.000615 1407.30493 1617.22168
1601.0 0.000625 1407.61633 1643.03503
1684.0 0.000594 1407.92773 1689.89258
1738.0 0.000575 1408.23914 1756.02930
1831.0 0.000546 1408.55066 1847.28894
1890.0 0.000529 1408.86206 1980.63184
1977.0 0.000506 1409.17346 2143.30078
2140.0 0.000467 1409.48486 2320.10791
2178.0 0.000459 1409.79639 2466.02783
2061.0 0.000485 1410.10779 2465.11499
2067.0 0.000484 1409.09692 2288.37207
1796.0 0.000557 1407.75562 2066.35718
1696.0 0.000590 1406.41431 1913.48230
1668.0 0.000600 1405.07300 1837.90320
1719.0 0.000582 1403.73145 1816.97998
1667.0 0.000600 1402.39026 1830.60767
1770.0 0.000565 1401.04895 1869.03491
1873.0 0.000534 1399.70776 1926.59375
1940.0 0.000515 1398.36621 2020.25146
2168.0 0.000461 1397.02490 2161.88696
2349.0 0.000426 1395.68347 2385.66382
2829.0 0.000353 1394.34229 2748.99805
3367.0 0.0002970 1393.00098 3330.38379
4087.0 0.0002447 1391.65967 4192.67725
5417.0 0.0001846 1390.31812 5353.75244
7174.0 0.0001394 1388.97693 7028.50488
9651.0 0.0001036 1387.63562 9328.35156
12651.0 0.0000790 1386.29431 11919.69629
14750.0 0.0000678 1384.95288 14508.09766
15114.0 0.0000662 1383.61145 15605.90430
13212.0 0.0000757 1382.27014 13876.29199
10569.0 0.0000946 1380.92896 10459.09473
7840.0 0.0001276 1379.58765 7520.23584
5640.0 0.0001773 1378.24622 5471.85986
4070.0 0.0002457 1376.90491 4041.07202
3032.0 0.0003298 1375.56360 3129.40942
2512.0 0.000398 1374.22217 2591.09961
2277.0 0.000439 1372.88098 2273.86646
2024.0 0.000494 1371.53955 2072.98315
1967.0 0.000508 1370.19812 1935.68311
1961.0 0.000510 1368.85681 1836.43152
1783.0 0.000561 1367.51563 1761.51831
1752.0 0.000571 1366.17419 1703.11890
1749.0 0.000572 1364.83289 1656.50916
1654.0 0.000605 1363.49158 1618.63025
1738.0 0.000575 1362.15015 1587.38184
1713.0 0.000584 1360.80884 1561.24463
1650.0 0.000606 1359.46765 1539.03320
1616.0 0.000619 1358.12610 1519.78479
1588.0 0.000630 1356.78479 1502.89648
1603.0 0.000624 1355.44348 1485.11462
1566.0 0.000639 1354.10229 1472.29089
1510.0 0.000662 1352.76086 1460.97754
1524.0 0.000656 1351.41956 1467.21716
1514.0 0.000661 1350.07825 1498.79858
1537.0 0.000651 1348.73682 1494.48792
1438.0 0.000695 1347.39551 1491.32532
1509.0 0.000663 1346.05432 1489.26733
1590.0 0.000629 1344.71277 1488.29810
1425.0 0.000702 1343.37146 1488.43274
1491.0 0.000671 1342.03003 1433.37329
1502.0 0.000666 1340.68884 1439.27002
1482.0 0.000675 1339.34753 1446.19788
1430.0 0.000699 1338.00623 1454.34412
1481.0 0.000675 1336.66479 1463.94128
1527.0 0.000655 1335.32349 1472.66162
1479.0 0.000676 1333.98218 1486.28467
1490.0 0.000671 1332.64099 1502.51196
1488.0 0.000672 1331.29944 1521.99170
1511.0 0.000662 1329.95813 1549.23181
1593.0 0.000628 1328.61694 1578.29797
1580.0 0.000633 1327.27551 1614.29932
1646.0 0.000608 1325.93420 1659.56787
1679.0 0.000596 1324.59277 1717.58411
1741.0 0.000574 1323.25146 1793.97583
1816.0 0.000551 1321.91016 1899.20752
2099.0 0.000476 1320.56873 2054.93945
2362.0 0.000423 1319.22754 2304.37695
2907.0 0.0003440 1317.88611 2721.27124
3521.0 0.0002840 1316.54468 3405.99097
4396.0 0.0002275 1315.20349 4450.66504
6077.0 0.0001646 1313.86218 5947.77979
8003.0 0.0001250 1312.52087 8109.95166
11260.0 0.0000888 1311.17944 11008.10254
14859.0 0.0000673 1309.83813 14227.63379
17841.0 0.0000561 1308.49683 16835.16211
17948.0 0.0000557 1307.15540 16978.64648
14453.0 0.0000692 1305.81421 13875.72461
9752.0 0.0001025 1304.47290 9483.35059
6060.0 0.0001650 1303.13135 6059.85938
3991.0 0.0002506 1301.79016 4045.19653
3003.0 0.0003330 1300.44885 3014.38452
2441.0 0.000410 1299.10742 2494.06934
2114.0 0.000473 1297.76611 2201.66724
1990.0 0.000503 1296.42480 2013.86523
1860.0 0.000538 1295.08337 1882.67932
1802.0 0.000555 1293.74207 1787.21545
1701.0 0.000588 1292.40088 1716.35303
1700.0 0.000588 1291.05957 1663.43628
1738.0 0.000575 1289.71802 1624.44043
1697.0 0.000589 1288.37683 1597.24951
1630.0 0.000613 1287.03552 1581.62512
1701.0 0.000588 1285.69409 1579.70300
1728.0 0.000579 1284.35278 1596.54370
1738.0 0.000575 1283.01135 1640.11230
1853.0 0.000540 1281.67004 1719.48291
2007.0 0.000498 1280.32886 1837.60657
2193.0 0.000456 1278.98755 1996.16846
2433.0 0.000411 1277.64612 2220.56812
2677.0 0.000374 1276.30469 2486.42261
2788.0 0.000359 1274.96350 2679.26440
2717.0 0.000368 1273.62207 2699.65503
2418.0 0.000414 1272.28076 2468.14380
2054.0 0.000487 1270.93945 2115.85181
1786.0 0.000560 1269.59802 1821.22913
1587.0 0.000630 1268.25671 1628.10876
1530.0 0.000654 1266.91553 1499.71423
1474.0 0.000678 1265.57410 1398.53381
1408.0 0.000710 1264.23279 1363.59888
1427.0 0.000701 1262.89136 1340.88904
1388.0 0.000720 1261.38123 1324.49329
1398.0 0.000715 1259.54736 1311.69653
1292.0 0.000774 1257.71350 1301.51917
1344.0 0.000744 1255.87964 1293.18640
1323.0 0.000756 1254.04578 1295.57227
1261.0 0.000793 1252.21191 1290.22534
1297.0 0.000771 1250.37830 1285.70483
1256.0 0.000796 1248.54443 1281.84827
1273.0 0.000786 1246.71057 1278.54211
1257.0 0.000796 1244.87659 1275.70679
1224.0 0.000817 1243.04285 1273.29004
1238.0 0.000808 1241.20898 1271.25793
1243.0 0.000805 1239.37512 1269.59509
1229.0 0.000814 1237.54138 1268.30151
1250.0 0.000800 1235.70752 1267.39172
1297.0 0.000771 1233.87366 1266.89758
1285.0 0.000778 1232.03992 1266.86890
1243.0 0.000805 1230.20605 1267.37903
1250.0 0.000800 1228.37219 1268.53210
1253.0 0.000798 1226.53821 1270.47327
1242.0 0.000805 1224.70459 1273.40649
1235.0 0.000810 1222.87073 1277.62024
1225.0 0.000816 1221.03699 1283.53467
1216.0 0.000822 1219.20300 1291.78638
1346.0 0.000743 1217.36914 1303.44446
1328.0 0.000753 1215.53528 1320.61304
1366.0 0.000732 1213.70166 1347.88965
1417.0 0.000706 1211.86780 1394.68140
1520.0 0.000658 1210.03394 1477.16553
1737.0 0.000576 1208.19983 1618.13269
1914.0 0.000522 1206.36621 1840.50171
2289.0 0.000437 1204.53235 2167.63818
2708.0 0.000369 1202.69873 2648.65381
3192.0 0.0003133 1200.86462 3246.85254
3565.0 0.0002805 1199.03076 3839.17603
3774.0 0.0002650 1197.19690 4130.52832
3448.0 0.0002900 1195.36328 3781.50220
2728.0 0.000367 1193.52942 2978.94214
2132.0 0.000469 1191.69556 2239.59814
1713.0 0.000584 1189.86169 1767.49963
1521.0 0.000657 1188.02783 1521.53491
1443.0 0.000693 1186.19397 1403.33569
1336.0 0.000749 1184.36035 1342.03577
1333.0 0.000750 1182.52625 1304.49451
1229.0 0.000814 1180.69238 1278.34021
1297.0 0.000771 1178.85852 1258.84241
1253.0 0.000798 1177.02490 1243.72461
1243.0 0.000805 1175.19104 1231.65063
1233.0 0.000811 1173.35718 1221.75989
1195.0 0.000837 1171.52332 1213.47583
1189.0 0.000841 1169.68945 1206.39966
1208.0 0.000828 1167.85559 1200.24792
1154.0 0.000867 1166.02197 1209.45166
1058.0 0.000945 1164.18799 1205.32385
1152.0 0.000868 1162.35413 1201.70789
1149.0 0.000870 1160.52026 1198.52344
1156.0 0.000865 1158.68652 1198.82043
1176.0 0.000850 1156.85266 1196.54248
1131.0 0.000884 1155.01880 1194.58020
1149.0 0.000870 1153.18506 1192.91370
1167.0 0.000857 1151.35120 1191.53210
1079.0 0.000927 1149.51733 1190.43103
1094.0 0.000914 1147.68359 1189.61438
1164.0 0.000859 1145.84961 1189.09167
1155.0 0.000866 1144.01575 1188.88062
1136.0 0.000880 1142.18188 1189.00623
1078.0 0.000928 1140.34827 1189.50232
1075.0 0.000930 1138.51440 1182.10925
1128.0 0.000887 1136.68054 1184.53418
1086.0 0.000921 1134.84668 1186.94250
1067.0 0.000937 1133.01282 1189.95129
1075.0 0.000930 1131.17896 1193.68298
1144.0 0.000874 1129.34534 1198.29236
1088.0 0.000919 1127.51123 1203.98071
1040.0 0.000962 1125.67737 1211.01233
1119.0 0.000894 1123.84375 1219.74292
1081.0 0.000925 1122.00989 1230.67737
1148.0 0.000871 1120.17578 1244.58960
1201.0 0.000833 1118.34241 1262.77026
1197.0 0.000835 1116.50830 1287.51245
1164.0 0.000859 1114.67419 1322.67566
1265.0 0.000791 1112.84058 1374.23889
1260.0 0.000794 1111.00659 1450.67480
1428.0 0.000700 1109.17310 1561.66870
1533.0 0.000652 1107.33899 1716.20703
1748.0 0.000572 1105.50500 1930.44324
2067.0 0.000484 1103.67151 2215.97949
2370.0 0.000422 1101.83740 2550.25732
2794.0 0.000358 1100.00403 2913.16333
3467.0 0.0002884 1098.16992 3306.23242
4046.0 0.0002472 1096.33594 3797.26294
4867.0 0.0002055 1094.50220 4478.45313
5891.0 0.0001698 1092.66833 5288.34131
6530.0 0.0001531 1090.83472 5890.22852
6334.0 0.0001579 1089.00073 5913.13770
5421.0 0.0001845 1087.16663 5189.81445
4341.0 0.0002304 1085.33313 4094.61401
3257.0 0.0003070 1083.49915 3120.85229
2488.0 0.000402 1081.66565 2441.04932
1998.0 0.000501 1079.83167 2022.71069
1704.0 0.000587 1077.99756 1772.83350
1531.0 0.000653 1076.16394 1607.27429
1506.0 0.000664 1074.33008 1483.30627
1357.0 0.000737 1072.49634 1390.51196
1361.0 0.000735 1070.66235 1323.02966
1293.0 0.000773 1068.82825 1274.49451
1293.0 0.000773 1066.99487 1239.00183
1208.0 0.000828 1065.16077 1211.99854
1174.0 0.000852 1063.32727 1190.56909
1182.0 0.000846 1061.49329 1172.97742
1192.0 0.000839 1059.65918 1158.20544
1132.0 0.000883 1058.05811 1145.82605
1146.0 0.000873 1056.48645 1135.16711
1175.0 0.000851 1054.91504 1125.86401
1149.0 0.000870 1053.34338 1117.65332
1160.0 0.000862 1051.77173 1110.33911
1096.0 0.000912 1050.20056 1103.76746
1129.0 0.000886 1048.62878 1097.81189
1088.0 0.000919 1047.05774 1092.37781
1083.0 0.000923 1045.48596 1087.38220
1019.0 0.000981 1043.91431 1082.76221
1016.0 0.000984 1042.34314 1078.50500
1055.0 0.000948 1040.77148 1074.48840
1017.0 0.000983 1039.20007 1070.71472
1041.0 0.000961 1037.62842 1067.15088
1104.0 0.000906 1036.05676 1063.77234
1077.0 0.000929 1034.48560 1060.55750
1032.0 0.000969 1032.91382 1057.48584
992.0 0.001008 1031.34277 1054.54272
985.0 0.001015 1029.77100 1051.71301
1003.0 0.000997 1028.19934 1048.98499
1062.0 0.000942 1026.62817 1046.34973
1052.0 0.000951 1025.05652 1055.66309
1026.0 0.000975 1023.48517 1054.32495
1033.0 0.000968 1021.91345 1053.22729
1021.0 0.000979 1020.34174 1052.40173
1003.0 0.000997 1018.77063 1036.60107
973.0 0.001028 1017.19891 1037.14758
1012.0 0.000988 1015.62775 1038.09802
990.0 0.001010 1014.05603 1044.01050
1079.0 0.000927 1012.48438 1046.36182
1048.0 0.000954 1010.91321 1049.60571
1063.0 0.000941 1009.34149 1054.05103
1085.0 0.000922 1007.77020 1060.16321
1096.0 0.000912 1006.19849 1068.74573
1153.0 0.000867 1004.62695 1081.46606
1152.0 0.000868 1003.05560 1102.37634
1252.0 0.000799 1001.48395 1141.09705
1394.0 0.000717 999.91278 1217.03467
1617.0 0.000618 998.34106 1362.72729
1966.0 0.000509 996.76941 1622.55688
2550.0 0.000392 995.19824 2048.60278
3264.0 0.0003064 993.62653 2678.90430
4293.0 0.0002329 992.05524 3460.04126
5194.0 0.0001925 990.48352 4139.20898
5268.0 0.0001898 988.91199 4278.24512
4586.0 0.0002181 987.34064 3640.67334
3345.0 0.0002990 985.76898 2659.30835
2268.0 0.000441 984.19781 1869.40222
1716.0 0.000583 982.62610 1420.19031
1361.0 0.000735 981.05444 1219.33765
1360.0 0.000735 979.48328 1137.88977
1213.0 0.000824 977.91156 1100.72217
1163.0 0.000860 976.34027 1079.52075
1103.0 0.000907 974.76874 1065.73828
1145.0 0.000873 973.19702 1056.62280
1109.0 0.000902 971.62567 1050.98523
1162.0 0.000861 970.05402 1048.24304
1118.0 0.000894 968.48285 1048.20337
1069.0 0.000935 966.91113 1051.02783
1105.0 0.000905 965.33948 1057.36365
1133.0 0.000883 963.76831 1068.70642
1228.0 0.000814 962.19659 1088.11682
1283.0 0.000779 960.62531 1121.21265
1339.0 0.000747 959.05377 1177.35205
1388.0 0.000720 957.48206 1270.18054
1592.0 0.000628 955.91071 1415.35449
1684.0 0.000594 954.33905 1621.81946
1860.0 0.000538 952.76788 1884.64758
2061.0 0.000485 951.19617 2181.23145
2106.0 0.000475 949.62451 2431.12598
2143.0 0.000467 948.05334 2514.14746
2108.0 0.000474 946.48163 2355.99756
1848.0 0.000541 944.91046 2019.62817
1656.0 0.000604 943.33881 1679.32678
1431.0 0.000699 941.76709 1415.47681
1282.0 0.000780 940.19574 1241.09973
1155.0 0.000866 938.62408 1136.86548
1109.0 0.000902 937.05292 1077.06091
963.0 0.001038 935.48120 1041.52075
1071.0 0.000934 933.90955 1018.39319
971.0 0.001030 932.33838 1001.82599
1006.0 0.000994 930.76666 989.11993
955.0 0.001047 929.19550 978.97412
972.0 0.001029 927.62384 970.64850
974.0 0.001027 926.05212 964.69666
929.0 0.001076 924.48077 958.82892
938.0 0.001066 922.90912 953.77478
931.0 0.001074 921.33795 958.97748
910.0 0.001099 919.76624 955.59192
922.0 0.001085 918.19458 952.70422
927.0 0.001079 916.62341 950.27173
964.0 0.001037 915.05170 948.28528
900.0 0.001111 913.48053 949.47791
949.0 0.001054 911.90887 948.78412
901.0 0.001110 910.33716 949.00598
913.0 0.001095 908.76581 950.62244
921.0 0.001086 907.19415 954.35138
995.0 0.001005 905.62299 961.02905
941.0 0.001063 904.05127 971.15424
981.0 0.001019 902.47961 984.43225
979.0 0.001021 900.90845 999.47076
1055.0 0.000948 899.33673 1012.03271
1036.0 0.000965 897.76556 1016.13440
983.0 0.001017 896.19391 1008.64740
961.0 0.001041 894.62219 993.86658
948.0 0.001055 893.05084 979.74561
932.0 0.001073 891.47937 970.58411
937.0 0.001067 889.90802 967.37195
950.0 0.001053 888.33630 969.90784
937.0 0.001067 886.76465 978.22272
915.0 0.001093 885.44550 993.54242
942.0 0.001062 884.46185 1017.80798
933.0 0.001072 883.47858 1047.98328
1017.0 0.000983 882.49493 1092.69312
1016.0 0.000984 881.51129 1145.14111
1038.0 0.000963 880.52789 1197.92188
1129.0 0.000886 879.54437 1239.40906
1192.0 0.000839 878.56097 1265.39624
1225.0 0.000816 877.57733 1292.98792
1460.0 0.000685 876.59375 1358.00586
1631.0 0.000613 875.61041 1492.53125
1932.0 0.000518 874.62683 1716.29224
2344.0 0.000427 873.64349 2028.01355
2803.0 0.000357 872.65991 2394.93237
3257.0 0.0003070 871.67627 2766.01489
3421.0 0.0002923 870.69299 3115.60400
3603.0 0.0002775 869.70935 3512.37646
3862.0 0.0002589 868.72595 4032.07935
4461.0 0.0002242 867.74231 4586.42969
4944.0 0.0002023 866.75867 4883.29053
4885.0 0.0002047 865.77539 4646.81250
4058.0 0.0002464 864.79175 3898.30371
3162.0 0.0003163 863.80847 2999.20288
2180.0 0.000459 862.82483 2244.15161
1548.0 0.000646 861.84125 1723.14966
1285.0 0.000778 860.85791 1407.84546
1213.0 0.000824 859.87433 1231.18103
1062.0 0.000942 858.89093 1132.20898
1012.0 0.000988 857.90729 1072.32715
1019.0 0.000981 856.92365 1031.93103
1031.0 0.000970 855.94037 1002.22369
913.0 0.001095 854.95673 979.21576
990.0 0.001010 853.97345 960.87115
921.0 0.001086 852.98981 945.93494
963.0 0.001038 852.00616 933.57477
899.0 0.001112 851.02289 923.19983
918.0 0.001089 850.03925 914.41931
939.0 0.001065 849.05585 905.77350
827.0 0.001209 848.07220 899.23328
834.0 0.001199 847.08862 893.49304
821.0 0.001218 846.10529 888.41254
841.0 0.001189 845.12170 883.87848
799.0 0.001252 844.13837 879.80682
870.0 0.001149 843.15479 876.12732
834.0 0.001199 842.17114 872.78821
811.0 0.001233 841.18787 869.74976
862.0 0.001160 840.20422 866.98206
770.0 0.001299 839.22083 864.47394
867.0 0.001153 838.23718 862.23712
839.0 0.001192 837.25366 860.33459
857.0 0.001167 836.27026 858.91840
865.0 0.001156 835.28662 858.28369
859.0 0.001164 834.30334 858.91101
864.0 0.001157 833.31970 861.40491
820.0 0.001220 832.33612 866.20612
866.0 0.001155 831.35278 873.13269
869.0 0.001151 830.36920 880.71844
838.0 0.001193 829.38580 885.91064
879.0 0.001138 828.40216 886.06866
841.0 0.001189 827.41864 877.87256
814.0 0.001229 826.43524 866.11023
849.0 0.001178 825.45160 844.68097
901.0 0.001110 824.46832 837.79193
855.0 0.001170 823.48468 834.42828
904.0 0.001106 822.50104 834.03296
938.0 0.001066 821.51776 835.82288
1027.0 0.000974 820.53412 838.77777
1064.0 0.000940 819.55072 841.31116
1039.0 0.000962 818.56720 841.40649
1043.0 0.000959 817.58362 837.86963
986.0 0.001014 816.60022 836.54077
796.0 0.001256 815.61658 831.08881
844.0 0.001185 814.63324 827.07733
757.0 0.001321 813.64966 824.60608
801.0 0.001248 812.66602 823.21729
803.0 0.001245 811.68274 822.43054
776.0 0.001289 810.69910 821.95831
782.0 0.001279 809.71570 821.68292
796.0 0.001256 808.73218 821.57294
798.0 0.001253 807.74854 821.63257
842.0 0.001188 806.76514 821.88049
728.0 0.001374 805.78149 822.37775
790.0 0.001266 804.79822 823.10608
725.0 0.001379 803.81458 824.14948
769.0 0.001300 802.83099 825.58087
767.0 0.001304 801.84766 827.92633
779.0 0.001284 800.86407 830.48425
755.0 0.001325 799.88074 833.85052
761.0 0.001314 798.89716 838.30951
775.0 0.001290 797.91351 844.18427
772.0 0.001295 796.93011 852.61523
783.0 0.001277 795.94647 865.11554
891.0 0.001122 794.96320 884.89691
885.0 0.001130 793.97955 917.85101
984.0 0.001016 792.99591 976.43732
1080.0 0.000926 792.01263 1069.28381
1205.0 0.000830 791.02899 1215.02368
1378.0 0.000726 790.04572 1423.29492
1663.0 0.000601 789.06207 1685.82031
1813.0 0.000552 788.07849 1970.05957
2103.0 0.000476 787.09509 2203.90625
2209.0 0.000453 786.11145 2281.19653
2110.0 0.000474 785.12817 2146.01611
1813.0 0.000552 784.14453 1851.67004
1548.0 0.000646 783.16089 1525.21826
1249.0 0.000801 782.17761 1257.53784
1061.0 0.000943 781.19397 1075.19556
984.0 0.001016 780.21069 966.95947
963.0 0.001038 779.22705 908.29572
922.0 0.001085 778.24341 877.38281
968.0 0.001033 777.26001 860.36243
966.0 0.001035 776.14905 849.85120
941.0 0.001063 775.03467 857.19788
983.0 0.001017 773.91998 851.55933
955.0 0.001047 772.80524 846.11353
893.0 0.001120 771.69086 841.34418
841.0 0.001189 770.57617 838.06696
877.0 0.001140 769.46179 836.77277
805.0 0.001242 768.34711 837.77112
818.0 0.001222 767.23236 841.56281
782.0 0.001279 766.11792 849.20050
875.0 0.001143 765.00330 862.50378
877.0 0.001140 763.88879 883.83038
820.0 0.001220 762.77411 915.46906
775.0 0.001290 761.65936 956.26581
850.0 0.001176 760.54504 1002.82111
836.0 0.001196 759.43030 1047.00830
948.0 0.001055 758.31592 1077.15198
949.0 0.001054 757.20123 1089.22156
1075.0 0.000930 756.08649 1096.16638
1104.0 0.000906 754.97205 1121.58044
1115.0 0.000897 753.85742 1183.34045
1303.0 0.000767 752.74292 1287.50134
1479.0 0.000676 751.62823 1426.46814
1662.0 0.000602 750.51349 1582.93677
1831.0 0.000546 749.39917 1741.35535
1970.0 0.000508 748.28442 1889.53442
2156.0 0.000464 747.17010 2045.47607
2446.0 0.000409 746.05536 2302.99097
2860.0 0.0003497 744.94061 2781.27246
3545.0 0.0002821 743.82629 3527.07690
4596.0 0.0002176 742.71155 4451.53564
5470.0 0.0001828 741.59711 5287.81055
5802.0 0.0001724 740.48236 5662.61523
5682.0 0.0001760 739.36761 5284.13086
4477.0 0.0002234 738.25330 4295.29785
3055.0 0.0003273 737.13855 3162.20679
2124.0 0.000471 736.02423 2229.66602
1526.0 0.000655 734.90948 1606.00659
1293.0 0.000773 733.79474 1249.83911
1152.0 0.000868 732.68042 1065.88025
1083.0 0.000923 731.56567 972.17828
1013.0 0.000987 730.45123 919.92670
932.0 0.001073 729.33649 886.34961
908.0 0.001101 728.22174 862.37616
937.0 0.001067 727.10742 844.51526
871.0 0.001148 725.99268 831.37958
896.0 0.001116 724.87836 822.58746
852.0 0.001174 723.76361 818.92572
851.0 0.001175 722.64886 820.18732
871.0 0.001148 721.53455 827.79816
857.0 0.001167 720.41980 842.13397
922.0 0.001085 719.30536 861.90594
936.0 0.001068 718.19061 883.93500
985.0 0.001015 717.07587 903.55878
876.0 0.001142 715.96155 913.57745
899.0 0.001112 714.84680 908.49487
900.0 0.001111 713.73248 890.54602
888.0 0.001126 712.61774 864.55688
847.0 0.001181 711.50305 834.14374
829.0 0.001206 710.38867 805.12665
806.0 0.001241 709.27393 781.12732
780.0 0.001282 708.15948 763.39630
773.0 0.001294 707.04474 751.21545
771.0 0.001297 705.93018 743.18738
744.0 0.001344 704.81567 737.96936
731.0 0.001368 703.70093 734.63135
751.0 0.001332 702.58661 732.73303
715.0 0.001399 701.47186 718.03766
712.0 0.001404 700.35718 719.78253
754.0 0.001326 699.24280 723.08325
738.0 0.001355 698.12811 727.70319
703.0 0.001422 697.01361 732.94604
737.0 0.001357 695.89886 737.94678
749.0 0.001335 694.78430 741.62244
801.0 0.001248 693.66980 743.41101
857.0 0.001167 692.55511 744.98480
862.0 0.001160 691.44073 748.79688
939.0 0.001065 690.32599 755.64355
945.0 0.001058 689.21130 764.29602
915.0 0.001093 688.09692 772.40845
999.0 0.001001 686.98224 776.97070
976.0 0.001025 685.86774 776.01709
886.0 0.001129 684.75311 772.56030
849.0 0.001178 683.63843 772.94653
871.0 0.001148 682.52393 781.92352
791.0 0.001264 681.40924 800.44373
761.0 0.001314 680.29486 824.86401
784.0 0.001276 679.18018 848.15558
811.0 0.001233 678.06543 861.34485
782.0 0.001279 676.95105 854.41223
774.0 0.001292 675.83636 826.45490
781.0 0.001280 674.72186 789.09045
700.0 0.001429 673.60730 753.73132
746.0 0.001340 672.49255 725.83197
704.0 0.001420 671.37805 706.35089
687.0 0.001456 670.26337 693.42767
675.0 0.001481 669.14899 685.64075
643.0 0.001555 668.03430 680.62164
719.0 0.001391 666.91956 676.90967
634.0 0.001577 665.80518 674.14929
651.0 0.001536 664.69049 671.81555
657.0 0.001522 663.57611 669.74890
636.0 0.001572 662.46143 667.86615
671.0 0.001490 661.34668 666.12085
655.0 0.001527 660.23218 664.48169
670.0 0.001493 659.11749 662.92517
666.0 0.001502 658.00311 661.43555
649.0 0.001541 656.88843 659.99908
654.0 0.001529 655.77368 658.60638
641.0 0.001560 654.65936 657.25043
622.0 0.001608 653.87732 656.25659
601.0 0.001664 653.40961 655.60248
675.0 0.001481 652.94177 654.96960
653.0 0.001531 652.47388 654.35474
631.0 0.001585 652.00610 653.75568
664.0 0.001506 651.53827 653.09155
582.0 0.001718 651.07056 652.52124
607.0 0.001647 650.60266 651.96075
698.0 0.001433 650.13483 651.40887
649.0 0.001541 649.66711 650.86475
617.0 0.001621 649.19922 650.32721
657.0 0.001522 648.73151 649.79578
603.0 0.001658 648.26367 649.01404
669.0 0.001495 647.79578 648.50409
608.0 0.001645 647.32800 647.99762
659.0 0.001517 646.86017 647.49420
604.0 0.001656 646.39246 646.99377
583.0 0.001715 645.92456 646.49554
652.0 0.001534 645.45673 645.99963
624.0 0.001603 644.98901 645.50592
644.0 0.001553 644.52112 644.52258
630.0 0.001587 644.05341 644.12927
650.0 0.001538 643.58557 643.66644
641.0 0.001560 643.11768 643.20410
641.0 0.001560 642.64990 642.74249
646.0 0.001548 642.18207 642.28149
646.0 0.001548 641.71436 641.82129
664.0 0.001506 641.24646 641.36200
677.0 0.001477 640.77863 640.90375
628.0 0.001592 640.31091 640.44684
605.0 0.001653 639.84302 639.99127
610.0 0.001639 639.37531 639.53760
635.0 0.001575 638.90741 639.08594
580.0 0.001724 638.43958 638.63678
617.0 0.001621 637.97180 638.19092
627.0 0.001595 637.50397 637.74878
679.0 0.001473 637.03625 637.31152
646.0 0.001548 636.56836 636.88025
636.0 0.001572 636.10046 636.45673
606.0 0.001650 635.63275 636.04364
592.0 0.001689 635.16492 635.64453
664.0 0.001506 634.69720 635.26678
596.0 0.001678 634.22931 634.92615
634.0 0.001577 633.76147 634.66022
644.0 0.001553 633.29376 634.55579
651.0 0.001536 632.82587 634.79321
612.0 0.001634 632.35815 635.69489
648.0 0.001543 631.89026 637.72797
611.0 0.001637 631.42236 641.36670
618.0 0.001618 630.95465 646.74365
662.0 0.001511 630.48682 653.20374
648.0 0.001543 630.01910 659.06421
651.0 0.001536 629.55121 662.24347
628.0 0.001592 629.08337 660.42059
657.0 0.001522 628.61566 654.90552
630.0 0.001587 628.14777 647.09045
631.0 0.001585 627.67999 639.97980
618.0 0.001618 627.21216 634.73859
600.0 0.001667 626.74426 631.42194
622.0 0.001608 626.27655 629.50568
651.0 0.001536 625.80872 628.39337
613.0 0.001631 625.34100 627.67120
613.0 0.001631 624.87311 627.12280
667.0 0.001499 624.40527 633.32477
634.0 0.001577 623.93756 633.35913
597.0 0.001675 623.46967 633.48096
632.0 0.001582 623.00189 633.69458
660.0 0.001515 622.53406 634.00977
664.0 0.001506 622.06616 634.43958
629.0 0.001590 621.59845 635.00171
627.0 0.001595 621.13062 635.72021
646.0 0.001548 620.66290 636.62518
625.0 0.001600 620.19501 637.75848
659.0 0.001517 619.72717 639.17981
600.0 0.001667 619.25946 640.98572
633.0 0.001580 618.79156 643.35736
675.0 0.001481 618.32379 646.65021
643.0 0.001555 617.85596 651.56653
688.0 0.001453 617.38812 659.36804
641.0 0.001560 616.92035 672.03119
698.0 0.001433 616.45251 692.08972
726.0 0.001377 615.98480 721.74548
730.0 0.001370 615.51691 761.25787
839.0 0.001192 615.04907 807.30316
856.0 0.001168 614.58136 853.02325
903.0 0.001107 614.11346 890.85718
910.0 0.001099 613.64569 920.26215
962.0 0.001040 613.17786 959.39612
1085.0 0.000922 612.71002 1046.44043
1180.0 0.000847 612.24225 1226.49109
1425.0 0.000702 611.77441 1533.47522
1704.0 0.000587 611.30670 1965.47742
2142.0 0.000467 610.83881 2461.55273
2604.0 0.000384 610.37097 2895.51587
2720.0 0.000368 609.90326 3106.50708
2717.0 0.000368 609.43536 2982.26416
2281.0 0.000438 608.96759 2566.04248
1754.0 0.000570 608.49982 2031.32629
1288.0 0.000776 608.03192 1538.68689
1025.0 0.000976 607.56415 1168.97559
882.0 0.001134 607.09631 932.17206
876.0 0.001142 606.62860 798.70612
795.0 0.001258 606.16071 729.41589
809.0 0.001236 605.69287 693.81659
727.0 0.001376 605.22516 673.96796
752.0 0.001330 604.75726 661.23657
785.0 0.001274 604.28949 652.00531
707.0 0.001414 603.82172 644.79681
702.0 0.001425 603.35382 638.95245
673.0 0.001486 602.88605 634.11188
676.0 0.001479 602.40973 630.02899
642.0 0.001558 601.79462 626.40973
670.0 0.001493 601.17926 623.26874
673.0 0.001486 600.56396 620.51642
659.0 0.001517 599.94885 619.14435
668.0 0.001497 599.33350 617.04242
691.0 0.001447 598.71838 615.19330
673.0 0.001486 598.10303 613.58862
655.0 0.001527 597.48773 612.24127
652.0 0.001534 596.87256 611.17993
667.0 0.001499 596.25720 610.43494
661.0 0.001513 595.64209 610.05621
645.0 0.001550 595.02673 609.92267
692.0 0.001445 594.41144 609.93591
659.0 0.001517 593.79633 609.87170
699.0 0.001431 593.18097 609.45844
672.0 0.001488 592.56586 608.45123
652.0 0.001534 591.95056 608.27039
672.0 0.001488 591.33521 606.36511
643.0 0.001555 590.72003 604.45978
666.0 0.001502 590.10468 602.76221
631.0 0.001585 589.48956 601.35693
631.0 0.001585 588.87421 600.24622
667.0 0.001499 588.25891 599.39117
668.0 0.001497 587.64380 598.74011
649.0 0.001541 587.02844 598.24890
618.0 0.001618 586.41333 593.74091
612.0 0.001634 585.79803 593.69403
644.0 0.001553 585.18268 593.76123
618.0 0.001618 584.56750 593.95911
655.0 0.001527 583.95215 594.31488
621.0 0.001610 583.33704 595.20587
597.0 0.001675 582.72174 596.04712
628.0 0.001592 582.10638 598.37524
609.0 0.001642 581.49127 600.26984
656.0 0.001524 580.87592 603.24445
614.0 0.001629 580.26080 608.07874
640.0 0.001563 579.64551 616.14697
645.0 0.001550 579.03015 629.45831
666.0 0.001502 578.41498 650.51642
697.0 0.001435 577.79968 681.72913
734.0 0.001362 577.18451 724.14197
739.0 0.001353 576.56921 775.76917
752.0 0.001330 575.95386 830.34625
722.0 0.001385 575.33875 876.12720
780.0 0.001282 574.72339 900.64545
769.0 0.001300 574.10828 893.40063
745.0 0.001342 573.49298 855.78528
730.0 0.001370 572.87762 802.29816
676.0 0.001479 572.26245 748.33978
638.0 0.001567 571.64716 702.99237
590.0 0.001695 571.03198 669.48608
625.0 0.001600 570.41669 647.07239
635.0 0.001575 569.80133 633.01123
639.0 0.001565 569.18622 624.23450
611.0 0.001637 568.57086 618.60791
571.0 0.001751 567.95575 615.16382
607.0 0.001647 567.34045 613.58185
644.0 0.001553 566.72510 613.97375
644.0 0.001553 566.10999 616.77039
643.0 0.001555 565.49469 622.41510
642.0 0.001558 564.87946 632.13226
643.0 0.001555 564.26416 647.56665
612.0 0.001634 563.64880 670.81146
631.0 0.001585 563.03369 707.00964
705.0 0.001418 562.41833 752.25482
676.0 0.001479 561.80322 810.38422
704.0 0.001420 561.18793 878.02618
801.0 0.001248 560.57257 949.05078
815.0 0.001227 559.95746 1010.42328
762.0 0.001312 559.34216 1045.20007
807.0 0.001239 558.72693 1042.72815
827.0 0.001209 558.11163 1006.97986
804.0 0.001244 557.49628 950.71613
688.0 0.001453 556.88116 886.85394
660.0 0.001515 556.26587 826.11084
745.0 0.001342 555.65070 776.13098
727.0 0.001376 555.03540 741.06952
716.0 0.001397 554.42004 722.95093
708.0 0.001412 553.80493 722.95068
765.0 0.001307 553.18964 741.89758
782.0 0.001279 552.57440 780.25183
851.0 0.001175 551.95911 835.56244
898.0 0.001114 551.34375 903.17908
989.0 0.001011 550.72864 973.60431
1055.0 0.000948 550.11334 1032.98083
1138.0 0.000879 549.49817 1065.94275
1135.0 0.000881 548.88287 1060.38354
1078.0 0.000928 548.26752 1016.88428
978.0 0.001022 547.65240 946.36182
926.0 0.001080 547.03711 867.13757
823.0 0.001215 546.42188 793.63098
735.0 0.001361 545.80658 733.18097
707.0 0.001414 545.19128 687.94580
713.0 0.001403 544.57611 656.95697
693.0 0.001443 543.96082 637.68256
672.0 0.001488 543.34570 627.35547
690.0 0.001449 542.73035 623.30212
664.0 0.001506 542.11499 623.29077
653.0 0.001531 541.49988 625.37897
681.0 0.001468 540.88458 627.85614
718.0 0.001393 540.26935 629.31958
699.0 0.001431 539.65405 629.24078
734.0 0.001362 539.03882 627.97589
663.0 0.001508 538.42358 631.53601
677.0 0.001477 537.80829 633.38837
671.0 0.001490 537.19318 639.04181
683.0 0.001464 536.57782 650.52673
665.0 0.001504 535.96246 670.36115
673.0 0.001486 535.34735 701.91992
706.0 0.001416 534.73206 749.41309
687.0 0.001456 534.51477 818.36371
737.0 0.001357 534.56268 910.86798
880.0 0.001136 534.61060 1028.39014
1018.0 0.000982 534.65851 1167.22803
1072.0 0.000933 534.70642 1315.98535
1181.0 0.000847 534.75433 1451.99597
1325.0 0.000755 534.80225 1543.86877
1309.0 0.000764 534.85016 1566.87927
1345.0 0.000743 534.89807 1521.28259
1221.0 0.000819 534.94598 1427.04016
1207.0 0.000829 534.99390 1309.23926
1195.0 0.000837 535.04181 1185.50073
1190.0 0.000840 535.08972 1065.01636
1063.0 0.000941 535.13757 952.01471
990.0 0.001010 535.18555 855.77209
813.0 0.001230 535.23340 778.61786
787.0 0.001271 535.28131 720.79810
683.0 0.001464 535.32922 679.99634
723.0 0.001383 535.37714 652.65576
665.0 0.001504 535.42505 635.06860
641.0 0.001560 535.47296 624.13721
690.0 0.001449 535.52087 617.63971
598.0 0.001672 535.56879 614.22766
665.0 0.001504 535.61670 613.21198
692.0 0.001445 535.66461 614.34894
742.0 0.001348 535.71252 617.67126
657.0 0.001522 535.76044 623.36938
744.0 0.001344 535.80835 631.62842
707.0 0.001414 535.85626 642.43182
824.0 0.001214 535.90417 654.12354
767.0 0.001304 535.95209 669.00793
822.0 0.001217 536.00000 685.23938
807.0 0.001239 536.04791 702.20691
792.0 0.001263 536.09583 719.95557
784.0 0.001276 536.14374 739.81897
820.0 0.001220 536.19159 766.52057
819.0 0.001221 536.23950 805.63861
812.0 0.001232 536.28748 863.03809
913.0 0.001095 536.33533 941.83881
965.0 0.001036 536.38324 1042.45959
1072.0 0.000933 536.43115 1163.12329
1258.0 0.000795 536.47906 1302.04785
1454.0 0.000688 536.52698 1457.51843
1857.0 0.000539 536.57489 1624.85522
2213.0 0.000452 536.62280 1791.26221
2565.0 0.000390 536.67072 1927.58643
2655.0 0.000377 536.71863 1990.13965
2732.0 0.000366 536.76654 1947.09424
2331.0 0.000429 536.81445 1808.18469
2067.0 0.000484 536.86237 1616.29492
1650.0 0.000606 536.91028 1415.25781
1300.0 0.000769 536.95819 1233.16528
1023.0 0.000978 537.00610 1086.44983
946.0 0.001057 537.05402 969.42847
898.0 0.001114 537.10193 880.18634
813.0 0.001230 537.14984 811.85376
823.0 0.001215 537.19775 758.72003
747.0 0.001339 537.24567 717.62769
763.0 0.001311 537.29352 686.60858
675.0 0.001481 537.34149 664.42609
674.0 0.001484 537.38934 647.68091
650.0 0.001538 537.43726 642.05328
640.0 0.001563 537.48517 643.54181
649.0 0.001541 537.53308 652.95905
651.0 0.001536 537.58099 667.07428
697.0 0.001435 537.62891 681.80695
656.0 0.001524 537.67682 691.84290
644.0 0.001553 537.72473 692.17499
658.0 0.001520 537.77264 680.96356
593.0 0.001686 537.82056 661.17297
634.0 0.001577 537.86847 638.31006
586.0 0.001706 537.91638 617.06329
590.0 0.001695 537.96429 600.38849
640.0 0.001563 538.01221 588.39948
566.0 0.001767 538.06012 580.77155
576.0 0.001736 538.10803 577.14532
631.0 0.001585 538.15594 574.80432
633.0 0.001580 538.20386 573.69293
639.0 0.001565 538.25177 573.31592
623.0 0.001605 538.29968 573.42236
616.0 0.001623 538.34753 573.90472
604.0 0.001656 538.39545 574.73187
662.0 0.001511 538.44342 575.91711
640.0 0.001563 538.49127 577.33838
619.0 0.001616 538.53918 579.47687
638.0 0.001567 538.58710 582.34991
607.0 0.001647 538.63501 586.49738
682.0 0.001466 538.68292 591.91620
585.0 0.001709 538.73083 599.35657
622.0 0.001608 538.77875 609.38715
661.0 0.001513 538.82666 622.45612
576.0 0.001736 538.87457 638.75159
591.0 0.001692 538.92249 658.04462
622.0 0.001608 538.97040 679.74609
640.0 0.001563 539.01831 703.30774
611.0 0.001637 539.06622 728.91351
659.0 0.001517 539.11414 758.64661
706.0 0.001416 539.16205 796.92859
736.0 0.001359 539.20996 849.24030
732.0 0.001366 539.25787 920.26373
855.0 0.001170 539.30579 1007.92944
1002.0 0.000998 539.35370 1119.17761
1065.0 0.000939 539.40161 1243.71643
1272.0 0.000786 539.44952 1368.53784
1398.0 0.000715 539.49744 1471.78198
1512.0 0.000661 539.54529 1525.46021
1508.0 0.000663 539.59320 1510.55310
1420.0 0.000704 539.64111 1432.14001
1220.0 0.000820 539.68903 1317.17468
1102.0 0.000907 539.73694 1192.74231
978.0 0.001022 539.75665 1077.98010
855.0 0.001170 539.60718 980.52069
821.0 0.001218 539.45776 903.11749
763.0 0.001311 539.30829 841.60626
712.0 0.001404 539.15881 791.66919
703.0 0.001422 539.00940 749.68713
713.0 0.001403 538.85992 714.43738
633.0 0.001580 538.71045 686.27997
640.0 0.001563 538.56104 665.79041
670.0 0.001493 538.41156 653.60120
675.0 0.001481 538.26215 650.57098
631.0 0.001585 538.11267 657.78381
708.0 0.001412 537.96320 676.36694
675.0 0.001481 537.81378 706.96399
747.0 0.001339 537.66431 748.97284
733.0 0.001364 537.51489 799.50110
800.0 0.001250 537.36542 852.54242
870.0 0.001149 537.21594 897.86450
955.0 0.001047 537.06653 922.78564
956.0 0.001046 536.91705 917.68414
889.0 0.001125 536.76764 883.66638
827.0 0.001209 536.61816 831.78320
786.0 0.001272 536.46869 774.80817
746.0 0.001340 536.31927 722.03778
687.0 0.001456 536.16980 680.82111
636.0 0.001572 536.02039 650.05524
598.0 0.001672 535.87091 632.19904
593.0 0.001686 535.72144 627.52985
589.0 0.001698 535.57202 635.80109
669.0 0.001495 535.42255 656.11108
702.0 0.001425 535.27313 686.57507
720.0 0.001389 535.12366 721.17670
731.0 0.001368 534.97418 753.17157
774.0 0.001292 534.82477 774.60480
763.0 0.001311 534.67529 779.02313
765.0 0.001307 534.52588 767.34796
749.0 0.001335 534.37640 747.02618
720.0 0.001389 534.22693 727.30267
742.0 0.001348 534.07751 714.43549
742.0 0.001348 533.92804 709.82458
802.0 0.001247 533.77863 710.50458
838.0 0.001193 533.62915 710.56244
817.0 0.001224 533.47968 704.21973
738.0 0.001355 533.33026 689.08240
712.0 0.001404 533.18079 667.25031
686.0 0.001458 533.03131 644.65607
630.0 0.001587 532.88184 622.61316
602.0 0.001661 532.73242 604.69989
618.0 0.001618 532.58301 592.02161
643.0 0.001555 532.43353 580.66785
578.0 0.001730 532.28406 578.55066
634.0 0.001577 532.13464 580.84637
610.0 0.001639 531.98517 586.82452
583.0 0.001715 531.83569 595.63483
614.0 0.001629 531.68622 606.27136
665.0 0.001504 531.53687 617.74292
640.0 0.001563 531.38739 629.64319
672.0 0.001488 531.23792 643.12927
672.0 0.001488 531.08844 661.94220
742.0 0.001348 530.93896 692.29797
773.0 0.001294 530.78961 741.20026
820.0 0.001220 530.64014 814.01898
869.0 0.001151 530.49066 911.52856
999.0 0.001001 530.34119 1027.18213
1174.0 0.000852 530.19171 1145.59766
1352.0 0.000740 530.04230 1243.50854
1394.0 0.000717 529.89282 1295.50818
1496.0 0.000668 529.74335 1283.89551
1413.0 0.000708 529.59393 1210.90759
1178.0 0.000849 529.44452 1098.64038
1022.0 0.000978 529.29504 974.32831
909.0 0.001100 529.14557 858.76312
869.0 0.001151 528.99609 762.92365
692.0 0.001445 528.84668 692.60223
661.0 0.001513 528.69727 644.97339
635.0 0.001575 528.54779 615.40082
569.0 0.001757 528.39832 598.75787
610.0 0.001639 528.24884 590.93073
566.0 0.001767 528.09943 589.22784
610.0 0.001639 527.94995 592.18896
632.0 0.001582 527.80054 599.10901
554.0 0.001805 527.65106 609.55286
591.0 0.001692 527.50159 623.32928
599.0 0.001669 527.35217 638.08423
595.0 0.001681 527.20270 653.95319
648.0 0.001543 527.05328 668.10657
665.0 0.001504 526.90381 678.55475
689.0 0.001451 526.75433 685.09277
683.0 0.001464 526.60492 691.46667
674.0 0.001484 526.45544 700.38953
705.0 0.001418 526.30603 717.38013
738.0 0.001355 526.15656 745.94141
777.0 0.001287 526.00708 787.93799
954.0 0.001048 525.85767 843.01489
1019.0 0.000981 525.70819 907.87524
1192.0 0.000839 525.55878 975.45050
1219.0 0.000820 525.40930 1035.06628
1332.0 0.000751 525.25983 1074.22827
1290.0 0.000775 525.11041 1082.61511
1177.0 0.000850 524.96094 1056.43005
1149.0 0.000870 524.81152 1001.50525
1090.0 0.000917 524.66205 930.22150
973.0 0.001028 524.51257 855.23956
873.0 0.001145 524.36316 785.65033
786.0 0.001272 524.21368 726.66370
654.0 0.001529 524.06421 680.72717
709.0 0.001410 523.91479 648.37769
632.0 0.001582 523.76532 629.12292
592.0 0.001689 523.61591 621.78870
620.0 0.001613 523.46643 624.72803
671.0 0.001490 523.31702 635.52277
589.0 0.001698 522.52393 650.41138
645.0 0.001550 521.43597 664.36365
660.0 0.001515 520.34851 672.95038
626.0 0.001597 519.26056 671.93951
619.0 0.001616 518.17285 660.16608
605.0 0.001653 517.08490 640.33160
628.0 0.001592 515.99695 617.19275
555.0 0.001802 514.90924 595.14386
519.0 0.001927 513.82129 577.04071
519.0 0.001927 512.73383 564.05939
519.0 0.001927 511.64590 555.95801
536.0 0.001866 510.55795 551.64471
535.0 0.001869 509.47025 548.47650
509.0 0.001965 508.38229 547.56213
507.0 0.001972 507.29459 546.59106
529.0 0.001890 506.20663 545.02429
513.0 0.001949 505.11893 542.93634
504.0 0.001984 504.03122 540.85181
486.0 0.002058 502.94327 539.44800
495.0 0.002020 501.85556 539.40808
491.0 0.002037 500.76761 541.41785
529.0 0.001890 499.67966 546.19360
526.0 0.001901 498.59219 554.47217
520.0 0.001923 497.50424 566.95624
540.0 0.001852 496.41653 585.32556
548.0 0.001825 495.32858 607.45837
546.0 0.001832 494.24063 633.99902
655.0 0.001527 493.15292 663.51929
622.0 0.001608 492.06497 693.27838
659.0 0.001517 490.97751 718.86676
664.0 0.001506 489.88956 734.81122
630.0 0.001587 488.80161 736.87561
598.0 0.001672 487.71390 725.13794
675.0 0.001481 486.62595 704.24078
655.0 0.001527 485.53824 680.57788
604.0 0.001656 484.45053 659.28107
622.0 0.001608 483.36261 643.64124
618.0 0.001618 482.27490 634.80920
676.0 0.001479 481.18695 631.98175
656.0 0.001524 480.09924 632.61963
585.0 0.001709 479.01129 632.97327
632.0 0.001582 477.92334 629.20648
630.0 0.001587 476.83588 618.99609
551.0 0.001815 475.74792 602.73572
613.0 0.001631 474.66022 583.03503
598.0 0.001672 473.57227 562.94598
578.0 0.001730 472.48431 544.68170
560.0 0.001786 471.39661 529.55457
535.0 0.001869 470.30865 517.92700
542.0 0.001845 469.22119 509.51379
529.0 0.001890 468.13324 503.66003
553.0 0.001808 467.04529 499.70721
532.0 0.001880 465.95758 496.75458
557.0 0.001795 464.86963 494.75534
509.0 0.001965 463.78217 492.40631
496.0 0.002016 462.69421 489.87796
484.0 0.002066 461.60626 487.26453
500.0 0.002000 460.51855 484.76337
480.0 0.002083 459.43060 482.54910
503.0 0.001988 458.34290 480.74203
477.0 0.002096 457.25494 479.41254
478.0 0.002092 456.16699 478.60477
447.0 0.002237 455.07956 479.77588
442.0 0.002262 453.99161 480.22321
454.0 0.002203 452.90390 481.45764
477.0 0.002096 451.81595 483.75211
472.0 0.002119 450.72800 487.51828
502.0 0.001992 449.64029 493.38016
481.0 0.002079 448.55234 502.14532
512.0 0.001953 447.46487 514.75189
535.0 0.001869 446.37692 532.15979
561.0 0.001783 445.28897 555.14368
605.0 0.001653 444.20126 584.07544
611.0 0.001637 443.11331 618.74432
717.0 0.001395 442.02585 658.09412
720.0 0.001389 440.93790 700.08429
767.0 0.001304 439.84995 741.49432
813.0 0.001230 438.76224 778.58215
773.0 0.001294 437.67429 809.24908
812.0 0.001232 436.58658 835.32501
886.0 0.001129 435.49863 861.84283
863.0 0.001159 434.41068 892.75946
901.0 0.001110 433.32321 927.11542
896.0 0.001116 432.23526 958.03082
1050.0 0.000952 431.14755 974.46417
958.0 0.001044 430.05960 965.54132
930.0 0.001075 428.97165 926.42926
802.0 0.001247 427.88394 862.19073
762.0 0.001312 426.79626 784.58313
660.0 0.001515 425.70856 705.91522
584.0 0.001712 424.62061 635.30554
543.0 0.001842 423.53265 577.87524
508.0 0.001969 422.44495 534.99451
532.0 0.001880 421.35699 505.33600
530.0 0.001887 420.26953 486.30673
550.0 0.001818 419.18158 475.12830
498.0 0.002008 418.09363 469.57626
474.0 0.002110 417.00592 468.18112
501.0 0.001996 415.91797 470.14462
497.0 0.002012 414.83026 475.10205
492.0 0.002033 413.74231 482.86292
503.0 0.001988 412.65436 493.17688
550.0 0.001818 411.56689 505.51556
573.0 0.001745 410.47894 519.24500
584.0 0.001712 409.39124 533.37659
539.0 0.001855 408.30328 547.20020
579.0 0.001727 407.21533 560.79559
622.0 0.001608 406.12787 575.68793
556.0 0.001799 405.03992 595.06616
574.0 0.001742 403.95221 622.18011
607.0 0.001647 403.05270 661.57434
574.0 0.001742 402.78900 713.60895
648.0 0.001543 402.52536 774.92395
710.0 0.001408 402.26166 838.93787
803.0 0.001245 401.99805 894.87488
849.0 0.001178 401.73431 929.05487
872.0 0.001147 401.47067 930.17084
868.0 0.001152 401.20700 896.38837
802.0 0.001247 400.94324 836.59790
742.0 0.001348 400.67960 763.78394
706.0 0.001416 400.41595 689.47797
559.0 0.001789 400.15216 621.56433
532.0 0.001880 399.88864 564.43396
525.0 0.001905 399.62488 519.55408
462.0 0.002165 399.36124 486.34286
480.0 0.002083 399.09756 462.92023
487.0 0.002053 398.83380 446.97269
445.0 0.002247 398.57028 436.29227
409.0 0.002445 398.30652 429.08438
425.0 0.002353 398.04285 424.06805
424.0 0.002358 397.77921 420.39685
452.0 0.002212 397.51544 416.38489
407.0 0.002457 397.25177 414.12234
455.0 0.002198 396.98813 412.22021
428.0 0.002336 396.72449 410.58136
432.0 0.002315 396.46085 409.14520
444.0 0.002252 396.19705 407.87289
442.0 0.002262 395.93341 406.73740
468.0 0.002137 395.66977 405.71759
491.0 0.002037 395.40613 404.79837
435.0 0.002299 395.14233 404.13416
428.0 0.002336 394.87869 403.69247
455.0 0.002198 394.61505 403.04871
435.0 0.002299 394.35138 403.05722
429.0 0.002331 394.08774 402.69995
467.0 0.002141 393.82397 402.38776
398.0 0.002513 393.56033 402.24930
447.0 0.002237 393.29666 402.35452
416.0 0.002404 393.03302 402.79617
422.0 0.002370 392.76938 403.68048
458.0 0.002183 392.50562 405.11050
422.0 0.002370 392.24194 407.15561
404.0 0.002475 391.97830 409.81488
408.0 0.002451 391.71454 412.98425
404.0 0.002475 391.45099 416.42325
411.0 0.002433 391.18723 419.76962
453.0 0.002208 390.92358 422.59842
451.0 0.002217 390.65994 424.53110
399.0 0.002506 390.39615 425.20795
409.0 0.002445 390.13251 424.61398
417.0 0.002398 389.86887 422.04916
402.0 0.002488 389.60522 418.96964
440.0 0.002273 389.34155 415.06937
441.0 0.002268 389.07779 411.02826
392.0 0.002551 388.81415 407.33856
417.0 0.002398 388.55051 404.12131
405.0 0.002469 388.28671 401.55054
385.0 0.002597 388.02319 399.63632
452.0 0.002212 387.75943 398.32614
419.0 0.002387 387.49576 396.11902
383.0 0.002611 387.23212 395.87094
391.0 0.002558 386.96835 396.04654
430.0 0.002326 386.70471 396.66812
407.0 0.002457 386.44104 397.81555
410.0 0.002439 386.17740 399.57803
397.0 0.002519 385.91376 402.06586
409.0 0.002445 385.64999 405.35141
425.0 0.002353 385.38632 409.43576
425.0 0.002353 385.12268 414.21140
451.0 0.002217 384.85904 419.42490
430.0 0.002326 384.59537 424.67087
428.0 0.002336 384.33160 429.41144
445.0 0.002247 384.06796 433.42184
442.0 0.002262 383.80432 436.11447
466.0 0.002146 383.54065 438.42911
432.0 0.002315 383.27689 441.70801
457.0 0.002188 383.01324 447.64780
449.0 0.002227 382.74960 457.60403
452.0 0.002212 382.48593 472.99908
431.0 0.002320 382.22229 494.14435
473.0 0.002114 381.95853 521.05951
498.0 0.002008 381.69489 552.50232
580.0 0.001724 381.43121 585.91345
597.0 0.001675 381.16745 617.49896
605.0 0.001653 380.90393 642.02393
644.0 0.001553 380.64014 655.13647
633.0 0.001580 380.37650 653.54724
599.0 0.001669 380.11285 637.79443
594.0 0.001684 379.84909 610.83582
519.0 0.001927 379.58554 577.90485
558.0 0.001792 379.32178 543.80994
483.0 0.002070 379.05814 512.10449
484.0 0.002066 378.79446 485.22354
446.0 0.002242 378.53070 464.09949
477.0 0.002096 378.26706 448.89929
457.0 0.002188 378.00342 439.16391
476.0 0.002101 377.73965 434.09558
465.0 0.002151 377.47610 432.72247
461.0 0.002169 377.21234 434.00320
467.0 0.002141 376.94870 436.88397
487.0 0.002053 376.68503 440.38733
497.0 0.002012 376.42126 443.73370
483.0 0.002070 376.15762 446.37540
523.0 0.001912 375.89398 447.84982
474.0 0.002110 375.63031 447.63330
444.0 0.002252 375.36667 445.27948
464.0 0.002155 375.10291 440.81937
486.0 0.002058 374.83926 434.96912
510.0 0.001961 374.57559 428.85590
431.0 0.002320 374.31195 423.62564
403.0 0.002481 374.04831 420.21930
440.0 0.002273 374.01245 419.54117
462.0 0.002165 374.04413 421.78326
439.0 0.002278 374.07581 426.85419
423.0 0.002364 374.10748 434.13406
451.0 0.002217 374.13916 443.10873
451.0 0.002217 374.17084 452.37735
436.0 0.002294 374.20251 460.54382
472.0 0.002119 374.23419 466.40121
434.0 0.002304 374.26587 469.59665
451.0 0.002217 374.29755 469.70694
440.0 0.002273 374.32922 467.91513
445.0 0.002247 374.36090 465.39301
459.0 0.002179 374.39258 463.10562
428.0 0.002336 374.42426 461.99551
442.0 0.002262 374.45593 461.27148
465.0 0.002151 374.48761 461.28583
411.0 0.002433 374.51929 462.26306
460.0 0.002174 374.55096 464.71042
419.0 0.002387 374.58264 469.21689
443.0 0.002257 374.61432 475.94925
461.0 0.002169 374.64600 484.64209
522.0 0.001916 374.67767 495.25009
520.0 0.001923 374.70935 507.65332
488.0 0.002049 374.74103 521.68640
497.0 0.002012 374.77271 536.77374
543.0 0.001842 374.80438 551.52173
502.0 0.001992 374.83606 563.65497
600.0 0.001667 374.86774 570.07349
561.0 0.001783 374.89941 569.45459
536.0 0.001866 374.93109 560.59845
453.0 0.002208 374.96277 546.43207
472.0 0.002119 374.99445 529.54279
507.0 0.001972 375.02612 513.19568
459.0 0.002179 375.05780 499.99683
455.0 0.002198 375.08948 491.48419
450.0 0.002222 375.12115 488.01276
463.0 0.002160 375.15283 488.72134
434.0 0.002304 375.18451 491.67941
448.0 0.002232 375.21619 494.24966
475.0 0.002105 375.24786 493.74048
478.0 0.002092 375.27954 488.77661
443.0 0.002257 375.31122 478.36975
429.0 0.002331 375.34290 464.32861
496.0 0.002016 375.37457 448.77869
415.0 0.002410 375.40625 433.65619
401.0 0.002494 375.43793 420.42087
374.0 0.002674 375.46960 409.84268
410.0 0.002439 375.50128 402.06772
424.0 0.002358 375.53296 396.81857
377.0 0.002653 375.56464 393.60132
405.0 0.002469 375.59631 391.91385
417.0 0.002398 375.62799 391.39511
402.0 0.002488 375.65967 391.75836
396.0 0.002525 375.69135 393.32635
456.0 0.002193 375.72302 395.48218
384.0 0.002604 375.75470 398.74332
429.0 0.002331 375.78638 403.19739
453.0 0.002208 375.81805 409.35303
475.0 0.002105 375.84973 417.21411
481.0 0.002079 375.88141 426.79730
478.0 0.002092 375.91309 437.90750
527.0 0.001898 375.94476 450.10764
490.0 0.002041 375.97644 462.73389
507.0 0.001972 376.00812 474.87155
564.0 0.001773 376.03979 485.32059
531.0 0.001883 376.07147 492.56418
561.0 0.001783 376.10315 495.14764
526.0 0.001901 376.13483 492.42584
497.0 0.002012 376.16650 485.11966
471.0 0.002123 376.19818 474.99817
465.0 0.002151 376.22986 464.13971
448.0 0.002232 376.26154 454.43561
456.0 0.002193 376.29321 447.48438
469.0 0.002132 376.32489 444.66891
428.0 0.002336 376.35657 447.17285
439.0 0.002278 376.38824 455.92294
458.0 0.002183 376.41992 471.34027
477.0 0.002096 376.45160 493.39597
538.0 0.001859 376.48328 520.91071
501.0 0.001996 376.51495 551.71332
534.0 0.001873 376.54663 582.48926
587.0 0.001704 376.57831 609.03143
598.0 0.001672 376.60999 626.93243
586.0 0.001706 376.64166 632.75995
565.0 0.001770 376.67334 625.41016
517.0 0.001934 376.70502 606.48047
527.0 0.001898 376.73669 579.47290
462.0 0.002165 376.76837 548.57068
466.0 0.002146 376.80005 517.71582
471.0 0.002123 376.83173 489.75778
441.0 0.002268 376.86340 466.44312
438.0 0.002283 376.89508 448.32938
439.0 0.002278 376.92676 435.27887
436.0 0.002294 376.95844 426.63037
402.0 0.002488 376.99011 420.94287
444.0 0.002252 377.02179 418.73660
454.0 0.002203 377.05347 418.59839
434.0 0.002304 377.08517 419.93063
461.0 0.002169 377.11682 422.32559
447.0 0.002237 377.14850 425.60306
474.0 0.002110 377.18018 429.75290
452.0 0.002212 377.21185 434.78033
501.0 0.001996 377.24356 440.54193
489.0 0.002045 377.27521 446.61783
471.0 0.002123 377.30688 452.29779
537.0 0.001862 377.33856 456.46701
492.0 0.002033 377.37024 458.06158
454.0 0.002203 377.40195 456.39023
494.0 0.002024 377.43359 451.54794
479.0 0.002088 377.46527 444.33960
475.0 0.002105 377.51755 436.30444
495.0 0.002020 377.61450 427.59937
473.0 0.002114 377.71155 419.31012
447.0 0.002237 377.80856 411.90189
423.0 0.002364 377.90558 405.53384
433.0 0.002309 378.00266 400.44373
399.0 0.002506 378.09967 396.48950
400.0 0.002500 378.19669 393.53836
433.0 0.002309 378.29370 391.40366
386.0 0.002591 378.39072 389.89456
419.0 0.002387 378.48776 388.85013
376.0 0.002660 378.58478 388.16013
384.0 0.002604 378.68179 387.77243
401.0 0.002494 378.77881 387.68182
403.0 0.002481 378.87582 387.90570
399.0 0.002506 378.97287 388.60153
388.0 0.002577 379.06989 389.48041
391.0 0.002558 379.16690 390.62781
398.0 0.002513 379.26392 391.93549
432.0 0.002315 379.36099 393.24417
376.0 0.002660 379.45801 394.35892
358.0 0.002793 379.55502 395.09583
375.0 0.002667 379.65204 395.34872
401.0 0.002494 379.74905 395.14853
406.0 0.002463 379.84610 394.66220
378.0 0.002646 379.94312 394.14987
368.0 0.002717 380.04013 393.78302
378.0 0.002646 380.13715 393.75674
413.0 0.002421 380.23416 394.16226
422.0 0.002370 380.33121 395.13388
398.0 0.002513 380.42822 396.32513
399.0 0.002506 380.52524 397.69730
402.0 0.002488 380.62231 399.04599
399.0 0.002506 380.71927 400.17468
385.0 0.002597 380.81631 400.93387
367.0 0.002725 380.91333 401.03253
403.0 0.002481 381.01035 400.84039
406.0 0.002463 381.10742 400.24002
381.0 0.002625 381.20444 399.43161
392.0 0.002551 381.30145 398.68207
397.0 0.002519 381.39850 398.27124
420.0 0.002381 381.49548 398.46274
387.0 0.002584 381.59253 399.23361
383.0 0.002611 381.68954 401.34616
392.0 0.002551 381.78656 404.71414
394.0 0.002538 381.88361 409.47543
407.0 0.002457 381.98059 415.69067
362.0 0.002762 382.07764 423.31839
403.0 0.002481 382.17465 432.16495
405.0 0.002469 382.27167 441.87326
399.0 0.002506 382.36874 451.80905
418.0 0.002392 382.46576 461.10077
423.0 0.002364 382.56277 468.64548
466.0 0.002146 382.65979 473.25644
400.0 0.002500 382.75681 474.25562
426.0 0.002347 382.85385 471.60727
385.0 0.002597 382.95087 466.17816
436.0 0.002294 383.04788 459.06934
424.0 0.002358 383.14490 451.44809
429.0 0.002331 383.24194 443.85760
413.0 0.002421 383.33896 436.89178
402.0 0.002488 383.43597 430.49683
403.0 0.002481 383.53299 425.64572
421.0 0.002375 383.63000 422.15814
431.0 0.002320 383.72705 420.16348
412.0 0.002427 383.82407 419.65305
413.0 0.002421 383.92108 420.47293
447.0 0.002237 384.01810 422.31097
398.0 0.002513 384.11511 424.74182
437.0 0.002288 384.21213 427.24988
460.0 0.002174 384.30920 429.32544
438.0 0.002283 384.40622 430.64618
399.0 0.002506 384.50327 431.26996
435.0 0.002299 384.60025 431.62534
453.0 0.002208 384.69727 432.29172
434.0 0.002304 384.79431 433.76068
396.0 0.002525 384.89133 436.29190
430.0 0.002326 384.98837 439.85492
499.0 0.002004 385.08539 444.10681
447.0 0.002237 385.18237 448.42209
458.0 0.002183 385.27942 451.96228
480.0 0.002083 385.37643 453.82275
485.0 0.002062 385.47351 453.30789
448.0 0.002232 385.57053 450.24261
453.0 0.002208 385.66748 445.05389
432.0 0.002315 385.76456 438.52283
425.0 0.002353 385.86154 431.41428
403.0 0.002481 385.95862 424.44666
413.0 0.002421 386.05563 418.00406
420.0 0.002381 386.15265 412.30270
392.0 0.002551 386.24966 407.50815
406.0 0.002463 386.34671 403.62286
416.0 0.002404 386.44373 400.60931
420.0 0.002381 386.54074 398.38367
400.0 0.002500 386.63776 396.83350
390.0 0.002564 386.73477 395.83795
421.0 0.002375 386.83182 395.28024
428.0 0.002336 386.92883 395.05084
422.0 0.002370 387.02585 395.04993
412.0 0.002427 387.12286 395.18637
393.0 0.002545 387.21988 395.37592
453.0 0.002208 387.31696 395.53775
414.0 0.002415 387.41397 395.70578
417.0 0.002398 387.51099 395.62860
445.0 0.002247 387.60800 395.41306
427.0 0.002342 387.70502 395.10818
394.0 0.002538 387.80206 394.78662
429.0 0.002331 387.89908 394.52380
346.0 0.002890 387.99609 394.38898
383.0 0.002611 388.09311 394.44370
419.0 0.002387 388.19016 394.77927
388.0 0.002577 388.04407 395.12741
412.0 0.002427 387.85742 395.76270
403.0 0.002481 387.67096 396.74905
423.0 0.002364 387.48441 398.09000
417.0 0.002398 387.29776 399.76373
397.0 0.002519 387.11121 401.71265
391.0 0.002558 386.92456 403.83582
408.0 0.002451 386.73807 405.98071
394.0 0.002538 386.55151 407.94403
393.0 0.002545 386.36487 409.57657
406.0 0.002463 386.17831 410.51572
437.0 0.002288 385.99167 410.74829
409.0 0.002445 385.80511 410.32916
364.0 0.002747 385.61862 409.55850
421.0 0.002375 385.43198 408.46362
396.0 0.002525 385.24542 407.43802
394.0 0.002538 385.05878 406.73495
435.0 0.002299 384.87222 406.34964
388.0 0.002577 384.68564 406.82889
398.0 0.002513 384.49908 408.01923
418.0 0.002392 384.31244 409.98181
401.0 0.002494 384.12589 412.46857
450.0 0.002222 383.93933 415.40976
433.0 0.002309 383.75278 418.63095
431.0 0.002320 383.56619 421.93585
444.0 0.002252 383.37958 425.07983
447.0 0.002237 383.19299 427.73422
377.0 0.002653 383.00644 429.48431
462.0 0.002165 382.81989 429.97031
447.0 0.002237 382.63333 428.84653
404.0 0.002475 382.44669 426.21826
439.0 0.002278 382.26010 422.42502
406.0 0.002463 382.07355 417.94012
412.0 0.002427 381.88699 413.21225
410.0 0.002439 381.70044 408.59119
418.0 0.002392 381.51379 404.32050
399.0 0.002506 381.32724 400.55045
409.0 0.002445 381.14066 397.35986
377.0 0.002653 380.95410 394.57257
358.0 0.002793 380.76746 392.58240
355.0 0.002817 380.58090 391.15405
410.0 0.002439 380.39435 390.25992
399.0 0.002506 380.20779 389.86035
424.0 0.002358 380.02121 389.95132
395.0 0.002532 379.83456 390.54166
393.0 0.002545 379.64801 391.64432
431.0 0.002320 379.46136 393.31952
377.0 0.002653 379.27490 395.58853
409.0 0.002445 379.08835 398.47266
367.0 0.002725 378.90170 401.96390
400.0 0.002500 378.71512 406.00644
383.0 0.002611 378.52847 410.57614
410.0 0.002439 378.34192 415.36017
461.0 0.002169 378.15546 420.29108
451.0 0.002217 377.96881 425.22580
434.0 0.002304 377.78226 429.99274
408.0 0.002451 377.59561 434.35349
431.0 0.002320 377.40903 438.03519
500.0 0.002000 377.22247 440.85489
416.0 0.002404 377.03592 442.82181
477.0 0.002096 376.84937 444.10751
480.0 0.002083 376.66272 444.89972
453.0 0.002208 376.47617 445.28976
449.0 0.002227 376.28958 445.27090
485.0 0.002062 376.10303 444.77603
507.0 0.001972 375.91638 443.68353
510.0 0.001961 375.72983 441.82352
433.0 0.002309 375.54327 439.03644
446.0 0.002242 375.35672 435.33374
416.0 0.002404 375.17014 430.89725
422.0 0.002370 374.98349 425.98624
466.0 0.002146 374.79694 420.88251
427.0 0.002342 374.61038 415.89618
412.0 0.002427 374.42383 411.35504
400.0 0.002500 374.23727 407.55753
411.0 0.002433 374.05063 404.71664
415.0 0.002410 373.86404 402.93369
397.0 0.002519 373.67749 402.17468
365.0 0.002740 373.49094 402.35037
401.0 0.002494 373.30438 403.19308
408.0 0.002451 373.11774 404.39569
444.0 0.002252 372.93118 405.66556
400.0 0.002500 372.74460 406.73834
408.0 0.002451 372.55804 407.45374
388.0 0.002577 372.37140 407.72980
414.0 0.002415 372.18484 407.49304
419.0 0.002387 371.99820 406.64114
418.0 0.002392 371.81174 405.07220
391.0 0.002558 371.62515 402.77301
380.0 0.002632 371.43851 399.86630
406.0 0.002463 371.25195 396.58264
381.0 0.002625 371.06531 393.18280
352.0 0.002841 370.87875 389.87061
355.0 0.002817 370.69229 386.80420
390.0 0.002564 370.50565 384.07892
361.0 0.002770 370.31906 381.74936
388.0 0.002577 370.13242 379.83701
382.0 0.002618 369.94586 378.34201
362.0 0.002762 369.75940 377.24826
368.0 0.002717 369.57275 376.52963
343.0 0.002915 369.38620 376.15295
410.0 0.002439 369.19955 376.07773
324.0 0.003086 369.01297 376.25513
380.0 0.002632 368.82642 376.62463
329.0 0.003040 368.63986 377.06519
390.0 0.002564 368.45322 377.58496
357.0 0.002801 368.26666 378.15918
375.0 0.002667 368.08011 378.45044
386.0 0.002591 367.89352 378.50729
359.0 0.002786 367.70697 378.30997
393.0 0.002545 367.46606 377.76807
352.0 0.002841 367.14395 377.08594
363.0 0.002755 366.82184 376.36218
384.0 0.002604 366.49973 375.68024
377.0 0.002653 366.17758 375.09860
347.0 0.002882 365.85532 374.64758
396.0 0.002525 365.53320 374.33237
381.0 0.002625 365.21109 374.14023
364.0 0.002747 364.88898 374.05792
390.0 0.002564 364.56686 374.09137
385.0 0.002597 364.24460 374.28140
394.0 0.002538 363.92245 374.70261
372.0 0.002688 363.60034 375.44669
389.0 0.002571 363.27823 376.60110
373.0 0.002681 362.95596 377.88660
361.0 0.002770 362.63385 380.02509
408.0 0.002451 362.31158 382.67535
363.0 0.002755 361.98959 385.67346
427.0 0.002342 361.66748 388.90585
389.0 0.002571 361.34521 392.15005
379.0 0.002639 361.02310 395.11053
429.0 0.002331 360.70084 397.46881
407.0 0.002457 360.37885 398.84189
375.0 0.002667 360.05673 399.06049
406.0 0.002463 359.73447 398.28876
378.0 0.002646 359.41235 396.53598
449.0 0.002227 359.09009 394.32062
400.0 0.002500 358.76797 392.03784
390.0 0.002564 358.44598 390.00052
368.0 0.002717 358.12372 388.41190
377.0 0.002653 357.80161 387.36496
346.0 0.002890 357.47934 386.84360
356.0 0.002809 357.15723 386.81250
370.0 0.002703 356.83511 386.91449
395.0 0.002532 356.51300 386.98300
363.0 0.002755 356.19073 386.79846
378.0 0.002646 355.86859 386.23853
376.0 0.002660 355.54648 385.29669
401.0 0.002494 355.22437 384.03894
366.0 0.002732 354.90225 382.53561
390.0 0.002564 354.57999 380.82590
381.0 0.002625 354.25787 378.92145
343.0 0.002915 353.93573 376.84241
375.0 0.002667 353.61362 374.64999
360.0 0.002778 353.29150 372.39386
381.0 0.002625 352.96924 370.33533
365.0 0.002740 352.64713 368.53268
367.0 0.002725 352.32498 367.08148
376.0 0.002660 352.00287 366.08911
371.0 0.002695 351.68076 365.53040
409.0 0.002445 351.35849 365.43362
409.0 0.002445 351.03638 365.84311
388.0 0.002577 350.71426 366.71207
382.0 0.002618 350.39212 368.02878
383.0 0.002611 350.06985 369.75122
398.0 0.002513 349.74774 371.83167
381.0 0.002625 349.42563 374.21265
352.0 0.002841 349.10352 376.80676
367.0 0.002725 348.78140 379.47327
405.0 0.002469 348.45914 381.99814
390.0 0.002564 348.13699 384.09183
379.0 0.002639 347.81473 385.48331
367.0 0.002725 347.49277 385.78897
347.0 0.002882 347.17065 384.95670
393.0 0.002545 346.84839 383.11063
380.0 0.002632 346.52625 380.65707
374.0 0.002674 346.20401 377.86414
375.0 0.002667 345.88187 375.19379
367.0 0.002725 345.55991 372.97363
416.0 0.002404 345.23764 371.44739
382.0 0.002618 344.91553 370.76694
428.0 0.002336 344.59326 370.98230
375.0 0.002667 344.27112 372.06107
402.0 0.002488 343.94901 373.79791
404.0 0.002475 343.62689 375.95206
387.0 0.002584 343.30478 378.16379
399.0 0.002506 342.98251 380.00516
390.0 0.002564 342.66040 381.04947
411.0 0.002433 342.33826 380.93378
416.0 0.002404 342.01614 379.55679
440.0 0.002273 341.69388 377.07071
442.0 0.002262 341.37177 373.81683
384.0 0.002604 341.04965 370.19873
342.0 0.002924 340.72751 366.62833
393.0 0.002545 340.40540 363.33005
412.0 0.002427 340.08313 360.57077
385.0 0.002597 339.76102 358.48792
356.0 0.002809 339.43890 357.15219
373.0 0.002681 339.11679 356.56229
351.0 0.002849 338.79465 356.65958
345.0 0.002899 338.47238 357.34149
350.0 0.002857 338.15027 358.47363
391.0 0.002558 337.82816 359.92834
355.0 0.002817 337.50604 361.52618
349.0 0.002865 337.18393 363.12094
397.0 0.002519 336.86166 364.59674
368.0 0.002717 336.53952 365.83237
384.0 0.002604 336.21741 366.76364
367.0 0.002725 335.89529 367.37799
376.0 0.002660 335.57303 367.54071
357.0 0.002801 335.25092 367.41934
391.0 0.002558 334.92865 367.10101
356.0 0.002809 334.60666 366.67300
407.0 0.002457 334.28455 366.23007
381.0 0.002625 333.96228 365.74771
353.0 0.002833 333.64017 365.65024
343.0 0.002915 333.31790 365.91327
332.0 0.003012 332.99579 366.61365
327.0 0.003058 332.67380 367.75980
348.0 0.002874 332.35153 369.27905
341.0 0.002933 332.02942 371.02478
351.0 0.002849 331.78137 372.81723
348.0 0.002874 331.53790 374.30954
329.0 0.003040 331.29459 375.21408
367.0 0.002725 331.05103 375.38104
331.0 0.003021 330.80759 374.63824
360.0 0.002778 330.56403 373.16934
331.0 0.003021 330.32059 371.21988
409.0 0.002445 330.07715 369.09619
343.0 0.002915 329.83368 367.08807
364.0 0.002747 329.59015 365.43076
356.0 0.002809 329.34668 364.28845
359.0 0.002786 329.10324 363.75052
391.0 0.002558 328.85980 363.83347
393.0 0.002545 328.61636 364.49277
365.0 0.002740 328.37280 365.68335
395.0 0.002532 328.12936 367.23990
337.0 0.002967 327.88593 369.10791
342.0 0.002924 327.64246 371.25629
391.0 0.002558 327.39902 373.29077
357.0 0.002801 327.15546 375.29535
383.0 0.002611 326.91202 377.04565
381.0 0.002625 326.66858 378.08902
386.0 0.002591 326.42514 378.45551
409.0 0.002445 326.18167 378.17163
368.0 0.002717 325.93814 377.35455
381.0 0.002625 325.69467 376.02332
390.0 0.002564 325.45123 374.25137
414.0 0.002415 325.20779 372.33774
388.0 0.002577 324.96423 369.79584
382.0 0.002618 324.72079 366.93832
357.0 0.002801 324.47723 363.82526
362.0 0.002762 324.23392 360.52823
416.0 0.002404 323.99045 357.13879
325.0 0.003077 323.74692 353.76654
398.0 0.002513 323.50345 350.54126
335.0 0.002985 323.25992 347.57706
329.0 0.003040 323.01657 344.96136
324.0 0.003086 322.77313 342.76297
313.0 0.003195 322.52957 340.98026
346.0 0.002890 322.28613 339.63959
353.0 0.002833 322.04257 338.79016
334.0 0.002994 321.79913 338.33932
368.0 0.002717 321.55579 338.33463
370.0 0.002703 321.31223 338.77811
326.0 0.003067 321.06879 339.66513
334.0 0.002994 320.82523 340.97769
316.0 0.003165 320.58179 342.70840
337.0 0.002967 320.33835 344.76108
357.0 0.002801 320.09491 347.11734
342.0 0.002924 319.85135 349.62964
381.0 0.002625 319.60791 352.23386
332.0 0.003012 319.36444 354.78336
372.0 0.002688 319.12100 357.11362
339.0 0.002950 318.87756 359.02835
367.0 0.002725 318.63400 360.38547
377.0 0.002653 318.39056 361.16656
359.0 0.002786 318.14713 361.51324
344.0 0.002907 317.90366 361.70776
334.0 0.002994 317.66022 362.08789
341.0 0.002933 317.41666 362.92087
376.0 0.002660 317.17322 364.51898
352.0 0.002841 316.92978 367.04654
339.0 0.002950 316.68634 370.61221
325.0 0.003077 316.44290 375.19650
354.0 0.002825 316.19934 380.64529
348.0 0.002874 315.95590 386.67569
391.0 0.002558 315.71243 392.80954
381.0 0.002625 315.46899 398.49823
401.0 0.002494 315.22543 403.09073
446.0 0.002242 314.98199 406.12592
396.0 0.002525 314.73856 407.31271
389.0 0.002571 314.49512 406.65723
384.0 0.002604 314.25165 404.67154
381.0 0.002625 314.00812 402.02917
378.0 0.002646 313.76465 399.52386
390.0 0.002564 313.52112 397.72452
377.0 0.002653 313.27777 397.01688
406.0 0.002463 313.03433 397.53809
391.0 0.002558 312.79077 399.19351
391.0 0.002558 312.54733 401.70236
383.0 0.002611 312.30377 404.65857
391.0 0.002558 312.06033 407.59210
458.0 0.002183 311.81699 410.02460
411.0 0.002433 311.57343 411.51071
408.0 0.002451 311.32999 411.60736
417.0 0.002398 311.08643 410.23431
418.0 0.002392 310.84299 407.25900
394.0 0.002538 310.59955 402.80890
409.0 0.002445 310.35611 397.16895
408.0 0.002451 310.11264 390.74121
377.0 0.002653 309.86911 383.97342
371.0 0.002695 309.62564 377.28030
367.0 0.002725 309.38220 370.97284
392.0 0.002551 309.13876 365.24030
356.0 0.002809 308.89520 360.20999
379.0 0.002639 308.65176 355.81415
368.0 0.002717 308.40833 352.02225
375.0 0.002667 308.16489 349.00665
364.0 0.002747 307.92142 346.72433
363.0 0.002755 307.67789 345.19891
353.0 0.002833 307.43442 344.41693
349.0 0.002865 307.19098 344.31628
363.0 0.002755 306.94754 344.78680
342.0 0.002924 306.70410 345.67661
387.0 0.002584 306.46054 346.79813
334.0 0.002994 306.21710 347.94446
377.0 0.002653 305.97366 348.91382
345.0 0.002899 305.73019 349.55069
347.0 0.002882 305.48676 349.76654
346.0 0.002890 305.24319 349.55237
332.0 0.003012 305.00961 348.94269
346.0 0.002890 304.78644 348.02518
346.0 0.002890 304.56326 346.61844
373.0 0.002681 304.34000 344.64691
350.0 0.002857 304.11682 342.29276
343.0 0.002915 303.89355 339.47736
333.0 0.003003 303.67050 336.29626
328.0 0.003049 303.44733 332.89499
347.0 0.002882 303.22406 329.44189
314.0 0.003185 303.00089 326.09875
355.0 0.002817 302.77762 322.99814
304.0 0.003289 302.55444 320.23431
320.0 0.003125 302.33139 317.86520
325.0 0.003077 302.10812 315.91602
330.0 0.003030 301.88495 314.38785
305.0 0.003279 301.66168 313.26022
302.0 0.003311 301.43851 312.49957
317.0 0.003155 301.21545 312.06277
329.0 0.003040 300.99219 311.90298
326.0 0.003067 300.76901 311.94955
325.0 0.003077 300.54575 312.21552
340.0 0.002941 300.32257 312.64432
324.0 0.003086 300.09940 313.22089
316.0 0.003165 299.87622 313.91129
337.0 0.002967 299.65295 314.69559
319.0 0.003135 299.42981 315.53607
310.0 0.003226 299.20663 316.37787
334.0 0.002994 298.98346 317.15302
324.0 0.003086 298.76028 317.78867
309.0 0.003236 298.53702 318.22476
336.0 0.002976 298.31384 318.43845
333.0 0.003003 298.09070 318.49536
342.0 0.002924 297.86752 318.39340
342.0 0.002924 297.64435 318.36383
323.0 0.003096 297.42108 318.28854
331.0 0.003021 297.19791 318.36893
337.0 0.002967 296.97473 318.65927
325.0 0.003077 296.75159 319.16125
268.0 0.00373 296.52841 319.86215
337.0 0.002967 296.30515 320.63571
330.0 0.003030 296.08197 321.61395
327.0 0.003058 295.85880 322.60086
318.0 0.003145 295.63565 323.56747
283.0 0.00353 295.41235 324.54309
321.0 0.003115 295.18921 325.46085
314.0 0.003185 294.96594 326.42612
319.0 0.003135 294.74286 327.47427
294.0 0.003401 294.51968 328.64758
338.0 0.002959 294.29642 329.92825
313.0 0.003195 294.07324 331.23203
302.0 0.003311 293.84998 332.48740
307.0 0.003257 293.62692 333.35736
328.0 0.003049 293.40375 333.70822
306.0 0.003268 293.18048 333.41107
330.0 0.003030 292.95731 332.28659
294.0 0.003401 292.73404 330.31769
335.0 0.002985 292.51086 327.51816
300.0 0.003333 292.28781 324.16666
309.0 0.003236 292.06454 320.45197
280.0 0.00357 291.84137 316.60776
293.0 0.003413 291.61810 312.81906
289.0 0.003460 291.39493 309.27112
297.0 0.003367 291.17175 306.07623
282.0 0.00355 290.94861 303.29791
300.0 0.003333 290.72534 300.95828
305.0 0.003279 290.50217 299.04492
274.0 0.00365 290.27899 297.52042
320.0 0.003125 290.05582 296.29663
315.0 0.003175 289.83267 295.22009
298.0 0.003356 289.60938 294.55023
314.0 0.003185 289.38623 294.06888
283.0 0.00353 289.16306 293.74512
291.0 0.003436 288.93988 293.56116
278.0 0.00360 288.71671 293.51068
318.0 0.003145 288.49344 293.59735
311.0 0.003215 288.27029 293.82773
306.0 0.003268 288.04712 294.21637
278.0 0.00360 287.82394 294.78949
315.0 0.003175 287.60077 295.54559
315.0 0.003175 287.37750 296.51492
289.0 0.003460 287.15433 297.71689
337.0 0.002967 286.93118 299.16568
288.0 0.003472 286.70801 300.86380
320.0 0.003125 286.48474 302.79294
315.0 0.003175 286.26157 304.91000
305.0 0.003279 286.03839 307.15121
320.0 0.003125 285.81522 309.43402
303.0 0.003300 285.59207 311.66013
324.0 0.003086 285.36880 313.70462
312.0 0.003205 285.14563 315.41351
311.0 0.003215 284.92236 316.61615
293.0 0.003413 284.69928 317.16058
353.0 0.002833 284.47610 316.96371
306.0 0.003268 284.25284 316.05908
319.0 0.003135 284.02969 314.60999
289.0 0.003460 283.80640 312.90204
294.0 0.003401 283.58325 311.18732
310.0 0.003226 283.36017 309.78192
344.0 0.002907 283.13690 308.93329
320.0 0.003125 282.91373 308.82040
318.0 0.003145 282.69046 309.54477
320.0 0.003125 282.46732 311.09232
325.0 0.003077 282.24414 313.38565
333.0 0.003003 282.02097 316.26282
328.0 0.003049 281.79779 319.50006
347.0 0.002882 281.57452 322.86722
349.0 0.002865 281.35135 326.04480
345.0 0.002899 281.12820 328.83353
364.0 0.002747 280.90503 331.10648
347.0 0.002882 280.68176 332.70776
364.0 0.002747 280.46097 333.62350
317.0 0.003155 280.32123 333.92499
337.0 0.002967 280.18146 333.52393
337.0 0.002967 280.04172 332.40637
294.0 0.003401 279.90189 330.56320
346.0 0.002890 279.76212 328.01700
324.0 0.003086 279.62238 324.85645
318.0 0.003145 279.48260 321.14526
314.0 0.003185 279.34283 317.26663
334.0 0.002994 279.20303 313.32312
308.0 0.003247 279.06326 309.47580
262.0 0.00382 278.92349 305.83820
333.0 0.003003 278.78375 302.47531
302.0 0.003311 278.64398 299.39752
290.0 0.003448 278.50415 296.80954
270.0 0.00370 278.36441 294.37155
284.0 0.00352 278.22464 292.15576
297.0 0.003367 278.08487 290.29169
300.0 0.003333 277.94507 288.70383
285.0 0.00351 277.80530 287.38254
248.0 0.00403 277.66547 286.31494
271.0 0.00369 277.52579 285.48630
298.0 0.003356 277.38602 284.89133
305.0 0.003279 277.24619 284.49057
286.0 0.003497 277.10645 284.27802
307.0 0.003257 276.96661 284.23303
268.0 0.00373 276.82684 284.33353
289.0 0.003460 276.68716 284.55255
288.0 0.003472 276.54733 284.85834
282.0 0.00355 276.40759 285.23120
303.0 0.003300 276.26776 285.59338
289.0 0.003460 276.12799 285.91721
305.0 0.003279 275.98831 286.20465
295.0 0.003390 275.84848 286.38239
264.0 0.00379 275.70871 286.39740
303.0 0.003300 275.56891 286.30408
283.0 0.00353 275.42914 286.13535
295.0 0.003390 275.28937 285.93402
313.0 0.003195 275.14963 285.77274
318.0 0.003145 275.00980 285.62720
269.0 0.00372 274.87003 285.60397
279.0 0.00358 274.73029 285.61868
306.0 0.003268 274.59052 285.73083
273.0 0.00366 274.45074 285.92242
276.0 0.00362 274.31094 286.18552
294.0 0.003401 274.17117 286.50314
284.0 0.00352 274.03140 286.86124
289.0 0.003460 273.89166 287.26556
263.0 0.00380 273.75189 287.70816
306.0 0.003268 273.61206 288.21143
268.0 0.00373 273.47232 288.76556
317.0 0.003155 273.33255 289.41550
259.0 0.00386 273.19278 290.12335
298.0 0.003356 273.05304 290.86032
266.0 0.00376 272.91321 291.59076
289.0 0.003460 272.77344 292.28299
315.0 0.003175 272.63370 292.94092
263.0 0.00380 272.49393 293.54041
316.0 0.003165 272.35410 294.12863
329.0 0.003040 272.21436 294.73669
314.0 0.003185 272.07452 295.38879
308.0 0.003247 271.93484 296.10568
320.0 0.003125 271.79507 296.89972
286.0 0.003497 271.65524 297.78708
289.0 0.003460 271.51550 298.79468
294.0 0.003401 271.37567 299.96338
260.0 0.00385 271.23596 301.34512
304.0 0.003289 271.09622 303.00189
289.0 0.003460 270.95639 305.00024
296.0 0.003378 270.81662 307.39606
318.0 0.003145 270.67682 310.21884
280.0 0.00357 270.53705 313.45395
300.0 0.003333 270.39734 317.03745
294.0 0.003401 270.25754 320.85413
314.0 0.003185 270.11777 324.74524
333.0 0.003003 269.97794 328.51953
372.0 0.002688 269.83820 331.99530
342.0 0.002924 269.69843 334.96127
319.0 0.003135 269.55865 337.19736
348.0 0.002874 269.41885 338.47482
342.0 0.002924 269.27908 338.57877
326.0 0.003067 269.13931 337.40463
322.0 0.003106 268.99957 335.00577
309.0 0.003236 268.85980 331.61349
317.0 0.003155 268.71997 327.54434
339.0 0.002950 268.58023 323.21994
296.0 0.003378 268.44046 318.85172
322.0 0.003106 268.30072 314.91791
304.0 0.003289 268.16095 311.47229
321.0 0.003115 268.02112 308.59317
283.0 0.00353 267.88138 306.27505
314.0 0.003185 267.74161 304.44287
282.0 0.00355 267.60184 302.96967
309.0 0.003236 267.46210 301.70670
285.0 0.00351 267.32227 300.51785
295.0 0.003390 267.18250 299.27798
297.0 0.003367 267.04276 297.96783
287.0 0.003484 266.90298 296.53479
300.0 0.003333 266.76315 295.00189
274.0 0.00365 266.62341 293.29614
300.0 0.003333 266.48364 291.50192
281.0 0.00356 266.34387 289.67496
306.0 0.003268 266.20413 287.87698
291.0 0.003436 266.06430 286.14749
291.0 0.003436 265.92453 284.52698
282.0 0.00355 265.78473 283.03802
280.0 0.00357 265.64502 281.86865
276.0 0.00362 265.50525 280.67722
292.0 0.003425 265.36545 279.62546
290.0 0.003448 265.22568 278.71930
264.0 0.00379 265.08585 277.91302
291.0 0.003436 264.96060 277.23468
278.0 0.00360 264.84625 276.68671
241.0 0.00415 264.73181 276.35913
263.0 0.00380 264.61743 276.09216
270.0 0.00370 264.50296 275.98251
273.0 0.00366 264.38858 276.03314
274.0 0.00365 264.27417 276.23740
295.0 0.003390 264.15979 276.57965
265.0 0.00377 264.04538 277.03204
287.0 0.003484 263.93094 277.55804
253.0 0.00395 263.81656 278.19501
234.0 0.00427 263.70215 278.73660
276.0 0.00362 263.58777 279.22559
306.0 0.003268 263.47333 279.64038
295.0 0.003390 263.35892 279.97726
295.0 0.003390 263.24454 280.24384
271.0 0.00369 263.13013 280.45242
281.0 0.00356 263.01575 280.61368
288.0 0.003472 262.90128 280.73569
314.0 0.003185 262.78690 280.80426
284.0 0.00352 262.67249 280.91406
318.0 0.003145 262.55811 280.95282
281.0 0.00356 262.44370 280.95767
320.0 0.003125 262.32925 280.90826
307.0 0.003257 262.21487 280.78934
279.0 0.00358 262.10046 280.59637
290.0 0.003448 261.98608 280.34781
275.0 0.00364 261.87167 280.12183
291.0 0.003436 261.75723 279.91956
279.0 0.00358 261.64285 279.87457
283.0 0.00353 261.52844 280.00397
281.0 0.00356 261.41406 280.39798
272.0 0.00368 261.29962 281.11069
262.0 0.00382 261.18521 282.16385
303.0 0.003300 261.07077 283.64490
296.0 0.003378 260.95642 285.56165
254.0 0.00394 260.84204 287.93408
273.0 0.00366 260.72757 290.73657
292.0 0.003425 260.61319 293.99002
322.0 0.003106 260.49875 297.61288
295.0 0.003390 260.38434 301.51581
307.0 0.003257 260.26999 305.58093
334.0 0.002994 260.15555 309.70078
314.0 0.003185 260.04117 313.73172
350.0 0.002857 259.92673 317.50070
338.0 0.002959 259.81232 320.72165
378.0 0.002646 259.69797 323.14651
371.0 0.002695 259.58353 324.45410
340.0 0.002941 259.46915 324.42010
383.0 0.002611 259.35471 322.94153
342.0 0.002924 259.24030 320.08896
362.0 0.002762 259.12592 316.10147
304.0 0.003289 259.01151 311.33829
329.0 0.003040 258.89706 306.13275
312.0 0.003205 258.78265 300.86987
273.0 0.00366 258.66827 295.87646
293.0 0.003413 258.55386 291.42667
292.0 0.003425 258.43948 287.71509
277.0 0.00361 258.32504 284.87891
290.0 0.003448 258.21063 282.97684
292.0 0.003425 258.09625 281.99905
280.0 0.00357 257.98184 281.87497
285.0 0.00351 257.86746 282.48386
285.0 0.00351 257.75302 283.67270
256.0 0.00391 257.63861 285.22809
324.0 0.003086 257.52423 286.94183
288.0 0.003472 257.40982 288.57300
267.0 0.00375 257.29544 289.89737
274.0 0.00365 257.18097 290.69693
277.0 0.00361 257.06659 290.84189
277.0 0.00361 256.95221 290.32788
275.0 0.00364 256.83780 289.12344
298.0 0.003356 256.72336 287.49307
301.0 0.003322 256.60895 285.59171
267.0 0.00375 256.49451 283.62537
286.0 0.003497 256.38016 281.78976
267.0 0.00375 256.26578 280.25641
270.0 0.00370 256.15134 279.16568
295.0 0.003390 256.03693 278.62421
266.0 0.00376 255.92249 278.70230
279.0 0.00358 255.80815 279.41882
271.0 0.00369 255.69376 280.76297
275.0 0.00364 255.57930 282.68115
268.0 0.00373 255.46490 284.98038
304.0 0.003289 255.35046 287.73605
272.0 0.00368 255.23607 290.68942
292.0 0.003425 255.12172 293.66870
289.0 0.003460 255.00728 296.49881
301.0 0.003322 254.89288 299.01358
296.0 0.003378 254.77844 301.06351
320.0 0.003125 254.66405 302.56131
334.0 0.002994 254.54965 303.33121
345.0 0.002899 254.43526 303.37241
363.0 0.002755 254.32080 302.68848
312.0 0.003205 254.20641 301.36740
276.0 0.00362 254.09201 299.54297
285.0 0.00351 253.97762 297.37741
294.0 0.003401 253.86322 295.04147
286.0 0.003497 253.74878 292.69983
297.0 0.003367 253.63438 290.49365
294.0 0.003401 253.51999 288.56979
318.0 0.003145 253.40559 286.94971
284.0 0.00352 253.29120 285.61285
278.0 0.00360 253.17676 284.57639
273.0 0.00366 253.06236 283.82797
289.0 0.003460 252.94797 283.20322
273.0 0.00366 252.83357 282.65427
281.0 0.00356 252.71918 282.08569
278.0 0.00360 252.60474 281.42010
303.0 0.003300 252.49034 280.59729
274.0 0.00365 252.37198 279.57901
241.0 0.00415 252.22293 278.33209
269.0 0.00372 252.07382 276.91187
262.0 0.00382 251.92477 275.35947
260.0 0.00385 251.77573 273.75851
276.0 0.00362 251.62668 272.14142
286.0 0.003497 251.47763 270.58246
282.0 0.00355 251.32852 269.15012
282.0 0.00355 251.17947 267.87436
271.0 0.00369 251.03035 266.75546
262.0 0.00382 250.88138 265.79398
264.0 0.00379 250.73233 264.99326
257.0 0.00389 250.58321 264.34317
261.0 0.00383 250.43416 263.79337
243.0 0.00412 250.28505 263.41641
246.0 0.00407 250.13600 263.16217
235.0 0.00426 249.98701 263.02231
247.0 0.00405 249.83791 262.97559
259.0 0.00386 249.68886 263.00714
252.0 0.00397 249.53975 263.07968
240.0 0.00417 249.39070 263.16656
259.0 0.00386 249.24165 263.21609
256.0 0.00391 249.09261 263.23688
258.0 0.00388 248.94356 263.18030
273.0 0.00366 248.79445 263.02234
263.0 0.00380 248.64540 262.65216
249.0 0.00402 248.49635 262.25073
268.0 0.00373 248.34731 261.72653
254.0 0.00394 248.19818 261.09854
236.0 0.00424 248.04913 260.39987
276.0 0.00362 247.90009 259.67462
254.0 0.00394 247.75104 258.97125
251.0 0.00398 247.60199 258.33563
237.0 0.00422 247.45288 257.80627
242.0 0.00413 247.30383 257.41177
283.0 0.00353 247.15479 257.16913
250.0 0.00400 247.00574 257.08444
262.0 0.00382 246.85669 257.15268
249.0 0.00402 246.70758 257.37677
248.0 0.00403 246.55853 257.69846
225.0 0.00444 246.40948 258.10522
279.0 0.00358 246.26044 258.72171
255.0 0.00392 246.11139 259.22034
261.0 0.00383 245.96227 259.73572
277.0 0.00361 245.81323 260.26791
246.0 0.00407 245.66418 260.92166
269.0 0.00372 245.51514 261.53940
232.0 0.00431 245.36601 262.21667
248.0 0.00403 245.21696 262.98874
290.0 0.003448 245.06786 263.88263
279.0 0.00358 244.91887 264.92319
280.0 0.00357 244.76982 266.12775
253.0 0.00395 244.62071 267.50067
291.0 0.003436 244.47166 269.02625
284.0 0.00352 244.32256 270.66788
281.0 0.00356 244.17351 272.36017
281.0 0.00356 244.02452 274.02170
283.0 0.00353 243.87541 275.55405
275.0 0.00364 243.72636 276.85388
289.0 0.003460 243.57724 277.83862
306.0 0.003268 243.42819 278.39569
290.0 0.003448 243.27922 278.48969
291.0 0.003436 243.13010 278.11316
280.0 0.00357 242.98105 277.31943
304.0 0.003289 242.83194 276.17795
320.0 0.003125 242.68289 274.78223
278.0 0.00360 242.53384 273.24487
308.0 0.003247 242.38480 271.65903
280.0 0.00357 242.23569 270.09427
251.0 0.00398 242.08664 268.59363
265.0 0.00377 241.93759 267.17780
268.0 0.00373 241.78854 265.85187
272.0 0.00368 241.63950 264.61600
280.0 0.00357 241.49039 263.47928
287.0 0.003484 241.34134 262.46552
256.0 0.00391 241.19229 261.61526
252.0 0.00397 241.04324 260.98071
237.0 0.00422 240.89420 260.61969
271.0 0.00369 240.74507 260.59003
249.0 0.00402 240.59602 260.94803
259.0 0.00386 240.44698 261.74335
259.0 0.00386 240.29793 263.01889
275.0 0.00364 240.14888 264.81131
255.0 0.00392 239.99977 267.13159
288.0 0.003472 239.85072 269.81601
275.0 0.00364 239.70168 273.12216
274.0 0.00365 239.55263 276.84161
293.0 0.003413 239.40352 280.87656
278.0 0.00360 239.25447 285.08972
278.0 0.00360 239.10535 289.30643
300.0 0.003333 238.95638 293.33096
301.0 0.003322 238.80733 296.89813
324.0 0.003086 238.65822 299.77573
336.0 0.002976 238.50917 301.73996
333.0 0.003003 238.36005 302.63303
352.0 0.002841 238.21107 302.40677
350.0 0.002857 238.06203 301.15106
288.0 0.003472 237.91290 299.07431
310.0 0.003226 237.76385 296.45236
309.0 0.003236 237.61475 293.58435
302.0 0.003311 237.46570 290.74548
295.0 0.003390 237.31671 288.16071
298.0 0.003356 237.16760 285.99112
292.0 0.003425 237.01855 284.34912
321.0 0.003115 236.86945 283.21539
287.0 0.003484 236.72040 282.60339
279.0 0.00358 236.57135 282.36716
270.0 0.00370 236.42230 282.41788
302.0 0.003311 236.27318 282.60968
274.0 0.00365 236.12413 282.77435
259.0 0.00386 235.97508 282.74100
269.0 0.00372 235.82053 282.31479
249.0 0.00402 235.66310 281.36917
274.0 0.00365 235.50560 279.83990
256.0 0.00391 235.34818 277.67450
251.0 0.00398 235.19075 275.02487
242.0 0.00413 235.03331 271.95721
257.0 0.00389 234.87589 268.58844
243.0 0.00412 234.71838 265.05063
290.0 0.003448 234.56096 261.46719
239.0 0.00418 234.40352 257.95300
217.0 0.00461 234.24609 254.60559
245.0 0.00408 234.08867 251.50237
252.0 0.00397 233.93117 248.69963
249.0 0.00402 233.77373 246.22993
265.0 0.00377 233.61630 244.10565
252.0 0.00397 233.45888 242.32076
234.0 0.00427 233.30138 240.85568
246.0 0.00407 233.14394 239.68384
229.0 0.00437 232.98651 238.77299
220.0 0.00455 232.82909 238.08984
238.0 0.00420 232.67166 237.60226
266.0 0.00376 232.51416 237.28403
231.0 0.00433 232.35672 237.10458
234.0 0.00427 232.19922 237.04559
240.0 0.00417 232.04187 237.09041
249.0 0.00402 231.88443 237.22266
242.0 0.00413 231.72693 237.43021
225.0 0.00444 231.56950 237.69986
246.0 0.00407 231.41200 238.01678
246.0 0.00407 231.25458 238.36272
227.0 0.00441 231.09721 238.69083
249.0 0.00402 230.93971 239.02557
263.0 0.00380 230.78229 239.31300
215.0 0.00465 230.62479 239.52504
262.0 0.00382 230.46736 239.63788
228.0 0.00439 230.30992 239.63597
238.0 0.00420 230.15250 239.51451
224.0 0.00446 229.99507 239.27107
247.0 0.00405 229.83757 238.92799
242.0 0.00413 229.68013 238.47917
249.0 0.00402 229.52271 237.96545
230.0 0.00435 229.36528 237.39439
255.0 0.00392 229.20778 236.80052
242.0 0.00413 229.05034 236.21463
227.0 0.00441 228.89291 235.64110
228.0 0.00439 228.73549 235.09998
215.0 0.00465 228.57805 234.59865
214.0 0.00467 228.42056 234.13992
221.0 0.00452 228.26312 233.72333
227.0 0.00441 228.10570 233.34593
202.0 0.00495 227.94827 232.96985
215.0 0.00465 227.79083 232.66370
234.0 0.00427 227.63333 232.38680
263.0 0.00380 227.47591 232.14424
210.0 0.00476 227.31848 231.94403
227.0 0.00441 227.16104 231.79892
217.0 0.00461 227.00362 231.72636
246.0 0.00407 226.84612 231.74416
218.0 0.00459 226.68869 231.88297
232.0 0.00431 226.53125 232.14426
215.0 0.00465 226.37383 232.55573
247.0 0.00405 226.21632 233.13309
214.0 0.00467 226.05890 233.88646
252.0 0.00397 225.90140 234.81941
237.0 0.00422 225.74403 235.92720
215.0 0.00465 225.58661 237.19464
236.0 0.00424 225.42911 238.59630
260.0 0.00385 225.27168 240.09430
271.0 0.00369 225.11418 241.63985
253.0 0.00395 224.95674 243.17429
257.0 0.00389 224.79939 244.63173
278.0 0.00360 224.64189 245.93945
244.0 0.00410 224.48445 247.01942
249.0 0.00402 224.32695 247.79559
248.0 0.00403 224.16953 248.13760
250.0 0.00400 224.01216 248.11067
245.0 0.00408 223.85468 247.63736
238.0 0.00420 223.69724 246.73976
256.0 0.00391 223.53973 245.46825
245.0 0.00408 223.38231 243.91545
238.0 0.00420 223.22488 242.16071
261.0 0.00383 223.06744 240.30325
237.0 0.00422 222.90994 238.42891
219.0 0.00457 222.75252 236.60294
225.0 0.00444 222.59509 234.89240
242.0 0.00413 222.43765 233.31534
235.0 0.00426 222.28023 231.90611
240.0 0.00417 222.12273 230.69742
232.0 0.00431 221.96530 229.64943
238.0 0.00420 221.80788 228.77336
235.0 0.00426 221.65044 228.05872
229.0 0.00437 221.49301 227.46272
233.0 0.00429 221.33551 226.99393
214.0 0.00467 221.17809 226.49368
223.0 0.00448 221.02065 226.19302
225.0 0.00444 220.86322 225.96577
191.0 0.00524 220.70580 225.76109
211.0 0.00474 220.54829 225.58949
234.0 0.00427 220.39085 225.45084
216.0 0.00463 220.23343 225.35181
245.0 0.00408 220.07600 225.30397
219.0 0.00457 219.91850 225.32166
256.0 0.00391 219.76106 225.41882
253.0 0.00395 219.60358 225.60547
208.0 0.00481 219.44621 225.88724
229.0 0.00437 219.28879 226.26326
234.0 0.00427 219.13129 226.71965
232.0 0.00431 218.97385 227.25237
228.0 0.00439 218.81635 227.84377
236.0 0.00424 218.65900 228.44261
214.0 0.00467 218.51768 229.04210
220.0 0.00455 218.44093 229.65550
211.0 0.00474 218.36423 230.18454
219.0 0.00457 218.28749 230.60260
231.0 0.00433 218.21077 230.89343
247.0 0.00405 218.13409 231.03203
244.0 0.00410 218.05736 231.05086
243.0 0.00412 217.98065 230.94289
237.0 0.00422 217.90390 230.70091
230.0 0.00435 217.82719 230.35306
248.0 0.00403 217.75049 229.86586
260.0 0.00385 217.67377 229.26407
190.0 0.00526 217.59703 228.55981
247.0 0.00405 217.52032 227.77269
242.0 0.00413 217.44360 226.94333
225.0 0.00444 217.36690 226.07434
255.0 0.00392 217.29019 225.20599
225.0 0.00444 217.21344 224.36270
210.0 0.00476 217.13673 223.56947
223.0 0.00448 217.06003 222.84453
231.0 0.00433 216.98332 222.20154
216.0 0.00463 216.90660 221.65031
212.0 0.00472 216.82986 221.19737
202.0 0.00495 216.75316 220.84636
242.0 0.00413 216.67644 220.59828
257.0 0.00389 216.59973 220.45137
223.0 0.00448 216.52303 220.40366
223.0 0.00448 216.44627 220.45197
189.0 0.00529 216.36957 220.59311
234.0 0.00427 216.29286 220.82402
214.0 0.00467 216.21614 221.14201
242.0 0.00413 216.13940 221.54507
223.0 0.00448 216.06270 222.03067
221.0 0.00452 215.98598 222.59531
247.0 0.00405 215.90927 223.23248
231.0 0.00433 215.83257 223.93253
242.0 0.00413 215.75581 224.68085
210.0 0.00476 215.67911 225.45851
198.0 0.00505 215.60237 226.24171
228.0 0.00439 215.52570 226.99577
255.0 0.00392 215.44897 227.71078
222.0 0.00450 215.37224 228.37410
209.0 0.00478 215.29553 228.91934
207.0 0.00483 215.21878 229.35092
252.0 0.00397 215.14207 229.66066
211.0 0.00474 215.06540 229.84486
236.0 0.00424 214.98865 229.91122
243.0 0.00412 214.91194 229.88803
208.0 0.00481 214.83521 229.75017
245.0 0.00408 214.75848 229.52301
216.0 0.00463 214.68178 229.21133
216.0 0.00463 214.60507 228.81775
237.0 0.00422 214.52837 228.36378
220.0 0.00455 214.45161 227.82442
274.0 0.00365 214.37491 227.23070
207.0 0.00483 214.29820 226.60048
250.0 0.00400 214.22148 225.95334
231.0 0.00433 214.14474 225.30817
210.0 0.00476 214.06804 224.68126
233.0 0.00429 213.99132 224.08632
223.0 0.00448 213.91461 223.53548
234.0 0.00427 213.83791 223.04118
241.0 0.00415 213.76115 222.61714
242.0 0.00413 213.68445 222.27769
220.0 0.00455 213.60774 222.01996
235.0 0.00426 213.53104 221.88515
234.0 0.00427 213.45432 221.86066
215.0 0.00465 213.37758 221.94067
216.0 0.00463 213.30086 222.12189
243.0 0.00412 213.22415 222.32988
235.0 0.00426 213.14745 222.61241
209.0 0.00478 213.07074 222.90143
173.0 0.00578 212.99399 223.15956
201.0 0.00498 212.91728 223.34961
230.0 0.00435 212.84058 223.43892
204.0 0.00490 212.76385 223.40758
214.0 0.00467 212.68712 223.24951
214.0 0.00467 212.61041 222.97006
241.0 0.00415 212.53366 222.59235
209.0 0.00478 212.45699 222.16092
229.0 0.00437 212.38028 221.72058
220.0 0.00455 212.30353 221.31668
226.0 0.00442 212.22682 220.99292
213.0 0.00469 212.15009 220.78183
263.0 0.00380 212.07336 220.72350
211.0 0.00474 211.99669 220.80452
230.0 0.00435 211.91995 221.04216
210.0 0.00476 211.84325 221.42879
213.0 0.00469 211.76649 221.93539
225.0 0.00444 211.68979 222.53085
230.0 0.00435 211.61311 223.17036
206.0 0.00485 211.53636 223.80086
216.0 0.00463 211.45966 224.36313
191.0 0.00524 211.38292 224.79710
215.0 0.00465 211.30620 225.04933
262.0 0.00382 211.22949 225.07721
213.0 0.00469 211.15279 224.86194
210.0 0.00476 211.07603 224.40787
229.0 0.00437 210.99933 223.74168
245.0 0.00408 210.92262 222.90637
227.0 0.00441 210.84592 221.95374
223.0 0.00448 210.76920 220.92430
249.0 0.00402 210.69246 219.86865
225.0 0.00444 210.61575 218.82564
207.0 0.00483 210.53903 217.82683
213.0 0.00469 210.46233 216.89482
171.0 0.00585 210.38562 216.04494
233.0 0.00429 210.30887 215.28563
215.0 0.00465 210.23216 214.61913
199.0 0.00503 210.15546 214.04343
216.0 0.00463 210.07874 213.55251
195.0 0.00513 209.99744 213.13751
193.0 0.00518 209.91451 212.78839
211.0 0.00474 209.83162 212.50340
220.0 0.00455 209.74872 212.27736
212.0 0.00472 209.66583 212.10730
261.0 0.00383 209.58290 211.99187
225.0 0.00444 209.50002 211.93138
212.0 0.00472 209.41708 211.92776
209.0 0.00478 209.33423 211.98375
229.0 0.00437 209.25133 212.07619
205.0 0.00488 209.16840 212.27666
206.0 0.00485 209.08551 212.53131
207.0 0.00483 209.00258 212.85663
219.0 0.00457 208.91972 213.25240
205.0 0.00488 208.83684 213.71652
187.0 0.00535 208.75391 214.24426
212.0 0.00472 208.67101 214.82808
198.0 0.00505 208.58807 215.45677
244.0 0.00410 208.50519 216.11562
212.0 0.00472 208.42233 216.78679
225.0 0.00444 208.33940 217.45206
237.0 0.00422 208.25650 218.09471
236.0 0.00424 208.17358 218.67305
202.0 0.00495 208.09068 219.19649
223.0 0.00448 208.00780 219.62006
209.0 0.00478 207.92490 219.95123
202.0 0.00495 207.84196 220.19487
230.0 0.00435 207.75908 220.33626
236.0 0.00424 207.67618 220.41055
245.0 0.00408 207.59329 220.40773
232.0 0.00431 207.51039 220.34819
235.0 0.00426 207.42747 220.20552
242.0 0.00413 207.34457 219.99866
238.0 0.00420 207.26169 219.73477
226.0 0.00442 207.17879 219.42142
208.0 0.00481 207.09590 219.07591
221.0 0.00452 207.01297 218.71989
235.0 0.00426 206.93007 218.37767
213.0 0.00469 206.84718 218.07324
239.0 0.00418 206.76430 217.84393
214.0 0.00467 206.68140 217.67216
242.0 0.00413 206.59846 217.58321
202.0 0.00495 206.51558 217.58025
192.0 0.00521 206.43268 217.66014
216.0 0.00463 206.34979 217.81969
217.0 0.00461 206.26686 218.03772
222.0 0.00450 206.18396 218.30243
241.0 0.00415 206.10107 218.59480
232.0 0.00431 206.01819 218.89328
222.0 0.00450 205.93529 219.17184
252.0 0.00397 205.85236 219.40369
231.0 0.00433 205.76947 219.55901
206.0 0.00485 205.68654 219.60756
215.0 0.00465 205.60368 219.52306
193.0 0.00518 205.52078 219.28806
205.0 0.00488 205.43785 218.89825
202.0 0.00495 205.35497 218.36400
203.0 0.00493 205.27203 217.70747
222.0 0.00450 205.18915 216.99547
221.0 0.00452 205.10629 216.18787
265.0 0.00377 205.02336 215.34921
227.0 0.00441 204.94046 214.50615
241.0 0.00415 204.85753 213.68092
199.0 0.00503 204.77464 212.89767
224.0 0.00446 204.69174 212.15262
219.0 0.00457 204.60886 211.48289
203.0 0.00493 204.52597 210.89114
209.0 0.00478 204.44304 210.38719
197.0 0.00508 204.36014 209.97849
200.0 0.00500 204.27725 209.67039
214.0 0.00467 204.19435 209.46593
246.0 0.00407 204.11142 209.36655
212.0 0.00472 204.02853 209.37427
196.0 0.00510 203.94563 209.48048
203.0 0.00493 203.86275 209.68639
180.0 0.00556 203.77986 209.97951
218.0 0.00459 203.69693 210.35217
189.0 0.00529 203.61403 210.79214
215.0 0.00465 203.53114 211.28305
215.0 0.00465 203.44824 211.81169
228.0 0.00439 203.36536 212.34650
240.0 0.00417 203.28242 212.85577
209.0 0.00478 203.19952 213.28607
255.0 0.00392 203.11664 213.67628
202.0 0.00495 203.03375 213.99176
209.0 0.00478 202.95085 214.18867
222.0 0.00450 202.86792 214.26146
234.0 0.00427 202.78503 214.21895
221.0 0.00452 202.70213 214.06592
228.0 0.00439 202.61925 213.80988
245.0 0.00408 202.53632 213.45932
205.0 0.00488 202.45341 213.02437
220.0 0.00455 202.37050 212.51663
201.0 0.00498 202.28764 211.95091
235.0 0.00426 202.20474 211.34483
214.0 0.00467 202.12181 210.71742
201.0 0.00498 202.03893 210.10313
220.0 0.00455 201.95599 209.49655
189.0 0.00529 201.87309 208.92819
231.0 0.00433 201.79024 208.42227
195.0 0.00513 201.70731 208.00409
212.0 0.00472 201.62442 207.66219
185.0 0.00541 201.54149 207.43060
196.0 0.00510 201.45860 207.32625
176.0 0.00568 201.37575 207.36575
225.0 0.00444 201.29282 207.56609
224.0 0.00446 201.20992 207.93982
194.0 0.00515 201.12698 208.50113
232.0 0.00431 201.04410 209.26050
195.0 0.00513 200.96121 210.22499
210.0 0.00476 200.90053 211.41922
213.0 0.00469 200.89539 212.87151
226.0 0.00442 200.89024 214.51337
200.0 0.00500 200.88510 216.32146
238.0 0.00420 200.87996 218.26186
218.0 0.00459 200.87482 220.28828
258.0 0.00388 200.86967 222.34033
212.0 0.00472 200.86453 224.34558
216.0 0.00463 200.85939 226.22572
216.0 0.00463 200.85425 227.89395
235.0 0.00426 200.84911 229.27293
224.0 0.00446 200.84396 230.29330
246.0 0.00407 200.83882 230.90375
205.0 0.00488 200.83368 231.07065
210.0 0.00476 200.82854 230.77888
231.0 0.00433 200.82339 230.02994
233.0 0.00429 200.81825 228.87730
247.0 0.00405 200.81311 227.36577
259.0 0.00386 200.80797 225.56842
226.0 0.00442 200.80283 223.57513
214.0 0.00467 200.79768 221.45317
234.0 0.00427 200.79254 219.26164
205.0 0.00488 200.78740 217.12607
208.0 0.00481 200.78226 215.07661
197.0 0.00508 200.77711 213.15860
202.0 0.00495 200.77197 211.40395
178.0 0.00562 200.76683 209.83759
188.0 0.00532 200.76169 208.46295
204.0 0.00490 200.75655 207.28403
216.0 0.00463 200.75140 206.29341
217.0 0.00461 200.74626 205.47881
201.0 0.00498 200.74112 204.82648
221.0 0.00452 200.73598 204.31738
211.0 0.00474 200.73083 203.93666
199.0 0.00503 200.72569 203.66904
211.0 0.00474 200.72055 203.50217
215.0 0.00465 200.71541 203.42618
216.0 0.00463 200.71027 203.43385
217.0 0.00461 200.70512 203.52238
202.0 0.00495 200.69998 203.69069
217.0 0.00461 200.69484 203.92915
193.0 0.00518 200.68970 204.24197
197.0 0.00508 200.68456 204.62868
197.0 0.00508 200.67941 205.08727
191.0 0.00524 200.67427 205.61484
200.0 0.00500 200.66913 206.20612
223.0 0.00448 200.66399 206.85287
219.0 0.00457 200.65884 207.54411
195.0 0.00513 200.65370 208.27380
209.0 0.00478 200.64856 209.00894
198.0 0.00505 200.64342 209.73813
199.0 0.00503 200.63828 210.43990
216.0 0.00463 200.63313 211.10448
210.0 0.00476 200.62799 211.68976
192.0 0.00521 200.62285 212.20120
206.0 0.00485 200.61771 212.61215
227.0 0.00441 200.61256 212.92877
192.0 0.00521 200.60742 213.15657
203.0 0.00493 200.60228 213.30666
198.0 0.00505 200.59714 213.39331
234.0 0.00427 200.59200 213.43301
209.0 0.00478 200.58685 213.44096
227.0 0.00441 200.58171 213.42990
198.0 0.00505 200.57657 213.41261
210.0 0.00476 200.57143 213.40073
214.0 0.00467 200.56628 213.37953
213.0 0.00469 200.56114 213.35573
230.0 0.00435 200.55600 213.32349
221.0 0.00452 200.55086 213.27492
194.0 0.00515 200.54572 213.20187
186.0 0.00538 200.54057 213.09865
202.0 0.00495 200.53543 212.96008
206.0 0.00485 200.53029 212.79103
224.0 0.00446 200.52515 212.58684
218.0 0.00459 200.52000 212.35735
225.0 0.00444 200.51486 212.12062
208.0 0.00481 200.50972 211.85310
217.0 0.00461 200.50458 211.60959
225.0 0.00444 200.49944 211.37854
213.0 0.00469 200.49429 211.16432
232.0 0.00431 200.48915 210.97047
235.0 0.00426 200.48401 210.79361
209.0 0.00478 200.47887 210.63258
204.0 0.00490 200.47372 210.48457
200.0 0.00500 200.46858 210.34656
197.0 0.00508 200.46344 210.25807
226.0 0.00442 200.45830 210.13449
204.0 0.00490 200.45316 210.01369
223.0 0.00448 200.44801 209.89507
213.0 0.00469 200.44287 209.77843
214.0 0.00467 200.43773 209.66527
200.0 0.00500 200.43259 209.55838
239.0 0.00418 200.42744 209.46335
205.0 0.00488 200.42230 209.38710
202.0 0.00495 200.41716 209.33624
218.0 0.00459 200.41202 209.31677
211.0 0.00474 200.40688 209.31862
210.0 0.00476 200.40173 209.36897
205.0 0.00488 200.39659 209.44951
227.0 0.00441 200.39145 209.55249
207.0 0.00483 200.38631 209.66663
238.0 0.00420 200.38116 209.78032
205.0 0.00488 200.37602 209.87378
192.0 0.00521 200.37088 209.93425
201.0 0.00498 200.36574 209.94907
218.0 0.00459 200.36060 209.90878
215.0 0.00465 200.35545 209.80951
224.0 0.00446 200.35031 209.65317
198.0 0.00505 200.34517 209.44751
208.0 0.00481 200.34003 209.20505
208.0 0.00481 200.33488 208.94136
210.0 0.00476 200.31508 208.65990
224.0 0.00446 200.29222 208.39066
210.0 0.00476 200.26938 208.15051
219.0 0.00457 200.24655 207.95129
188.0 0.00532 200.22371 207.80051
195.0 0.00513 200.20087 207.71654
193.0 0.00518 200.17802 207.68553
208.0 0.00481 200.15518 207.71463
212.0 0.00472 200.13235 207.80051
215.0 0.00465 200.10950 207.93756
199.0 0.00503 200.08667 208.12045
213.0 0.00469 200.06381 208.34198
183.0 0.00546 200.04097 208.59602
198.0 0.00505 200.01813 208.87555
234.0 0.00427 199.99530 209.17267
194.0 0.00515 199.97244 209.47830
229.0 0.00437 199.94960 209.78258
213.0 0.00469 199.92677 210.07532
216.0 0.00463 199.90393 210.34805
207.0 0.00483 199.88109 210.59412
223.0 0.00448 199.85825 210.81181
238.0 0.00420 199.83540 210.99998
220.0 0.00455 199.81256 211.14172
215.0 0.00465 199.78972 211.29370
223.0 0.00448 199.76689 211.44446
216.0 0.00463 199.74403 211.60945
235.0 0.00426 199.72119 211.80659
205.0 0.00488 199.69836 212.05305
215.0 0.00465 199.67552 212.36586
199.0 0.00503 199.65268 212.75267
220.0 0.00455 199.62982 213.21983
214.0 0.00467 199.60699 213.76492
194.0 0.00515 199.58415 214.37778
213.0 0.00469 199.56131 215.04112
180.0 0.00556 199.53847 215.73027
193.0 0.00518 199.51563 216.41362
193.0 0.00518 199.49277 217.05350
215.0 0.00465 199.46994 217.60754
212.0 0.00472 199.44711 218.03206
249.0 0.00402 199.42426 218.28870
213.0 0.00469 199.40141 218.33063
224.0 0.00446 199.37857 218.14311
229.0 0.00437 199.35574 217.70692
253.0 0.00395 199.33290 217.03731
228.0 0.00439 199.31006 216.16245
223.0 0.00448 199.28722 215.12988
214.0 0.00467 199.26436 213.97948
203.0 0.00493 199.24152 212.76183
208.0 0.00481 199.21869 211.52710
205.0 0.00488 199.19585 210.31863
188.0 0.00532 199.17300 209.17458
206.0 0.00485 199.15016 208.12595
218.0 0.00459 199.12732 207.19531
209.0 0.00478 199.10448 206.39854
187.0 0.00535 199.08163 205.74370
220.0 0.00455 199.05879 205.23279
204.0 0.00490 199.03595 204.86182
201.0 0.00498 199.01311 204.62218
199.0 0.00503 198.99028 204.50110
209.0 0.00478 198.96744 204.48392
211.0 0.00474 198.94458 204.55251
230.0 0.00435 198.92175 204.69022
214.0 0.00467 198.89891 204.87405
204.0 0.00490 198.87607 205.08514
228.0 0.00439 198.85323 205.30333
225.0 0.00444 198.83038 205.50771
217.0 0.00461 198.80754 205.67961
208.0 0.00481 198.78470 205.80212
208.0 0.00481 198.76186 205.86462
251.0 0.00398 198.73903 205.85896
241.0 0.00415 198.71617 205.77899
215.0 0.00465 198.69333 205.63417
193.0 0.00518 198.67050 205.43408
207.0 0.00483 198.64766 205.16475
218.0 0.00459 198.62480 204.86337
213.0 0.00469 198.60197 204.53165
210.0 0.00476 198.57913 204.18065
205.0 0.00488 198.55629 203.81963
212.0 0.00472 198.53345 203.45862
193.0 0.00518 198.51060 203.10983
188.0 0.00532 198.48776 202.77904
172.0 0.00581 198.46490 202.47131
195.0 0.00513 198.44208 202.19604
180.0 0.00556 198.41925 201.95845
173.0 0.00578 198.39639 201.76804
219.0 0.00457 198.37355 201.61842
202.0 0.00495 198.35071 201.51582
197.0 0.00508 198.32787 201.46165
200.0 0.00500 198.30504 201.44238
202.0 0.00495 198.28220 201.48286
194.0 0.00515 198.25935 201.56631
182.0 0.00549 198.23650 201.68811
169.0 0.00592 198.21367 201.84180
210.0 0.00476 198.19083 202.01997
183.0 0.00546 198.16798 202.19998
199.0 0.00503 198.14514 202.39987
193.0 0.00518 198.12230 202.59576
230.0 0.00435 198.09946 202.77756
206.0 0.00485 198.07661 202.93668
203.0 0.00493 198.05377 203.06662
205.0 0.00488 198.03093 203.16071
204.0 0.00490 198.00809 203.21716
205.0 0.00488 197.98524 203.23650
200.0 0.00500 197.96242 203.22986
184.0 0.00543 197.93958 203.18550
201.0 0.00498 197.91672 203.11458
199.0 0.00503 197.89389 203.03941
204.0 0.00490 197.87105 202.96599
183.0 0.00546 197.84821 202.90419
206.0 0.00485 197.82536 202.85553
192.0 0.00521 197.76631 202.81668
224.0 0.00446 197.64597 202.75635
196.0 0.00510 197.52574 202.74173
232.0 0.00431 197.40547 202.77863
208.0 0.00481 197.28514 202.85866
240.0 0.00417 197.16486 202.98288
222.0 0.00450 197.04453 203.14607
208.0 0.00481 196.92424 203.34251
188.0 0.00532 196.80402 203.56291
187.0 0.00535 196.68369 203.79982
210.0 0.00476 196.56340 204.04543
190.0 0.00526 196.44307 204.30087
188.0 0.00532 196.32280 204.54294
208.0 0.00481 196.20258 204.77646
215.0 0.00465 196.08224 205.00134
186.0 0.00538 195.96196 205.22327
196.0 0.00510 195.84163 205.43779
224.0 0.00446 195.72134 205.65385
187.0 0.00535 195.60107 205.87520
220.0 0.00455 195.48079 206.10454
199.0 0.00503 195.36046 206.34109
227.0 0.00441 195.24017 206.57806
235.0 0.00426 195.11990 206.81245
215.0 0.00465 194.99962 207.03084
211.0 0.00474 194.87933 207.21765
235.0 0.00426 194.75900 207.35815
232.0 0.00431 194.63873 207.43607
234.0 0.00427 194.51845 207.43874
215.0 0.00465 194.39818 207.35815
222.0 0.00450 194.27789 207.18196
220.0 0.00455 194.15756 206.93565
235.0 0.00426 194.03728 206.61855
203.0 0.00493 193.91701 206.24431
216.0 0.00463 193.79672 205.82764
212.0 0.00472 193.67644 205.38387
211.0 0.00474 193.55611 204.92641
183.0 0.00546 193.43584 204.46735
200.0 0.00500 193.31555 204.01257
205.0 0.00488 193.19527 203.56702
200.0 0.00500 193.07494 203.13113
189.0 0.00529 192.95467 202.70393
186.0 0.00538 192.83434 202.27716
205.0 0.00488 192.71411 201.84505
202.0 0.00495 192.59383 201.40047
173.0 0.00578 192.47350 200.93819
206.0 0.00485 192.35321 200.45613
189.0 0.00529 192.23288 199.95485
215.0 0.00465 192.11266 199.43988
202.0 0.00495 191.99237 198.91705
200.0 0.00500 191.87204 198.39476
186.0 0.00538 191.75177 197.87312
190.0 0.00526 191.63142 197.37637
174.0 0.00575 191.51115 196.90320
172.0 0.00581 191.39093 196.45895
214.0 0.00467 191.27060 196.06461
184.0 0.00543 191.15031 195.69037
205.0 0.00488 191.02998 195.35536
185.0 0.00541 190.90970 195.05823
185.0 0.00541 190.78943 194.79922
187.0 0.00535 190.66914 194.57666
193.0 0.00518 190.54881 194.38660
209.0 0.00478 190.42853 194.22888
198.0 0.00505 190.30826 194.09293
190.0 0.00526 190.18797 193.97720
178.0 0.00562 190.06770 193.87863
196.0 0.00510 189.94736 193.78638
173.0 0.00578 189.82709 193.69980
224.0 0.00446 189.70680 193.61446
201.0 0.00498 189.58653 193.53206
185.0 0.00541 189.46625 193.44067
186.0 0.00538 189.34592 193.34550
217.0 0.00461 189.22563 193.24486
197.0 0.00508 189.10536 193.14296
209.0 0.00478 188.98508 193.02414
221.0 0.00452 188.86481 192.90981
185.0 0.00541 188.74446 192.79871
209.0 0.00478 188.62419 192.68172
204.0 0.00490 188.50391 192.56660
204.0 0.00490 188.38364 192.45517
184.0 0.00543 188.26329 192.34825
196.0 0.00510 188.14302 192.25253
213.0 0.00469 188.02274 192.15904
201.0 0.00498 187.90247 192.06755
185.0 0.00541 187.78218 191.97015
185.0 0.00541 187.66185 191.88467
200.0 0.00500 187.54156 191.79628
198.0 0.00505 187.42123 191.70189
191.0 0.00524 187.30101 191.60088
198.0 0.00505 187.18074 191.48706
159.0 0.00629 187.06039 191.36156
186.0 0.00538 186.94012 191.22455
203.0 0.00493 186.81979 191.07755
206.0 0.00485 186.69951 190.92889
206.0 0.00485 186.57928 190.76956
174.0 0.00575 186.45895 190.60838
188.0 0.00532 186.33867 190.44875
177.0 0.00565 186.21834 190.29318
193.0 0.00518 186.09807 190.14432
173.0 0.00578 185.97778 190.00432
177.0 0.00565 185.85750 189.88889
185.0 0.00541 185.73723 189.77179
199.0 0.00503 185.61690 189.66748
164.0 0.00610 185.49661 189.57628
195.0 0.00513 185.37633 189.49780
213.0 0.00469 185.25606 189.43097
197.0 0.00508 185.13573 189.37485
198.0 0.00505 185.01544 189.32799
198.0 0.00505 184.89516 189.28862
200.0 0.00500 184.77489 189.25598
168.0 0.00595 184.65460 189.23148
193.0 0.00518 184.53427 189.20816
166.0 0.00602 184.52283 189.30310
192.0 0.00521 184.52155 189.41660
190.0 0.00526 184.52025 189.54257
188.0 0.00532 184.51897 189.68010
195.0 0.00513 184.51768 189.83600
172.0 0.00581 184.51640 190.00580
208.0 0.00481 184.51511 190.19310
186.0 0.00538 184.51382 190.39738
166.0 0.00602 184.51254 190.62543
184.0 0.00543 184.51126 190.85664
190.0 0.00526 184.50996 191.09171
161.0 0.00621 184.50868 191.32794
199.0 0.00503 184.50740 191.55464
199.0 0.00503 184.50612 191.75867
228.0 0.00439 184.50482 191.93642
209.0 0.00478 184.50354 192.08235
180.0 0.00556 184.50226 192.17216
209.0 0.00478 184.50098 192.20685
194.0 0.00515 184.49968 192.18279
217.0 0.00461 184.49840 192.09888
181.0 0.00552 184.49712 191.95766
197.0 0.00508 184.49583 191.76375
221.0 0.00452 184.49454 191.52403
211.0 0.00474 184.49326 191.24736
189.0 0.00529 184.49197 190.94263
221.0 0.00452 184.49069 190.61809
176.0 0.00568 184.48940 190.28343
201.0 0.00498 184.48811 189.94731
209.0 0.00478 184.48683 189.61780
204.0 0.00490 184.48555 189.30229
203.0 0.00493 184.48425 189.00894
187.0 0.00535 184.48297 188.74023
160.0 0.00625 184.48169 188.50189
189.0 0.00529 184.48041 188.29747
230.0 0.00435 184.47911 188.12929
201.0 0.00498 184.47783 187.99844
193.0 0.00518 184.47655 187.90538
177.0 0.00565 184.47527 187.85304
180.0 0.00556 184.47397 187.83386
203.0 0.00493 184.47269 187.84930
196.0 0.00510 184.47141 187.89729
197.0 0.00508 184.47012 187.97565
198.0 0.00505 184.46883 188.08247
156.0 0.00641 184.46754 188.21501
160.0 0.00625 184.46626 188.37065
160.0 0.00625 184.46498 188.54778
188.0 0.00532 184.46368 188.74457
197.0 0.00508 184.46240 188.96109
181.0 0.00552 184.46112 189.19298
167.0 0.00599 184.45984 189.44000
186.0 0.00538 184.45854 189.70021
194.0 0.00515 184.45726 189.97083
180.0 0.00556 184.45598 190.24911
208.0 0.00481 184.45470 190.49535
187.0 0.00535 184.45340 190.77596
188.0 0.00532 184.45212 191.04782
213.0 0.00469 184.45084 191.30475
210.0 0.00476 184.44955 191.54633
213.0 0.00469 184.44826 191.76025
192.0 0.00521 184.44698 191.94765
236.0 0.00424 184.44569 192.10994
185.0 0.00541 184.44441 192.24588
204.0 0.00490 184.44312 192.36220
174.0 0.00575 184.44183 192.46356
189.0 0.00529 184.44055 192.55884
183.0 0.00546 184.43927 192.64670
183.0 0.00546 184.43797 192.73882
191.0 0.00524 184.43669 192.83548
202.0 0.00495 184.43541 192.94241
222.0 0.00450 184.43413 193.06270
177.0 0.00565 184.43283 193.19936
197.0 0.00508 184.43155 193.35210
181.0 0.00552 184.43027 193.52141
211.0 0.00474 184.42899 193.71875
201.0 0.00498 184.42769 193.91628
171.0 0.00585 184.42641 194.12315
182.0 0.00549 184.42513 194.33492
195.0 0.00513 184.42384 194.54582
186.0 0.00538 184.42255 194.74779
209.0 0.00478 184.42126 194.93767
179.0 0.00559 184.41998 195.10472
184.0 0.00543 184.41870 195.24011
183.0 0.00546 184.41740 195.33446
193.0 0.00518 184.41612 195.37923
185.0 0.00541 184.41484 195.36392
187.0 0.00535 184.41356 195.29013
200.0 0.00500 184.41226 195.15282
181.0 0.00552 184.41098 194.95444
200.0 0.00500 184.40970 194.70038
180.0 0.00556 184.40842 194.39891
171.0 0.00585 184.40712 194.06291
194.0 0.00515 184.40584 193.69821
186.0 0.00538 184.40456 193.31770
198.0 0.00505 184.40327 192.93340
184.0 0.00543 184.40198 192.54128
181.0 0.00552 184.40070 192.16237
216.0 0.00463 184.39941 191.79922
187.0 0.00535 184.39813 191.45262
183.0 0.00546 184.39684 191.13931
186.0 0.00538 184.39555 190.84543
199.0 0.00503 184.39427 190.58559
188.0 0.00532 184.39299 190.36806
170.0 0.00588 184.39169 190.19135
187.0 0.00535 184.39041 190.05988
180.0 0.00556 184.38913 189.97665
212.0 0.00472 184.38785 189.94366
208.0 0.00481 184.38655 189.95943
184.0 0.00543 184.38527 190.02078
184.0 0.00543 184.38399 190.12727
184.0 0.00543 184.38271 190.27272
212.0 0.00472 184.38020 190.44945
192.0 0.00521 184.37625 190.65562
208.0 0.00481 184.37230 190.87581
199.0 0.00503 184.36836 191.10649
188.0 0.00532 184.36441 191.33643
200.0 0.00500 184.36046 191.55681
184.0 0.00543 184.35652 191.75861
198.0 0.00505 184.35257 191.93303
208.0 0.00481 184.34862 192.07257
215.0 0.00465 184.34467 192.17044
205.0 0.00488 184.34073 192.22292
199.0 0.00503 184.33678 192.22260
215.0 0.00465 184.33282 192.16920
181.0 0.00552 184.32889 192.06297
196.0 0.00510 184.32494 191.90417
184.0 0.00543 184.32098 191.69832
195.0 0.00513 184.31705 191.44899
203.0 0.00493 184.31310 191.16353
188.0 0.00532 184.30914 190.84961
185.0 0.00541 184.30521 190.51546
217.0 0.00461 184.30125 190.16946
204.0 0.00490 184.29730 189.81956
190.0 0.00526 184.29337 189.47362
177.0 0.00565 184.28941 189.13857
180.0 0.00556 184.28546 188.82022
200.0 0.00500 184.28151 188.52437
194.0 0.00515 184.27757 188.25304
172.0 0.00581 184.27362 188.00963
187.0 0.00535 184.26967 187.79590
196.0 0.00510 184.26573 187.61838
192.0 0.00521 184.26178 187.46634
171.0 0.00585 184.25783 187.34494
194.0 0.00515 184.25389 187.25542
198.0 0.00505 184.24994 187.19370
178.0 0.00562 184.24599 187.15727
195.0 0.00513 184.24205 187.14595
198.0 0.00505 184.23810 187.15765
187.0 0.00535 184.23415 187.19040
195.0 0.00513 184.23021 187.24181
190.0 0.00526 184.22626 187.31023
178.0 0.00562 184.22231 187.39577
185.0 0.00541 184.21835 187.47453
193.0 0.00518 184.21442 187.58795
205.0 0.00488 184.21046 187.71637
189.0 0.00529 184.20651 187.86121
190.0 0.00526 184.20258 188.02444
176.0 0.00568 184.19862 188.20886
202.0 0.00495 184.19467 188.41487
187.0 0.00535 184.19073 188.64485
172.0 0.00581 184.18678 188.90013
193.0 0.00518 184.18283 189.18062
190.0 0.00526 184.17889 189.48503
173.0 0.00578 184.17494 189.81096
196.0 0.00510 184.17099 190.15430
185.0 0.00541 184.16704 190.50908
184.0 0.00543 184.16310 190.87393
186.0 0.00538 184.15915 191.22743
187.0 0.00535 184.15520 191.56561
171.0 0.00585 184.15126 191.87773
196.0 0.00510 184.14731 192.15157
184.0 0.00543 184.14336 192.37701
217.0 0.00461 184.13942 192.54538
204.0 0.00490 184.13547 192.64990
209.0 0.00478 184.13152 192.68706
209.0 0.00478 184.12758 192.65620
196.0 0.00510 184.12363 192.55850
185.0 0.00541 184.11967 192.39838
162.0 0.00617 184.11574 192.18243
187.0 0.00535 184.11179 191.92467
196.0 0.00510 184.10783 191.62262
208.0 0.00481 184.10388 191.29211
209.0 0.00478 184.09995 190.94388
165.0 0.00606 184.09599 190.58859
192.0 0.00521 184.09204 190.23521
185.0 0.00541 184.08810 189.89407
206.0 0.00485 184.08415 189.57393
185.0 0.00541 184.08020 189.28177
186.0 0.00538 184.07626 189.02377
194.0 0.00515 184.07231 188.80504
205.0 0.00488 184.06836 188.62872
182.0 0.00549 184.06442 188.49959
163.0 0.00613 184.06047 188.41344
170.0 0.00588 184.05652 188.37202
208.0 0.00481 184.05258 188.37344
186.0 0.00538 184.04863 188.41499
176.0 0.00568 184.04468 188.49255
184.0 0.00543 184.04073 188.60135
181.0 0.00552 184.03679 188.73647
210.0 0.00476 184.03284 188.89204
201.0 0.00498 184.02888 189.06194
200.0 0.00500 184.02495 189.24359
192.0 0.00521 184.02100 189.42641
152.0 0.00658 184.01704 189.60693
199.0 0.00503 184.01311 189.78006
193.0 0.00518 184.00916 189.92113
189.0 0.00529 184.00520 190.06383
194.0 0.00515 184.00127 190.18430
193.0 0.00518 183.99731 190.27914
170.0 0.00588 183.99336 190.34607
214.0 0.00467 183.98941 190.38422
185.0 0.00541 183.98547 190.39421
207.0 0.00483 183.98152 190.37837
189.0 0.00529 183.97758 190.34029
188.0 0.00532 183.97363 190.28441
207.0 0.00483 183.96968 190.21521
199.0 0.00503 183.96573 190.13789
195.0 0.00513 183.96179 190.05713
186.0 0.00538 183.95784 189.97743
189.0 0.00529 183.95389 189.90247
194.0 0.00515 183.94995 189.83620
188.0 0.00532 183.94600 189.78117
173.0 . . .
loop_
_refln_index_h
_refln_index_k
_refln_index_l
_pd_refln_wavelength_id
_refln_observed_status
_refln_F_squared_meas
_refln_F_squared_calc
_refln_phase_calc
_refln_d_spacing
_gsas_i100_meas
0 0 1 2 o 417.512 422.011 180.00 11.58012 12.34
0 0 1 1 o 417.512 422.011 180.00 11.58012 24.68
0 1 0 2 o 1409.090 1421.361 180.00 10.88828 37.20
0 1 0 1 o 1409.090 1421.361 180.00 10.88828 74.40
0 1 -1 1 o 6.136 29.200 0.00 8.19995 0.19
0 1 -1 2 o 6.136 29.200 0.00 8.19995 0.10
0 1 1 1 o 230.577 261.401 0.00 7.68959 6.13
0 1 1 2 o 230.577 261.401 0.00 7.68959 3.07
1 0 -1 1 o 164.998 80.112 0.00 5.80011 2.95
1 0 -1 2 o 164.998 80.112 0.00 5.80011 1.48
1 0 0 2 o 2.221 0.120 0.00 5.86592 0.02
1 0 0 1 o 2.221 0.120 0.00 5.86592 0.05
0 0 2 2 o 499.566 515.206 0.00 5.79006 3.60
0 0 2 1 o 499.566 515.206 0.00 5.79006 7.21
0 2 0 1 o 69.396 170.836 180.00 5.44414 0.90
0 2 0 2 o 69.396 170.836 180.00 5.44414 0.45
1 -1 0 2 o 655.947 710.478 0.00 5.29122 4.56
1 -1 0 1 o 655.947 710.478 0.00 5.29122 9.13
1 -1 -1 2 o 419.804 530.975 0.00 5.17080 2.66
1 -1 -1 1 o 419.804 530.975 0.00 5.17080 5.32
0 1 -2 1 o 1141.929 749.606 180.00 5.25414 13.30
0 1 -2 2 o 1141.929 749.606 180.00 5.25414 6.65
1 1 -1 2 o 7149.252 7079.030 0.00 5.06894 50.00
1 1 -1 1 o 7149.252 7079.030 0.00 5.06894 100.00
1 1 0 2 o 116.662 114.563 0.00 5.04587 0.87
1 1 0 1 o 116.662 114.563 0.00 5.04587 1.73
0 2 -1 2 o 520.474 511.029 0.00 5.05352 2.84
0 2 -1 1 o 520.474 511.029 0.00 5.05352 5.68
0 1 2 2 o 0.841 0.540 0.00 4.98115 0.00
0 1 2 1 o 0.841 0.540 0.00 4.98115 0.01
0 2 1 2 o 3362.096 3238.316 180.00 4.80922 17.03
0 2 1 1 o 3362.096 3238.316 180.00 4.80922 34.07
1 0 1 2 o 6316.306 6083.538 180.00 4.80495 39.92
1 0 1 1 o 6316.306 6083.538 180.00 4.80495 79.84
1 0 -2 2 o 1106.538 992.152 180.00 4.69826 5.69
1 0 -2 1 o 1106.538 992.152 180.00 4.69826 11.37
1 -1 1 1 o 1743.805 1893.583 180.00 4.51987 17.52
1 -1 1 2 o 1743.805 1893.583 180.00 4.51987 8.76
1 -1 -2 2 o 4721.082 4678.301 180.00 4.30338 19.19
1 -1 -2 1 o 4721.082 4678.301 180.00 4.30338 38.38
1 1 -2 2 o 505.789 595.174 180.00 4.32430 2.26
1 1 -2 1 o 505.789 595.174 180.00 4.32430 4.52
1 1 1 1 o 91.594 93.860 0.00 4.28168 0.93
1 1 1 2 o 91.594 93.860 0.00 4.28168 0.46
1 -2 0 2 o 12.569 8.547 0.00 4.10845 0.05
1 -2 0 1 o 12.569 8.547 0.00 4.10845 0.10
0 2 -2 2 o 3794.875 2717.430 180.00 4.09998 13.23
0 2 -2 1 o 3794.875 2717.430 180.00 4.09998 26.45
1 -2 -1 1 o 1733.022 1763.754 0.00 4.01782 12.03
1 -2 -1 2 o 1733.022 1763.754 0.00 4.01782 6.02
1 2 -1 1 o 65.334 76.865 180.00 3.92282 0.50
1 2 -1 2 o 65.334 76.865 180.00 3.92282 0.25
1 2 0 2 o 153.270 207.031 0.00 3.88193 0.61
1 2 0 1 o 153.270 207.031 0.00 3.88193 1.22
0 2 2 2 o 4605.780 4637.752 180.00 3.84480 14.70
0 2 2 1 o 4605.780 4637.752 180.00 3.84480 29.39
0 0 3 1 o 1151.915 1024.515 0.00 3.86004 7.20
0 0 3 2 o 1151.915 1024.515 0.00 3.86004 3.60
1 -2 1 1 o 48.656 49.671 0.00 3.74095 0.30
1 -2 1 2 o 48.656 49.671 0.00 3.74095 0.15
1 0 2 2 o 20.100 2.678 180.00 3.71445 0.07
1 0 2 1 o 20.100 2.678 180.00 3.71445 0.14
0 1 -3 2 o 144.826 18.882 0.00 3.71416 0.41
0 1 -3 1 o 144.826 18.882 0.00 3.71416 0.82
1 0 -3 1 o 463.950 504.991 180.00 3.63229 2.63
1 0 -3 2 o 463.950 504.991 180.00 3.63229 1.31
0 3 0 2 o 1434.767 1548.516 0.00 3.62943 4.00
0 3 0 1 o 1434.767 1548.516 0.00 3.62943 8.01
1 -1 2 2 o 21.712 11.360 0.00 3.60153 0.07
1 -1 2 1 o 21.712 11.360 0.00 3.60153 0.13
0 1 3 2 o 167.305 260.367 180.00 3.56668 0.46
0 1 3 1 o 167.305 260.367 180.00 3.56668 0.92
1 -2 -2 1 o 1326.420 1275.341 0.00 3.54521 6.91
1 -2 -2 2 o 1326.420 1275.341 0.00 3.54521 3.46
1 2 -2 1 o 1.190 1.987 180.00 3.56867 0.01
1 2 -2 2 o 1.190 1.987 180.00 3.56867 0.00
0 3 -1 1 o 6782.298 6488.461 180.00 3.52866 35.08
0 3 -1 2 o 6782.298 6488.461 180.00 3.52866 17.54
1 2 1 2 o 197.636 162.731 180.00 3.47838 0.62
1 2 1 1 o 197.636 162.731 180.00 3.47838 1.24
1 1 -3 2 o 114.143 96.084 180.00 3.47211 0.30
1 1 -3 1 o 114.143 96.084 180.00 3.47211 0.60
1 1 2 2 o 66.917 39.133 0.00 3.43538 0.20
1 1 2 1 o 66.917 39.133 0.00 3.43538 0.40
1 -1 -3 2 o 314.128 131.436 180.00 3.41972 0.76
1 -1 -3 1 o 314.128 131.436 180.00 3.41972 1.52
0 3 1 2 o 204.712 295.001 0.00 3.40146 0.50
0 3 1 1 o 204.712 295.001 0.00 3.40146 1.01
0 2 -3 1 o -0.708 51.719 180.00 3.24896 0.00
0 2 -3 2 o -0.708 51.719 180.00 3.24896 0.00
1 -3 0 2 o 186.289 189.144 0.00 3.16799 0.38
1 -3 0 1 o 186.289 189.144 0.00 3.16799 0.77
1 -2 2 2 o 328.718 320.885 180.00 3.18495 0.72
1 -2 2 1 o 328.718 320.885 180.00 3.18495 1.44
0 3 -2 1 o 3992.695 4250.367 0.00 3.16824 16.29
0 3 -2 2 o 3992.695 4250.367 0.00 3.16824 8.15
1 -3 -1 1 o 74.408 15.819 180.00 3.11042 0.29
1 -3 -1 2 o 74.408 15.819 180.00 3.11042 0.15
1 2 -3 1 o 134.214 158.917 0.00 3.05747 0.54
1 2 -3 2 o 134.214 158.917 0.00 3.05747 0.27
0 2 3 2 o 495.297 568.656 180.00 3.05747 0.96
0 2 3 1 o 495.297 568.656 180.00 3.05747 1.92
1 3 -1 2 o 20.712 24.443 0.00 3.04407 0.04
1 3 -1 1 o 20.712 24.443 0.00 3.04407 0.09
2 0 -1 2 o 589.450 877.167 0.00 3.01350 1.44
2 0 -1 1 o 589.450 877.167 0.00 3.01350 2.89
1 3 0 1 o 121.674 188.580 0.00 3.01083 0.53
1 3 0 2 o 121.674 188.580 0.00 3.01083 0.27
1 -2 -3 2 o 1227.986 1115.654 0.00 2.98680 2.20
1 -2 -3 1 o 1227.986 1115.654 0.00 2.98680 4.40
1 -3 1 1 o 10.606 13.185 180.00 3.00378 0.04
1 -3 1 2 o 10.606 13.185 180.00 3.00378 0.02
0 3 2 1 o 292.592 274.612 0.00 2.98991 1.10
0 3 2 2 o 292.592 274.612 0.00 2.98991 0.55
1 2 2 1 o 106.710 69.364 0.00 2.96362 0.45
1 2 2 2 o 106.710 69.364 0.00 2.96362 0.23
2 -1 -1 1 o 1819.537 2031.470 0.00 2.93592 7.85
2 -1 -1 2 o 1819.537 2031.470 0.00 2.93592 3.93
2 0 0 1 o 387.111 409.100 180.00 2.93296 1.82
2 0 0 2 o 387.111 409.100 180.00 2.93296 0.91
1 0 3 1 o 340.709 317.239 0.00 2.92906 1.34
1 0 3 2 o 340.709 317.239 0.00 2.92906 0.67
2 0 -2 2 o 86.889 52.388 180.00 2.90006 0.18
2 0 -2 1 o 86.889 52.388 180.00 2.90006 0.37
0 0 4 2 o 222.648 153.982 0.00 2.89503 0.38
0 0 4 1 o 222.648 153.982 0.00 2.89503 0.75
2 1 -1 1 o 0.080 0.069 0.00 2.87372 0.00
2 1 -1 2 o 0.080 0.069 0.00 2.87372 0.00
2 -1 0 1 o 4187.216 3276.897 180.00 2.87331 17.61
2 -1 0 2 o 4187.216 3276.897 180.00 2.87331 8.80
1 0 -4 2 o 213.795 166.176 0.00 2.87241 0.36
1 0 -4 1 o 213.795 166.176 0.00 2.87241 0.71
1 -3 -2 2 o 318.307 275.056 0.00 2.86300 0.52
1 -3 -2 1 o 318.307 275.056 0.00 2.86300 1.04
1 3 -2 1 o 404.051 353.889 0.00 2.88153 1.50
1 3 -2 2 o 404.051 353.889 0.00 2.88153 0.75
1 -1 3 2 o 260.610 244.149 180.00 2.88489 0.48
1 -1 3 1 o 260.610 244.149 180.00 2.88489 0.95
2 -1 -2 1 o 1.419 0.726 180.00 2.81922 0.01
2 -1 -2 2 o 1.419 0.726 180.00 2.81922 0.00
0 1 -4 2 o 253.454 280.540 180.00 2.84359 0.41
0 1 -4 1 o 253.454 280.540 180.00 2.84359 0.83
2 1 0 2 o 78.273 97.665 180.00 2.79245 0.17
2 1 0 1 o 78.273 97.665 180.00 2.79245 0.34
2 1 -2 2 o 2401.232 2734.892 0.00 2.78580 4.81
2 1 -2 1 o 2401.232 2734.892 0.00 2.78580 9.62
1 1 -4 1 o 118.135 159.737 180.00 2.80237 0.38
1 1 -4 2 o 118.135 159.737 180.00 2.80237 0.19
1 3 1 2 o 29.354 40.242 0.00 2.79920 0.06
1 3 1 1 o 29.354 40.242 0.00 2.79920 0.11
1 1 3 2 o 192.346 231.613 180.00 2.77529 0.34
1 1 3 1 o 192.346 231.613 180.00 2.77529 0.69
1 -1 -4 1 o 966.443 989.067 180.00 2.75308 2.91
1 -1 -4 2 o 966.443 989.067 180.00 2.75308 1.45
0 1 4 2 o 210.667 216.459 0.00 2.75419 0.33
0 1 4 1 o 210.667 216.459 0.00 2.75419 0.65
0 4 0 1 o 603.632 455.845 180.00 2.72207 1.81
0 4 0 2 o 603.632 455.845 180.00 2.72207 0.90
0 3 -3 1 o 563.215 560.842 180.00 2.73332 1.66
0 3 -3 2 o 563.215 560.842 180.00 2.73332 0.83
2 0 1 1 o 32.705 27.707 180.00 2.69882 0.13
2 0 1 2 o 32.705 27.707 180.00 2.69882 0.06
2 -2 -1 1 o 85.207 74.631 180.00 2.68432 0.28
2 -2 -1 2 o 85.207 74.631 180.00 2.68432 0.14
0 4 -1 2 o 2673.421 2350.635 0.00 2.68863 3.87
0 4 -1 1 o 2673.421 2350.635 0.00 2.68863 7.73
1 -3 2 2 o 146.801 120.217 0.00 2.70233 0.22
1 -3 2 1 o 146.801 120.217 0.00 2.70233 0.43
2 0 -3 1 o 945.952 781.092 180.00 2.64814 3.05
2 0 -3 2 o 945.952 781.092 180.00 2.64814 1.53
2 -1 1 1 o 263.782 290.331 180.00 2.66169 0.93
2 -1 1 2 o 263.782 290.331 180.00 2.66169 0.47
2 -2 0 2 o 1515.799 1222.732 0.00 2.64561 2.46
2 -2 0 1 o 1515.799 1222.732 0.00 2.64561 4.93
1 -2 3 2 o 5.392 6.443 180.00 2.66670 0.01
1 -2 3 1 o 5.392 6.443 180.00 2.66670 0.02
2 -2 -2 1 o 0.002 0.003 180.00 2.58540 0.00
2 -2 -2 2 o 0.002 0.003 180.00 2.58540 0.00
0 2 -4 1 o 300.623 390.386 0.00 2.62707 0.82
0 2 -4 2 o 300.623 390.386 0.00 2.62707 0.41
0 4 1 2 o 18.039 64.332 180.00 2.61269 0.03
0 4 1 1 o 18.039 64.332 180.00 2.61269 0.05
2 -1 -3 1 o 17.609 16.084 180.00 2.57739 0.05
2 -1 -3 2 o 17.609 16.084 180.00 2.57739 0.03
2 2 -1 2 o 563.346 796.063 0.00 2.59121 1.01
2 2 -1 1 o 563.346 796.063 0.00 2.59121 2.02
1 3 -3 2 o 1.716 3.834 180.00 2.60054 0.00
1 3 -3 1 o 1.716 3.834 180.00 2.60054 0.00
2 1 1 2 o 47.227 46.076 0.00 2.57936 0.08
2 1 1 1 o 47.227 46.076 0.00 2.57936 0.17
2 1 -3 2 o 24.397 16.170 0.00 2.56890 0.04
2 1 -3 1 o 24.397 16.170 0.00 2.56890 0.08
1 2 -4 1 o 391.927 372.272 180.00 2.57907 1.05
1 2 -4 2 o 391.927 372.272 180.00 2.57907 0.53
0 3 3 1 o 56.946 35.924 180.00 2.56320 0.15
0 3 3 2 o 56.946 35.924 180.00 2.56320 0.08
1 -3 -3 2 o 82.367 80.446 180.00 2.53550 0.10
1 -3 -3 1 o 82.367 80.446 180.00 2.53550 0.21
2 2 -2 2 o 1017.749 999.098 180.00 2.53447 1.65
2 2 -2 1 o 1017.749 999.098 180.00 2.53447 3.29
2 2 0 1 o 53.095 51.727 0.00 2.52293 0.18
2 2 0 2 o 53.095 51.727 0.00 2.52293 0.09
1 -4 0 1 o 39.673 39.883 180.00 2.52453 0.10
1 -4 0 2 o 39.673 39.883 180.00 2.52453 0.05
1 -2 -4 1 o 146.178 122.549 0.00 2.50359 0.35
1 -2 -4 2 o 146.178 122.549 0.00 2.50359 0.18
1 3 2 1 o 295.541 267.217 180.00 2.50118 0.85
1 3 2 2 o 295.541 267.217 180.00 2.50118 0.43
0 4 -2 2 o 1595.099 1625.068 180.00 2.52676 2.00
0 4 -2 1 o 1595.099 1625.068 180.00 2.52676 3.99
1 2 3 1 o 1.571 1.471 0.00 2.50019 0.00
1 2 3 2 o 1.571 1.471 0.00 2.50019 0.00
0 2 4 2 o 2158.950 2253.626 180.00 2.49058 2.69
0 2 4 1 o 2158.950 2253.626 180.00 2.49058 5.37
1 -4 -1 1 o 11.286 10.938 0.00 2.48723 0.03
1 -4 -1 2 o 11.286 10.938 0.00 2.48723 0.01
2 -2 1 2 o 2.020 1.858 180.00 2.48546 0.00
2 -2 1 1 o 2.020 1.858 180.00 2.48546 0.01
1 -4 1 2 o 78.943 54.484 0.00 2.44648 0.09
1 -4 1 1 o 78.943 54.484 0.00 2.44648 0.18
1 4 -1 2 o 116.539 87.189 0.00 2.44178 0.15
1 4 -1 1 o 116.539 87.189 0.00 2.44178 0.30
1 4 0 1 o 179.574 146.553 180.00 2.41729 0.46
1 4 0 2 o 179.574 146.553 180.00 2.41729 0.23
0 4 2 1 o 546.233 584.091 0.00 2.40461 1.27
0 4 2 2 o 546.233 584.091 0.00 2.40461 0.63
2 0 2 2 o 640.077 666.623 180.00 2.40248 0.93
2 0 2 1 o 640.077 666.623 180.00 2.40248 1.86
2 -2 -3 1 o 200.950 139.359 0.00 2.38812 0.48
2 -2 -3 2 o 200.950 139.359 0.00 2.38812 0.24
2 -1 2 1 o 264.386 179.391 0.00 2.38304 0.72
2 -1 2 2 o 264.386 179.391 0.00 2.38304 0.36
2 -3 -1 2 o 112.889 125.062 0.00 2.36745 0.13
2 -3 -1 1 o 112.889 125.062 0.00 2.36745 0.27
2 2 -3 2 o 8.301 7.044 0.00 2.37466 0.01
2 2 -3 1 o 8.301 7.044 0.00 2.37466 0.02
1 0 4 1 o 10.808 7.145 0.00 2.38669 0.03
1 0 4 2 o 10.808 7.145 0.00 2.38669 0.01
2 0 -4 1 o 398.347 467.886 0.00 2.34913 0.94
2 0 -4 2 o 398.347 467.886 0.00 2.34913 0.47
1 -3 3 2 o 170.909 182.063 180.00 2.37051 0.19
1 -3 3 1 o 170.909 182.063 180.00 2.37051 0.38
1 -1 4 1 o 34.629 38.390 0.00 2.36937 0.08
1 -1 4 2 o 34.629 38.390 0.00 2.36937 0.04
2 2 1 2 o 151.069 176.866 180.00 2.35579 0.22
2 2 1 1 o 151.069 176.866 180.00 2.35579 0.44
1 4 -2 1 o 127.259 156.949 180.00 2.36215 0.30
1 4 -2 2 o 127.259 156.949 180.00 2.36215 0.15
1 -4 -2 1 o 293.819 348.851 180.00 2.34853 0.62
1 -4 -2 2 o 293.819 348.851 180.00 2.34853 0.31
2 -3 0 2 o 129.548 156.591 180.00 2.34733 0.15
2 -3 0 1 o 129.548 156.591 180.00 2.34733 0.31
1 0 -5 1 o 27.719 33.791 180.00 2.34712 0.06
1 0 -5 2 o 27.719 33.791 180.00 2.34712 0.03
0 0 5 1 o 82.722 50.202 180.00 2.31602 0.17
0 0 5 2 o 82.722 50.202 180.00 2.31602 0.09
0 3 -4 1 o 348.113 441.041 180.00 2.33768 0.73
0 3 -4 2 o 348.113 441.041 180.00 2.33768 0.36
1 1 -5 1 o 16.663 10.419 0.00 2.31474 0.03
1 1 -5 2 o 16.663 10.419 0.00 2.31474 0.02
2 1 -4 1 o 16.338 17.229 180.00 2.29946 0.04
2 1 -4 2 o 16.338 17.229 180.00 2.29946 0.02
2 1 2 2 o 653.693 486.899 0.00 2.31072 0.88
2 1 2 1 o 653.693 486.899 0.00 2.31072 1.77
2 -1 -4 2 o 173.131 194.533 180.00 2.29315 0.19
2 -1 -4 1 o 173.131 194.533 180.00 2.29315 0.38
2 -3 -2 1 o 258.892 291.834 0.00 2.29258 0.55
2 -3 -2 2 o 258.892 291.834 0.00 2.29258 0.28
1 4 1 1 o 9.213 10.181 0.00 2.29738 0.02
1 4 1 2 o 9.213 10.181 0.00 2.29738 0.01
1 1 4 1 o 35.200 41.232 0.00 2.29509 0.08
1 1 4 2 o 35.200 41.232 0.00 2.29509 0.04
1 -1 -5 1 o 11.505 7.395 180.00 2.27463 0.02
1 -1 -5 2 o 11.505 7.395 180.00 2.27463 0.01
0 1 -5 2 o 684.129 820.058 0.00 2.29558 0.69
0 1 -5 1 o 684.129 820.058 0.00 2.29558 1.39
1 3 -4 2 o 21.238 25.664 0.00 2.29286 0.02
1 3 -4 1 o 21.238 25.664 0.00 2.29286 0.04
0 4 -3 2 o 32.069 38.973 180.00 2.29515 0.03
0 4 -3 1 o 32.069 38.973 180.00 2.29515 0.06
2 3 -1 1 o 616.603 386.416 180.00 2.27245 1.57
2 3 -1 2 o 616.603 386.416 180.00 2.27245 0.79
1 -4 2 2 o 104.836 73.286 0.00 2.28121 0.10
1 -4 2 1 o 104.836 73.286 0.00 2.28121 0.21
2 -2 2 2 o 12.199 6.960 180.00 2.25994 0.01
2 -2 2 1 o 12.199 6.960 180.00 2.25994 0.03
2 3 -2 1 o 29.279 33.725 180.00 2.23959 0.07
2 3 -2 2 o 29.279 33.725 180.00 2.23959 0.03
2 -3 1 1 o 4.155 4.863 0.00 2.23901 0.01
2 -3 1 2 o 4.155 4.863 0.00 2.23901 0.00
1 -2 4 1 o 43.299 51.216 0.00 2.24974 0.09
1 -2 4 2 o 43.299 51.216 0.00 2.24974 0.04
0 1 5 2 o 41.903 55.311 0.00 2.23627 0.04
0 1 5 1 o 41.903 55.311 0.00 2.23627 0.08
1 -3 -4 1 o 63.646 86.931 0.00 2.21395 0.12
1 -3 -4 2 o 63.646 86.931 0.00 2.21395 0.06
2 3 0 1 o 259.474 478.917 180.00 2.22038 0.65
2 3 0 2 o 259.474 478.917 180.00 2.22038 0.33
0 3 4 1 o 448.951 391.773 0.00 2.19546 0.84
0 3 4 2 o 448.951 391.773 0.00 2.19546 0.42
1 3 3 1 o 47.867 42.666 180.00 2.19800 0.10
1 3 3 2 o 47.867 42.666 180.00 2.19800 0.05
1 4 -3 2 o 190.612 185.832 0.00 2.20524 0.19
1 4 -3 1 o 190.612 185.832 0.00 2.20524 0.37
1 2 -5 2 o 28.454 20.878 0.00 2.18938 0.03
1 2 -5 1 o 28.454 20.878 0.00 2.18938 0.05
0 5 0 1 o 86.109 26.957 180.00 2.17766 0.16
0 5 0 2 o 86.109 26.957 180.00 2.17766 0.08
2 -2 -4 1 o 56.437 50.657 180.00 2.15169 0.10
2 -2 -4 2 o 56.437 50.657 180.00 2.15169 0.05
2 2 -4 2 o 108.271 101.369 180.00 2.16215 0.11
2 2 -4 1 o 108.271 101.369 180.00 2.16215 0.22
0 2 -5 2 o 10.868 3.659 0.00 2.18233 0.01
0 2 -5 1 o 10.868 3.659 0.00 2.18233 0.02
0 4 3 2 o 44.579 45.462 0.00 2.16012 0.04
0 4 3 1 o 44.579 45.462 0.00 2.16012 0.08
2 -3 -3 2 o 365.617 338.703 180.00 2.14660 0.33
2 -3 -3 1 o 365.617 338.703 180.00 2.14660 0.66
1 -4 -3 2 o 13.048 11.791 180.00 2.15228 0.01
1 -4 -3 1 o 13.048 11.791 180.00 2.15228 0.02
0 5 -1 2 o 0.627 0.488 0.00 2.16558 0.00
0 5 -1 1 o 0.627 0.488 0.00 2.16558 0.00
2 2 2 2 o 0.085 0.090 180.00 2.14084 0.00
2 2 2 1 o 0.085 0.090 180.00 2.14084 0.00
1 -2 -5 2 o 343.324 295.713 0.00 2.12285 0.29
1 -2 -5 1 o 343.324 295.713 0.00 2.12285 0.57
2 3 -3 2 o 0.016 0.015 180.00 2.13196 0.00
2 3 -3 1 o 0.016 0.015 180.00 2.13196 0.00
1 2 4 1 o 72.858 67.275 0.00 2.12713 0.14
1 2 4 2 o 72.858 67.275 0.00 2.12713 0.07
1 4 2 2 o 162.610 130.478 0.00 2.11899 0.16
1 4 2 1 o 162.610 130.478 0.00 2.11899 0.31
0 5 1 1 o 298.179 238.227 0.00 2.11558 0.52
0 5 1 2 o 298.179 238.227 0.00 2.11558 0.26
2 0 3 1 o 104.541 90.018 0.00 2.11229 0.22
2 0 3 2 o 104.541 90.018 0.00 2.11229 0.11
2 3 1 1 o 111.487 154.771 0.00 2.09915 0.25
2 3 1 2 o 111.487 154.771 0.00 2.09915 0.12
2 -1 3 2 o 92.039 97.021 180.00 2.10377 0.09
2 -1 3 1 o 92.039 97.021 180.00 2.10377 0.18
0 2 5 2 o 3.150 22.144 0.00 2.08348 0.00
0 2 5 1 o 3.150 22.144 0.00 2.08348 0.01
2 0 -5 1 o 312.256 298.782 180.00 2.06399 0.53
2 0 -5 2 o 312.256 298.782 180.00 2.06399 0.26
1 -5 0 2 o 0.844 1.719 0.00 2.08044 0.00
1 -5 0 1 o 0.844 1.719 0.00 2.08044 0.00
2 -3 2 2 o 12.641 10.572 180.00 2.07446 0.01
2 -3 2 1 o 12.641 10.572 180.00 2.07446 0.02
0 5 -2 2 o 6.902 32.704 0.00 2.08286 0.01
0 5 -2 1 o 6.902 32.704 0.00 2.08286 0.01
2 -4 -1 1 o 18.952 18.564 180.00 2.06317 0.03
2 -4 -1 2 o 18.952 18.564 180.00 2.06317 0.02
1 -4 3 2 o 18.523 15.435 0.00 2.07540 0.01
1 -4 3 1 o 18.523 15.435 0.00 2.07540 0.03
1 -5 -1 2 o 86.411 114.620 180.00 2.05497 0.07
1 -5 -1 1 o 86.411 114.620 180.00 2.05497 0.13
2 -4 0 1 o 53.067 68.505 180.00 2.05422 0.09
2 -4 0 2 o 53.067 68.505 180.00 2.05422 0.04
1 -3 4 1 o 4.811 4.135 180.00 2.06772 0.01
1 -3 4 2 o 4.811 4.135 180.00 2.06772 0.00
2 1 3 2 o 22.797 14.918 180.00 2.04474 0.02
2 1 3 1 o 22.797 14.918 180.00 2.04474 0.05
2 1 -5 2 o 368.543 309.328 0.00 2.03434 0.30
2 1 -5 1 o 368.543 309.328 0.00 2.03434 0.61
2 -1 -5 1 o 2.173 1.218 0.00 2.02148 0.00
2 -1 -5 2 o 2.173 1.218 0.00 2.02148 0.00
0 4 -4 2 o 70.772 74.710 180.00 2.04999 0.06
0 4 -4 1 o 70.772 74.710 180.00 2.04999 0.11
1 -5 1 1 o 50.258 30.750 0.00 2.04042 0.08
1 -5 1 2 o 50.258 30.750 0.00 2.04042 0.04
2 -4 -2 1 o 176.776 149.905 180.00 2.00891 0.27
2 -4 -2 2 o 176.776 149.905 180.00 2.00891 0.14
3 0 -1 2 o 66.749 66.033 180.00 2.00548 0.07
3 0 -1 1 o 66.749 66.033 180.00 2.00548 0.13
1 5 -1 2 o 488.264 279.689 180.00 2.02281 0.41
1 5 -1 1 o 488.264 279.689 180.00 2.02281 0.81
2 -2 3 2 o 0.091 0.050 0.00 2.02182 0.00
2 -2 3 1 o 0.091 0.050 0.00 2.02182 0.00
3 0 -2 1 o 134.218 194.366 0.00 1.99751 0.26
3 0 -2 2 o 134.218 194.366 0.00 1.99751 0.13
1 3 -5 2 o 1.420 1.160 180.00 2.01018 0.00
1 3 -5 1 o 1.420 1.160 180.00 2.01018 0.00
3 -1 -1 1 o 122.227 121.289 0.00 1.98908 0.23
3 -1 -1 2 o 122.227 121.289 0.00 1.98908 0.11
0 5 2 1 o 88.971 136.367 180.00 1.99641 0.14
0 5 2 2 o 88.971 136.367 180.00 1.99641 0.07
1 5 0 2 o 35.997 37.666 180.00 2.00470 0.03
1 5 0 1 o 35.997 37.666 180.00 2.00470 0.06
1 4 -4 2 o 41.188 32.051 180.00 2.01228 0.03
1 4 -4 1 o 41.188 32.051 180.00 2.01228 0.06
0 3 -5 1 o 2.321 1.865 180.00 2.01192 0.00
0 3 -5 2 o 2.321 1.865 180.00 2.01192 0.00
1 0 5 1 o 1.035 1.457 180.00 2.00216 0.00
1 0 5 2 o 1.035 1.457 180.00 2.00216 0.00
3 -1 -2 2 o 164.141 143.207 0.00 1.97734 0.15
3 -1 -2 1 o 164.141 143.207 0.00 1.97734 0.30
1 -1 5 2 o 1.988 3.209 0.00 1.99594 0.00
1 -1 5 1 o 1.988 3.209 0.00 1.99594 0.00
2 -4 1 1 o 262.374 239.225 0.00 1.98442 0.40
2 -4 1 2 o 262.374 239.225 0.00 1.98442 0.20
2 4 -1 2 o 60.642 51.268 0.00 1.97941 0.05
2 4 -1 1 o 60.642 51.268 0.00 1.97941 0.11
2 3 -4 2 o 1.492 1.266 180.00 1.97812 0.00
2 3 -4 1 o 1.492 1.266 180.00 1.97812 0.00
2 -3 -4 2 o 46.877 46.985 0.00 1.96612 0.03
2 -3 -4 1 o 46.877 46.985 0.00 1.96612 0.07
1 0 -6 2 o 0.443 0.416 0.00 1.97351 0.00
1 0 -6 1 o 0.443 0.416 0.00 1.97351 0.00
1 5 -2 2 o 119.259 100.015 0.00 1.98079 0.09
1 5 -2 1 o 119.259 100.015 0.00 1.98079 0.18
1 -5 -2 1 o 11.718 11.075 0.00 1.97074 0.02
1 -5 -2 2 o 11.718 11.075 0.00 1.97074 0.01
3 1 -1 1 o 44.567 55.527 180.00 1.95595 0.09
3 1 -1 2 o 44.567 55.527 180.00 1.95595 0.04
3 0 0 1 o 31.328 39.247 180.00 1.95531 0.06
3 0 0 2 o 31.328 39.247 180.00 1.95531 0.03
3 1 -2 1 o 71.079 84.651 0.00 1.95233 0.13
3 1 -2 2 o 71.079 84.651 0.00 1.95233 0.07
2 4 -2 1 o 218.705 243.658 0.00 1.96141 0.38
2 4 -2 2 o 218.705 243.658 0.00 1.96141 0.19
1 1 -6 1 o 15.820 20.158 180.00 1.95796 0.02
1 1 -6 2 o 15.820 20.158 180.00 1.95796 0.01
3 -1 0 2 o 27.154 27.803 180.00 1.94383 0.02
3 -1 0 1 o 27.154 27.803 180.00 1.94383 0.05
1 -4 -4 2 o 253.686 246.925 180.00 1.94125 0.17
1 -4 -4 1 o 253.686 246.925 180.00 1.94125 0.35
1 -3 -5 1 o 207.429 171.496 0.00 1.93385 0.28
1 -3 -5 2 o 207.429 171.496 0.00 1.93385 0.14
3 0 -3 1 o 0.335 0.279 180.00 1.93337 0.00
3 0 -3 2 o 0.335 0.279 180.00 1.93337 0.00
2 4 0 1 o 171.476 166.024 0.00 1.94096 0.30
2 4 0 2 o 171.476 166.024 0.00 1.94096 0.15
2 2 -5 1 o 32.053 31.154 180.00 1.94112 0.05
2 2 -5 2 o 32.053 31.154 180.00 1.94112 0.02
2 3 2 2 o 315.147 293.504 180.00 1.93906 0.28
2 3 2 1 o 315.147 293.504 180.00 1.93906 0.56
1 -5 2 2 o 106.865 114.248 180.00 1.94529 0.07
1 -5 2 1 o 106.865 114.248 180.00 1.94529 0.15
1 1 5 2 o 151.969 155.345 0.00 1.94340 0.12
1 1 5 1 o 151.969 155.345 0.00 1.94340 0.23
0 5 -3 1 o 478.484 566.877 0.00 1.95109 0.67
0 5 -3 2 o 478.484 566.877 0.00 1.95109 0.33
3 -1 -3 1 o 10.486 6.888 0.00 1.91150 0.02
3 -1 -3 2 o 10.486 6.888 0.00 1.91150 0.01
1 5 1 1 o 1.881 1.515 180.00 1.93102 0.00
1 5 1 2 o 1.881 1.515 180.00 1.93102 0.00
2 -2 -5 1 o 3.178 2.609 180.00 1.91896 0.00
2 -2 -5 2 o 3.178 2.609 180.00 1.91896 0.00
1 3 4 1 o 54.292 45.172 0.00 1.92792 0.08
1 3 4 2 o 54.292 45.172 0.00 1.92792 0.04
1 -1 -6 1 o 200.013 172.010 0.00 1.92617 0.27
1 -1 -6 2 o 200.013 172.010 0.00 1.92617 0.13
0 4 4 2 o 103.496 90.578 0.00 1.92240 0.07
0 4 4 1 o 103.496 90.578 0.00 1.92240 0.14
1 4 3 1 o 36.395 31.513 0.00 1.92140 0.06
1 4 3 2 o 36.395 31.513 0.00 1.92140 0.03
0 0 6 2 o 18.575 14.843 0.00 1.93002 0.01
0 0 6 1 o 18.575 14.843 0.00 1.93002 0.03
2 2 3 1 o 85.325 72.926 0.00 1.92059 0.15
2 2 3 2 o 85.325 72.926 0.00 1.92059 0.07
3 -2 -1 1 o 32.273 20.960 180.00 1.91131 0.05
3 -2 -1 2 o 32.273 20.960 180.00 1.91131 0.03
3 1 0 1 o 42.955 29.412 180.00 1.90578 0.08
3 1 0 2 o 42.955 29.412 180.00 1.90578 0.04
2 -4 -3 1 o 183.738 127.294 0.00 1.90497 0.25
2 -4 -3 2 o 183.738 127.294 0.00 1.90497 0.12
0 1 -6 2 o 60.727 53.639 180.00 1.92175 0.04
0 1 -6 1 o 60.727 53.639 180.00 1.92175 0.08
1 -2 5 1 o 50.380 43.572 180.00 1.92648 0.07
1 -2 5 2 o 50.380 43.572 180.00 1.92648 0.04
3 -2 -2 1 o 115.822 126.264 0.00 1.89740 0.18
3 -2 -2 2 o 115.822 126.264 0.00 1.89740 0.09
3 1 -3 1 o 67.685 82.429 180.00 1.89579 0.11
3 1 -3 2 o 67.685 82.429 180.00 1.89579 0.06
0 3 5 2 o 6.719 7.331 0.00 1.89783 0.00
0 3 5 1 o 6.719 7.331 0.00 1.89783 0.01
2 4 -3 2 o 77.500 125.557 180.00 1.89134 0.06
2 4 -3 1 o 77.500 125.557 180.00 1.89134 0.12
3 -2 0 1 o 13.063 7.854 180.00 1.87440 0.02
3 -2 0 2 o 13.063 7.854 180.00 1.87440 0.01
2 -3 3 2 o 82.540 153.001 0.00 1.88918 0.06
2 -3 3 1 o 82.540 153.001 0.00 1.88918 0.12
1 5 -3 1 o 39.956 73.202 180.00 1.88893 0.05
1 5 -3 2 o 39.956 73.202 180.00 1.88893 0.03
0 1 6 2 o 4.626 2.921 180.00 1.87974 0.00
0 1 6 1 o 4.626 2.921 180.00 1.87974 0.01
1 2 -6 2 o 2.014 2.174 0.00 1.88372 0.00
1 2 -6 1 o 2.014 2.174 0.00 1.88372 0.00
3 0 1 2 o 27.854 22.011 180.00 1.85888 0.02
3 0 1 1 o 27.854 22.011 180.00 1.85888 0.05
3 2 -2 2 o 1.228 1.088 180.00 1.85389 0.00
3 2 -2 1 o 1.228 1.088 180.00 1.85389 0.00
3 2 -1 1 o 34.329 30.516 0.00 1.85373 0.06
3 2 -1 2 o 34.329 30.516 0.00 1.85373 0.03
2 -4 2 2 o 110.003 78.133 180.00 1.87048 0.07
2 -4 2 1 o 110.003 78.133 180.00 1.87048 0.15
3 -1 1 1 o 346.717 326.094 0.00 1.85224 0.56
3 -1 1 2 o 346.717 326.094 0.00 1.85224 0.28
2 0 4 1 o 96.680 76.042 180.00 1.85722 0.14
2 0 4 2 o 96.680 76.042 180.00 1.85722 0.07
1 -5 -3 2 o 0.255 0.284 0.00 1.84720 0.00
1 -5 -3 1 o 0.255 0.284 0.00 1.84720 0.00
2 4 1 2 o 131.017 110.543 180.00 1.85515 0.10
2 4 1 1 o 131.017 110.543 180.00 1.85515 0.21
3 -2 -3 2 o 65.670 46.605 180.00 1.83583 0.05
3 -2 -3 1 o 65.670 46.605 180.00 1.83583 0.09
1 -4 4 1 o 280.329 256.146 0.00 1.86638 0.36
1 -4 4 2 o 280.329 256.146 0.00 1.86638 0.18
0 2 -6 1 o 155.418 120.593 0.00 1.85708 0.19
0 2 -6 2 o 155.418 120.593 0.00 1.85708 0.10
2 -1 4 1 o 0.040 0.035 180.00 1.85468 0.00
2 -1 4 2 o 0.040 0.035 180.00 1.85468 0.00
0 5 3 1 o 41.108 46.118 0.00 1.84652 0.05
0 5 3 2 o 41.108 46.118 0.00 1.84652 0.03
3 0 -4 1 o 92.347 86.936 180.00 1.82773 0.13
3 0 -4 2 o 92.347 86.936 180.00 1.82773 0.07
1 -2 -6 1 o 6.980 6.536 180.00 1.82825 0.01
1 -2 -6 2 o 6.980 6.536 180.00 1.82825 0.00
1 2 5 1 o 57.763 38.831 180.00 1.83507 0.08
1 2 5 2 o 57.763 38.831 180.00 1.83507 0.04
2 0 -6 1 o 109.458 119.846 0.00 1.81614 0.13
2 0 -6 2 o 109.458 119.846 0.00 1.81614 0.07
3 -1 -4 1 o 0.138 0.151 180.00 1.80621 0.00
3 -1 -4 2 o 0.138 0.151 180.00 1.80621 0.00
3 1 1 1 o 21.747 24.947 0.00 1.81312 0.04
3 1 1 2 o 21.747 24.947 0.00 1.81312 0.02
1 5 2 1 o 92.967 92.239 180.00 1.81835 0.12
1 5 2 2 o 92.967 92.239 180.00 1.81835 0.06
3 2 -3 2 o 100.549 109.787 0.00 1.80828 0.08
3 2 -3 1 o 100.549 109.787 0.00 1.80828 0.15
3 2 0 1 o 16.348 17.826 180.00 1.80783 0.03
3 2 0 2 o 16.348 17.826 180.00 1.80783 0.01
3 1 -4 2 o 0.514 0.546 0.00 1.79884 0.00
3 1 -4 1 o 0.514 0.546 0.00 1.79884 0.00
2 -5 -1 2 o 0.533 0.587 0.00 1.80100 0.00
2 -5 -1 1 o 0.533 0.587 0.00 1.80100 0.00
1 4 -5 2 o 0.004 0.005 0.00 1.81608 0.00
1 4 -5 1 o 0.004 0.005 0.00 1.81608 0.00
1 -5 3 1 o 5.793 6.599 180.00 1.81596 0.01
1 -5 3 2 o 5.793 6.599 180.00 1.81596 0.00
0 4 -5 2 o 87.060 86.582 0.00 1.82273 0.05
0 4 -5 1 o 87.060 86.582 0.00 1.82273 0.10
2 1 4 1 o 169.598 184.911 0.00 1.80779 0.24
2 1 4 2 o 169.598 184.911 0.00 1.80779 0.12
2 3 -5 2 o 343.654 374.839 180.00 1.80767 0.22
2 3 -5 1 o 343.654 374.839 180.00 1.80767 0.44
0 6 0 1 o 7.795 9.125 180.00 1.81471 0.01
0 6 0 2 o 7.795 9.125 180.00 1.81471 0.00
2 1 -6 1 o 8.872 9.458 0.00 1.79880 0.01
2 1 -6 2 o 8.872 9.458 0.00 1.79880 0.01
0 6 -1 1 o 4.718 5.315 180.00 1.81073 0.01
0 6 -1 2 o 4.718 5.315 180.00 1.81073 0.00
3 -2 1 2 o 37.597 38.351 180.00 1.79482 0.03
3 -2 1 1 o 37.597 38.351 180.00 1.79482 0.05
3 -3 -1 2 o 57.716 65.480 180.00 1.79144 0.04
3 -3 -1 1 o 57.716 65.480 180.00 1.79144 0.08
2 -5 0 2 o 117.233 122.982 0.00 1.79799 0.07
2 -5 0 1 o 117.233 122.982 0.00 1.79799 0.14
2 -3 -5 1 o 92.679 70.623 180.00 1.78096 0.11
2 -3 -5 2 o 92.679 70.623 180.00 1.78096 0.05
1 -3 5 1 o 133.601 154.411 0.00 1.81148 0.16
1 -3 5 2 o 133.601 154.411 0.00 1.81148 0.08
3 -3 -2 1 o 210.518 155.672 180.00 1.77710 0.27
3 -3 -2 2 o 210.518 155.672 180.00 1.77710 0.13
2 -2 4 1 o 144.722 160.863 0.00 1.80076 0.19
2 -2 4 2 o 144.722 160.863 0.00 1.80076 0.09
2 -1 -6 2 o 30.274 29.568 180.00 1.78408 0.02
2 -1 -6 1 o 30.274 29.568 180.00 1.78408 0.04
2 -4 -4 2 o 59.617 53.229 180.00 1.77260 0.03
2 -4 -4 1 o 59.617 53.229 180.00 1.77260 0.07
2 4 -4 2 o 57.882 58.536 0.00 1.78434 0.04
2 4 -4 1 o 57.882 58.536 0.00 1.78434 0.07
0 2 6 1 o 11.252 10.245 180.00 1.78334 0.01
0 2 6 2 o 11.252 10.245 180.00 1.78334 0.01
0 5 -4 2 o 10.052 10.126 0.00 1.79666 0.01
0 5 -4 1 o 10.052 10.126 0.00 1.79666 0.01
0 6 1 1 o 0.178 0.132 180.00 1.77546 0.00
0 6 1 2 o 0.178 0.132 180.00 1.77546 0.00
3 -3 0 1 o 25.077 20.018 180.00 1.76374 0.03
3 -3 0 2 o 25.077 20.018 180.00 1.76374 0.02
2 -5 -2 1 o 38.602 32.256 180.00 1.76177 0.04
2 -5 -2 2 o 38.602 32.256 180.00 1.76177 0.02
2 3 3 1 o 0.004 0.004 180.00 1.76806 0.00
2 3 3 2 o 0.004 0.004 180.00 1.76806 0.00
1 -6 0 2 o 36.308 29.579 180.00 1.76214 0.02
1 -6 0 1 o 36.308 29.579 180.00 1.76214 0.04
1 3 -6 1 o 216.074 190.269 0.00 1.76873 0.24
1 3 -6 2 o 216.074 190.269 0.00 1.76873 0.12
1 5 -4 1 o 22.041 17.276 180.00 1.76619 0.03
1 5 -4 2 o 22.041 17.276 180.00 1.76619 0.01
0 6 -2 2 o 900.211 689.072 0.00 1.76433 0.50
0 6 -2 1 o 900.211 689.072 0.00 1.76433 1.00
3 -2 -4 2 o 92.653 86.629 0.00 1.73927 0.06
3 -2 -4 1 o 92.653 86.629 0.00 1.73927 0.11
2 -5 1 1 o 361.580 405.134 180.00 1.75337 0.41
2 -5 1 2 o 361.580 405.134 180.00 1.75337 0.20
1 -4 -5 2 o 471.764 433.305 180.00 1.74141 0.25
1 -4 -5 1 o 471.764 433.305 180.00 1.74141 0.50
0 3 -6 2 o 16.438 19.076 180.00 1.75138 0.01
0 3 -6 1 o 16.438 19.076 180.00 1.75138 0.02
1 -6 -1 2 o 186.484 183.423 180.00 1.74388 0.10
1 -6 -1 1 o 186.484 183.423 180.00 1.74388 0.20
2 2 -6 2 o 17.028 16.753 180.00 1.73606 0.01
2 2 -6 1 o 17.028 16.753 180.00 1.73606 0.02
3 0 2 1 o 6.742 6.856 0.00 1.73513 0.01
3 0 2 2 o 6.742 6.856 0.00 1.73513 0.00
1 -6 1 1 o 49.334 43.948 180.00 1.74031 0.05
1 -6 1 2 o 49.334 43.948 180.00 1.74031 0.03
3 -1 2 1 o 94.116 103.533 0.00 1.73237 0.13
3 -1 2 2 o 94.116 103.533 0.00 1.73237 0.06
3 -3 -3 1 o 0.274 0.530 180.00 1.72360 0.00
3 -3 -3 2 o 0.274 0.530 180.00 1.72360 0.00
2 4 2 1 o 82.589 76.024 0.00 1.73919 0.11
2 4 2 2 o 82.589 76.024 0.00 1.73919 0.06
3 2 -4 1 o 14.366 21.332 0.00 1.72619 0.02
3 2 -4 2 o 14.366 21.332 0.00 1.72619 0.01
3 2 1 2 o 21.223 34.062 180.00 1.72554 0.02
3 2 1 1 o 21.223 34.062 180.00 1.72554 0.03
3 3 -2 2 o 6.798 12.550 0.00 1.72406 0.00
3 3 -2 1 o 6.798 12.550 0.00 1.72406 0.01
2 5 -1 1 o 62.390 70.439 180.00 1.73115 0.08
2 5 -1 2 o 62.390 70.439 180.00 1.73115 0.04
1 4 4 1 o 41.973 47.924 180.00 1.73046 0.05
1 4 4 2 o 41.973 47.924 180.00 1.73046 0.02
3 3 -1 1 o 3.292 6.554 180.00 1.72133 0.00
3 3 -1 2 o 3.292 6.554 180.00 1.72133 0.00
2 -4 3 1 o 77.755 82.138 180.00 1.73392 0.09
2 -4 3 2 o 77.755 82.138 180.00 1.73392 0.04
2 -2 -6 1 o 25.674 29.707 0.00 1.70986 0.03
2 -2 -6 2 o 25.674 29.707 0.00 1.70986 0.01
2 5 -2 1 o 13.644 30.094 180.00 1.72167 0.02
2 5 -2 2 o 13.644 30.094 180.00 1.72167 0.01
1 6 -1 1 o 6.457 12.964 180.00 1.72021 0.01
1 6 -1 2 o 6.457 12.964 180.00 1.72021 0.00
1 0 6 1 o 20.169 38.282 0.00 1.71933 0.02
1 0 6 2 o 20.169 38.282 0.00 1.71933 0.01
0 4 5 2 o 54.136 65.783 0.00 1.71050 0.03
0 4 5 1 o 54.136 65.783 0.00 1.71050 0.06
2 2 4 1 o 40.835 68.533 0.00 1.71769 0.05
2 2 4 2 o 40.835 68.533 0.00 1.71769 0.03
3 0 -5 1 o 2.147 1.664 180.00 1.69986 0.00
3 0 -5 2 o 2.147 1.664 180.00 1.69986 0.00
1 -5 -4 2 o 23.162 20.977 180.00 1.70604 0.01
1 -5 -4 1 o 23.162 20.977 180.00 1.70604 0.02
1 -1 6 1 o 3.316 5.771 0.00 1.71797 0.00
1 -1 6 2 o 3.316 5.771 0.00 1.71797 0.00
1 -3 -6 1 o 300.769 228.997 0.00 1.70081 0.30
1 -3 -6 2 o 300.769 228.997 0.00 1.70081 0.15
3 -3 1 2 o 43.435 33.083 180.00 1.69945 0.03
3 -3 1 1 o 43.435 33.083 180.00 1.69945 0.05
1 6 0 2 o 4.611 4.263 180.00 1.70649 0.00
1 6 0 1 o 4.611 4.263 180.00 1.70649 0.01
1 0 -7 1 o 0.403 0.314 180.00 1.69783 0.00
1 0 -7 2 o 0.403 0.314 180.00 1.69783 0.00
2 -5 -3 2 o 5.872 5.324 0.00 1.68795 0.00
2 -5 -3 1 o 5.872 5.324 0.00 1.68795 0.01
2 5 0 2 o 150.983 119.513 0.00 1.70273 0.09
2 5 0 1 o 150.983 119.513 0.00 1.70273 0.19
3 1 2 2 o 170.821 146.497 180.00 1.69525 0.12
3 1 2 1 o 170.821 146.497 180.00 1.69525 0.23
2 -3 4 1 o 46.285 46.242 180.00 1.70767 0.05
2 -3 4 2 o 46.285 46.242 180.00 1.70767 0.03
0 6 2 1 o 168.469 127.294 0.00 1.70073 0.18
0 6 2 2 o 168.469 127.294 0.00 1.70073 0.09
1 3 5 1 o 11.171 8.422 180.00 1.70003 0.01
1 3 5 2 o 11.171 8.422 180.00 1.70003 0.01
3 3 -3 2 o 11.022 10.323 180.00 1.68965 0.01
3 3 -3 1 o 11.022 10.323 180.00 1.68965 0.01
1 -6 -2 1 o 61.164 56.965 0.00 1.68904 0.06
1 -6 -2 2 o 61.164 56.965 0.00 1.68904 0.03
0 5 4 1 o 53.020 49.208 180.00 1.68890 0.05
0 5 4 2 o 53.020 49.208 180.00 1.68890 0.03
3 -1 -5 2 o 50.124 46.901 0.00 1.68008 0.03
3 -1 -5 1 o 50.124 46.901 0.00 1.68008 0.06
3 -2 2 2 o 39.596 35.433 180.00 1.68757 0.02
3 -2 2 1 o 39.596 35.433 180.00 1.68757 0.05
3 1 -5 1 o 94.643 93.677 180.00 1.67895 0.11
3 1 -5 2 o 94.643 93.677 180.00 1.67895 0.05
1 5 3 2 o 59.697 51.786 180.00 1.68640 0.03
1 5 3 1 o 59.697 51.786 180.00 1.68640 0.07
1 6 -2 1 o 7.603 6.059 0.00 1.69663 0.01
1 6 -2 2 o 7.603 6.059 0.00 1.69663 0.00
1 1 -7 2 o 2.993 2.884 0.00 1.69036 0.00
1 1 -7 1 o 2.993 2.884 0.00 1.69036 0.00
3 3 0 2 o 19.163 16.686 0.00 1.68196 0.01
3 3 0 1 o 19.163 16.686 0.00 1.68196 0.03
1 1 6 1 o 96.432 92.657 180.00 1.67927 0.10
1 1 6 2 o 96.432 92.657 180.00 1.67927 0.05
0 6 -3 1 o 939.392 763.199 180.00 1.68451 0.93
0 6 -3 2 o 939.392 763.199 180.00 1.68451 0.46
1 -6 2 1 o 5.370 4.400 180.00 1.68258 0.01
1 -6 2 2 o 5.370 4.400 180.00 1.68258 0.00
2 5 -3 2 o 285.855 342.348 0.00 1.67609 0.16
2 5 -3 1 o 285.855 342.348 0.00 1.67609 0.33
2 -5 2 1 o 44.242 55.678 0.00 1.67568 0.05
2 -5 2 2 o 44.242 55.678 0.00 1.67568 0.02
1 -1 -7 1 o 10.245 8.378 180.00 1.66505 0.01
1 -1 -7 2 o 10.245 8.378 180.00 1.66505 0.00
1 -2 6 2 o 72.530 95.129 180.00 1.67547 0.04
1 -2 6 1 o 72.530 95.129 180.00 1.67547 0.07
1 -4 5 1 o 0.006 0.010 0.00 1.67387 0.00
1 -4 5 2 o 0.006 0.010 0.00 1.67387 0.00
0 3 6 1 o 85.379 81.330 180.00 1.66038 0.08
0 3 6 2 o 85.379 81.330 180.00 1.66038 0.04
1 -5 4 2 o 62.317 83.550 180.00 1.67334 0.03
1 -5 4 1 o 62.317 83.550 180.00 1.67334 0.06
3 -4 -1 2 o 1.440 17.773 0.00 1.65222 0.00
3 -4 -1 1 o 1.440 17.773 0.00 1.65222 0.00
2 4 -5 1 o 21.120 25.293 0.00 1.65855 0.02
2 4 -5 2 o 21.120 25.293 0.00 1.65855 0.01
1 6 1 2 o 28.295 37.776 0.00 1.65802 0.02
1 6 1 1 o 28.295 37.776 0.00 1.65802 0.03
3 -3 -4 1 o 99.411 89.599 180.00 1.64069 0.10
3 -3 -4 2 o 99.411 89.599 180.00 1.64069 0.05
0 0 7 1 o -0.334 9.858 0.00 1.65430 0.00
0 0 7 2 o -0.334 9.858 0.00 1.65430 0.00
3 -4 -2 2 o 4.959 4.541 0.00 1.63870 0.00
3 -4 -2 1 o 4.959 4.541 0.00 1.63870 0.01
0 1 -7 1 o 0.057 13.935 0.00 1.65138 0.00
0 1 -7 2 o 0.057 13.935 0.00 1.65138 0.00
2 5 1 2 o 108.415 95.522 0.00 1.64165 0.06
2 5 1 1 o 108.415 95.522 0.00 1.64165 0.12
2 3 -6 1 o 233.029 203.287 0.00 1.64087 0.23
2 3 -6 2 o 233.029 203.287 0.00 1.64087 0.12
3 -2 -5 2 o 92.573 73.051 180.00 1.62362 0.05
3 -2 -5 1 o 92.573 73.051 180.00 1.62362 0.09
2 -4 -5 2 o 3.730 3.781 0.00 1.63112 0.00
2 -4 -5 1 o 3.730 3.781 0.00 1.63112 0.00
1 2 -7 1 o 46.239 41.382 180.00 1.64415 0.04
1 2 -7 2 o 46.239 41.382 180.00 1.64415 0.02
2 -1 5 1 o 5.194 4.452 180.00 1.64311 0.01
2 -1 5 2 o 5.194 4.452 180.00 1.64311 0.00
2 0 5 1 o 19.380 16.590 180.00 1.64262 0.02
2 0 5 2 o 19.380 16.590 180.00 1.64262 0.01
3 -4 0 2 o 0.318 0.344 180.00 1.63262 0.00
3 -4 0 1 o 0.318 0.344 180.00 1.63262 0.00
3 3 -4 2 o 2.084 1.683 0.00 1.62428 0.00
3 3 -4 1 o 2.084 1.683 0.00 1.62428 0.00
3 2 -5 2 o 23.420 17.234 0.00 1.62159 0.01
3 2 -5 1 o 23.420 17.234 0.00 1.62159 0.02
1 6 -3 2 o 2.245 1.958 180.00 1.64007 0.00
1 6 -3 1 o 2.245 1.958 180.00 1.64007 0.00
0 5 -5 1 o 2.419 2.084 180.00 1.63999 0.00
0 5 -5 2 o 2.419 2.084 180.00 1.63999 0.00
1 4 -6 2 o 9.789 10.536 180.00 1.63440 0.00
1 4 -6 1 o 9.789 10.536 180.00 1.63440 0.01
3 2 2 1 o 60.088 43.090 0.00 1.62084 0.07
3 2 2 2 o 60.088 43.090 0.00 1.62084 0.04
0 1 7 2 o 107.830 74.638 180.00 1.62014 0.05
0 1 7 1 o 107.830 74.638 180.00 1.62014 0.10
1 5 -5 2 o 32.702 35.667 0.00 1.63127 0.02
1 5 -5 1 o 32.702 35.667 0.00 1.63127 0.03
2 0 -7 2 o 29.502 24.510 0.00 1.60844 0.01
2 0 -7 1 o 29.502 24.510 0.00 1.60844 0.03
2 -3 -6 1 o 2.463 2.101 180.00 1.60794 0.00
2 -3 -6 2 o 2.463 2.101 180.00 1.60794 0.00
3 3 1 1 o 4.442 3.005 180.00 1.61294 0.01
3 3 1 2 o 4.442 3.005 180.00 1.61294 0.00
0 4 -6 1 o 88.773 73.028 180.00 1.62448 0.08
0 4 -6 2 o 88.773 73.028 180.00 1.62448 0.04
2 4 3 1 o 0.303 0.223 180.00 1.61048 0.00
2 4 3 2 o 0.303 0.223 180.00 1.61048 0.00
3 -3 2 2 o 2.228 1.688 0.00 1.60969 0.00
3 -3 2 1 o 2.228 1.688 0.00 1.60969 0.00
1 -6 -3 2 o 0.049 0.044 180.00 1.60720 0.00
1 -6 -3 1 o 0.049 0.044 180.00 1.60720 0.00
1 2 6 2 o 14.835 14.123 180.00 1.60578 0.01
1 2 6 1 o 14.835 14.123 180.00 1.60578 0.01
0 2 -7 2 o 21.983 14.370 0.00 1.61193 0.01
0 2 -7 1 o 21.983 14.370 0.00 1.61193 0.02
2 3 4 1 o 15.505 13.771 180.00 1.60387 0.02
2 3 4 2 o 15.505 13.771 180.00 1.60387 0.01
0 6 3 2 o 53.454 45.486 180.00 1.60307 0.02
0 6 3 1 o 53.454 45.486 180.00 1.60307 0.05
3 0 3 1 o 12.775 9.962 0.00 1.60165 0.01
3 0 3 2 o 12.775 9.962 0.00 1.60165 0.01
3 -1 3 2 o 0.097 0.072 180.00 1.60157 0.00
3 -1 3 1 o 0.097 0.072 180.00 1.60157 0.00
3 -4 -3 2 o 20.106 20.713 0.00 1.59439 0.01
3 -4 -3 1 o 20.106 20.713 0.00 1.59439 0.02
2 -2 5 2 o 50.774 46.633 180.00 1.60739 0.03
2 -2 5 1 o 50.774 46.633 180.00 1.60739 0.05
2 1 5 2 o 94.282 89.216 0.00 1.60600 0.05
2 1 5 1 o 94.282 89.216 0.00 1.60600 0.10
2 -5 -4 2 o 10.014 11.628 0.00 1.59174 0.00
2 -5 -4 1 o 10.014 11.628 0.00 1.59174 0.01
1 -2 -7 1 o 33.305 24.053 0.00 1.59849 0.03
1 -2 -7 2 o 33.305 24.053 0.00 1.59849 0.01
2 1 -7 2 o 1.967 1.425 0.00 1.59844 0.00
2 1 -7 1 o 1.967 1.425 0.00 1.59844 0.00
2 5 -4 2 o 102.047 82.774 180.00 1.60235 0.05
2 5 -4 1 o 102.047 82.774 180.00 1.60235 0.10
2 -1 -7 1 o 83.968 91.508 180.00 1.58401 0.07
2 -1 -7 2 o 83.968 91.508 180.00 1.58401 0.04
1 -3 6 1 o 9.836 6.853 0.00 1.60025 0.01
1 -3 6 2 o 9.836 6.853 0.00 1.60025 0.00
1 -6 3 1 o 47.643 32.456 180.00 1.59885 0.04
1 -6 3 2 o 47.643 32.456 180.00 1.59885 0.02
2 -4 4 2 o 105.950 139.755 0.00 1.59248 0.05
2 -4 4 1 o 105.950 139.755 0.00 1.59248 0.10
2 -6 -1 1 o 81.459 89.114 180.00 1.58402 0.07
2 -6 -1 2 o 81.459 89.114 180.00 1.58402 0.04
2 -6 0 1 o 7.885 8.634 0.00 1.58400 0.01
2 -6 0 2 o 7.885 8.634 0.00 1.58400 0.00
3 4 -2 2 o 10.454 11.371 180.00 1.58357 0.01
3 4 -2 1 o 10.454 11.371 180.00 1.58357 0.01
3 -4 1 2 o 6.390 7.041 0.00 1.58326 0.00
3 -4 1 1 o 6.390 7.041 0.00 1.58326 0.01
1 6 2 1 o 6.412 7.113 0.00 1.58302 0.01
1 6 2 2 o 6.412 7.113 0.00 1.58302 0.00
3 4 -1 2 o 0.897 0.974 180.00 1.57944 0.00
3 4 -1 1 o 0.897 0.974 180.00 1.57944 0.00
3 0 -6 1 o 98.121 71.097 180.00 1.56609 0.09
3 0 -6 2 o 98.121 71.097 180.00 1.56609 0.04
0 6 -4 1 o 63.996 70.764 0.00 1.58412 0.05
0 6 -4 2 o 63.996 70.764 0.00 1.58412 0.03
2 -5 3 2 o 11.334 9.614 0.00 1.57737 0.00
2 -5 3 1 o 11.334 9.614 0.00 1.57737 0.01
1 -5 -5 2 o 67.495 45.970 0.00 1.56365 0.03
1 -5 -5 1 o 67.495 45.970 0.00 1.56365 0.06
1 -4 -6 1 o 167.487 114.430 180.00 1.56350 0.14
1 -4 -6 2 o 167.487 114.430 180.00 1.56350 0.07
3 1 3 1 o 10.085 8.019 180.00 1.56815 0.01
3 1 3 2 o 10.085 8.019 180.00 1.56815 0.01
3 -2 3 2 o 114.621 90.905 0.00 1.56793 0.06
3 -2 3 1 o 114.621 90.905 0.00 1.56793 0.12
3 -1 -6 2 o 5.992 5.089 0.00 1.54868 0.00
3 -1 -6 1 o 5.992 5.089 0.00 1.54868 0.01
1 3 -7 1 o 2.625 2.131 0.00 1.56798 0.00
1 3 -7 2 o 2.625 2.131 0.00 1.56798 0.00
2 -6 -2 2 o 109.418 88.176 0.00 1.55521 0.04
2 -6 -2 1 o 109.418 88.176 0.00 1.55521 0.09
3 4 -3 2 o 13.974 10.912 180.00 1.55871 0.01
3 4 -3 1 o 13.974 10.912 180.00 1.55871 0.01
1 4 5 2 o 52.793 41.981 0.00 1.55807 0.02
1 4 5 1 o 52.793 41.981 0.00 1.55807 0.05
3 1 -6 1 o 44.227 34.395 0.00 1.55159 0.04
3 1 -6 2 o 44.227 34.395 0.00 1.55159 0.02
2 5 2 1 o 0.595 0.474 0.00 1.55773 0.00
2 5 2 2 o 0.595 0.474 0.00 1.55773 0.00
2 2 -7 2 o 14.848 12.047 0.00 1.55584 0.01
2 2 -7 1 o 14.848 12.047 0.00 1.55584 0.01
0 2 7 1 o 9.187 7.437 180.00 1.55527 0.01
0 2 7 2 o 9.187 7.437 180.00 1.55527 0.00
2 -6 1 1 o 151.694 122.595 0.00 1.55514 0.13
2 -6 1 2 o 151.694 122.595 0.00 1.55514 0.06
3 -3 -5 2 o 3.497 2.621 180.00 1.54069 0.00
3 -3 -5 1 o 3.497 2.621 180.00 1.54069 0.00
3 4 0 2 o 22.440 19.280 180.00 1.54697 0.01
3 4 0 1 o 22.440 19.280 180.00 1.54697 0.02
1 5 4 1 o 6.321 4.953 0.00 1.55096 0.01
1 5 4 2 o 6.321 4.953 0.00 1.55096 0.00
0 7 0 2 o 0.003 0.002 180.00 1.55547 0.00
0 7 0 1 o 0.003 0.002 180.00 1.55547 0.00
0 7 -1 1 o 7.891 6.337 180.00 1.55487 0.01
0 7 -1 2 o 7.891 6.337 180.00 1.55487 0.00
1 6 -4 2 o 30.490 23.295 0.00 1.55973 0.01
1 6 -4 1 o 30.490 23.295 0.00 1.55973 0.03
3 3 -5 2 o 0.003 0.003 0.00 1.53809 0.00
3 3 -5 1 o 0.003 0.003 0.00 1.53809 0.00
0 5 5 1 o 28.274 27.034 180.00 1.53792 0.02
0 5 5 2 o 28.274 27.034 180.00 1.53792 0.01
2 2 5 1 o 125.835 95.080 180.00 1.53997 0.12
2 2 5 2 o 125.835 95.080 180.00 1.53997 0.06
3 -4 -4 2 o 0.018 0.018 0.00 1.52627 0.00
3 -4 -4 1 o 0.018 0.018 0.00 1.52627 0.00
2 -3 5 1 o 33.461 21.803 0.00 1.54200 0.03
2 -3 5 2 o 33.461 21.803 0.00 1.54200 0.01
2 -2 -7 1 o 98.104 97.343 0.00 1.52955 0.08
2 -2 -7 2 o 98.104 97.343 0.00 1.52955 0.04
0 4 6 2 o 162.419 161.764 0.00 1.52874 0.07
0 4 6 1 o 162.419 161.764 0.00 1.52874 0.13
0 3 -7 1 o 174.546 116.445 180.00 1.54322 0.14
0 3 -7 2 o 174.546 116.445 180.00 1.54322 0.07
3 3 2 2 o 8.171 7.912 180.00 1.52464 0.00
3 3 2 1 o 8.171 7.912 180.00 1.52464 0.01
0 7 1 1 o 21.003 20.947 180.00 1.52871 0.02
0 7 1 2 o 21.003 20.947 180.00 1.52871 0.01
2 4 -6 2 o 107.409 107.090 180.00 1.52873 0.05
2 4 -6 1 o 107.409 107.090 180.00 1.52873 0.09
2 6 -1 1 o 25.158 25.605 0.00 1.52675 0.02
2 6 -1 2 o 25.158 25.605 0.00 1.52675 0.01
1 -7 0 1 o 6.512 6.734 180.00 1.52513 0.01
1 -7 0 2 o 6.512 6.734 180.00 1.52513 0.00
2 6 -2 2 o 0.111 0.084 180.00 1.52204 0.00
2 6 -2 1 o 0.111 0.084 180.00 1.52204 0.00
1 -5 5 1 o 2.927 3.110 180.00 1.53223 0.00
1 -5 5 2 o 2.927 3.110 180.00 1.53223 0.00
0 7 -2 2 o 335.206 346.679 180.00 1.52701 0.13
0 7 -2 1 o 335.206 346.679 180.00 1.52701 0.27
4 0 -2 2 o 34.490 34.763 180.00 1.50675 0.02
4 0 -2 1 o 34.490 34.763 180.00 1.50675 0.04
3 -5 -1 1 o 0.663 0.827 180.00 1.51113 0.00
3 -5 -1 2 o 0.663 0.827 180.00 1.51113 0.00
1 -6 -4 1 o 23.196 28.177 0.00 1.50986 0.02
1 -6 -4 2 o 23.196 28.177 0.00 1.50986 0.01
1 -3 -7 2 o 23.936 28.683 180.00 1.50945 0.01
1 -3 -7 1 o 23.936 28.683 180.00 1.50945 0.02
3 -2 -6 1 o 0.069 0.056 180.00 1.50239 0.00
3 -2 -6 2 o 0.069 0.056 180.00 1.50239 0.00
3 4 -4 2 o 2.481 2.831 0.00 1.50870 0.00
3 4 -4 1 o 2.481 2.831 0.00 1.50870 0.00
3 2 -6 1 o 3.932 4.253 180.00 1.50773 0.00
3 2 -6 2 o 3.932 4.253 180.00 1.50773 0.00
4 -1 -2 2 o 65.076 51.449 0.00 1.50104 0.03
4 -1 -2 1 o 65.076 51.449 0.00 1.50104 0.06
3 2 3 2 o 41.095 42.599 0.00 1.50695 0.02
3 2 3 1 o 41.095 42.599 0.00 1.50695 0.04
3 -4 2 2 o 39.068 51.172 180.00 1.51168 0.02
3 -4 2 1 o 39.068 51.172 180.00 1.51168 0.03
3 -5 -2 2 o 40.784 31.745 0.00 1.49904 0.02
3 -5 -2 1 o 40.784 31.745 0.00 1.49904 0.03
1 -7 -1 2 o 52.792 69.391 0.00 1.51147 0.02
1 -7 -1 1 o 52.792 69.391 0.00 1.51147 0.04
1 3 6 2 o 5.231 6.787 0.00 1.51118 0.00
1 3 6 1 o 5.231 6.787 0.00 1.51118 0.00
2 5 -5 1 o 0.508 0.674 180.00 1.51116 0.00
2 5 -5 2 o 0.508 0.674 180.00 1.51116 0.00
4 0 -1 2 o 69.934 55.079 180.00 1.49860 0.04
4 0 -1 1 o 69.934 55.079 180.00 1.49860 0.07
2 -6 -3 2 o 3.535 2.785 180.00 1.50199 0.00
2 -6 -3 1 o 3.535 2.785 180.00 1.50199 0.00
4 -1 -1 1 o 27.890 23.291 180.00 1.49468 0.03
4 -1 -1 2 o 27.890 23.291 180.00 1.49468 0.01
1 -7 1 1 o 51.499 68.836 0.00 1.51266 0.04
1 -7 1 2 o 51.499 68.836 0.00 1.51266 0.02
3 -3 3 2 o 6.930 7.134 180.00 1.50662 0.00
3 -3 3 1 o 6.930 7.134 180.00 1.50662 0.01
2 -4 -6 1 o 64.418 56.181 0.00 1.49340 0.05
2 -4 -6 2 o 64.418 56.181 0.00 1.49340 0.02
2 6 0 1 o 102.031 95.941 180.00 1.50541 0.09
2 6 0 2 o 102.031 95.941 180.00 1.50541 0.05
3 -5 0 1 o 15.705 12.225 0.00 1.49780 0.01
3 -5 0 2 o 15.705 12.225 0.00 1.49780 0.01
4 0 -3 1 o 0.409 0.412 180.00 1.48975 0.00
4 0 -3 2 o 0.409 0.412 180.00 1.48975 0.00
0 6 4 1 o 0.004 0.002 180.00 1.49496 0.00
0 6 4 2 o 0.004 0.002 180.00 1.49496 0.00
1 -1 7 1 o 2.731 2.461 180.00 1.50493 0.00
1 -1 7 2 o 2.731 2.461 180.00 1.50493 0.00
1 0 7 1 o 16.720 14.192 180.00 1.50411 0.01
1 0 7 2 o 16.720 14.192 180.00 1.50411 0.01
2 -5 -5 2 o 15.088 13.441 0.00 1.48525 0.01
2 -5 -5 1 o 15.088 13.441 0.00 1.48525 0.01
3 4 1 2 o 13.370 13.015 0.00 1.49107 0.01
3 4 1 1 o 13.370 13.015 0.00 1.49107 0.01
4 1 -2 2 o 0.205 0.174 0.00 1.48416 0.00
4 1 -2 1 o 0.205 0.174 0.00 1.48416 0.00
2 -6 2 1 o 26.232 20.205 180.00 1.50189 0.02
2 -6 2 2 o 26.232 20.205 180.00 1.50189 0.01
4 -1 -3 2 o 68.709 58.512 0.00 1.48256 0.03
4 -1 -3 1 o 68.709 58.512 0.00 1.48256 0.06
1 -4 6 2 o 0.924 0.820 180.00 1.50474 0.00
1 -4 6 1 o 0.924 0.820 180.00 1.50474 0.00
1 5 -6 2 o 12.567 9.586 0.00 1.49750 0.00
1 5 -6 1 o 12.567 9.586 0.00 1.49750 0.01
2 6 -3 1 o 15.337 14.321 180.00 1.49196 0.01
2 6 -3 2 o 15.337 14.321 180.00 1.49196 0.01
1 6 3 2 o 0.580 0.542 180.00 1.49196 0.00
1 6 3 1 o 0.580 0.542 180.00 1.49196 0.00
1 -6 4 1 o 9.687 7.320 0.00 1.50065 0.01
1 -6 4 2 o 9.687 7.320 0.00 1.50065 0.00
1 7 -1 2 o 0.546 0.474 0.00 1.49345 0.00
1 7 -1 1 o 0.546 0.474 0.00 1.49345 0.00
2 3 -7 2 o 14.325 15.454 180.00 1.48789 0.01
2 3 -7 1 o 14.325 15.454 180.00 1.48789 0.01
1 0 -8 2 o 45.253 48.062 0.00 1.48746 0.02
1 0 -8 1 o 45.253 48.062 0.00 1.48746 0.03
4 1 -1 1 o 1.153 1.058 180.00 1.47473 0.00
4 1 -1 2 o 1.153 1.058 180.00 1.47473 0.00
1 1 -8 2 o 103.517 83.844 180.00 1.48409 0.04
1 1 -8 1 o 103.517 83.844 180.00 1.48409 0.08
1 7 0 2 o 24.995 20.220 0.00 1.48278 0.01
1 7 0 1 o 24.995 20.220 0.00 1.48278 0.02
0 5 -6 2 o 87.346 77.399 0.00 1.49281 0.03
0 5 -6 1 o 87.346 77.399 0.00 1.49281 0.07
2 4 4 1 o 62.078 52.616 180.00 1.48181 0.06
2 4 4 2 o 62.078 52.616 180.00 1.48181 0.03
4 1 -3 1 o 4.992 3.091 0.00 1.46952 0.00
4 1 -3 2 o 4.992 3.091 0.00 1.46952 0.00
4 -2 -2 1 o 1.710 0.968 180.00 1.46796 0.00
4 -2 -2 2 o 1.710 0.968 180.00 1.46796 0.00
1 -7 -2 1 o 3.291 2.947 180.00 1.47372 0.00
1 -7 -2 2 o 3.291 2.947 180.00 1.47372 0.00
0 7 2 1 o 12.896 13.490 180.00 1.47858 0.01
0 7 2 2 o 12.896 13.490 180.00 1.47858 0.00
4 0 0 1 o 117.045 69.547 0.00 1.46648 0.11
4 0 0 2 o 117.045 69.547 0.00 1.46648 0.06
4 -1 0 2 o 6.647 5.876 180.00 1.46440 0.00
4 -1 0 1 o 6.647 5.876 180.00 1.46440 0.01
0 3 7 1 o 4.174 2.525 0.00 1.47006 0.00
0 3 7 2 o 4.174 2.525 0.00 1.47006 0.00
4 -2 -1 1 o 13.394 16.228 180.00 1.46360 0.01
4 -2 -1 2 o 13.394 16.228 180.00 1.46360 0.01
1 1 7 2 o 27.300 26.707 0.00 1.47542 0.01
1 1 7 1 o 27.300 26.707 0.00 1.47542 0.02
3 -5 -3 2 o 8.700 12.490 180.00 1.46331 0.00
3 -5 -3 1 o 8.700 12.490 180.00 1.46331 0.01
1 7 -2 2 o 46.233 46.475 180.00 1.47959 0.02
1 7 -2 1 o 46.233 46.475 180.00 1.47959 0.04
1 -2 7 1 o 15.379 17.021 0.00 1.47776 0.01
1 -2 7 2 o 15.379 17.021 0.00 1.47776 0.01
3 -1 4 1 o 2.885 2.281 0.00 1.47215 0.00
3 -1 4 2 o 2.885 2.281 0.00 1.47215 0.00
0 7 -3 2 o 349.016 353.366 0.00 1.47601 0.13
0 7 -3 1 o 349.016 353.366 0.00 1.47601 0.26
1 -7 2 2 o 18.920 19.033 0.00 1.47593 0.01
1 -7 2 1 o 18.920 19.033 0.00 1.47593 0.01
3 0 4 2 o 4.952 3.234 0.00 1.47058 0.00
3 0 4 1 o 4.952 3.234 0.00 1.47058 0.00
1 -1 -8 2 o 3.798 4.456 180.00 1.46367 0.00
1 -1 -8 1 o 3.798 4.456 180.00 1.46367 0.00
1 4 -7 1 o 0.951 0.872 0.00 1.47374 0.00
1 4 -7 2 o 0.951 0.872 0.00 1.47374 0.00
3 -5 1 2 o -0.134 4.919 180.00 1.46100 0.00
3 -5 1 1 o -0.134 4.919 180.00 1.46100 0.00
0 6 -5 2 o 0.822 0.807 0.00 1.47523 0.00
0 6 -5 1 o 0.822 0.807 0.00 1.47523 0.00
2 -3 -7 2 o 19.975 26.868 180.00 1.45372 0.01
2 -3 -7 1 o 19.975 26.868 180.00 1.45372 0.01
2 -5 4 1 o 0.945 0.568 180.00 1.47027 0.00
2 -5 4 2 o 0.945 0.568 180.00 1.47027 0.00
2 0 6 1 o 0.052 0.040 180.00 1.46453 0.00
2 0 6 2 o 0.052 0.040 180.00 1.46453 0.00
2 5 3 1 o 0.039 3.864 180.00 1.46163 0.00
2 5 3 2 o 0.039 3.864 180.00 1.46163 0.00
4 0 -4 2 o 5.206 4.291 180.00 1.45003 0.00
4 0 -4 1 o 5.206 4.291 180.00 1.45003 0.00
2 -1 6 2 o 53.661 26.639 0.00 1.46648 0.02
2 -1 6 1 o 53.661 26.639 0.00 1.46648 0.04
2 6 1 1 o 0.020 0.181 180.00 1.46111 0.00
2 6 1 2 o 0.020 0.181 180.00 1.46111 0.00
1 6 -5 2 o 71.936 37.035 180.00 1.46606 0.03
1 6 -5 1 o 71.936 37.035 180.00 1.46606 0.05
4 -2 -3 2 o 33.130 26.746 180.00 1.44911 0.01
4 -2 -3 1 o 33.130 26.746 180.00 1.44911 0.03
4 -1 -4 1 o 121.352 88.786 180.00 1.44187 0.10
4 -1 -4 2 o 121.352 88.786 180.00 1.44187 0.05
2 3 5 1 o 3.190 6.068 180.00 1.45478 0.00
2 3 5 2 o 3.190 6.068 180.00 1.45478 0.00
3 -4 -5 1 o 0.216 0.148 0.00 1.44325 0.00
3 -4 -5 2 o 0.216 0.148 0.00 1.44325 0.00
4 1 0 1 o 212.589 148.135 180.00 1.44256 0.20
4 1 0 2 o 212.589 148.135 180.00 1.44256 0.10
1 2 -8 2 o 26.045 38.695 0.00 1.45409 0.01
1 2 -8 1 o 26.045 38.695 0.00 1.45409 0.02
2 -4 5 1 o -0.005 0.016 180.00 1.45718 0.00
2 -4 5 2 o -0.005 0.016 180.00 1.45718 0.00
3 5 -2 2 o 15.234 11.650 180.00 1.44642 0.01
3 5 -2 1 o 15.234 11.650 180.00 1.44642 0.01
1 7 1 1 o 0.680 0.529 0.00 1.44910 0.00
1 7 1 2 o 0.680 0.529 0.00 1.44910 0.00
3 1 4 2 o 5.291 3.465 180.00 1.44300 0.00
3 1 4 1 o 5.291 3.465 180.00 1.44300 0.00
4 2 -2 1 o 12.289 17.644 0.00 1.43686 0.01
4 2 -2 2 o 12.289 17.644 0.00 1.43686 0.01
3 0 -7 1 o 23.560 34.846 180.00 1.43697 0.02
3 0 -7 2 o 23.560 34.846 180.00 1.43697 0.01
4 -2 0 1 o 6.787 10.337 180.00 1.43665 0.01
4 -2 0 2 o 6.787 10.337 180.00 1.43665 0.00
0 0 8 1 o 95.966 75.540 180.00 1.44751 0.07
0 0 8 2 o 95.966 75.540 180.00 1.44751 0.03
3 -2 4 1 o 4.644 3.645 180.00 1.44744 0.00
3 -2 4 2 o 4.644 3.645 180.00 1.44744 0.00
3 5 -1 1 o 0.602 0.432 0.00 1.44173 0.00
3 5 -1 2 o 0.602 0.432 0.00 1.44173 0.00
0 1 -8 2 o 24.699 19.416 0.00 1.44710 0.01
0 1 -8 1 o 24.699 19.416 0.00 1.44710 0.02
3 3 -6 1 o 7.294 5.285 180.00 1.44143 0.01
3 3 -6 2 o 7.294 5.285 180.00 1.44143 0.00
0 4 -7 1 o 9.510 47.126 0.00 1.45586 0.01
0 4 -7 2 o 9.510 47.126 0.00 1.45586 0.00
3 4 -5 1 o 16.129 13.183 180.00 1.44039 0.01
3 4 -5 2 o 16.129 13.183 180.00 1.44039 0.01
3 -3 -6 1 o 5.063 8.943 0.00 1.43446 0.00
3 -3 -6 2 o 5.063 8.943 0.00 1.43446 0.00
4 1 -4 2 o 2.779 3.852 0.00 1.43285 0.00
4 1 -4 1 o 2.779 3.852 0.00 1.43285 0.00
2 -6 -4 1 o 0.226 0.250 0.00 1.43150 0.00
2 -6 -4 2 o 0.226 0.250 0.00 1.43150 0.00
2 0 -8 2 o 2.714 4.978 0.00 1.43621 0.00
2 0 -8 1 o 2.714 4.978 0.00 1.43621 0.00
2 6 -4 1 o 16.137 12.195 0.00 1.44077 0.01
2 6 -4 2 o 16.137 12.195 0.00 1.44077 0.01
3 1 -7 1 o 0.189 0.100 180.00 1.42723 0.00
3 1 -7 2 o 0.189 0.100 180.00 1.42723 0.00
1 7 -3 1 o 20.327 12.753 0.00 1.44316 0.01
1 7 -3 2 o 20.327 12.753 0.00 1.44316 0.01
4 2 -1 1 o 39.348 21.089 0.00 1.42681 0.04
4 2 -1 2 o 39.348 21.089 0.00 1.42681 0.02
2 -2 6 2 o 43.731 27.222 180.00 1.44244 0.02
2 -2 6 1 o 43.731 27.222 180.00 1.44244 0.03
2 1 6 2 o 42.560 73.505 180.00 1.43688 0.02
2 1 6 1 o 42.560 73.505 180.00 1.43688 0.03
4 2 -3 2 o 0.070 0.035 180.00 1.42504 0.00
4 2 -3 1 o 0.070 0.035 180.00 1.42504 0.00
2 1 -8 1 o 6.411 5.686 180.00 1.43056 0.00
2 1 -8 2 o 6.411 5.686 180.00 1.43056 0.00
1 -5 -6 2 o 35.326 24.737 180.00 1.42955 0.01
1 -5 -6 1 o 35.326 24.737 180.00 1.42955 0.02
3 5 -3 1 o 29.036 18.135 0.00 1.42888 0.02
3 5 -3 2 o 29.036 18.135 0.00 1.42888 0.01
3 -1 -7 1 o 66.774 54.862 0.00 1.42202 0.05
3 -1 -7 2 o 66.774 54.862 0.00 1.42202 0.02
3 3 3 2 o 15.799 8.163 180.00 1.42723 0.01
3 3 3 1 o 15.799 8.163 180.00 1.42723 0.01
2 -1 -8 1 o 8.715 10.396 0.00 1.41728 0.01
2 -1 -8 2 o 8.715 10.396 0.00 1.41728 0.00
1 5 5 1 o 4.324 3.796 180.00 1.42173 0.00
1 5 5 2 o 4.324 3.796 180.00 1.42173 0.00
3 -4 3 2 o 1.848 0.888 0.00 1.42684 0.00
3 -4 3 1 o 1.848 0.888 0.00 1.42684 0.00
4 -2 -4 2 o 161.945 101.489 0.00 1.40961 0.06
4 -2 -4 1 o 161.945 101.489 0.00 1.40961 0.12
2 -6 3 1 o 3.071 3.618 180.00 1.43138 0.00
2 -6 3 2 o 3.071 3.618 180.00 1.43138 0.00
4 0 1 1 o 5.067 5.560 180.00 1.41474 0.00
4 0 1 2 o 5.067 5.560 180.00 1.41474 0.00
4 -1 1 2 o 12.608 13.710 180.00 1.41432 0.01
4 -1 1 1 o 12.608 13.710 180.00 1.41432 0.01
3 4 2 1 o 6.730 7.999 0.00 1.41902 0.01
3 4 2 2 o 6.730 7.999 0.00 1.41902 0.00
4 -3 -2 1 o 12.837 11.984 0.00 1.41258 0.01
4 -3 -2 2 o 12.837 11.984 0.00 1.41258 0.00
1 2 7 2 o 34.821 22.428 180.00 1.42336 0.01
1 2 7 1 o 34.821 22.428 180.00 1.42336 0.02
0 1 8 1 o 0.030 0.023 180.00 1.42299 0.00
0 1 8 2 o 0.030 0.023 180.00 1.42299 0.00
1 -7 -3 2 o 2.225 2.622 180.00 1.41695 0.00
1 -7 -3 1 o 2.225 2.622 180.00 1.41695 0.00
1 -3 7 1 o 18.533 8.180 180.00 1.42685 0.01
1 -3 7 2 o 18.533 8.180 180.00 1.42685 0.01
1 -2 -8 2 o 3.039 3.559 180.00 1.41638 0.00
1 -2 -8 1 o 3.039 3.559 180.00 1.41638 0.00
4 -3 -1 1 o 46.005 30.430 0.00 1.41013 0.04
4 -3 -1 2 o 46.005 30.430 0.00 1.41013 0.02
3 5 0 1 o 33.311 37.470 0.00 1.41546 0.03
3 5 0 2 o 33.311 37.470 0.00 1.41546 0.01
1 -4 -7 2 o 1.100 0.660 180.00 1.40956 0.00
1 -4 -7 1 o 1.100 0.660 180.00 1.40956 0.00
3 -5 -4 2 o 85.741 47.897 0.00 1.40869 0.03
3 -5 -4 1 o 85.741 47.897 0.00 1.40869 0.06
1 -6 -5 2 o 8.513 4.196 180.00 1.40706 0.00
1 -6 -5 1 o 8.513 4.196 180.00 1.40706 0.01
0 2 -8 2 o 4.841 4.424 0.00 1.42180 0.00
0 2 -8 1 o 4.841 4.424 0.00 1.42180 0.00
0 7 3 2 o 0.093 0.080 0.00 1.41162 0.00
0 7 3 1 o 0.093 0.080 0.00 1.41162 0.00
1 -7 3 1 o 9.254 12.270 0.00 1.41990 0.01
1 -7 3 2 o 9.254 12.270 0.00 1.41990 0.00
2 -7 0 1 o 4.880 2.396 180.00 1.40768 0.00
2 -7 0 2 o 4.880 2.396 180.00 1.40768 0.00
1 4 6 2 o 20.204 9.922 180.00 1.40743 0.01
1 4 6 1 o 20.204 9.922 180.00 1.40743 0.01
2 5 -6 2 o 0.430 0.432 180.00 1.41245 0.00
2 5 -6 1 o 0.430 0.432 180.00 1.41245 0.00
2 -7 -1 1 o 34.865 16.663 0.00 1.40627 0.02
2 -7 -1 2 o 34.865 16.663 0.00 1.40627 0.01
4 -3 -3 1 o 4.707 4.134 0.00 1.39438 0.00
4 -3 -3 2 o 4.707 4.134 0.00 1.39438 0.00
3 -5 2 2 o 5.526 2.699 0.00 1.40561 0.00
3 -5 2 1 o 5.526 2.699 0.00 1.40561 0.00
4 0 -5 1 o 1.681 1.656 180.00 1.39273 0.00
4 0 -5 2 o 1.681 1.656 180.00 1.39273 0.00
4 2 0 2 o 147.719 128.445 0.00 1.39623 0.07
4 2 0 1 o 147.719 128.445 0.00 1.39623 0.13
2 2 -8 2 o 9.493 11.272 0.00 1.40118 0.00
2 2 -8 1 o 9.493 11.272 0.00 1.40118 0.01
0 5 6 1 o 5.030 6.640 180.00 1.40038 0.00
0 5 6 2 o 5.030 6.640 180.00 1.40038 0.00
2 6 2 2 o 9.874 12.938 180.00 1.39960 0.00
2 6 2 1 o 9.874 12.938 180.00 1.39960 0.01
3 2 -7 1 o 17.367 14.921 0.00 1.39425 0.01
3 2 -7 2 o 17.367 14.921 0.00 1.39425 0.01
2 4 -7 2 o 5.291 2.937 0.00 1.40418 0.00
2 4 -7 1 o 5.291 2.937 0.00 1.40418 0.00
0 7 -4 1 o 64.675 32.068 180.00 1.40849 0.04
0 7 -4 2 o 64.675 32.068 180.00 1.40849 0.02
4 2 -4 1 o 0.161 0.155 0.00 1.39290 0.00
4 2 -4 2 o 0.161 0.155 0.00 1.39290 0.00
4 1 1 2 o 34.761 37.437 0.00 1.39185 0.02
4 1 1 1 o 34.761 37.437 0.00 1.39185 0.03
1 7 2 2 o 0.914 0.812 180.00 1.39683 0.00
1 7 2 1 o 0.914 0.812 180.00 1.39683 0.00
1 3 -8 1 o 3.685 3.584 180.00 1.40201 0.00
1 3 -8 2 o 3.685 3.584 180.00 1.40201 0.00
4 -2 1 1 o 31.758 39.658 0.00 1.39064 0.03
4 -2 1 2 o 31.758 39.658 0.00 1.39064 0.01
3 -2 -7 2 o 15.036 17.535 0.00 1.38458 0.00
3 -2 -7 1 o 15.036 17.535 0.00 1.38458 0.01
4 -1 -5 2 o 55.523 60.159 0.00 1.38414 0.02
4 -1 -5 1 o 55.523 60.159 0.00 1.38414 0.04
3 -3 4 1 o 1.270 1.902 0.00 1.40019 0.00
3 -3 4 2 o 1.270 1.902 0.00 1.40019 0.00
1 6 4 1 o 0.815 0.684 180.00 1.39433 0.00
1 6 4 2 o 0.815 0.684 180.00 1.39433 0.00
3 2 4 1 o 35.619 32.202 180.00 1.39350 0.03
3 2 4 2 o 35.619 32.202 180.00 1.39350 0.01
4 -3 0 2 o 3.093 4.578 0.00 1.38734 0.00
4 -3 0 1 o 3.093 4.578 0.00 1.38734 0.00
3 5 -4 1 o 14.885 17.064 180.00 1.39143 0.01
3 5 -4 2 o 14.885 17.064 180.00 1.39143 0.01
4 1 -5 2 o 103.990 66.512 180.00 1.37882 0.04
4 1 -5 1 o 103.990 66.512 180.00 1.37882 0.08
2 2 6 1 o 91.622 152.849 0.00 1.38765 0.07
2 2 6 2 o 91.622 152.849 0.00 1.38765 0.03
1 -5 6 1 o 0.512 0.899 0.00 1.40074 0.00
1 -5 6 2 o 0.512 0.899 0.00 1.40074 0.00
2 -3 6 2 o 1.369 1.069 180.00 1.39602 0.00
2 -3 6 1 o 1.369 1.069 180.00 1.39602 0.00
0 6 5 2 o 1.946 2.809 0.00 1.38584 0.00
0 6 5 1 o 1.946 2.809 0.00 1.38584 0.00
2 -7 -2 2 o 19.053 23.365 180.00 1.38464 0.01
2 -7 -2 1 o 19.053 23.365 180.00 1.38464 0.01
1 -6 5 2 o 0.181 0.190 0.00 1.39775 0.00
1 -6 5 1 o 0.181 0.190 0.00 1.39775 0.00
2 -7 1 1 o 0.072 0.121 0.00 1.38867 0.00
2 -7 1 2 o 0.072 0.121 0.00 1.38867 0.00
3 -6 -1 1 o 33.437 20.329 0.00 1.37831 0.02
3 -6 -1 2 o 33.437 20.329 0.00 1.37831 0.01
2 -5 -6 1 o 62.206 37.674 180.00 1.37770 0.04
2 -5 -6 2 o 62.206 37.674 180.00 1.37770 0.02
2 -2 -8 2 o 195.746 118.972 180.00 1.37654 0.06
2 -2 -8 1 o 195.746 118.972 180.00 1.37654 0.12
1 7 -4 1 o 39.654 67.039 180.00 1.38888 0.03
1 7 -4 2 o 39.654 67.039 180.00 1.38888 0.01
0 2 8 1 o 11.676 6.894 0.00 1.37710 0.01
0 2 8 2 o 11.676 6.894 0.00 1.37710 0.00
4 3 -2 1 o 10.028 7.170 0.00 1.37152 0.01
4 3 -2 2 o 10.028 7.170 0.00 1.37152 0.00
0 4 7 1 o 27.876 17.912 0.00 1.37501 0.02
0 4 7 2 o 27.876 17.912 0.00 1.37501 0.01
3 -6 -2 1 o 52.892 40.733 180.00 1.36781 0.03
3 -6 -2 2 o 52.892 40.733 180.00 1.36781 0.02
2 -4 -7 1 o 5.009 4.488 180.00 1.36613 0.00
2 -4 -7 2 o 5.009 4.488 180.00 1.36613 0.00
3 5 1 1 o 5.603 3.992 180.00 1.37095 0.00
3 5 1 2 o 5.603 3.992 180.00 1.37095 0.00
2 6 -5 1 o 22.447 14.490 0.00 1.37471 0.02
2 6 -5 2 o 22.447 14.490 0.00 1.37471 0.01
3 -6 0 2 o 1.163 0.824 0.00 1.36948 0.00
3 -6 0 1 o 1.163 0.824 0.00 1.36948 0.00
4 -3 -4 2 o 2.739 2.855 180.00 1.35780 0.00
4 -3 -4 1 o 2.739 2.855 180.00 1.35780 0.00
4 3 -3 1 o 5.496 5.597 0.00 1.36251 0.00
4 3 -3 2 o 5.496 5.597 0.00 1.36251 0.00
4 3 -1 2 o 29.580 29.614 180.00 1.36149 0.01
4 3 -1 1 o 29.580 29.614 180.00 1.36149 0.02
0 3 -8 1 o 32.159 19.721 180.00 1.37530 0.02
0 3 -8 2 o 32.159 19.721 180.00 1.37530 0.01
4 -2 -5 1 o 34.788 34.913 180.00 1.35426 0.02
4 -2 -5 2 o 34.788 34.913 180.00 1.35426 0.01
3 -4 -6 1 o 27.875 26.969 180.00 1.35356 0.02
3 -4 -6 2 o 27.875 26.969 180.00 1.35356 0.01
1 5 -7 2 o 7.412 5.271 0.00 1.37234 0.00
1 5 -7 1 o 7.412 5.271 0.00 1.37234 0.00
2 5 4 1 o 109.867 112.730 0.00 1.36212 0.08
2 5 4 2 o 109.867 112.730 0.00 1.36212 0.04
3 4 -6 2 o 3.282 3.297 0.00 1.36139 0.00
3 4 -6 1 o 3.282 3.297 0.00 1.36139 0.00
2 4 5 2 o 43.634 43.329 0.00 1.36057 0.02
2 4 5 1 o 43.634 43.329 0.00 1.36057 0.03
1 6 -6 1 o 3.649 2.678 180.00 1.36797 0.00
1 6 -6 2 o 3.649 2.678 180.00 1.36797 0.00
0 8 -1 1 o 5.135 5.274 0.00 1.36192 0.00
0 8 -1 2 o 5.135 5.274 0.00 1.36192 0.00
1 -3 -8 1 o 35.604 30.888 0.00 1.35206 0.02
1 -3 -8 2 o 35.604 30.888 0.00 1.35206 0.01
0 8 0 1 o 30.526 30.363 180.00 1.36103 0.02
0 8 0 2 o 30.526 30.363 180.00 1.36103 0.01
2 -6 -5 1 o 1.763 1.449 180.00 1.35130 0.00
2 -6 -5 2 o 1.763 1.449 180.00 1.35130 0.00
4 -1 2 1 o 29.998 23.298 0.00 1.35030 0.02
4 -1 2 2 o 29.998 23.298 0.00 1.35030 0.01
1 3 7 1 o 2.051 2.226 0.00 1.35496 0.00
1 3 7 2 o 2.051 2.226 0.00 1.35496 0.00
2 7 -1 2 o 35.857 36.026 180.00 1.35932 0.01
2 7 -1 1 o 35.857 36.026 180.00 1.35932 0.03
4 0 2 2 o 0.279 0.211 180.00 1.34941 0.00
4 0 2 1 o 0.279 0.211 180.00 1.34941 0.00
2 -5 5 2 o 12.190 13.543 180.00 1.36309 0.00
2 -5 5 1 o 12.190 13.543 180.00 1.36309 0.01
4 2 1 1 o 20.816 15.493 180.00 1.34884 0.02
4 2 1 2 o 20.816 15.493 180.00 1.34884 0.01
0 6 -6 1 o 12.237 10.384 180.00 1.36666 0.01
0 6 -6 2 o 12.237 10.384 180.00 1.36666 0.00
2 7 -2 2 o 1.614 1.750 180.00 1.35726 0.00
2 7 -2 1 o 1.614 1.750 180.00 1.35726 0.00
2 3 -8 2 o 0.087 0.076 0.00 1.35220 0.00
2 3 -8 1 o 0.087 0.076 0.00 1.35220 0.00
0 5 -7 2 o 13.893 13.549 180.00 1.36010 0.00
0 5 -7 1 o 13.893 13.549 180.00 1.36010 0.01
3 -1 5 2 o 52.154 41.522 0.00 1.35098 0.02
3 -1 5 1 o 52.154 41.522 0.00 1.35098 0.04
1 -4 7 1 o 0.020 0.020 0.00 1.35918 0.00
1 -4 7 2 o 0.020 0.020 0.00 1.35918 0.00
3 0 5 2 o 25.396 18.365 180.00 1.34852 0.01
3 0 5 1 o 25.396 18.365 180.00 1.34852 0.02
2 -7 2 1 o 15.355 12.752 180.00 1.35162 0.01
2 -7 2 2 o 15.355 12.752 180.00 1.35162 0.00
2 -6 4 1 o 29.487 23.464 180.00 1.35117 0.02
2 -6 4 2 o 29.487 23.464 180.00 1.35117 0.01
1 -7 4 1 o 0.340 0.267 180.00 1.35103 0.00
1 -7 4 2 o 0.340 0.267 180.00 1.35103 0.00
