#------------------------------------------------------------------------------
#$Date: 2016-03-24 02:12:01 +0200 (Thu, 24 Mar 2016) $
#$Revision: 179561 $
#$URL: svn://www.crystallography.net/cod/cif/4/50/30/4503047.cif $
#------------------------------------------------------------------------------
#
# This file is available in the Crystallography Open Database (COD),
# http://www.crystallography.net/
#
# All data on this site have been placed in the public domain by the
# contributors.
#
data_4503047
loop_
_publ_author_name
'Neels, Antonia'
'Mantero, D\'eborah Gonz\'alez'
'Stoeckli-Evans, Helen'
_publ_section_title
;
 Solid-State Synthesis of New Diimide Compounds: A Two-Step Reaction
 Followed by X-ray Powder Diffraction
;
_journal_issue                   4
_journal_name_full               'Crystal Growth &amp; Design'
_journal_page_first              1147
_journal_paper_doi               10.1021/cg070058q
_journal_volume                  8
_journal_year                    2008
_chemical_compound_source        synthesis
_chemical_formula_analytical     'C20 H8 N4 O4 Cl2'
_chemical_formula_moiety         'C20 H8 N4 O4 Cl2'
_chemical_formula_structural     'C20 H8 N4 O4 Cl2'
_chemical_formula_sum            'C20 H8 Cl2 N4 O4'
_chemical_formula_weight         439.22
_chemical_name_systematic        ' ?'
_space_group_IT_number           14
_symmetry_cell_setting           monoclinic
_symmetry_space_group_name_Hall  '-P 2ybc'
_symmetry_space_group_name_H-M   'P 1 21/c 1'
_audit_creation_date             2005-05-26T08:16
_audit_creation_method           'from EXP file using GSAS2CIF'
_audit_update_record
' 2005-05-26T08:16  Initial CIF as created by GSAS2CIF'
_cell_angle_alpha                90.0
_cell_angle_beta                 93.163(7)
_cell_angle_gamma                90.0
_cell_formula_units_Z            2
_cell_length_a                   7.8867(5)
_cell_length_b                   7.5288(6)
_cell_length_c                   14.3507(9)
_cell_measurement_temperature    293
_cell_volume                     850.81(10)
_computing_data_collection       'WinXPow, Stoe & Cie (1997)'
_computing_data_reduction        'WinXPow, Stoe & Cie (1997)'
_computing_molecular_graphics    PLATON04
_computing_publication_material  GSAS
_computing_structure_refinement  GSAS
_computing_structure_solution    DASH
_diffrn_ambient_temperature      293
_diffrn_detector                 'linear PSD'
_diffrn_measurement_device_type  'Stoe STADIP'
_diffrn_radiation_monochromator  'curved Ge111'
_diffrn_radiation_polarisn_ratio 0.599
_diffrn_radiation_probe          x-ray
_diffrn_radiation_type           'Cu Kalpha1'
_diffrn_radiation_wavelength     1.54051
_diffrn_source                   X-rays
_diffrn_source_target            Cu\Ka
_diffrn_source_type              'sealed tube'
_exptl_absorpt_coefficient_mu    3.806
_exptl_absorpt_correction_T_max  1.00000
_exptl_absorpt_correction_T_min  1.00000
_exptl_absorpt_process_details
;   GSAS Absorption/surface roughness correction: function number 0
 No correction is applied.
;
_exptl_crystal_density_diffrn    1.714
_pd_block_id                     2005-05-26T08:16|3b|g|g
_pd_calc_method                  'Rietveld Refinement'
_pd_char_colour                  white
_pd_char_particle_morphology     powder
_pd_instr_location               ' ?'
_pd_meas_2theta_range_inc        0.01
_pd_meas_2theta_range_max        89.99
_pd_meas_2theta_range_min        4.0
_pd_meas_number_of_points        8600
_pd_meas_scan_method             step
_pd_phase_name                   3b
_pd_prep_temperature             293
_pd_proc_2theta_range_inc        0.01
_pd_proc_2theta_range_max        89.97453
_pd_proc_2theta_range_min        3.98453
_pd_proc_info_datetime           2005-05-26T08:16:43
_pd_proc_info_excluded_regions
; data <8deg excluded - no reflections observed
data >80deg excluded - strong overlapp of reflections
;
_pd_proc_ls_background_function
;   GSAS Background function number 1 with 21 terms.
 Shifted Chebyshev function of 1st kind
      1:    690.016     2:   -364.919     3:   -24.5512     4:    151.944    
      5:   -97.8736     6:   -3.55896     7:    64.8302     8:   -49.5538    
      9:  -0.693708    10:    28.0318    11:   -23.5305    12:    3.20305    
     13:    6.90024    14:  -8.977350E-0215:  -0.799034    16:   -10.7706    
     17:    10.3990    18:   -3.41379    19:   -8.91252    20:    9.40438    
     21:   -2.69700    
;
_pd_proc_ls_peak_cutoff          0.01000
_pd_proc_ls_profile_function
;
 CW Profile function number 2 with  18 terms
 Profile coefficients for Simpson's rule integration of pseudovoigt function
 C.J. Howard (1982). J. Appl. Cryst.,15,615-620.
 P. Thompson, D.E. Cox & J.B. Hastings (1987). J. Appl. Cryst.,20,79-83.
 Peak tails are ignored  where the intensity is below 0.0100 times the peak
   Aniso. broadening axis   0.0   0.0   1.0
;
_pd_proc_ls_prof_R_factor        0.0480
_pd_proc_ls_prof_wR_expected     0.0323
_pd_proc_ls_prof_wR_factor       0.0630
_pd_proc_number_of_points        8600
_pd_spec_mounting
;
capillary
;
_pd_spec_mount_mode              transmission
_pd_spec_shape                   cylinder
_pd_spec_size_axial              0.5
_pd_spec_size_equat              5
_pd_spec_size_thick              0.5
_refine_diff_density_max         0.183
_refine_diff_density_min         -0.213
_refine_ls_goodness_of_fit_all   2.01
_refine_ls_hydrogen_treatment    constr
_refine_ls_matrix_type           full
_refine_ls_number_parameters     85
_refine_ls_number_restraints     80
_refine_ls_R_Fsqd_factor         0.05949
_refine_ls_shift/su_max          0.02
_refine_ls_shift/su_mean         0.00
_reflns_d_resolution_high        1.199
_reflns_d_resolution_low         7.875
_reflns_limit_h_max              6
_reflns_limit_h_min              0
_reflns_limit_k_max              6
_reflns_limit_k_min              0
_reflns_limit_l_max              12
_reflns_limit_l_min              -12
_reflns_number_total             1038
_cod_data_source_file            cg070058q-file001.cif
_cod_data_source_block           3b_publ
_cod_depositor_comments
;
The following automatic conversions were performed:

'_geom_bond_publ_flag' value 'N' changed to 'n' according to
/home/saulius/struct/CIF-dictionaries/cif_core.dic dictionary named
'cif_core.dic' version 2.4.1 from 2010-06-29 (62
times).

'_geom_angle_publ_flag' value 'N' changed to 'n' according
to /home/saulius/struct/CIF-dictionaries/cif_core.dic dictionary
named 'cif_core.dic' version 2.4.1 from 2010-06-29 (34 times).

Automatic conversion script
Id: cif_fix_values 1715 2011-07-08 13:25:40Z adriana 
;
_cod_original_cell_volume        850.8(1)
_cod_original_sg_symbol_H-M      'P 21/c'
_cod_database_code               4503047
#BEGIN Tags that were not found in dictionaries:
_refine_ls_r_f_factor            0.0367
_gsas_exptl_extinct_corr_t_min   1.00000
_gsas_exptl_extinct_corr_t_max   1.00000
#END Tags that were not found in dictionaries
loop_
_symmetry_equiv_pos_site_id
_symmetry_equiv_pos_as_xyz
1 +x,+y,+z
2 -x,+y+1/2,-z+1/2
-1 -x,-y,-z
-2 +x,-y+1/2,+z+1/2
loop_
_atom_site_type_symbol
_atom_site_label
_atom_site_fract_x
_atom_site_fract_y
_atom_site_fract_z
_atom_site_occupancy
_atom_site_thermal_displace_type
_atom_site_U_iso_or_equiv
_atom_site_symmetry_multiplicity
C C1 0.5628(6) 0.1706(4) 0.50022(32) 1.0 Uiso 0.0301(23) 4
C C2 0.4001(6) 0.1364(6) 0.46532(24) 1.0 Uiso 0.0301(23) 4
C C3 0.2668(6) 0.2581(7) 0.42404(31) 1.0 Uiso 0.0301(23) 4
C C4 0.1565(5) -0.0245(8) 0.42328(30) 1.0 Uiso 0.0301(23) 4
C C5 0.3346(4) -0.0341(7) 0.46511(28) 1.0 Uiso 0.0301(23) 4
C C6 -0.0231(6) 0.2165(8) 0.35976(28) 1.0 Uiso 0.0301(23) 4
C C7 -0.0729(6) 0.3928(7) 0.36322(31) 1.0 Uiso 0.0301(23) 4
C C8 -0.2267(7) 0.4463(7) 0.32344(35) 1.0 Uiso 0.0301(23) 4
C C9 -0.2902(7) 0.1526(9) 0.27267(32) 1.0 Uiso 0.0301(23) 4
C C10 -0.1355(8) 0.0996(7) 0.31352(35) 1.0 Uiso 0.0301(23) 4
Cl CL1 -0.2972(5) 0.6643(6) 0.32744(30) 1.0 Uiso 0.0652(28) 4
N N1 0.1282(6) 0.1517(7) 0.40065(30) 1.0 Uiso 0.0301(23) 4
N N2 -0.3327(7) 0.3263(9) 0.27893(32) 1.0 Uiso 0.0301(23) 4
O O1 0.2848(8) 0.4188(7) 0.4161(4) 1.0 Uiso 0.0301(23) 4
O O2 0.0651(8) -0.1526(10) 0.4141(4) 1.0 Uiso 0.0301(23) 4
H H1 0.6051(11) 0.2860(6) 0.4998(6) 1.0 Uiso 0.03 4
H H7 -0.0009(10) 0.4747(11) 0.3937(5) 1.0 Uiso 0.03 4
H H9 -0.3616(10) 0.0698(12) 0.2428(5) 1.0 Uiso 0.03 4
H H10 -0.1041(12) -0.0194(7) 0.3099(6) 1.0 Uiso 0.03 4
loop_
_atom_type_symbol
_atom_type_number_in_cell
_atom_type_scat_dispersion_real
_atom_type_scat_dispersion_imag
_atom_type_scat_Cromer_Mann_a1
_atom_type_scat_Cromer_Mann_a2
_atom_type_scat_Cromer_Mann_a3
_atom_type_scat_Cromer_Mann_a4
_atom_type_scat_Cromer_Mann_b1
_atom_type_scat_Cromer_Mann_b2
_atom_type_scat_Cromer_Mann_b3
_atom_type_scat_Cromer_Mann_b4
_atom_type_scat_Cromer_Mann_c
_atom_type_scat_source
C 40.0 0.017 0.009 2.31000 20.8439 1.02000 10.2075 1.58860 0.56870 0.86500
51.6512 0.21560 International_Tables_Vol_C
Cl 4.0 0.348 0.702 11.4604 0.01040 7.19640 1.16620 6.25560 18.5194 1.64550
47.7784 -9.5574 International_Tables_Vol_C
N 8.0 0.029 0.018 12.2126 0.00570 3.13220 9.89330 2.01250 28.9975 1.16630
0.58260 -11.529 International_Tables_Vol_C
O 8.0 0.047 0.032 3.04850 13.2771 2.28680 5.70110 1.54630 0.32390 0.86700
32.9089 0.25080 International_Tables_Vol_C
H 16.0 0.000 0.000 0.49300 10.5109 0.32291 26.1257 0.14019 3.14236 0.04081
57.7997 0.00304 International_Tables_Vol_C
loop_
_geom_angle_atom_site_label_1
_geom_angle_atom_site_label_2
_geom_angle_atom_site_label_3
_geom_angle
_geom_angle_site_symmetry_1
_geom_angle_site_symmetry_3
_geom_angle_publ_flag
C2 C1 C5 120.44(28) 1_555 -1_656 n
C2 C1 H1 120.0(4) 1_555 1_555 n
C5 C1 H1 119.5(5) -1_656 1_555 n
C1 C2 C3 130.7(4) 1_555 1_555 n
C1 C2 C5 121.05(28) 1_555 1_555 n
C3 C2 C5 108.3(4) 1_555 1_555 n
C2 C3 N1 105.70(34) 1_555 1_555 n
C2 C3 O1 124.1(5) 1_555 1_555 n
N1 C3 O1 130.2(5) 1_555 1_555 n
C5 C4 N1 106.02(35) 1_555 1_555 n
C5 C4 O2 123.1(5) 1_555 1_555 n
N1 C4 O2 130.9(5) 1_555 1_555 n
C1 C5 C2 118.51(29) -1_656 1_555 n
C1 C5 C4 134.1(4) -1_656 1_555 n
C2 C5 C4 107.4(4) 1_555 1_555 n
C7 C6 C10 116.67(34) 1_555 1_555 n
C7 C6 N1 124.0(4) 1_555 1_555 n
C10 C6 N1 119.3(4) 1_555 1_555 n
C6 C7 C8 120.77(31) 1_555 1_555 n
C6 C7 H7 119.0(5) 1_555 1_555 n
C8 C7 H7 120.2(5) 1_555 1_555 n
C7 C8 CL1 122.8(4) 1_555 1_555 n
C7 C8 N2 120.3(4) 1_555 1_555 n
CL1 C8 N2 116.9(4) 1_555 1_555 n
C10 C9 N2 117.81(35) 1_555 1_555 n
C10 C9 H9 120.0(5) 1_555 1_555 n
N2 C9 H9 122.2(5) 1_555 1_555 n
C6 C10 C9 122.93(32) 1_555 1_555 n
C6 C10 H10 118.1(4) 1_555 1_555 n
C9 C10 H10 119.0(4) 1_555 1_555 n
C3 N1 C4 112.63(35) 1_555 1_555 n
C3 N1 C6 123.3(4) 1_555 1_555 n
C4 N1 C6 124.1(4) 1_555 1_555 n
C8 N2 C9 121.5(4) 1_555 1_555 n
loop_
_geom_bond_atom_site_label_1
_geom_bond_atom_site_label_2
_geom_bond_distance
_geom_bond_site_symmetry_2
_geom_bond_publ_flag
C1 C2 1.3753(33) 1_555 n
C1 C5 1.3838(35) -1_656 n
C1 H1 0.9305(21) 1_555 n
C2 C1 1.3753(33) 1_555 n
C2 C3 1.493(4) 1_555 n
C2 C5 1.3835(34) 1_555 n
C2 H1 2.010(4) 1_555 n
C3 C2 1.493(4) 1_555 n
C3 N1 1.382(4) 1_555 n
C3 O1 1.224(4) 1_555 n
C4 C5 1.499(4) 1_555 n
C4 N1 1.381(4) 1_555 n
C4 O2 1.207(4) 1_555 n
C5 C1 1.3838(35) -1_656 n
C5 C2 1.3835(34) 1_555 n
C5 C4 1.499(4) 1_555 n
C5 H1 2.012(4) -1_656 n
C6 C7 1.3861(34) 1_555 n
C6 C10 1.3912(34) 1_555 n
C6 N1 1.3891(34) 1_555 n
C6 H7 2.010(4) 1_555 n
C6 H10 2.006(4) 1_555 n
C7 C6 1.3861(34) 1_555 n
C7 C8 1.3725(35) 1_555 n
C7 CL1 2.734(6) 1_555 n
C7 H7 0.9304(21) 1_555 n
C8 C7 1.3725(35) 1_555 n
C8 CL1 1.7351(34) 1_555 n
C8 N2 1.366(4) 1_555 n
C8 H7 2.008(4) 1_555 n
C9 C10 1.3828(33) 1_555 n
C9 N2 1.354(4) 1_555 n
C9 H9 0.9293(21) 1_555 n
C9 H10 2.007(4) 1_555 n
C10 C6 1.3912(34) 1_555 n
C10 C9 1.3828(33) 1_555 n
C10 H9 2.015(4) 1_555 n
C10 H10 0.9319(21) 1_555 n
CL1 C7 2.734(6) 1_555 n
CL1 C8 1.7351(34) 1_555 n
CL1 N2 2.649(6) 1_555 n
N1 C3 1.382(4) 1_555 n
N1 C4 1.381(4) 1_555 n
N1 C6 1.3891(34) 1_555 n
N2 C8 1.366(4) 1_555 n
N2 C9 1.354(4) 1_555 n
N2 CL1 2.649(6) 1_555 n
N2 H9 2.009(4) 1_555 n
O1 C3 1.224(4) 1_555 n
O2 C4 1.207(4) 1_555 n
H1 C1 0.9305(21) 1_555 n
H1 C2 2.010(4) 1_555 n
H1 C5 2.012(4) -1_656 n
H7 C6 2.010(4) 1_555 n
H7 C7 0.9304(21) 1_555 n
H7 C8 2.008(4) 1_555 n
H9 C9 0.9293(21) 1_555 n
H9 C10 2.015(4) 1_555 n
H9 N2 2.009(4) 1_555 n
H10 C6 2.006(4) 1_555 n
H10 C9 2.007(4) 1_555 n
H10 C10 0.9319(21) 1_555 n
loop_
_pd_meas_counts_total
_pd_proc_ls_weight
_pd_proc_intensity_bkg_calc
_pd_calc_intensity_total
629.0 . . .
683.0 0.0 -49377.00000 .
678.0 0.0 -48805.33203 .
642.0 0.0 -48239.42188 .
607.0 0.0 -47679.15625 .
676.0 0.0 -47124.53125 .
667.0 0.0 -46575.51172 .
710.0 0.0 -46031.97266 .
705.0 0.0 -45493.91406 .
655.0 0.0 -44961.28125 .
680.0 0.0 -44434.04688 .
654.0 0.0 -43912.10547 .
690.0 0.0 -43395.50781 .
713.0 0.0 -42884.10156 .
709.0 0.0 -42377.91016 .
644.0 0.0 -41876.84766 .
683.0 0.0 -41380.87500 .
670.0 0.0 -40889.99219 .
701.0 0.0 -40404.10156 .
678.0 0.0 -39923.17578 .
672.0 0.0 -39447.16797 .
690.0 0.0 -38976.01953 .
698.0 0.0 -38509.74219 .
775.0 0.0 -38048.21484 .
701.0 0.0 -37591.47266 .
699.0 0.0 -37139.38281 .
713.0 0.0 -36691.96875 .
733.0 0.0 -36249.19531 .
703.0 0.0 -35810.99609 .
682.0 0.0 -35377.32813 .
710.0 0.0 -34948.13672 .
720.0 0.0 -34523.41797 .
703.0 0.0 -34103.09766 .
708.0 0.0 -33687.19531 .
693.0 0.0 -33275.59375 .
696.0 0.0 -32868.28906 .
732.0 0.0 -32465.23242 .
775.0 0.0 -32066.40820 .
750.0 0.0 -31671.75195 .
741.0 0.0 -31281.24609 .
719.0 0.0 -30894.83594 .
749.0 0.0 -30512.48633 .
735.0 0.0 -30134.15625 .
692.0 0.0 -29759.83789 .
737.0 0.0 -29389.45313 .
694.0 0.0 -29023.01953 .
734.0 0.0 -28660.43359 .
759.0 0.0 -28301.70508 .
676.0 0.0 -27946.77344 .
748.0 0.0 -27595.64844 .
740.0 0.0 -27248.24219 .
720.0 0.0 -26904.53125 .
721.0 0.0 -26564.50781 .
700.0 0.0 -26228.09766 .
713.0 0.0 -25895.32813 .
745.0 0.0 -25566.09375 .
799.0 0.0 -25240.42773 .
757.0 0.0 -24918.24219 .
742.0 0.0 -24599.53711 .
733.0 0.0 -24284.25977 .
721.0 0.0 -23972.40039 .
735.0 0.0 -23663.90430 .
764.0 0.0 -23358.75781 .
744.0 0.0 -23056.91406 .
757.0 0.0 -22758.36133 .
755.0 0.0 -22463.03516 .
782.0 0.0 -22170.95508 .
731.0 0.0 -21882.03320 .
749.0 0.0 -21596.29102 .
761.0 0.0 -21313.66406 .
812.0 0.0 -21034.13672 .
776.0 0.0 -20757.67383 .
709.0 0.0 -20484.25781 .
740.0 0.0 -20213.84570 .
825.0 0.0 -19946.42773 .
791.0 0.0 -19681.93750 .
806.0 0.0 -19420.39258 .
760.0 0.0 -19161.74219 .
794.0 0.0 -18905.95313 .
779.0 0.0 -18653.00977 .
783.0 0.0 -18402.87500 .
810.0 0.0 -18155.53125 .
787.0 0.0 -17910.93945 .
780.0 0.0 -17669.09766 .
788.0 0.0 -17429.94922 .
849.0 0.0 -17193.48242 .
822.0 0.0 -16959.67188 .
815.0 0.0 -16728.50000 .
809.0 0.0 -16499.91602 .
821.0 0.0 -16273.91992 .
804.0 0.0 -16050.47363 .
815.0 0.0 -15829.55762 .
812.0 0.0 -15611.12402 .
844.0 0.0 -15395.21387 .
809.0 0.0 -15181.71484 .
784.0 0.0 -14970.66699 .
833.0 0.0 -14762.00781 .
832.0 0.0 -14555.75586 .
794.0 0.0 -14351.84570 .
871.0 0.0 -14150.27832 .
783.0 0.0 -13951.01660 .
831.0 0.0 -13754.05371 .
847.0 0.0 -13559.35840 .
857.0 0.0 -13366.89551 .
824.0 0.0 -13176.68066 .
773.0 0.0 -12988.64844 .
823.0 0.0 -12802.79492 .
804.0 0.0 -12619.09668 .
795.0 0.0 -12437.54102 .
801.0 0.0 -12258.09277 .
796.0 0.0 -12080.74512 .
872.0 0.0 -11905.45898 .
818.0 0.0 -11732.22852 .
809.0 0.0 -11561.02637 .
790.0 0.0 -11391.84082 .
793.0 0.0 -11224.63574 .
776.0 0.0 -11059.41113 .
809.0 0.0 -10896.12305 .
783.0 0.0 -10734.77246 .
766.0 0.0 -10575.32910 .
762.0 0.0 -10417.78418 .
761.0 0.0 -10262.09668 .
784.0 0.0 -10108.27246 .
814.0 0.0 -9956.28027 .
769.0 0.0 -9806.09863 .
774.0 0.0 -9657.70996 .
806.0 0.0 -9511.10742 .
787.0 0.0 -9366.26074 .
793.0 0.0 -9223.15430 .
751.0 0.0 -9081.77637 .
749.0 0.0 -8942.09570 .
775.0 0.0 -8804.11328 .
810.0 0.0 -8667.79590 .
741.0 0.0 -8533.13379 .
743.0 0.0 -8400.10547 .
758.0 0.0 -8268.70117 .
821.0 0.0 -8138.88770 .
784.0 0.0 -8010.67432 .
796.0 0.0 -7884.01660 .
794.0 0.0 -7758.91797 .
770.0 0.0 -7635.35254 .
788.0 0.0 -7513.31494 .
784.0 0.0 -7392.77148 .
796.0 0.0 -7273.72363 .
814.0 0.0 -7156.14600 .
779.0 0.0 -7040.02686 .
778.0 0.0 -6925.34766 .
789.0 0.0 -6812.09717 .
791.0 0.0 -6700.25537 .
798.0 0.0 -6589.81494 .
817.0 0.0 -6480.75000 .
794.0 0.0 -6373.04883 .
767.0 0.0 -6266.70947 .
780.0 0.0 -6161.69824 .
727.0 0.0 -6058.01758 .
732.0 0.0 -5955.64648 .
791.0 0.0 -5854.56641 .
794.0 0.0 -5754.76709 .
817.0 0.0 -5656.23926 .
785.0 0.0 -5558.95898 .
799.0 0.0 -5462.92969 .
819.0 0.0 -5368.11523 .
791.0 0.0 -5274.52197 .
805.0 0.0 -5182.12256 .
797.0 0.0 -5090.91699 .
845.0 0.0 -5000.87939 .
792.0 0.0 -4912.00928 .
761.0 0.0 -4824.27832 .
779.0 0.0 -4737.69629 .
800.0 0.0 -4652.22754 .
766.0 0.0 -4567.87744 .
813.0 0.0 -4484.61963 .
805.0 0.0 -4402.45605 .
779.0 0.0 -4321.35596 .
787.0 0.0 -4241.33057 .
797.0 0.0 -4162.34961 .
775.0 0.0 -4084.40967 .
820.0 0.0 -4007.49780 .
801.0 0.0 -3931.60107 .
808.0 0.0 -3856.71338 .
755.0 0.0 -3782.81396 .
769.0 0.0 -3709.90332 .
819.0 0.0 -3637.95947 .
810.0 0.0 -3566.97900 .
793.0 0.0 -3496.94556 .
845.0 0.0 -3427.85303 .
793.0 0.0 -3359.68823 .
773.0 0.0 -3292.44531 .
805.0 0.0 -3226.10425 .
815.0 0.0 -3160.66577 .
761.0 0.0 -3096.10913 .
759.0 0.0 -3032.43579 .
793.0 0.0 -2969.62427 .
785.0 0.0 -2907.67261 .
794.0 0.0 -2846.56348 .
806.0 0.0 -2786.29565 .
774.0 0.0 -2726.85376 .
801.0 0.0 -2668.23438 .
780.0 0.0 -2610.41870 .
800.0 0.0 -2553.40601 .
728.0 0.0 -2497.17969 .
783.0 0.0 -2441.73364 .
796.0 0.0 -2387.06494 .
798.0 0.0 -2333.15308 .
824.0 0.0 -2279.99854 .
814.0 0.0 -2227.58789 .
835.0 0.0 -2175.91528 .
803.0 0.0 -2124.96655 .
758.0 0.0 -2074.74341 .
805.0 0.0 -2025.22388 .
771.0 0.0 -1976.41040 .
833.0 0.0 -1928.28784 .
816.0 0.0 -1880.85303 .
798.0 0.0 -1834.09705 .
754.0 0.0 -1788.00757 .
859.0 0.0 -1742.58032 .
815.0 0.0 -1697.80627 .
800.0 0.0 -1653.67737 .
833.0 0.0 -1610.18860 .
792.0 0.0 -1567.32715 .
812.0 0.0 -1525.09045 .
834.0 0.0 -1483.46558 .
798.0 0.0 -1442.45215 .
791.0 0.0 -1402.03528 .
787.0 0.0 -1362.21472 .
810.0 0.0 -1322.97693 .
787.0 0.0 -1284.31836 .
875.0 0.0 -1246.23157 .
862.0 0.0 -1208.70789 .
840.0 0.0 -1171.74316 .
845.0 0.0 -1135.32947 .
871.0 0.0 -1099.45874 .
842.0 0.0 -1064.12427 .
836.0 0.0 -1029.32031 .
836.0 0.0 -995.04028 .
824.0 0.0 -961.27832 .
840.0 0.0 -928.02563 .
803.0 0.0 -895.27826 .
780.0 0.0 -863.02838 .
764.0 0.0 -831.27057 .
792.0 0.0 -799.99860 .
801.0 0.0 -769.20642 .
807.0 0.0 -738.88647 .
790.0 0.0 -709.03497 .
834.0 0.0 -679.64355 .
815.0 0.0 -650.70911 .
778.0 0.0 -622.22424 .
799.0 0.0 -594.18341 .
792.0 0.0 -566.57916 .
768.0 0.0 -539.40942 .
803.0 0.0 -512.66534 .
806.0 0.0 -486.34250 .
843.0 0.0 -460.43744 .
797.0 0.0 -434.94141 .
790.0 0.0 -409.85187 .
842.0 0.0 -385.16153 .
798.0 0.0 -360.86816 .
864.0 0.0 -336.96216 .
859.0 0.0 -313.44150 .
795.0 0.0 -290.29974 .
830.0 0.0 -267.53366 .
798.0 0.0 -245.13464 .
852.0 0.0 -223.10335 .
815.0 0.0 -201.42918 .
835.0 0.0 -180.11206 .
809.0 0.0 -159.14279 .
860.0 0.0 -138.52133 .
837.0 0.0 -118.23859 .
788.0 0.0 -98.29380 .
807.0 0.0 -78.67951 .
844.0 0.0 -59.39423 .
833.0 0.0 -40.42970 .
828.0 0.0 -21.78484 .
837.0 0.0 -3.45358 .
824.0 0.0 14.56737 .
847.0 0.0 32.28386 .
796.0 0.0 49.69917 .
837.0 0.0 66.81622 .
835.0 0.0 83.64073 .
846.0 0.0 100.17545 .
816.0 0.0 116.42668 .
812.0 0.0 132.39539 .
839.0 0.0 148.08865 .
835.0 0.0 163.50754 .
859.0 0.0 178.65755 .
868.0 0.0 193.54161 .
827.0 0.0 208.16451 .
855.0 0.0 222.52869 .
841.0 0.0 236.63908 .
834.0 0.0 250.49788 .
829.0 0.0 264.11041 .
808.0 0.0 277.47836 .
829.0 0.0 290.60757 .
836.0 0.0 303.49841 .
808.0 0.0 316.15750 .
812.0 0.0 328.58490 .
814.0 0.0 340.78711 .
824.0 0.0 352.76520 .
823.0 0.0 364.52463 .
868.0 0.0 376.06616 .
843.0 0.0 387.39478 .
814.0 0.0 398.51337 .
864.0 0.0 409.42361 .
840.0 0.0 420.13025 .
840.0 0.0 430.63559 .
802.0 0.0 440.94305 .
870.0 0.0 451.05432 .
876.0 0.0 460.97464 .
812.0 0.0 470.70471 .
819.0 0.0 480.24945 .
879.0 0.0 489.60925 .
800.0 0.0 498.78897 .
823.0 0.0 507.79013 .
821.0 0.0 516.61627 .
820.0 0.0 525.26996 .
880.0 0.0 533.75342 .
804.0 0.0 542.06927 .
780.0 0.0 550.22083 .
841.0 0.0 558.21002 .
841.0 0.0 566.03986 .
832.0 0.0 573.71210 .
855.0 0.0 581.22998 .
855.0 0.0 588.59552 .
846.0 0.0 595.81140 .
807.0 0.0 602.87976 .
821.0 0.0 609.80359 .
856.0 0.0 616.58447 .
832.0 0.0 623.22461 .
852.0 0.0 629.72681 .
795.0 0.0 636.09320 .
827.0 0.0 642.32587 .
855.0 0.0 648.42682 .
862.0 0.0 654.39868 .
823.0 0.0 660.24292 .
865.0 0.0 665.96234 .
846.0 0.0 671.55890 .
850.0 0.0 677.03436 .
883.0 0.0 682.39081 .
826.0 0.0 687.63043 .
807.0 0.0 692.75470 .
847.0 0.0 697.76624 .
853.0 0.0 702.66650 .
792.0 0.0 707.45764 .
869.0 0.0 712.14148 .
827.0 0.0 716.71973 .
800.0 0.0 721.19421 .
855.0 0.0 725.56714 .
820.0 0.0 729.83960 .
865.0 0.0 734.01379 .
839.0 0.0 738.09143 .
833.0 0.0 742.07422 .
799.0 0.0 745.96387 .
773.0 0.0 749.76172 .
842.0 0.0 753.46973 .
883.0 0.0 757.08942 .
908.0 0.0 760.62213 .
839.0 0.0 764.06989 .
827.0 0.0 767.43414 .
828.0 0.0 770.71613 .
824.0 0.0 773.91803 .
835.0 0.0 777.04028 .
872.0 0.0 780.08514 .
839.0 0.0 783.05383 .
868.0 0.0 785.94781 .
853.0 0.0 788.76855 .
868.0 0.0 791.51746 .
880.0 0.0 794.19543 .
863.0 0.0 796.80475 .
876.0 0.0 799.34558 .
854.0 0.0 801.82037 .
822.0 0.0 804.22955 .
879.0 0.0 806.57495 .
897.0 0.0 808.85748 .
868.0 0.0 811.07867 .
853.0 0.0 813.23956 .
835.0 0.0 815.34131 .
902.0 0.0 817.38519 .
866.0 0.0 819.37231 .
856.0 0.0 821.30396 .
802.0 0.0 823.18109 .
819.0 0.0 825.00513 .
846.0 0.0 826.77667 .
811.0 0.0 828.49756 .
804.0 0.0 830.16791 .
859.0 0.0 831.78967 .
861.0 0.0 833.36310 .
875.0 0.0 834.89001 .
781.0 0.0 836.37067 .
774.0 0.0 837.80664 .
853.0 0.0 839.19867 .
807.0 0.0 840.54742 .
871.0 0.0 841.85449 .
854.0 0.0 843.12030 .
843.0 0.0 844.34589 .
879.0 0.0 845.53229 .
885.0 0.0 846.68024 .
862.0 0.0 847.79095 .
877.0 0.0 848.86462 .
867.0 0.0 849.90283 .
880.0 0.0 850.90594 .
834.0 0.0 851.87482 .
845.0 0.001183 852.81073 852.81427
906.0 0.001104 853.71368 853.71729
864.0 0.001157 854.58514 854.58838
871.0 0.001148 855.42554 855.42847
850.0 0.001176 856.23584 856.23865
895.0 0.001117 857.01660 857.01923
868.0 0.001152 857.76862 857.77094
843.0 0.001186 858.49268 858.49481
842.0 0.001188 859.18951 859.19153
862.0 0.001160 859.85980 859.86157
827.0 0.001209 860.50385 860.50555
865.0 0.001156 861.12317 861.12445
845.0 0.001183 861.71747 861.71881
838.0 0.001193 862.28815 862.28931
865.0 0.001156 862.83545 862.83649
831.0 0.001203 863.36029 863.36102
913.0 0.001095 863.86285 863.86389
875.0 0.001143 864.34424 864.34479
861.0 0.001161 864.80450 864.80505
920.0 0.001087 865.24500 865.24524
903.0 0.001107 865.66583 865.66571
954.0 0.001048 866.06708 866.06738
908.0 0.001101 866.45026 866.45032
862.0 0.001160 866.81519 866.81537
848.0 0.001179 867.16296 867.16315
858.0 0.001166 867.49390 867.49371
836.0 0.001196 867.80835 867.80823
870.0 0.001149 868.10693 868.10669
851.0 0.001175 868.39008 868.38989
903.0 0.001107 868.65845 868.65796
902.0 0.001109 868.91272 868.91193
812.0 0.001232 869.15259 869.15210
871.0 0.001148 869.37946 869.37878
842.0 0.001188 869.59296 869.59241
897.0 0.001115 869.79413 869.79352
863.0 0.001159 869.98328 869.98230
873.0 0.001145 870.16040 870.15997
853.0 0.001172 870.32672 870.32587
926.0 0.001080 870.48193 870.48120
892.0 0.001121 870.62689 870.62616
858.0 0.001166 870.76160 870.76099
856.0 0.001168 870.88690 870.88611
841.0 0.001189 871.00269 871.00232
879.0 0.001138 871.11005 871.10931
917.0 0.001091 871.20862 871.20807
851.0 0.001175 871.29889 871.29840
831.0 0.001203 871.38159 871.38098
857.0 0.001167 871.45673 871.45624
905.0 0.001105 871.52502 871.52423
844.0 0.001185 871.58612 871.58563
873.0 0.001145 871.64111 871.64050
894.0 0.001119 871.68976 871.68939
868.0 0.001152 871.73267 871.73224
865.0 0.001156 871.77008 871.76965
862.0 0.001160 871.80212 871.80170
813.0 0.001230 871.82947 871.82904
867.0 0.001153 871.85193 871.85162
843.0 0.001186 871.87012 871.86987
829.0 0.001206 871.88416 871.88409
869.0 0.001151 871.89453 871.89417
868.0 0.001152 871.90112 871.90112
861.0 0.001161 871.90454 871.90442
887.0 0.001127 871.90472 871.90479
872.0 0.001147 871.90222 871.90222
875.0 0.001143 871.89716 871.89728
850.0 0.001176 871.88983 871.88983
839.0 0.001192 871.88000 871.88031
841.0 0.001189 871.86859 871.86865
854.0 0.001171 871.85535 871.85577
855.0 0.001170 871.84039 871.84100
880.0 0.001136 871.82465 871.82489
869.0 0.001151 871.80750 871.80817
841.0 0.001189 871.78967 871.79010
897.0 0.001115 871.77081 871.77148
898.0 0.001114 871.75165 871.75232
883.0 0.001133 871.73199 871.73279
850.0 0.001176 871.71222 871.71313
873.0 0.001145 871.69269 871.69342
859.0 0.001164 871.67297 871.67389
803.0 0.001245 871.65387 871.65485
875.0 0.001143 871.63501 871.63617
847.0 0.001181 871.61676 871.61804
856.0 0.001168 871.59943 871.60071
897.0 0.001115 871.58307 871.58435
898.0 0.001114 871.56769 871.56903
929.0 0.001076 871.55353 871.55499
822.0 0.001217 871.54065 871.54218
855.0 0.001170 871.52930 871.53088
854.0 0.001171 871.51959 871.52112
896.0 0.001116 871.51129 871.51300
849.0 0.001178 871.50488 871.50684
856.0 0.001168 871.50055 871.50238
867.0 0.001153 871.49811 871.50006
888.0 0.001126 871.49792 871.49994
853.0 0.001172 871.49982 871.50195
882.0 0.001134 871.50409 871.50641
886.0 0.001129 871.51086 871.51312
902.0 0.001109 871.51996 871.52216
851.0 0.001175 871.53174 871.53424
891.0 0.001122 871.54633 871.54858
867.0 0.001153 871.56342 871.56592
895.0 0.001117 871.58331 871.58588
905.0 0.001105 871.60638 871.60901
850.0 0.001176 871.63226 871.63501
835.0 0.001198 871.66113 871.66400
866.0 0.001155 871.69318 871.69611
889.0 0.001125 871.72845 871.73132
875.0 0.001143 871.76703 871.76971
875.0 0.001143 871.80847 871.81134
849.0 0.001178 871.85339 871.85645
874.0 0.001144 871.90198 871.90485
887.0 0.001127 871.95374 871.95679
913.0 0.001095 872.00909 872.01202
903.0 0.001107 872.06775 872.07111
856.0 0.001168 872.13007 872.13336
872.0 0.001147 872.19598 872.19940
891.0 0.001122 872.26556 872.26892
863.0 0.001159 872.33893 872.34222
907.0 0.001103 872.41577 872.41913
869.0 0.001151 872.49622 872.49969
857.0 0.001167 872.58069 872.58417
831.0 0.001203 872.66870 872.67218
896.0 0.001116 872.76044 872.76422
840.0 0.001190 872.85638 872.85986
844.0 0.001185 872.95569 872.95941
858.0 0.001166 873.05914 873.06274
861.0 0.001161 873.16614 873.16986
937.0 0.001067 873.27710 873.28082
856.0 0.001168 873.39203 873.39587
894.0 0.001119 873.51074 873.51453
867.0 0.001153 873.63324 873.63733
893.0 0.001120 873.75970 873.76379
866.0 0.001155 873.89020 873.89423
888.0 0.001126 874.02454 874.02844
940.0 0.001064 874.16254 874.16656
866.0 0.001155 874.30438 874.30847
868.0 0.001152 874.45026 874.45428
853.0 0.001172 874.60004 874.60419
850.0 0.001176 874.75354 874.75763
887.0 0.001127 874.91107 874.91498
831.0 0.001203 875.07214 875.07617
893.0 0.001120 875.23730 875.24139
875.0 0.001143 875.40607 875.41022
882.0 0.001134 875.57874 875.58270
919.0 0.001088 875.75519 875.75934
927.0 0.001079 875.93530 875.93939
897.0 0.001115 876.11920 876.12341
870.0 0.001149 876.30682 876.31097
884.0 0.001131 876.49811 876.50232
905.0 0.001105 876.69299 876.69720
857.0 0.001167 876.89154 876.89594
868.0 0.001152 877.09381 877.09802
836.0 0.001196 877.29968 877.30383
892.0 0.001121 877.50885 877.51343
881.0 0.001135 877.72186 877.72626
885.0 0.001130 877.93848 877.94257
821.0 0.001218 878.15833 878.16248
862.0 0.001160 878.38190 878.38599
839.0 0.001192 878.60858 878.61279
880.0 0.001136 878.83868 878.84277
846.0 0.001182 879.07214 879.07635
922.0 0.001085 879.30902 879.31329
893.0 0.001120 879.54895 879.55310
874.0 0.001144 879.79248 879.79663
892.0 0.001121 880.03882 880.04297
893.0 0.001120 880.28882 880.29272
830.0 0.001205 880.54138 880.54553
873.0 0.001145 880.79742 880.80139
969.0 0.001032 881.05652 881.06042
897.0 0.001115 881.31830 881.32239
930.0 0.001075 881.58331 881.58716
905.0 0.001105 881.85114 881.85510
870.0 0.001149 882.12183 882.12592
833.0 0.001200 882.39575 882.39954
891.0 0.001122 882.67188 882.67578
865.0 0.001156 882.95105 882.95496
902.0 0.001109 883.23309 883.23669
893.0 0.001120 883.51746 883.52106
908.0 0.001101 883.80457 883.80817
889.0 0.001125 884.09436 884.09802
948.0 0.001055 884.38641 884.39014
921.0 0.001086 884.68121 884.68469
913.0 0.001095 884.97833 884.98181
917.0 0.001091 885.27789 885.28131
888.0 0.001126 885.57971 885.58301
843.0 0.001186 885.88385 885.88739
878.0 0.001139 886.19031 886.19373
891.0 0.001122 886.49890 886.50226
869.0 0.001151 886.80969 886.81287
892.0 0.001121 887.12250 887.12579
868.0 0.001152 887.43732 887.44055
944.0 0.001059 887.75409 887.75757
952.0 0.001050 888.07318 888.07605
945.0 0.001058 888.39380 888.39691
960.0 0.001042 888.71631 888.71924
862.0 0.001160 889.04095 889.04376
889.0 0.001125 889.36694 889.36987
924.0 0.001082 889.69476 889.69763
853.0 0.001172 890.02435 890.02716
906.0 0.001104 890.35529 890.35803
952.0 0.001050 890.68805 890.69055
901.0 0.001110 891.02216 891.02454
907.0 0.001103 891.35767 891.36005
877.0 0.001140 891.69470 891.69708
884.0 0.001131 892.03296 892.03534
934.0 0.001071 892.37250 892.37482
884.0 0.001131 892.71356 892.71570
928.0 0.001078 893.05542 893.05750
874.0 0.001144 893.39886 893.40076
876.0 0.001142 893.74304 893.74518
902.0 0.001109 894.08838 894.09027
970.0 0.001031 894.43488 894.43665
894.0 0.001119 894.78192 894.78381
905.0 0.001105 895.13043 895.13190
878.0 0.001139 895.47906 895.48083
864.0 0.001157 895.82910 895.83057
879.0 0.001138 896.17969 896.18097
877.0 0.001140 896.53082 896.53223
924.0 0.001082 896.88263 896.88397
869.0 0.001151 897.23517 897.23633
846.0 0.001182 897.58838 897.58942
916.0 0.001092 897.94196 897.94287
890.0 0.001124 898.29578 898.29675
944.0 0.001059 898.65015 898.65118
839.0 0.001192 899.00513 899.00562
890.0 0.001124 899.35992 899.36078
919.0 0.001088 899.71521 899.71600
863.0 0.001159 900.07074 900.07147
882.0 0.001134 900.42651 900.42694
864.0 0.001157 900.78241 900.78259
869.0 0.001151 901.13824 901.13831
902.0 0.001109 901.49390 901.49402
924.0 0.001082 901.84979 901.84979
934.0 0.001071 902.20557 902.20569
944.0 0.001059 902.56122 902.56097
882.0 0.001134 902.91663 902.91650
911.0 0.001098 903.27209 903.27161
859.0 0.001164 903.62701 903.62653
867.0 0.001153 903.98187 903.98138
927.0 0.001079 904.33606 904.33557
867.0 0.001153 904.69019 904.68939
893.0 0.001120 905.04376 905.04297
891.0 0.001122 905.39691 905.39600
959.0 0.001043 905.74945 905.74835
909.0 0.001100 906.10138 906.10016
921.0 0.001086 906.45288 906.45148
903.0 0.001107 906.80359 906.80225
922.0 0.001085 907.15369 907.15228
909.0 0.001100 907.50305 907.50140
901.0 0.001110 907.85150 912.64410
990.0 0.001010 908.19940 913.12799
896.0 0.001116 908.54657 913.61707
893.0 0.001120 908.89240 914.11145
884.0 0.001131 909.23773 914.61133
885.0 0.001130 909.58185 915.11755
897.0 0.001115 909.92493 915.62964
880.0 0.001136 910.26709 916.14893
900.0 0.001111 910.60809 916.67542
885.0 0.001130 910.94788 917.20935
884.0 0.001131 911.28687 917.75153
893.0 0.001120 911.62427 918.30280
894.0 0.001119 911.96082 918.86328
907.0 0.001103 912.29584 919.43396
910.0 0.001099 912.62952 920.01575
908.0 0.001101 912.96222 920.60889
942.0 0.001062 913.29321 921.21460
937.0 0.001067 913.62305 921.95599
868.0 0.001152 913.95142 922.59113
869.0 0.001151 914.27795 923.24255
887.0 0.001127 914.60339 923.91064
943.0 0.001060 914.92731 924.59723
900.0 0.001111 915.24921 925.30377
931.0 0.001074 915.57001 926.03180
893.0 0.001120 915.88904 926.78351
878.0 0.001139 916.20636 927.56073
879.0 0.001138 916.52209 928.36530
908.0 0.001101 916.83594 929.20081
945.0 0.001058 917.14825 930.06921
911.0 0.001098 917.45868 930.97388
909.0 0.001100 917.76740 931.91882
930.0 0.001075 918.07416 932.90753
927.0 0.001079 918.37891 933.94531
921.0 0.001086 918.68225 935.03687
940.0 0.001064 918.98334 936.18970
915.0 0.001093 919.28253 937.41168
924.0 0.001082 919.58002 938.71338
931.0 0.001074 919.87512 940.10779
951.0 0.001052 920.16852 941.61194
901.0 0.001110 920.45984 943.24872
961.0 0.001041 920.74884 945.04865
945.0 0.001058 921.03644 947.05176
975.0 0.001026 921.32135 949.31360
953.0 0.001049 921.60419 951.90662
971.0 0.001030 921.88507 954.92700
988.0 0.001012 922.16370 958.50006
1015.0 0.000985 922.44006 962.78656
983.0 0.001017 922.71448 967.98859
993.0 0.001007 922.98663 974.35596
979.0 0.001021 923.25659 982.18890
1041.0 0.000961 923.52405 991.84082
1063.0 0.000941 923.78906 1003.71460
1092.0 0.000916 924.05219 1018.25421
1141.0 0.000876 924.31281 1035.93127
1040.0 0.000962 924.57104 1057.22400
1104.0 0.000906 924.82727 1082.58679
1163.0 0.000860 925.08069 1112.41736
1195.0 0.000837 925.33191 1147.01465
1242.0 0.000805 925.58081 1186.53455
1304.0 0.000767 925.82721 1230.94702
1333.0 0.000750 926.07129 1279.99365
1405.0 0.000712 926.31299 1333.14880
1399.0 0.000715 926.55212 1389.58728
1523.0 0.000657 926.78888 1448.15637
1505.0 0.000664 927.02301 1507.35437
1534.0 0.000652 927.25470 1565.31763
1627.0 0.000615 927.48407 1619.82788
1610.0 0.000621 927.71075 1668.37134
1600.0 0.000625 927.93506 1708.28149
1667.0 0.000600 928.15674 1737.00427
1700.0 0.000588 928.37610 1752.46631
1674.0 0.000597 928.59265 1753.46875
1741.0 0.000574 928.80670 1739.94849
1697.0 0.000589 929.01825 1712.99268
1635.0 0.000612 929.22711 1674.59802
1631.0 0.000613 929.43347 1627.28784
1550.0 0.000645 929.63751 1573.73047
1571.0 0.000637 929.83862 1516.46545
1538.0 0.000650 930.03723 1457.74548
1402.0 0.000713 930.23328 1399.47351
1400.0 0.000714 930.42664 1343.18933
1382.0 0.000724 930.61749 1290.08215
1300.0 0.000769 930.80585 1241.00964
1276.0 0.000784 930.99152 1196.52856
1213.0 0.000824 931.17432 1156.92444
1200.0 0.000833 931.35461 1122.24963
1154.0 0.000867 931.53253 1092.36487
1138.0 0.000879 931.70758 1066.98499
1091.0 0.000917 931.88000 1045.72131
1042.0 0.000960 932.05005 1028.12256
1060.0 0.000943 932.21704 1013.71259
1074.0 0.000931 932.38165 1002.01740
1090.0 0.000917 932.54376 992.58923
1005.0 0.000995 932.70288 985.02051
1019.0 0.000981 932.85974 978.95233
1011.0 0.000989 933.01367 974.07886
954.0 0.001048 933.16510 970.14514
950.0 0.001053 933.31396 966.94373
966.0 0.001035 933.46014 964.31030
965.0 0.001036 933.60388 962.11603
919.0 0.001088 933.74469 960.26172
941.0 0.001063 933.88300 958.67236
895.0 0.001117 934.01874 957.29169
938.0 0.001066 934.15192 956.07764
963.0 0.001038 934.28259 954.99866
921.0 0.001086 934.41040 954.03143
960.0 0.001042 934.53595 953.15869
940.0 0.001064 934.65869 952.36621
894.0 0.001119 934.77875 951.64404
907.0 0.001103 934.89642 950.98358
952.0 0.001050 935.01160 950.37762
944.0 0.001059 935.12390 949.82123
940.0 0.001064 935.23401 949.30920
932.0 0.001073 935.34131 948.83722
908.0 0.001101 935.44611 948.40192
939.0 0.001065 935.54865 948.00012
919.0 0.001088 935.64838 947.62909
920.0 0.001087 935.74573 947.28577
945.0 0.001058 935.84058 946.96857
945.0 0.001058 935.93286 946.67480
948.0 0.001055 936.02277 946.40326
926.0 0.001080 936.11011 946.15179
926.0 0.001080 936.19489 945.91913
925.0 0.001081 936.27759 945.70392
948.0 0.001055 936.35754 945.50507
925.0 0.001081 936.43518 945.32129
888.0 0.001126 936.51050 945.15143
941.0 0.001063 936.58319 944.99518
894.0 0.001119 936.65375 944.85126
951.0 0.001052 936.72174 944.71906
912.0 0.001096 936.78754 944.59827
885.0 0.001130 936.85083 944.48804
907.0 0.001103 936.91199 944.38788
907.0 0.001103 936.97083 944.29797
887.0 0.001127 937.02704 944.21741
950.0 0.001053 937.08112 944.14636
949.0 0.001054 937.13312 944.08453
917.0 0.001091 937.18262 944.03168
1017.0 0.000983 937.23004 943.98834
943.0 0.001060 937.27509 943.95416
933.0 0.001072 937.31799 943.92944
933.0 0.001072 937.35883 939.10632
954.0 0.001048 937.39722 939.23315
940.0 0.001064 937.43353 939.36505
925.0 0.001081 937.46790 939.50330
933.0 0.001072 937.50006 939.64825
926.0 0.001080 937.52991 939.80109
919.0 0.001088 937.55786 939.96320
995.0 0.001005 937.58386 940.13519
945.0 0.001058 937.60760 940.31848
949.0 0.001054 937.62933 940.51410
933.0 0.001072 937.64911 940.72339
967.0 0.001034 937.66669 940.94757
957.0 0.001045 937.68243 941.18805
935.0 0.001070 937.69629 941.44629
954.0 0.001048 937.70813 941.72345
932.0 0.001073 937.71796 942.02094
972.0 0.001029 937.72607 942.33984
954.0 0.001048 937.73212 942.68152
910.0 0.001099 937.73657 943.04706
998.0 0.001002 937.73889 943.43732
977.0 0.001024 937.73956 943.85309
971.0 0.001030 937.73846 944.29492
969.0 0.001032 937.73547 944.76300
959.0 0.001043 937.73065 945.25763
1024.0 0.000977 937.72418 945.77795
978.0 0.001022 937.71619 946.32361
1033.0 0.000968 937.70630 946.89227
976.0 0.001025 937.69476 947.48248
998.0 0.001002 937.68164 948.09088
1035.0 0.000966 937.66687 948.71320
926.0 0.001080 937.65051 949.34448
981.0 0.001019 937.63245 949.97803
988.0 0.001012 937.61292 950.60608
1065.0 0.000939 937.59192 951.21912
1061.0 0.000943 937.56934 951.80627
1008.0 0.000992 937.54517 952.35516
976.0 0.001025 937.51971 952.85315
1033.0 0.000968 937.49274 953.28656
1030.0 0.000971 937.46442 953.64197
1006.0 0.000994 937.43457 953.90765
983.0 0.001017 937.40350 954.07379
989.0 0.001011 937.37122 954.13342
1054.0 0.000949 937.33716 954.08337
1009.0 0.000991 937.30206 953.92395
1036.0 0.000965 937.26581 969.04333
992.0 0.001008 937.22803 969.02258
1032.0 0.000969 937.18945 968.92755
992.0 0.001008 937.14935 968.77045
1030.0 0.000971 937.10809 968.56555
963.0 0.001038 937.06573 968.32635
967.0 0.001034 937.02234 968.06720
1020.0 0.000980 936.97760 967.79993
1045.0 0.000957 936.93201 967.53613
1025.0 0.000976 936.88519 967.28534
1004.0 0.000996 936.83771 967.05585
970.0 0.001031 936.78912 966.85486
987.0 0.001013 936.73920 966.68768
1029.0 0.000972 936.68854 966.55927
995.0 0.001005 936.63708 966.47369
1017.0 0.000983 936.58478 966.43353
959.0 0.001043 936.53131 966.44141
982.0 0.001018 936.47711 966.49951
961.0 0.001041 936.42230 966.60938
966.0 0.001035 936.36658 966.77197
973.0 0.001028 936.31000 966.98859
983.0 0.001017 936.25281 967.26007
982.0 0.001018 936.19482 967.58752
994.0 0.001006 936.13623 967.97137
957.0 0.001045 936.07690 968.41241
943.0 0.001060 936.01721 968.91162
979.0 0.001021 935.95654 969.46979
973.0 0.001028 935.89545 970.08789
899.0 0.001112 935.83380 970.76727
977.0 0.001024 935.77167 971.50903
937.0 0.001067 935.70905 972.31482
912.0 0.001096 935.64581 973.18640
953.0 0.001049 935.58228 974.12604
928.0 0.001078 935.51831 975.13580
914.0 0.001094 935.45392 976.21881
973.0 0.001028 935.38904 977.37836
983.0 0.001017 935.32404 978.61755
976.0 0.001025 935.25861 979.94092
985.0 0.001015 935.19305 981.35303
916.0 0.001092 935.12726 982.85913
950.0 0.001053 935.06079 984.46497
942.0 0.001062 934.99463 986.17792
971.0 0.001030 934.92798 988.00513
955.0 0.001047 934.86121 989.95569
952.0 0.001050 934.79449 992.04016
972.0 0.001029 934.72754 994.27045
970.0 0.001031 934.66064 996.66101
990.0 0.001010 934.59363 999.22894
975.0 0.001026 934.52643 1001.99518
1028.0 0.000973 934.45953 1004.98529
953.0 0.001049 934.39233 1008.23120
1017.0 0.000983 934.32568 1011.77240
967.0 0.001034 934.25873 1015.65887
1010.0 0.000990 934.19189 1019.95331
1037.0 0.000964 934.12537 1024.73425
1013.0 0.000987 934.05902 1030.10046
1017.0 0.000983 933.99286 1036.17615
1019.0 0.000981 933.92700 1043.11438
966.0 0.001035 933.86115 1051.10449
1031.0 0.000970 933.79578 1060.37732
1029.0 0.000972 933.73047 1071.21130
1059.0 0.000944 933.66571 1083.93860
1094.0 0.000914 933.60150 1098.95044
1132.0 0.000883 933.53723 1116.69995
1130.0 0.000885 933.47351 1137.70300
1130.0 0.000885 933.41022 1162.54016
1178.0 0.000849 933.34760 1191.84705
1201.0 0.000833 933.28540 1226.30847
1208.0 0.000828 933.22351 1266.64233
1249.0 0.000801 933.16229 1313.58044
1266.0 0.000790 933.10181 1367.84241
1370.0 0.000730 933.04163 1430.10583
1435.0 0.000697 932.98224 1500.96912
1489.0 0.000672 932.92340 1580.91357
1570.0 0.000637 932.86517 1670.26074
1656.0 0.000604 932.80774 1769.12842
1758.0 0.000569 932.75104 1877.38940
1859.0 0.000538 932.69495 1994.63025
2005.0 0.000499 932.63983 2120.11060
2156.0 0.000464 932.58545 2252.73145
2260.0 0.000442 932.53180 2390.99756
2423.0 0.000413 932.47906 2532.98755
2575.0 0.000388 932.42725 2676.32495
2623.0 0.000381 932.37628 2818.15503
2810.0 0.000356 932.32611 2955.13818
3030.0 0.0003300 932.27704 3083.48438
2980.0 0.0003356 932.22919 3199.04224
3153.0 0.0003172 932.18182 3297.49268
3303.0 0.0003028 932.13562 3374.64697
3400.0 0.0002941 932.09058 3426.85107
3399.0 0.0002942 932.04663 3451.42798
3372.0 0.0002966 932.00360 3447.05444
3375.0 0.0002963 931.96191 3413.96509
3318.0 0.0003014 931.92126 3353.91699
3296.0 0.0003034 931.88171 3269.92212
3136.0 0.0003189 931.84326 3165.83911
3138.0 0.0003187 931.80634 3045.93359
2793.0 0.000358 931.77032 2914.50171
2721.0 0.000368 931.73578 2775.60107
2544.0 0.000393 931.70245 2632.89551
2378.0 0.000421 931.67035 2489.58154
2275.0 0.000440 931.63983 2348.37036
2032.0 0.000492 931.61047 2211.50024
1957.0 0.000511 931.58240 2080.76270
1851.0 0.000540 931.55585 1957.53198
1749.0 0.000572 931.53070 1842.79761
1577.0 0.000634 931.50702 1737.19812
1490.0 0.000671 931.48468 1641.05823
1385.0 0.000722 931.46375 1554.42834
1353.0 0.000739 931.44464 1477.12512
1294.0 0.000773 931.42682 1408.77539
1210.0 0.000826 931.41083 1348.85876
1181.0 0.000847 931.39606 1296.74939
1182.0 0.000846 931.38312 1251.75342
1212.0 0.000825 931.37177 1213.14514
1107.0 0.000903 931.36188 1180.19373
1076.0 0.000929 931.35382 1152.18994
1045.0 0.000957 931.34735 1128.46228
1039.0 0.000962 931.34265 1108.38977
1093.0 0.000915 931.33966 1091.41235
1008.0 0.000992 931.33844 1077.03162
1027.0 0.000974 931.33905 1064.81311
1016.0 0.000984 931.34131 1054.38379
1024.0 0.000977 931.34528 1045.42834
1049.0 0.000953 931.35120 1037.68250
1000.0 0.001000 931.35907 1030.92871
1042.0 0.000960 931.36853 1024.98865
960.0 0.001042 931.38019 1019.71857
1012.0 0.000988 931.39355 1015.00226
976.0 0.001025 931.40900 1010.74738
961.0 0.001041 931.42633 1006.88025
969.0 0.001032 931.44531 1003.34192
998.0 0.001002 931.46655 1000.08612
1001.0 0.000999 931.48993 997.07550
897.0 0.001115 931.51495 994.27997
963.0 0.001038 931.54236 991.67487
995.0 0.001005 931.57153 989.24091
959.0 0.001043 931.60291 986.96112
951.0 0.001052 931.63641 984.82166
940.0 0.001064 931.67206 982.81030
985.0 0.001015 931.70966 980.91711
1001.0 0.000999 931.74951 979.13300
945.0 0.001058 931.79156 977.44965
957.0 0.001045 931.83563 975.86035
985.0 0.001015 931.88214 974.35809
968.0 0.001033 931.93073 972.93781
984.0 0.001016 931.98151 971.59338
956.0 0.001046 932.03442 970.32068
898.0 0.001114 932.08984 969.11493
982.0 0.001018 932.14734 967.97168
1020.0 0.000980 932.20721 966.88812
963.0 0.001038 932.26935 965.85986
970.0 0.001031 932.33386 964.88373
943.0 0.001060 932.40076 963.95752
929.0 0.001076 932.46991 963.07758
934.0 0.001071 932.54138 962.24237
1002.0 0.000998 932.61548 961.44849
970.0 0.001031 932.69171 960.69415
945.0 0.001058 932.77063 959.97736
983.0 0.001017 932.85175 959.29614
969.0 0.001032 932.93536 958.64874
959.0 0.001043 933.02155 958.03351
972.0 0.001029 933.11005 957.44873
1002.0 0.000998 933.20117 956.77173
943.0 0.001060 933.29468 956.24524
981.0 0.001019 933.39056 955.74524
985.0 0.001015 933.48914 955.27063
951.0 0.001052 933.59033 954.82007
943.0 0.001060 933.69397 954.39270
1037.0 0.000964 933.80017 953.98724
920.0 0.001087 933.90912 953.60309
978.0 0.001022 934.02051 953.23938
1013.0 0.000987 934.13446 952.89484
993.0 0.001007 934.25092 952.56909
965.0 0.001036 934.37018 952.26141
953.0 0.001049 934.49225 951.97119
979.0 0.001021 934.61658 951.69733
981.0 0.001019 934.74390 951.43958
999.0 0.001001 934.87360 951.19745
962.0 0.001040 935.00604 950.97021
959.0 0.001043 935.14136 950.75726
900.0 0.001111 935.27936 935.27399
946.0 0.001057 935.41974 935.41486
975.0 0.001026 935.56329 935.55829
941.0 0.001063 935.70941 935.70416
948.0 0.001055 935.85815 935.85315
991.0 0.001009 936.00970 936.00500
974.0 0.001027 936.16406 936.15942
988.0 0.001012 936.32111 936.31653
924.0 0.001082 936.48126 936.47662
938.0 0.001066 936.64386 936.63959
926.0 0.001080 936.80933 936.80493
948.0 0.001055 936.97772 936.97327
901.0 0.001110 937.14868 937.14465
939.0 0.001065 937.32263 937.31891
949.0 0.001054 937.49939 937.49561
928.0 0.001078 937.67908 937.67523
934.0 0.001071 937.86157 937.85785
960.0 0.001042 938.04694 938.04321
910.0 0.001099 938.23505 938.23157
962.0 0.001040 938.42603 938.42267
982.0 0.001018 938.61981 938.61670
953.0 0.001049 938.81683 938.81372
982.0 0.001018 939.01648 939.01355
909.0 0.001100 939.21887 939.21625
973.0 0.001028 939.42432 939.42181
987.0 0.001013 939.63281 939.63043
978.0 0.001022 939.84424 939.84186
964.0 0.001037 940.05841 940.05597
907.0 0.001103 940.27576 940.27332
989.0 0.001011 940.49591 940.49359
971.0 0.001030 940.71906 940.71686
999.0 0.001001 940.94501 940.94293
985.0 0.001015 941.17383 941.17206
1006.0 0.000994 941.40582 941.40399
981.0 0.001019 941.64087 941.63898
1010.0 0.000990 941.87842 941.87689
987.0 0.001013 942.11926 942.11786
966.0 0.001035 942.36298 942.36169
1072.0 0.000933 942.60992 942.60864
987.0 0.001013 942.85956 942.85840
946.0 0.001057 943.11230 943.11121
961.0 0.001041 943.36792 943.36688
958.0 0.001044 943.62659 943.62598
994.0 0.001006 943.88831 943.88751
966.0 0.001035 944.15283 944.15228
976.0 0.001025 944.42053 944.42010
995.0 0.001005 944.69110 944.69086
969.0 0.001032 944.96472 944.96460
1011.0 0.000989 945.24164 945.24127
979.0 0.001021 945.52130 945.52112
981.0 0.001019 945.80402 945.80402
935.0 0.001070 946.08966 946.08978
925.0 0.001081 946.37830 946.37866
1034.0 0.000967 946.67017 946.67017
961.0 0.001041 946.96490 946.96509
963.0 0.001038 947.26270 947.26300
925.0 0.001081 947.56342 947.56372
978.0 0.001022 947.86713 947.86774
1040.0 0.000962 948.17389 948.17462
1006.0 0.000994 948.48364 948.48444
972.0 0.001029 948.79663 948.79755
1001.0 0.000999 949.11243 949.11346
956.0 0.001046 949.43127 949.43250
921.0 0.001086 949.75323 949.75458
918.0 0.001089 950.07806 950.07928
973.0 0.001028 950.40588 950.40735
977.0 0.001024 950.73663 950.73840
956.0 0.001046 951.07080 951.07257
980.0 0.001020 951.40765 951.40948
1004.0 0.000996 951.74780 951.74963
1017.0 0.000983 952.09039 952.09247
1038.0 0.000963 952.43658 952.43866
1023.0 0.000978 952.78552 952.78778
970.0 0.001031 953.13757 953.13977
981.0 0.001019 953.49255 953.49506
964.0 0.001037 953.85059 953.85303
974.0 0.001027 954.21155 954.21417
970.0 0.001031 954.57538 954.57813
935.0 0.001070 954.94238 954.94531
1039.0 0.000962 955.31250 955.31537
1035.0 0.000966 955.68530 955.68823
1049.0 0.000953 956.06128 956.06415
1029.0 0.000972 956.44012 956.44348
979.0 0.001021 956.82159 956.82544
993.0 0.001007 957.20667 957.21021
989.0 0.001011 957.59442 957.59808
969.0 0.001032 957.98560 957.98895
1006.0 0.000994 958.37909 958.38281
982.0 0.001018 958.77576 958.77972
981.0 0.001019 959.17529 959.17938
981.0 0.001019 959.57806 959.58203
1028.0 0.000973 959.98340 959.98755
1019.0 0.000981 960.39191 960.39624
1000.0 0.001000 960.80322 960.80780
1003.0 0.000997 961.21790 961.22217
931.0 0.001074 961.63489 961.63947
991.0 0.001009 962.05511 962.05975
995.0 0.001005 962.47827 962.48279
999.0 0.001001 962.90417 962.90887
1002.0 0.000998 963.33282 963.33771
960.0 0.001042 963.76483 963.76965
999.0 0.001001 964.19934 964.20435
1001.0 0.000999 964.63696 964.64215
966.0 0.001035 965.07733 965.08258
990.0 0.001010 965.52051 965.52557
1008.0 0.000992 965.96643 965.97205
977.0 0.001024 966.41553 966.42133
1012.0 0.000988 966.86725 966.87299
981.0 0.001019 967.32190 967.32794
948.0 0.001055 967.77954 967.78522
1017.0 0.000983 968.23975 968.24561
926.0 0.001080 968.70294 968.70892
984.0 0.001016 969.16870 969.17493
948.0 0.001055 969.63745 969.64362
981.0 0.001019 970.10889 970.11523
1024.0 0.000977 970.58325 970.58972
988.0 0.001012 971.06036 971.40924
990.0 0.001010 971.54022 971.89673
953.0 0.001049 972.02289 972.38708
943.0 0.001060 972.50824 972.88049
986.0 0.001014 972.99603 973.37683
1008.0 0.000992 973.48706 973.87622
937.0 0.001067 973.98047 974.37878
970.0 0.001031 974.47687 974.88440
1013.0 0.000987 974.97589 975.39264
974.0 0.001027 975.47760 975.90436
1010.0 0.000990 975.98169 976.41907
992.0 0.001008 976.48883 976.93646
989.0 0.001011 976.99854 977.45728
989.0 0.001011 977.51074 977.98083
959.0 0.001043 978.02588 978.50757
968.0 0.001033 978.54364 979.03760
975.0 0.001026 979.06360 979.57043
967.0 0.001034 979.58649 980.10669
936.0 0.001068 980.11200 981.71973
1032.0 0.000969 980.64014 982.27521
1008.0 0.000992 981.17053 982.83380
1031.0 0.000970 981.70386 983.39606
968.0 0.001033 982.23956 983.96161
993.0 0.001007 982.77789 984.53064
1002.0 0.000998 983.31891 985.10333
974.0 0.001027 983.86230 985.67920
969.0 0.001032 984.40808 986.25909
973.0 0.001028 984.95667 986.84229
1023.0 0.000978 985.50739 987.42932
968.0 0.001033 986.06110 988.01990
972.0 0.001029 986.61694 988.61450
989.0 0.001011 987.17511 989.21289
1036.0 0.000965 987.73602 989.81525
1012.0 0.000988 988.29919 990.42157
981.0 0.001019 988.86481 991.03180
1001.0 0.000999 989.43292 991.64661
1022.0 0.000978 990.00330 992.26520
1020.0 0.000980 990.57611 992.88812
963.0 0.001038 991.15149 993.51605
1026.0 0.000975 991.72888 994.14838
975.0 0.001026 992.30896 994.78564
1013.0 0.000987 992.89099 995.42767
981.0 0.001019 993.47565 996.07562
1007.0 0.000993 994.06250 996.72913
1041.0 0.000961 994.65192 997.38867
986.0 0.001014 995.24341 998.05463
1020.0 0.000980 995.83691 998.72839
984.0 0.001016 996.43311 999.40948
1018.0 0.000982 997.03149 1000.10010
1085.0 0.000922 997.63184 1000.80060
1007.0 0.000993 998.23474 1001.51233
1058.0 0.000945 998.83954 1002.23761
1058.0 0.000945 999.44653 1002.97821
1027.0 0.000974 1000.05573 1003.73669
1003.0 0.000997 1000.66705 1004.51605
1031.0 0.000970 1001.28088 1005.32068
996.0 0.001004 1001.89642 1006.44165
1027.0 0.000974 1002.51428 1007.45325
1022.0 0.000978 1003.13416 1008.57043
1031.0 0.000970 1003.75616 1009.82568
1036.0 0.000965 1004.38043 1011.26172
1031.0 0.000970 1005.00647 1012.93256
1081.0 0.000925 1005.63489 1014.90784
1038.0 0.000963 1006.26477 1017.27301
1077.0 0.000929 1006.89685 1020.13525
1035.0 0.000966 1007.53174 1023.62262
1107.0 0.000903 1008.16742 1027.89075
1143.0 0.000875 1008.80591 1033.12146
1031.0 0.000970 1009.44586 1039.52417
1065.0 0.000939 1010.08826 1047.33606
1098.0 0.000911 1010.73236 1056.81885
1100.0 0.000909 1011.37823 1068.25500
1107.0 0.000903 1012.02594 1081.93799
1095.0 0.000913 1012.67572 1098.16394
1057.0 0.000946 1013.32727 1117.21509
1164.0 0.000859 1013.98096 1139.34656
1205.0 0.000830 1014.63611 1164.76465
1193.0 0.000838 1015.29315 1193.60596
1219.0 0.000820 1015.95209 1225.91541
1299.0 0.000770 1016.61292 1261.62732
1247.0 0.000802 1017.27521 1300.54297
1316.0 0.000760 1017.93933 1342.31921
1380.0 0.000725 1018.60516 1386.45605
1390.0 0.000719 1019.27319 1432.29761
1376.0 0.000727 1019.94250 1479.03833
1446.0 0.000692 1020.61371 1525.73950
1529.0 0.000654 1021.28662 1571.35754
1496.0 0.000668 1021.96082 1614.77747
1562.0 0.000640 1022.63715 1654.86133
1579.0 0.000633 1023.31488 1690.49634
1537.0 0.000651 1023.99414 1720.64771
1617.0 0.000618 1024.67505 1744.41296
1602.0 0.000624 1025.35742 1761.06616
1729.0 0.000578 1026.04150 1770.09973
1627.0 0.000615 1026.72742 1771.24707
1642.0 0.000609 1027.41431 1764.49744
1664.0 0.000601 1028.10303 1750.09668
1659.0 0.000603 1028.79333 1728.52979
1590.0 0.000629 1029.48462 1700.49512
1581.0 0.000633 1030.17810 1666.86865
1501.0 0.000666 1030.87256 1628.65942
1484.0 0.000674 1031.56836 1586.95996
1469.0 0.000681 1032.26587 1542.89795
1423.0 0.000703 1032.96472 1515.37830
1422.0 0.000703 1033.66467 1470.36743
1372.0 0.000729 1034.36646 1426.14124
1278.0 0.000782 1035.06909 1383.53320
1283.0 0.000779 1035.77356 1343.23596
1225.0 0.000816 1036.47913 1305.78430
1241.0 0.000806 1037.18591 1271.55786
1207.0 0.000829 1037.89392 1240.78833
1182.0 0.000846 1038.60327 1213.57068
1252.0 0.000799 1039.31409 1189.88013
1077.0 0.000929 1040.02576 1169.59668
1128.0 0.000887 1040.73840 1152.52295
1158.0 0.000864 1041.45325 1138.40906
1133.0 0.000883 1042.16846 1126.97095
1157.0 0.000864 1042.88525 1117.90967
1147.0 0.000872 1043.60303 1110.92444
1137.0 0.000880 1044.32153 1105.72644
1109.0 0.000902 1045.04163 1102.04700
1132.0 0.000883 1045.76233 1099.64343
1067.0 0.000937 1046.48462 1098.30249
1133.0 0.000883 1047.20752 1097.84119
1075.0 0.000930 1047.93201 1098.10767
1175.0 0.000851 1048.65723 1098.97888
1099.0 0.000910 1049.38342 1100.35950
1135.0 0.000881 1050.11096 1102.17957
1157.0 0.000864 1050.83875 1104.39050
1170.0 0.000855 1051.56836 1106.96741
1152.0 0.000868 1052.29797 1109.90259
1168.0 0.000856 1053.02905 1113.20715
1166.0 0.000858 1053.76099 1116.91101
1158.0 0.000864 1054.49377 1121.06018
1206.0 0.000829 1055.22729 1125.71973
1197.0 0.000835 1055.96191 1130.97400
1196.0 0.000836 1056.69739 1136.92676
1242.0 0.000805 1057.43335 1143.70532
1243.0 0.000805 1058.17029 1151.45752
1283.0 0.000779 1058.90771 1160.35815
1279.0 0.000782 1059.64661 1170.60815
1335.0 0.000749 1060.38525 1182.43469
1307.0 0.000765 1061.12561 1196.09143
1394.0 0.000717 1061.86584 1211.85974
1375.0 0.000727 1062.60718 1230.04419
1390.0 0.000719 1063.34949 1250.97058
1413.0 0.000708 1064.09180 1274.98169
1438.0 0.000695 1064.83521 1303.22949
1501.0 0.000666 1065.57910 1334.83716
1523.0 0.000657 1066.32336 1370.73523
1594.0 0.000627 1067.06836 1411.30835
1722.0 0.000581 1067.81421 1456.92139
1669.0 0.000599 1068.56055 1507.91687
1742.0 0.000574 1069.30688 1564.59924
1894.0 0.000528 1070.05444 1627.22473
1826.0 0.000548 1070.80212 1695.99207
1960.0 0.000510 1071.55017 1771.03003
1997.0 0.000501 1072.29883 1852.39001
2036.0 0.000491 1073.04810 1940.03467
2161.0 0.000463 1073.79761 2033.82922
2273.0 0.000440 1074.54749 2133.53369
2309.0 0.000433 1075.29773 2238.79028
2442.0 0.000410 1076.04858 2349.11694
2462.0 0.000406 1076.79944 2463.89038
2464.0 0.000406 1077.55090 2582.33301
2664.0 0.000375 1078.30261 2703.50122
2684.0 0.000373 1079.05469 2826.27026
2773.0 0.000361 1079.80676 2949.33105
2948.0 0.0003392 1080.55945 3071.19604
2973.0 0.0003364 1081.31238 3190.22363
3084.0 0.0003243 1082.06555 3304.66650
3192.0 0.0003133 1082.81897 3412.73999
3267.0 0.0003061 1083.57227 3512.71118
3357.0 0.0002979 1084.32568 3602.98511
3393.0 0.0002947 1085.07983 3682.18457
3486.0 0.0002869 1085.83362 3749.19360
3563.0 0.0002807 1086.58789 3803.16650
3617.0 0.0002765 1087.34167 3843.50146
3586.0 0.0002789 1088.09631 3869.79492
3712.0 0.0002694 1088.85034 3881.78711
3686.0 0.0002713 1089.60498 3879.33032
3674.0 0.0002722 1090.35913 3862.36792
3696.0 0.0002706 1091.11389 3830.59937
3617.0 0.0002765 1091.86865 3784.88379
3565.0 0.0002805 1092.62280 3725.20117
3449.0 0.0002899 1093.37756 3652.08179
3472.0 0.0002880 1094.13196 3566.27954
3329.0 0.0003004 1094.88647 3468.79370
3279.0 0.0003050 1095.64063 3360.86694
3075.0 0.0003252 1096.39490 3243.96948
2987.0 0.0003348 1097.14880 3119.76367
2938.0 0.0003404 1097.90295 2990.05981
2776.0 0.000360 1098.65723 2859.15747
2642.0 0.000379 1099.41089 2725.21924
2507.0 0.000399 1100.16431 2591.90771
2499.0 0.000400 1100.91760 2461.15527
2425.0 0.000412 1101.67102 2334.78394
2306.0 0.000434 1102.42346 2214.45923
2149.0 0.000465 1103.17603 2101.67090
2169.0 0.000461 1103.92859 1997.71094
1990.0 0.000503 1104.68079 1903.67517
1942.0 0.000515 1105.43250 1820.46912
1986.0 0.000504 1106.18408 1748.82446
1854.0 0.000539 1106.93542 1689.32361
1775.0 0.000563 1107.68628 1642.42322
1723.0 0.000580 1108.43713 1608.48181
1742.0 0.000574 1109.18689 1587.78003
1715.0 0.000583 1109.93677 1580.53748
1781.0 0.000561 1110.68628 1586.92004
1785.0 0.000560 1111.43518 1607.03528
1738.0 0.000575 1112.18359 1640.92114
1667.0 0.000600 1112.93152 1688.51807
1719.0 0.000582 1113.67908 1749.64172
1811.0 0.000552 1114.42639 1823.93774
1726.0 0.000579 1115.17310 1910.84204
1807.0 0.000553 1115.91907 2009.53784
1929.0 0.000518 1116.66455 2118.91846
2008.0 0.000498 1117.40942 2237.55591
2141.0 0.000467 1118.15393 2363.68872
2298.0 0.000435 1118.89795 2495.22070
2405.0 0.000416 1119.64087 2629.74170
2637.0 0.000379 1120.38403 2764.56909
2828.0 0.000354 1121.12610 2896.80786
2975.0 0.0003361 1121.86731 3023.43286
3265.0 0.0003063 1122.60828 3141.38574
3403.0 0.0002939 1123.34827 3247.67871
3671.0 0.0002724 1124.08740 3339.51343
3780.0 0.0002646 1124.82617 3414.38940
4039.0 0.0002476 1125.56433 3470.21265
4230.0 0.0002364 1126.30151 3505.38281
4417.0 0.0002264 1127.03821 3518.86694
4417.0 0.0002264 1127.77368 3510.24463
4434.0 0.0002255 1128.50854 3479.72656
4290.0 0.0002331 1129.24268 3428.14038
4025.0 0.0002484 1129.97607 3356.89526
3882.0 0.0002576 1130.70862 3267.91333
3646.0 0.0002743 1131.44031 3163.54419
3371.0 0.0002966 1132.17114 3046.45605
3124.0 0.0003201 1132.90112 2919.52808
2945.0 0.0003396 1133.63000 2785.72900
2657.0 0.000376 1134.35852 2648.00391
2339.0 0.000428 1135.08569 2509.16846
2318.0 0.000431 1135.81213 2371.81958
1982.0 0.000505 1136.53735 2238.26343
1843.0 0.000543 1137.26233 2110.45923
1727.0 0.000579 1137.98547 1989.99182
1669.0 0.000599 1138.70801 1878.05701
1587.0 0.000630 1139.42932 1775.47083
1550.0 0.000645 1140.14990 1682.68970
1467.0 0.000682 1140.86938 1599.84912
1292.0 0.000774 1141.58801 1526.80383
1271.0 0.000787 1142.30566 1463.18115
1230.0 0.000813 1143.02222 1408.42810
1255.0 0.000797 1143.73694 1361.86462
1194.0 0.000838 1144.45117 1322.72852
1164.0 0.000859 1145.16443 1290.21680
1147.0 0.000872 1145.87634 1263.52148
1194.0 0.000838 1146.58716 1241.85840
1174.0 0.000852 1147.29626 1224.48535
1125.0 0.000889 1148.00500 1210.72180
1163.0 0.000860 1148.71252 1199.95410
1137.0 0.000880 1149.41833 1191.64111
1142.0 0.000876 1150.12366 1185.31458
1145.0 0.000873 1150.82739 1180.57629
1069.0 0.000935 1151.52966 1177.09241
1077.0 0.000929 1152.23096 1174.58813
1147.0 0.000872 1152.93127 1172.84082
1120.0 0.000893 1153.62988 1171.67163
1100.0 0.000909 1154.32727 1170.93896
1120.0 0.000893 1155.02356 1170.53357
1104.0 0.000906 1155.71851 1170.37012
1048.0 0.000954 1156.41187 1170.38550
1068.0 0.000936 1157.10449 1170.53052
1129.0 0.000886 1157.79480 1170.76965
1071.0 0.000934 1158.48450 1171.07690
1071.0 0.000934 1159.17236 1171.43298
1096.0 0.000912 1159.85950 1171.82422
1119.0 0.000894 1160.54541 1172.24170
1110.0 0.000901 1161.22888 1172.67737
1090.0 0.000917 1161.91174 1173.12744
1120.0 0.000893 1162.59253 1173.58801
1014.0 0.000986 1163.27234 1174.05664
1062.0 0.000942 1163.95044 1174.53235
1121.0 0.000892 1164.62732 1175.01331
1115.0 0.000897 1165.30286 1175.49939
1107.0 0.000903 1165.97717 1175.98926
1100.0 0.000909 1166.64905 1176.48315
1092.0 0.000916 1167.32007 1176.98035
1048.0 0.000954 1167.98962 1177.48071
1149.0 0.000870 1168.65698 1177.98401
1038.0 0.000963 1169.32349 1178.49023
1114.0 0.000898 1169.98816 1178.99878
1112.0 0.000899 1170.65125 1179.50989
1053.0 0.000950 1171.31299 1180.02295
1075.0 0.000930 1171.97302 1180.53809
1077.0 0.000929 1172.63159 1181.05591
1131.0 0.000884 1173.28821 1181.57495
1072.0 0.000933 1173.94336 1182.09607
1088.0 0.000919 1174.59692 1182.61853
1129.0 0.000886 1175.24878 1183.14221
1084.0 0.000923 1175.89917 1183.66772
1139.0 0.000878 1176.54773 1184.19421
1062.0 0.000942 1177.19470 1184.72205
1084.0 0.000923 1177.83997 1185.25098
1121.0 0.000892 1178.48364 1185.78052
1115.0 0.000897 1179.12549 1186.31116
1076.0 0.000929 1179.76538 1186.84302
1067.0 0.000937 1180.40430 1187.37500
1071.0 0.000934 1181.04102 1187.90771
1102.0 0.000907 1181.67554 1188.44128
1133.0 0.000883 1182.30884 1188.97522
1103.0 0.000907 1182.93994 1189.50952
1132.0 0.000883 1183.56982 1190.04407
1090.0 0.000917 1184.19824 1190.57898
1136.0 0.000880 1184.82385 1191.11414
1129.0 0.000886 1185.44861 1191.64917
1107.0 0.000903 1186.07080 1192.18445
1127.0 0.000887 1186.69177 1192.71973
1146.0 0.000873 1187.31055 1193.25513
1137.0 0.000880 1187.92761 1193.79041
1125.0 0.000889 1188.54272 1194.32495
1140.0 0.000877 1189.15613 1194.86011
1137.0 0.000880 1189.76758 1195.39417
1134.0 0.000882 1190.37708 1195.92834
1121.0 0.000892 1190.98499 1196.46191
1127.0 0.000887 1191.59070 1196.99548
1116.0 0.000896 1192.19458 1197.52832
1102.0 0.000907 1192.79712 1198.06055
1188.0 0.000842 1193.39746 1198.59229
1096.0 0.000912 1193.99548 1199.12366
1224.0 0.000817 1194.59167 1199.65454
1153.0 0.000867 1195.18591 1200.18420
1136.0 0.000880 1195.77808 1200.71313
1105.0 0.000905 1196.36890 1201.24207
1129.0 0.000886 1196.95728 1201.76904
1136.0 0.000880 1197.54382 1202.29602
1151.0 0.000869 1198.12854 1202.82202
1200.0 0.000833 1198.71118 1203.34692
1179.0 0.000848 1199.29187 1203.87097
1156.0 0.000865 1199.87024 1204.39404
1173.0 0.000853 1200.44702 1204.91565
1152.0 0.000868 1201.02161 1205.43701
1186.0 0.000843 1201.59387 1205.95703
1194.0 0.000838 1202.16467 1206.47607
1130.0 0.000885 1202.73340 1206.99365
1191.0 0.000840 1203.29944 1207.51025
1193.0 0.000838 1203.86438 1208.02576
1227.0 0.000815 1204.42664 1208.54016
1214.0 0.000824 1204.98694 1209.05261
1187.0 0.000842 1205.54517 1205.55151
1176.0 0.000850 1206.10144 1206.10754
1224.0 0.000817 1206.65540 1206.66174
1212.0 0.000825 1207.20740 1207.21362
1174.0 0.000852 1207.75732 1207.76318
1209.0 0.000827 1208.30469 1208.31116
1167.0 0.000857 1208.85083 1208.85681
1212.0 0.000825 1209.39441 1209.39990
1208.0 0.000828 1209.93591 1209.94165
1286.0 0.000778 1210.47485 1210.48083
1248.0 0.000801 1211.01233 1211.01819
1249.0 0.000801 1211.54724 1211.55298
1292.0 0.000774 1212.08020 1212.08582
1245.0 0.000803 1212.61121 1212.61658
1251.0 0.000799 1213.13965 1213.14514
1356.0 0.000737 1213.66614 1213.67151
1315.0 0.000760 1214.19043 1214.19580
1316.0 0.000760 1214.71265 1214.71802
1313.0 0.000762 1215.23254 1215.23767
1295.0 0.000772 1215.75049 1215.75513
1319.0 0.000758 1216.26587 1216.27087
1318.0 0.000759 1216.77954 1216.78442
1306.0 0.000766 1217.29053 1217.29541
1364.0 0.000733 1217.79968 1217.80432
1305.0 0.000766 1218.30652 1218.31116
1343.0 0.000745 1218.81104 1218.81567
1294.0 0.000773 1219.31335 1219.31787
1346.0 0.000743 1219.81360 1219.81787
1284.0 0.000779 1220.31140 1220.31580
1388.0 0.000720 1220.80737 1220.81152
1343.0 0.000745 1221.30078 1221.30505
1401.0 0.000714 1221.79248 1221.79614
1421.0 0.000704 1222.28125 1222.28503
1294.0 0.000773 1222.76770 1222.77173
1342.0 0.000745 1223.25232 1223.25635
1264.0 0.000791 1223.73486 1223.73853
1333.0 0.000750 1224.21460 1224.21826
1286.0 0.000778 1224.69226 1224.69580
1373.0 0.000728 1225.16785 1225.17151
1383.0 0.000723 1225.64099 1225.64453
1350.0 0.000741 1226.11194 1226.11523
1350.0 0.000741 1226.58069 1226.58398
1359.0 0.000736 1227.04724 1227.05029
1402.0 0.000713 1227.51099 1227.51453
1346.0 0.000743 1227.97314 1227.97632
1277.0 0.000783 1228.43286 1228.43555
1363.0 0.000734 1228.89014 1228.89282
1302.0 0.000768 1229.34509 1229.34778
1337.0 0.000748 1229.79761 1229.80042
1270.0 0.000787 1230.24792 1230.25085
1267.0 0.000789 1230.69580 1230.69885
1319.0 0.000758 1231.14209 1231.14417
1331.0 0.000751 1231.58521 1231.58801
1285.0 0.000778 1232.02649 1232.02881
1207.0 0.000829 1232.46558 1232.46777
1337.0 0.000748 1232.90173 1232.90405
1330.0 0.000752 1233.33594 1250.50806
1280.0 0.000781 1233.76807 1251.41248
1219.0 0.000820 1234.19739 1252.33398
1220.0 0.000820 1234.62488 1253.27368
1235.0 0.000810 1235.04956 1254.23328
1248.0 0.000801 1235.47229 1255.21350
1265.0 0.000791 1235.89294 1256.21594
1184.0 0.000845 1236.31042 1257.24304
1239.0 0.000807 1236.72644 1258.29541
1263.0 0.000792 1237.13965 1259.37573
1250.0 0.000800 1237.55042 1260.48706
1206.0 0.000829 1237.95886 1261.63123
1266.0 0.000790 1238.36523 1262.81177
1210.0 0.000826 1238.76917 1264.03235
1277.0 0.000783 1239.17078 1265.29822
1277.0 0.000783 1239.56995 1266.61377
1243.0 0.000805 1239.96680 1267.98669
1263.0 0.000792 1240.36145 1269.42505
1291.0 0.000775 1240.75366 1270.93774
1213.0 0.000824 1241.14355 1272.53845
1246.0 0.000803 1241.53101 1274.24060
1256.0 0.000796 1241.91626 1276.06323
1288.0 0.000776 1242.29895 1278.02759
1280.0 0.000781 1242.67932 1280.16150
1227.0 0.000815 1243.05713 1282.49731
1277.0 0.000783 1243.43311 1285.07446
1245.0 0.000803 1243.80640 1287.94067
1243.0 0.000805 1244.17749 1291.15234
1244.0 0.000804 1244.54639 1294.77673
1286.0 0.000778 1244.91248 1298.89343
1308.0 0.000765 1245.27673 1303.59473
1277.0 0.000783 1245.63855 1308.98840
1292.0 0.000774 1245.99731 1315.19861
1364.0 0.000733 1246.35425 1322.36560
1350.0 0.000741 1246.70898 1330.65051
1389.0 0.000720 1247.06104 1340.23035
1428.0 0.000700 1247.41101 1351.30371
1470.0 0.000680 1247.75854 1364.08667
1410.0 0.000709 1248.10388 1378.81335
1440.0 0.000694 1248.44641 1395.73315
1458.0 0.000686 1248.78687 1415.10999
1508.0 0.000663 1249.12463 1437.21484
1532.0 0.000653 1249.46082 1462.32397
1576.0 0.000635 1249.79382 1490.71387
1596.0 0.000627 1250.12500 1522.65027
1621.0 0.000617 1250.45374 1558.38379
1686.0 0.000593 1250.77991 1598.14075
1693.0 0.000591 1251.10388 1642.11243
1692.0 0.000591 1251.42542 1690.44556
1799.0 0.000556 1251.74500 1743.23340
1777.0 0.000563 1252.06189 1800.50378
1850.0 0.000541 1252.37671 1862.21069
1878.0 0.000532 1252.68872 1928.22412
1938.0 0.000516 1252.99866 1998.32349
2027.0 0.000493 1253.30615 2072.19043
2068.0 0.000484 1253.61133 2149.40308
2175.0 0.000460 1253.91455 2229.43359
2241.0 0.000446 1254.21497 2311.64648
2326.0 0.000430 1254.51355 2395.29834
2299.0 0.000435 1254.80908 2479.54077
2428.0 0.000412 1255.10254 2563.42383
2442.0 0.000410 1255.39417 2645.90503
2615.0 0.000382 1255.68262 2725.85669
2664.0 0.000375 1255.96948 2802.08105
2751.0 0.000364 1256.25366 2873.32861
2773.0 0.000361 1256.53552 2938.32617
2932.0 0.0003411 1256.81519 2995.81323
2912.0 0.0003434 1257.09253 3044.58301
2921.0 0.0003423 1257.36755 3083.53979
2918.0 0.0003427 1257.64026 3111.75562
2942.0 0.0003399 1257.91052 3128.52710
2968.0 0.0003369 1258.17871 3133.42725
2996.0 0.0003338 1258.44446 3126.33301
3004.0 0.0003329 1258.70728 3107.43896
3033.0 0.0003297 1258.96887 3077.23853
2914.0 0.0003432 1259.22766 3036.49048
2871.0 0.0003483 1259.48438 2986.16699
2811.0 0.000356 1259.73853 2927.39282
2795.0 0.000358 1259.99072 2861.39258
2803.0 0.000357 1260.24011 2789.43359
2699.0 0.000371 1260.48743 2712.78564
2595.0 0.000385 1260.73267 2632.68872
2521.0 0.000397 1260.97546 2550.32593
2389.0 0.000419 1261.21594 2466.80664
2400.0 0.000417 1261.45447 2383.15381
2346.0 0.000426 1261.69043 2300.29346
2299.0 0.000435 1261.92395 2219.05103
2142.0 0.000467 1262.15564 2140.14575
2108.0 0.000474 1262.38489 2064.18774
2094.0 0.000478 1262.61182 1991.68103
1864.0 0.000536 1262.83618 1923.02332
1875.0 0.000533 1263.05908 1858.51062
1925.0 0.000519 1263.27893 1798.34204
1820.0 0.000549 1263.49695 1742.62756
1754.0 0.000570 1263.71265 1691.39539
1744.0 0.000573 1263.92603 1644.60193
1675.0 0.000597 1264.13733 1602.14136
1670.0 0.000599 1264.34644 1563.85547
1538.0 0.000650 1264.55310 1529.54431
1592.0 0.000628 1264.75769 1498.97485
1498.0 0.000668 1264.95996 1471.89294
1541.0 0.000649 1265.16052 1448.02881
1473.0 0.000679 1265.35803 1427.10657
1466.0 0.000682 1265.55396 1408.85034
1452.0 0.000689 1265.74731 1392.98901
1391.0 0.000719 1265.93884 1379.26404
1315.0 0.000760 1266.12769 1367.42773
1384.0 0.000723 1266.31494 1357.25024
1412.0 0.000708 1266.49963 1348.51965
1291.0 0.000775 1266.68225 1341.07556
1336.0 0.000749 1266.86230 1334.68713
1304.0 0.000767 1267.04028 1329.22559
1246.0 0.000803 1267.21692 1324.55383
1338.0 0.000747 1267.39063 1320.55286
1272.0 0.000786 1267.56226 1317.11926
1343.0 0.000745 1267.73206 1314.16443
1303.0 0.000767 1267.89966 1311.61206
1311.0 0.000763 1268.06482 1309.40002
1198.0 0.000835 1268.22766 1307.47375
1236.0 0.000809 1268.38867 1305.78955
1182.0 0.000846 1268.54724 1304.31055
1224.0 0.000817 1268.70422 1303.00684
1223.0 0.000818 1268.85876 1301.85352
1223.0 0.000818 1269.01147 1300.83093
1190.0 0.000840 1269.16162 1299.92236
1218.0 0.000821 1269.31018 1299.11548
1239.0 0.000807 1269.45605 1298.39758
1196.0 0.000836 1269.59998 1297.76086
1162.0 0.000861 1269.74219 1297.19739
1201.0 0.000833 1269.88196 1296.69995
1175.0 0.000851 1270.01965 1296.26233
1241.0 0.000806 1270.15527 1295.87988
1243.0 0.000805 1270.28894 1295.54553
1217.0 0.000822 1270.42053 1295.25452
1195.0 0.000837 1270.55029 1295.00098
1208.0 0.000828 1270.67773 1294.77966
1159.0 0.000863 1270.80347 1294.58447
1207.0 0.000829 1270.92627 1294.40930
1238.0 0.000808 1271.04761 1294.24866
1195.0 0.000837 1271.16711 1294.09644
1237.0 0.000808 1271.28418 1293.94617
1202.0 0.000832 1271.39941 1293.79285
1152.0 0.000868 1271.51257 1276.56555
1213.0 0.000824 1271.62366 1276.84021
1220.0 0.000820 1271.73279 1277.07983
1181.0 0.000847 1271.84009 1277.28210
1235.0 0.000810 1271.94543 1277.44495
1211.0 0.000826 1272.04871 1277.56653
1249.0 0.000801 1272.14990 1277.64685
1169.0 0.000855 1272.24890 1277.68701
1255.0 0.000797 1272.34619 1291.99585
1272.0 0.000786 1272.44153 1292.20764
1251.0 0.000799 1272.53467 1292.39099
1310.0 0.000763 1272.62622 1292.55005
1207.0 0.000829 1272.71570 1292.68799
1182.0 0.000846 1272.80286 1292.81042
1196.0 0.000836 1272.88843 1292.92090
1221.0 0.000819 1272.97192 1293.02527
1158.0 0.000864 1273.05383 1293.12744
1165.0 0.000858 1273.13379 1293.23230
1152.0 0.000868 1273.21179 1293.34460
1187.0 0.000842 1273.28735 1293.46851
1206.0 0.000829 1273.36157 1293.60754
1217.0 0.000822 1273.43372 1293.76453
1266.0 0.000790 1273.50378 1293.94324
1254.0 0.000797 1273.57190 1294.14441
1223.0 0.000818 1273.63855 1294.37085
1259.0 0.000794 1273.70337 1294.62402
1261.0 0.000793 1273.76599 1294.90405
1213.0 0.000824 1273.82654 1295.21191
1198.0 0.000835 1273.88586 1295.54761
1232.0 0.000812 1273.94275 1295.91077
1196.0 0.000836 1273.99817 1296.30151
1203.0 0.000831 1274.05164 1296.71960
1246.0 0.000803 1274.10339 1297.16357
1216.0 0.000822 1274.15308 1297.63391
1179.0 0.000848 1274.20142 1298.12939
1261.0 0.000793 1274.24744 1298.64990
1207.0 0.000829 1274.29224 1299.19458
1267.0 0.000789 1274.33435 1299.76331
1223.0 0.000818 1274.37537 1300.35632
1312.0 0.000762 1274.41431 1300.97266
1225.0 0.000816 1274.45166 1301.61267
1236.0 0.000809 1274.48706 1302.27661
1296.0 0.000772 1274.52112 1302.96533
1342.0 0.000745 1274.55286 1303.64673
1290.0 0.000775 1274.58313 1304.39368
1319.0 0.000758 1274.61133 1305.16577
1232.0 0.000812 1274.63843 1305.96362
1267.0 0.000789 1274.66333 1306.78967
1343.0 0.000745 1274.68665 1307.64502
1344.0 0.000744 1274.70850 1308.53113
1401.0 0.000714 1274.72815 1309.45044
1455.0 0.000687 1274.74658 1310.40527
1520.0 0.000658 1274.76294 1311.39697
1506.0 0.000664 1274.77759 1312.42969
1495.0 0.000669 1274.79089 1313.50537
1519.0 0.000658 1274.80237 1314.62769
1565.0 0.000639 1274.81177 1315.80115
1594.0 0.000627 1274.82019 1317.02930
1651.0 0.000606 1274.82678 1318.31750
1737.0 0.000576 1274.83142 1319.67188
1777.0 0.000563 1274.83459 1321.10010
1848.0 0.000541 1274.83606 1322.60913
1831.0 0.000546 1274.83582 1324.20850
1816.0 0.000551 1274.83411 1325.91052
1828.0 0.000547 1274.83093 1327.72766
1899.0 0.000527 1274.82605 1329.67493
1844.0 0.000542 1274.81970 1331.77063
1764.0 0.000567 1274.81128 1334.03589
1755.0 0.000570 1274.80139 1336.49451
1720.0 0.000581 1274.79041 1339.17590
1732.0 0.000577 1274.77747 1342.11292
1690.0 0.000592 1274.76282 1345.34399
1663.0 0.000601 1274.74719 1348.91309
1625.0 0.000615 1274.72961 1352.87012
1590.0 0.000629 1274.71021 1357.27393
1600.0 0.000625 1274.68982 1362.18921
1570.0 0.000637 1274.66760 1367.68958
1511.0 0.000662 1274.64392 1373.85767
1613.0 0.000620 1274.61890 1380.78613
1601.0 0.000625 1274.59216 1388.57605
1632.0 0.000613 1274.56409 1397.34033
1672.0 0.000598 1274.53418 1407.20068
1736.0 0.000576 1274.50305 1418.28894
1703.0 0.000587 1274.47046 1430.74719
1655.0 0.000604 1274.43640 1444.72571
1705.0 0.000587 1274.40051 1460.38367
1762.0 0.000568 1274.36365 1477.88599
1839.0 0.000544 1274.32507 1497.40295
1777.0 0.000563 1274.28491 1519.10730
1876.0 0.000533 1274.24365 1543.17188
1867.0 0.000536 1274.20093 1569.76794
1943.0 0.000515 1274.15710 1599.05957
1896.0 0.000527 1274.11108 1631.20154
1993.0 0.000502 1274.06409 1666.33496
1941.0 0.000515 1274.01550 1704.58313
2074.0 0.000482 1273.96582 1746.04712
2002.0 0.000500 1273.91467 1790.80090
2156.0 0.000464 1273.86169 1838.88818
2153.0 0.000464 1273.80786 1890.31482
2212.0 0.000452 1273.75244 1945.04785
2198.0 0.000455 1273.69580 2003.00940
2228.0 0.000449 1273.63794 2064.07275
2305.0 0.000434 1273.57825 2128.06055
2335.0 0.000428 1273.51758 2194.73926
2302.0 0.000434 1273.45544 2263.81812
2352.0 0.000425 1273.39197 2345.88525
2384.0 0.000419 1273.32739 2418.94873
2506.0 0.000399 1273.26160 2493.18311
2534.0 0.000395 1273.19373 2568.04639
2536.0 0.000394 1273.12549 2642.93335
2633.0 0.000380 1273.05542 2717.16968
2725.0 0.000367 1272.98401 2790.02026
2650.0 0.000377 1272.91211 2860.68823
2747.0 0.000364 1272.83789 2928.32349
2833.0 0.000353 1272.76270 2992.03271
2754.0 0.000363 1272.68677 3050.89526
2775.0 0.000360 1272.60913 3103.98364
2841.0 0.000352 1272.53076 3150.39404
2856.0 0.0003501 1272.45081 3189.27661
2986.0 0.0003349 1272.36951 3219.87939
2909.0 0.0003438 1272.28687 3241.58154
3025.0 0.0003306 1272.20313 3253.93237
3016.0 0.0003316 1272.11853 3256.68140
3015.0 0.0003317 1272.03296 3249.79443
3061.0 0.0003267 1271.94556 3233.45630
3044.0 0.0003285 1271.85706 3208.06128
3029.0 0.0003301 1271.76746 3174.19019
3064.0 0.0003264 1271.67700 3132.57617
3058.0 0.0003270 1271.58496 3084.06738
3033.0 0.0003297 1271.49194 3029.58911
3042.0 0.0003287 1271.39783 2970.11011
2943.0 0.0003398 1271.30273 2906.61035
2936.0 0.0003406 1271.20593 2840.05908
3019.0 0.0003312 1271.10840 2771.39673
2953.0 0.0003386 1271.00977 2701.52515
2858.0 0.0003499 1270.90991 2631.29834
2781.0 0.000360 1270.80920 2561.52100
2749.0 0.000364 1270.70728 2492.94336
2754.0 0.000363 1270.60413 2426.26318
2662.0 0.000376 1270.50000 2362.12671
2605.0 0.000384 1270.39441 2301.12720
2611.0 0.000383 1270.28833 2243.80688
2479.0 0.000403 1270.18103 2190.65796
2448.0 0.000408 1270.07263 2142.12280
2348.0 0.000426 1269.96326 2098.59375
2216.0 0.000451 1269.85229 2060.41382
2223.0 0.000450 1269.74109 2027.87537
2204.0 0.000454 1269.62866 2001.22144
2167.0 0.000461 1269.51501 1980.64343
2138.0 0.000468 1269.40039 1966.28027
2094.0 0.000478 1269.28455 1958.21729
2011.0 0.000497 1269.16833 1956.48413
2035.0 0.000491 1269.05042 1961.05347
2032.0 0.000492 1268.93201 1971.83813
2055.0 0.000487 1268.81238 1988.68945
1967.0 0.000508 1268.69165 2011.39453
2112.0 0.000473 1268.57031 2039.67749
2110.0 0.000474 1268.44812 2073.19287
2069.0 0.000483 1268.32446 2111.53052
2184.0 0.000458 1268.20007 2154.21216
2228.0 0.000449 1268.07507 2200.69263
2274.0 0.000440 1267.94849 2250.36426
2289.0 0.000437 1267.82141 2302.55591
2341.0 0.000427 1267.69348 2356.53979
2421.0 0.000413 1267.56445 2411.53589
2417.0 0.000414 1267.43433 2466.71729
2508.0 0.000399 1267.30347 2521.21899
2483.0 0.000403 1267.17188 2574.14746
2545.0 0.000393 1267.03943 2626.04980
2474.0 0.000404 1266.90601 2673.11743
2715.0 0.000368 1266.77148 2715.88306
2752.0 0.000363 1266.63660 2753.47949
2711.0 0.000369 1266.50049 2785.09814
2750.0 0.000364 1266.36316 2810.01587
2793.0 0.000358 1266.22583 2827.62378
2725.0 0.000367 1266.08740 2837.45483
2688.0 0.000372 1265.94763 2839.20410
2630.0 0.000380 1265.80774 2832.74780
2665.0 0.000375 1265.66650 2818.14453
2646.0 0.000378 1265.52454 2795.63257
2596.0 0.000385 1265.38184 2765.61182
2488.0 0.000402 1265.23840 2728.62158
2550.0 0.000392 1265.09387 2685.31250
2496.0 0.000401 1264.94873 2636.41797
2498.0 0.000400 1264.80334 2582.72461
2416.0 0.000414 1264.65674 2525.04663
2286.0 0.000437 1264.50891 2464.20630
2370.0 0.000422 1264.36084 2401.01343
2312.0 0.000433 1264.21179 2336.25195
2114.0 0.000473 1264.06226 2270.66895
2123.0 0.000471 1263.91199 2204.96240
2094.0 0.000478 1263.76062 2139.77588
2008.0 0.000498 1263.60864 2075.69214
1968.0 0.000508 1263.45618 2013.22791
1943.0 0.000515 1263.30261 1952.83130
1875.0 0.000533 1263.14844 1894.88025
1895.0 0.000528 1262.99390 1839.68372
1841.0 0.000543 1262.83789 1787.48108
1778.0 0.000562 1262.68225 1738.44482
1727.0 0.000579 1262.52515 1692.68628
1694.0 0.000590 1262.36743 1650.25818
1608.0 0.000622 1262.20911 1611.16113
1629.0 0.000614 1262.05042 1575.34937
1625.0 0.000615 1261.89111 1542.73657
1527.0 0.000655 1261.73059 1513.20300
1530.0 0.000654 1261.56982 1486.60352
1544.0 0.000648 1261.40796 1462.77051
1469.0 0.000681 1261.24573 1441.52209
1422.0 0.000703 1261.08301 1422.66846
1422.0 0.000703 1260.91943 1406.01294
1366.0 0.000732 1260.75549 1391.36060
1377.0 0.000726 1260.59082 1378.51929
1418.0 0.000705 1260.42554 1373.94604
1343.0 0.000745 1260.25928 1364.27576
1354.0 0.000739 1260.09277 1355.89050
1380.0 0.000725 1259.92542 1348.63721
1339.0 0.000747 1259.75793 1342.37476
1333.0 0.000750 1259.58960 1336.97498
1285.0 0.000778 1259.42053 1332.32129
1310.0 0.000763 1259.25085 1328.31311
1333.0 0.000750 1259.08105 1324.85840
1389.0 0.000720 1258.91040 1321.87842
1252.0 0.000799 1258.73901 1319.30432
1282.0 0.000780 1258.56750 1317.07800
1263.0 0.000792 1258.39502 1315.14905
1284.0 0.000779 1258.22229 1313.47571
1287.0 0.000777 1258.04883 1312.02209
1255.0 0.000797 1257.87463 1310.76062
1229.0 0.000814 1257.70056 1309.66650
1273.0 0.000786 1257.52515 1308.72253
1267.0 0.000789 1257.34998 1307.91357
1249.0 0.000801 1257.17407 1307.22974
1275.0 0.000784 1256.99719 1306.66248
1299.0 0.000770 1256.82043 1306.20740
1238.0 0.000808 1256.64270 1305.86169
1206.0 0.000829 1256.46484 1291.21130
1242.0 0.000805 1256.28638 1291.33130
1207.0 0.000829 1256.10706 1291.55774
1239.0 0.000807 1255.92786 1293.51941
1282.0 0.000780 1255.74792 1293.99487
1240.0 0.000806 1255.56714 1294.59485
1211.0 0.000826 1255.38635 1295.32703
1227.0 0.000815 1255.20508 1296.19922
1190.0 0.000840 1255.02344 1297.22144
1185.0 0.000844 1254.84143 1298.40198
1241.0 0.000806 1254.65845 1299.75085
1235.0 0.000810 1254.47559 1301.27832
1171.0 0.000854 1254.29163 1292.03882
1223.0 0.000818 1254.10791 1294.23962
1191.0 0.000840 1253.92310 1298.22437
1225.0 0.000816 1253.73840 1300.85217
1210.0 0.000826 1253.55310 1303.69250
1259.0 0.000794 1253.36755 1306.75256
1267.0 0.000789 1253.18127 1310.03760
1256.0 0.000796 1252.99487 1313.55176
1227.0 0.000815 1252.80798 1317.29663
1259.0 0.000794 1252.62061 1321.27209
1194.0 0.000838 1252.43298 1325.47693
1229.0 0.000814 1252.24487 1329.90369
1213.0 0.000824 1252.05652 1334.54651
1262.0 0.000792 1251.86768 1339.39429
1227.0 0.000815 1251.67859 1344.43359
1259.0 0.000794 1251.48901 1349.64648
1280.0 0.000781 1251.29895 1355.01355
1219.0 0.000820 1251.10864 1360.51050
1250.0 0.000800 1250.91785 1366.10986
1323.0 0.000756 1250.72705 1371.78064
1294.0 0.000773 1250.53552 1377.48706
1309.0 0.000764 1250.34387 1383.19031
1357.0 0.000737 1250.15198 1388.84778
1346.0 0.000743 1249.95972 1394.41235
1355.0 0.000738 1249.76685 1399.83435
1358.0 0.000736 1249.57397 1405.05969
1424.0 0.000702 1249.38037 1410.03296
1420.0 0.000704 1249.18665 1414.69568
1450.0 0.000690 1248.99304 1418.99121
1449.0 0.000690 1248.79846 1422.86108
1447.0 0.000691 1248.60376 1426.25305
1498.0 0.000668 1248.40881 1429.11914
1466.0 0.000682 1248.21399 1431.41748
1534.0 0.000652 1248.01807 1433.11804
1538.0 0.000650 1247.82251 1434.20166
1484.0 0.000674 1247.62646 1434.66187
1475.0 0.000678 1247.43005 1434.50635
1469.0 0.000681 1247.23376 1433.75513
1502.0 0.000666 1247.03674 1432.44019
1476.0 0.000678 1246.83960 1430.60791
1420.0 0.000704 1246.64172 1428.30945
1423.0 0.000703 1246.44409 1425.60547
1440.0 0.000694 1246.24609 1422.56104
1464.0 0.000683 1246.04797 1419.24377
1452.0 0.000689 1245.84961 1415.72388
1453.0 0.000688 1245.65051 1412.07056
1435.0 0.000697 1245.45166 1408.35242
1423.0 0.000703 1245.25208 1404.63733
1406.0 0.000711 1245.05249 1400.99158
1493.0 0.000670 1244.85303 1397.47949
1486.0 0.000673 1244.65283 1394.16443
1496.0 0.000668 1244.45251 1391.10693
1465.0 0.000683 1244.25208 1388.36768
1498.0 0.000668 1244.05164 1386.00635
1447.0 0.000691 1243.85046 1384.08093
1457.0 0.000686 1243.64929 1382.64917
1470.0 0.000680 1243.44788 1381.77002
1437.0 0.000696 1243.24658 1381.50061
1453.0 0.000688 1243.04492 1381.89880
1451.0 0.000689 1242.84241 1383.02356
1383.0 0.000723 1242.64038 1384.93298
1437.0 0.000696 1242.43750 1387.68677
1423.0 0.000703 1242.23499 1391.34448
1379.0 0.000725 1242.03235 1395.96509
1386.0 0.000722 1241.82947 1401.60962
1441.0 0.000694 1241.62622 1408.33740
1371.0 0.000729 1241.42273 1416.20776
1428.0 0.000700 1241.21924 1425.27869
1398.0 0.000715 1241.01526 1435.60791
1416.0 0.000706 1240.81128 1447.24878
1401.0 0.000714 1240.60718 1460.25427
1395.0 0.000717 1240.40271 1474.67126
1430.0 0.000699 1240.19824 1490.54248
1468.0 0.000681 1239.99365 1507.90515
1497.0 0.000668 1239.78882 1526.78979
1506.0 0.000664 1239.58362 1547.21826
1499.0 0.000667 1239.37793 1569.20276
1487.0 0.000672 1239.17297 1592.74609
1471.0 0.000680 1238.96753 1617.83850
1554.0 0.000644 1238.76172 1644.45740
1566.0 0.000639 1238.55566 1672.56580
1658.0 0.000603 1238.34961 1702.11194
1715.0 0.000583 1238.14368 1733.02661
1678.0 0.000596 1237.93750 1765.22412
1702.0 0.000588 1237.73083 1798.59851
1720.0 0.000581 1237.52417 1833.02502
1761.0 0.000568 1237.31738 1868.35706
1743.0 0.000574 1237.11047 1904.42615
1877.0 0.000533 1236.90344 1941.04163
1836.0 0.000545 1236.69629 1977.98743
1891.0 0.000529 1236.48901 2015.02429
1855.0 0.000539 1236.28149 2051.88843
1927.0 0.000519 1236.07373 2088.29150
1944.0 0.000514 1235.86584 2123.92188
1967.0 0.000508 1235.65820 2158.44897
1993.0 0.000502 1235.45032 2191.52441
2077.0 0.000481 1235.24207 2222.78931
2114.0 0.000473 1235.03381 2251.88257
2238.0 0.000447 1234.82544 2278.44604
2249.0 0.000445 1234.61682 2302.14160
2212.0 0.000452 1234.40808 2323.55762
2229.0 0.000449 1234.19958 2340.64209
2255.0 0.000443 1233.99048 2354.05835
2244.0 0.000446 1233.78149 2363.64673
2350.0 0.000426 1233.57251 2369.31421
2430.0 0.000412 1233.36340 2371.03613
2400.0 0.000417 1233.15405 2368.85400
2301.0 0.000435 1232.94470 2362.87183
2398.0 0.000417 1232.73523 2353.44507
2506.0 0.000399 1232.52563 2340.37500
2412.0 0.000415 1232.31555 2324.09302
2307.0 0.000433 1232.10571 2304.85449
2350.0 0.000426 1231.89587 2282.93066
2372.0 0.000422 1231.68591 2258.60400
2334.0 0.000428 1231.47559 2232.15820
2341.0 0.000427 1231.26514 2203.88208
2223.0 0.000450 1231.05457 2174.05981
2186.0 0.000457 1230.84436 2142.97534
2213.0 0.000452 1230.63391 2110.90771
2201.0 0.000454 1230.42310 2078.13086
2107.0 0.000475 1230.21252 2044.91138
2124.0 0.000471 1230.00159 2011.50537
2084.0 0.000480 1229.79053 1978.15710
1893.0 0.000528 1229.57959 1945.09631
1879.0 0.000532 1229.36829 1912.53528
1870.0 0.000535 1229.15747 1880.66919
1810.0 0.000552 1228.94604 1849.67273
1718.0 0.000582 1228.73450 1819.69910
1770.0 0.000565 1228.52271 1790.88135
1703.0 0.000587 1228.31116 1763.33167
1660.0 0.000602 1228.09973 1737.14087
1615.0 0.000619 1227.88794 1712.38037
1643.0 0.000609 1227.67590 1689.10168
1549.0 0.000646 1227.46399 1667.33862
1555.0 0.000643 1227.25195 1647.10779
1583.0 0.000632 1227.03955 1628.40881
1514.0 0.000661 1226.82764 1611.22803
1503.0 0.000665 1226.61536 1595.53699
1476.0 0.000678 1226.40295 1581.29504
1546.0 0.000647 1226.19031 1568.45056
1440.0 0.000694 1225.97791 1556.94202
1508.0 0.000663 1225.76526 1546.69751
1486.0 0.000673 1225.55261 1537.63965
1467.0 0.000682 1225.33984 1529.68286
1443.0 0.000693 1225.12671 1522.73584
1492.0 0.000670 1224.91382 1516.70422
1429.0 0.000700 1224.70093 1511.48999
1451.0 0.000689 1224.48743 1505.52161
1372.0 0.000729 1224.27441 1501.66479
1388.0 0.000720 1224.06116 1498.32434
1389.0 0.000720 1223.84753 1495.40332
1407.0 0.000711 1223.63416 1492.80969
1444.0 0.000693 1223.42090 1490.45654
1425.0 0.000702 1223.20715 1488.26575
1397.0 0.000716 1222.99353 1486.16809
1404.0 0.000712 1222.77942 1484.10571
1351.0 0.000740 1222.56580 1482.03137
1408.0 0.000710 1222.35168 1479.91199
1474.0 0.000678 1222.13757 1477.72534
1420.0 0.000704 1221.92334 1475.46362
1389.0 0.000720 1221.70911 1473.12744
1443.0 0.000693 1221.49463 1470.72998
1439.0 0.000695 1221.28076 1468.29065
1376.0 0.000727 1221.06616 1465.83667
1390.0 0.000719 1220.85168 1463.39905
1388.0 0.000720 1220.63708 1461.01074
1472.0 0.000679 1220.42261 1458.70593
1377.0 0.000726 1220.20728 1456.51794
1413.0 0.000708 1219.99292 1454.47510
1462.0 0.000684 1219.77759 1452.60486
1414.0 0.000707 1219.56238 1450.92676
1464.0 0.000683 1219.34717 1449.72510
1440.0 0.000694 1219.13196 1448.55542
1519.0 0.000658 1218.91687 1447.62878
1446.0 0.000692 1218.70142 1446.94739
1415.0 0.000707 1218.48584 1450.81287
1422.0 0.000703 1218.26990 1450.66577
1480.0 0.000676 1218.05469 1450.73804
1482.0 0.000675 1217.83850 1451.01099
1467.0 0.000682 1217.62280 1451.46277
1459.0 0.000685 1217.40674 1452.06702
1472.0 0.000679 1217.19067 1452.79749
1515.0 0.000660 1216.97449 1453.62329
1502.0 0.000666 1216.75830 1454.51416
1515.0 0.000660 1216.54175 1455.44275
1513.0 0.000661 1216.32544 1456.38062
1514.0 0.000661 1216.10889 1457.30457
1430.0 0.000699 1215.89246 1458.19482
1541.0 0.000649 1215.67554 1459.04065
1510.0 0.000662 1215.45850 1459.83826
1510.0 0.000662 1215.24133 1460.59412
1490.0 0.000671 1215.02429 1461.32532
1568.0 0.000638 1214.80713 1462.05884
1553.0 0.000644 1214.58972 1462.83350
1532.0 0.000653 1214.37256 1463.69775
1537.0 0.000651 1214.15503 1464.70654
1559.0 0.000641 1213.93750 1465.92212
1525.0 0.000656 1213.71960 1467.41052
1529.0 0.000654 1213.50195 1469.23499
1532.0 0.000653 1213.28406 1471.46045
1513.0 0.000661 1213.06580 1474.14368
1474.0 0.000678 1212.84766 1477.33325
1561.0 0.000641 1212.62952 1481.06921
1557.0 0.000642 1212.41101 1485.37561
1491.0 0.000671 1212.19226 1490.26428
1508.0 0.000663 1211.97375 1495.72888
1532.0 0.000653 1211.75500 1501.74500
1535.0 0.000651 1211.53625 1508.27026
1576.0 0.000635 1211.31726 1515.24402
1561.0 0.000641 1211.09802 1598.69714
1502.0 0.000666 1210.87866 1607.39624
1543.0 0.000648 1210.65906 1616.27710
1554.0 0.000644 1210.43970 1625.21423
1587.0 0.000630 1210.21973 1634.06921
1559.0 0.000641 1209.99988 1642.69678
1571.0 0.000637 1209.78027 1650.94495
1628.0 0.000614 1209.55994 1658.94153
1702.0 0.000588 1209.33960 1666.05884
1636.0 0.000611 1209.11938 1672.37097
1658.0 0.000603 1208.89893 1677.74866
1616.0 0.000619 1208.67834 1682.07556
1706.0 0.000586 1208.45740 1685.25403
1674.0 0.000597 1208.23633 1687.20740
1634.0 0.000612 1208.01550 1687.88037
1702.0 0.000588 1207.79370 1687.24548
1650.0 0.000606 1207.57275 1685.30005
1653.0 0.000605 1207.35107 1682.06934
1671.0 0.000598 1207.12915 1677.60498
1627.0 0.000615 1206.90735 1671.98657
1640.0 0.000610 1206.68530 1665.31812
1552.0 0.000644 1206.46301 1657.72668
1608.0 0.000622 1206.24084 1649.35974
1608.0 0.000622 1206.01819 1640.38416
1593.0 0.000628 1205.79553 1631.54651
1590.0 0.000629 1205.57263 1621.91309
1644.0 0.000608 1205.34973 1612.23999
1613.0 0.000620 1205.12610 1602.72693
1560.0 0.000641 1204.90283 1593.57471
1599.0 0.000625 1204.67944 1584.97791
1614.0 0.000620 1204.45532 1577.12378
1620.0 0.000617 1204.23181 1570.18762
1544.0 0.000648 1204.00732 1557.73535
1586.0 0.000631 1203.78320 1553.20288
1524.0 0.000656 1203.55847 1550.01550
1521.0 0.000657 1203.33386 1548.27515
1671.0 0.000598 1203.10901 1548.06067
1642.0 0.000609 1202.88391 1549.42480
1616.0 0.000619 1202.65869 1552.39722
1639.0 0.000610 1202.43298 1556.98157
1638.0 0.000611 1202.20728 1563.15552
1660.0 0.000602 1201.98157 1570.87048
1643.0 0.000609 1201.75513 1580.05798
1664.0 0.000601 1201.52917 1590.62268
1649.0 0.000606 1201.30237 1602.45154
1662.0 0.000602 1201.07605 1615.41016
1612.0 0.000620 1200.84863 1629.35071
1670.0 0.000599 1200.62158 1644.10925
1713.0 0.000584 1200.39417 1659.51331
1761.0 0.000568 1200.16626 1675.38306
1710.0 0.000585 1199.93860 1691.53394
1713.0 0.000584 1199.71033 1707.78369
1838.0 0.000544 1199.48230 1723.95349
1759.0 0.000569 1199.25354 1739.87158
1699.0 0.000589 1199.02527 1755.37939
1796.0 0.000557 1198.79565 1770.33215
1760.0 0.000568 1198.56677 1784.60449
1782.0 0.000561 1198.33716 1798.09216
1809.0 0.000553 1198.10742 1810.71399
1741.0 0.000574 1197.87720 1826.85571
1779.0 0.000562 1197.64709 1837.65710
1806.0 0.000554 1197.41650 1847.51404
1794.0 0.000557 1197.18591 1856.45605
1758.0 0.000569 1196.95471 1864.54199
1843.0 0.000543 1196.72351 1871.85645
1762.0 0.000568 1196.49182 1878.50989
1811.0 0.000552 1196.26013 1884.63733
1774.0 0.000564 1196.02795 1890.77087
1820.0 0.000549 1195.79578 1896.43970
1830.0 0.000546 1195.56335 1902.12964
1849.0 0.000541 1195.32996 1908.04822
1939.0 0.000516 1195.09717 1914.41260
1912.0 0.000523 1194.86340 1921.44910
1864.0 0.000536 1194.62976 1929.38525
1903.0 0.000525 1194.39563 1942.17004
1868.0 0.000535 1194.16089 1952.70740
1951.0 0.000513 1193.92664 1964.84241
1976.0 0.000506 1193.69153 1978.80371
2012.0 0.000497 1193.45630 1994.81360
2007.0 0.000498 1193.22083 2013.09216
2041.0 0.000490 1192.98523 2033.85352
2059.0 0.000486 1192.74902 2058.02002
2079.0 0.000481 1192.51245 2084.39258
2137.0 0.000468 1192.27576 2113.87744
2159.0 0.000463 1192.03882 2146.68311
2199.0 0.000455 1191.80115 2183.01563
2268.0 0.000441 1191.56335 2223.08447
2299.0 0.000435 1191.32556 2267.10229
2359.0 0.000424 1191.08728 2315.28418
2468.0 0.000405 1190.84839 2367.84839
2626.0 0.000381 1190.60913 2425.01514
2680.0 0.000373 1190.37000 2487.01123
2634.0 0.000380 1190.13013 2554.06177
2787.0 0.000359 1189.89050 2626.39526
2880.0 0.0003472 1189.64978 2704.23901
3091.0 0.0003235 1189.40881 2787.81763
3179.0 0.0003146 1189.16797 2877.34985
3255.0 0.0003072 1188.92639 2973.05566
3445.0 0.0002903 1188.68445 3075.14307
3543.0 0.0002822 1188.44238 3183.81396
3598.0 0.0002779 1188.19958 3299.26172
3841.0 0.0002603 1187.95715 3421.67090
3974.0 0.0002516 1187.71362 3551.21582
4179.0 0.0002393 1187.47009 3688.05762
4222.0 0.0002369 1187.22620 3832.34473
4610.0 0.0002169 1186.98157 3984.20605
4637.0 0.0002157 1186.73694 4143.75000
4648.0 0.0002151 1186.49170 4311.05566
4860.0 0.0002058 1186.24597 4486.16943
5003.0 0.0001999 1186.00012 4669.09326
5224.0 0.0001914 1185.75391 4859.78271
5345.0 0.0001871 1185.50720 5058.12695
5464.0 0.0001830 1185.26013 5263.95459
5777.0 0.0001731 1185.01221 5474.36279
5745.0 0.0001741 1184.76465 5694.35840
6048.0 0.0001653 1184.51624 5920.83643
6175.0 0.0001619 1184.26746 6153.27832
6285.0 0.0001591 1184.01794 6391.06641
6675.0 0.0001498 1183.76831 6633.47754
6925.0 0.0001444 1183.51831 6879.67578
7191.0 0.0001391 1183.26782 7128.70605
7376.0 0.0001356 1183.01697 7379.74756
7522.0 0.0001329 1182.76587 7631.16699
7635.0 0.0001310 1182.51404 7881.83105
7816.0 0.0001279 1182.26172 8130.27881
8194.0 0.0001220 1182.00928 8374.91113
8315.0 0.0001203 1181.75635 8613.99609
8515.0 0.0001174 1181.50281 8845.67676
8805.0 0.0001136 1181.24878 9067.97168
8732.0 0.0001145 1180.99414 9278.80469
9056.0 0.0001104 1180.73938 9476.02637
9287.0 0.0001077 1180.48450 9657.43848
9339.0 0.0001071 1180.22827 9820.86523
9559.0 0.0001046 1179.97229 9964.18066
9775.0 0.0001023 1179.71582 10085.38867
9999.0 0.0001000 1179.45813 10182.67578
10189.0 0.0000981 1179.20093 10254.49316
10266.0 0.0000974 1178.94250 10299.60156
10406.0 0.0000961 1178.68396 10317.14258
10623.0 0.0000941 1178.42505 10306.66309
10619.0 0.0000942 1178.16504 10268.13672
10770.0 0.0000929 1177.90479 10201.97754
10781.0 0.0000928 1177.64465 10109.00195
10989.0 0.0000910 1177.38367 9990.41016
10901.0 0.0000917 1177.12219 9847.72656
10706.0 0.0000934 1176.85999 9682.74902
10798.0 0.0000926 1176.59741 9497.47363
10560.0 0.0000947 1176.33435 9294.04785
10633.0 0.0000940 1176.07068 9074.69531
10413.0 0.0000960 1175.80640 8841.67188
10324.0 0.0000969 1175.54199 8597.21387
9763.0 0.0001024 1175.27673 8343.51172
9410.0 0.0001063 1175.01099 8082.66309
9090.0 0.0001100 1174.74463 7816.66650
8704.0 0.0001149 1174.47827 7547.40186
8225.0 0.0001216 1174.21094 7276.61523
7914.0 0.0001264 1173.94287 7005.92236
7670.0 0.0001304 1173.67444 6736.79785
6862.0 0.0001457 1173.40576 6470.58008
6490.0 0.0001541 1173.13635 6208.47363
6103.0 0.0001639 1172.86633 5951.54248
5638.0 0.0001774 1172.59546 5700.72510
5213.0 0.0001918 1172.32483 5456.83105
4943.0 0.0002023 1172.05298 5220.54443
4569.0 0.0002189 1171.78052 4992.43652
4196.0 0.0002383 1171.50793 4772.95850
4057.0 0.0002465 1171.23462 4562.46338
3757.0 0.0002662 1170.96045 4361.19531
3529.0 0.0002834 1170.68616 4169.31055
3357.0 0.0002979 1170.41113 3986.87646
3229.0 0.0003097 1170.13525 3813.88354
3106.0 0.0003220 1169.85925 3650.25098
2944.0 0.0003397 1169.58240 3495.83691
2814.0 0.000355 1169.30481 3350.44434
2679.0 0.000373 1169.02673 3213.83179
2681.0 0.000373 1168.74817 3085.72070
2593.0 0.000386 1168.46887 2965.79980
2506.0 0.000399 1168.18909 2853.74048
2355.0 0.000425 1167.90869 2749.19312
2360.0 0.000424 1167.62781 2651.80103
2274.0 0.000440 1167.34619 2561.20239
2310.0 0.000433 1167.06360 2477.03589
2183.0 0.000458 1166.78088 2398.94507
2081.0 0.000481 1166.49719 2326.58032
2105.0 0.000475 1166.21301 2259.60278
2032.0 0.000492 1165.92847 2197.68823
2068.0 0.000484 1165.64319 2140.52466
2064.0 0.000484 1165.35706 2087.81396
1863.0 0.000537 1165.06995 2039.27710
1804.0 0.000554 1164.78308 1994.64661
1858.0 0.000538 1164.49487 1953.67444
1860.0 0.000538 1164.20642 1916.12561
1816.0 0.000551 1163.91699 1881.77991
1801.0 0.000555 1163.62720 1850.43127
1771.0 0.000565 1163.33655 1821.88696
1748.0 0.000572 1163.04541 1795.96582
1668.0 0.000600 1162.75378 1772.49902
1713.0 0.000584 1162.46094 1751.32703
1762.0 0.000568 1162.16785 1732.34009
1751.0 0.000571 1161.87390 1715.32532
1696.0 0.000590 1161.57922 1700.18738
1706.0 0.000586 1161.28394 1686.80139
1694.0 0.000590 1160.98828 1675.05225
1750.0 0.000571 1160.69165 1664.82959
1673.0 0.000598 1160.39417 1656.03320
1670.0 0.000599 1160.09607 1648.56396
1654.0 0.000605 1159.79736 1642.33203
1655.0 0.000604 1159.49805 1637.25171
1713.0 0.000584 1159.19812 1633.24280
1709.0 0.000585 1158.89709 1630.22900
1701.0 0.000588 1158.59607 1628.14026
1704.0 0.000587 1158.29407 1626.90881
1704.0 0.000587 1157.99109 1626.47412
1681.0 0.000595 1157.68726 1626.77795
1616.0 0.000619 1157.38293 1627.76868
1692.0 0.000591 1157.07800 1629.39844
1741.0 0.000574 1156.77197 1631.62439
1718.0 0.000582 1156.46545 1634.40833
1627.0 0.000615 1156.15833 1637.71863
1663.0 0.000601 1155.85046 1641.52820
1668.0 0.000600 1155.54175 1645.81604
1681.0 0.000595 1155.23242 1650.56311
1684.0 0.000594 1154.92224 1655.75818
1645.0 0.000608 1154.61133 1661.39111
1652.0 0.000605 1154.29968 1667.45459
1648.0 0.000607 1153.98730 1673.94360
1660.0 0.000602 1153.67432 1680.85217
1678.0 0.000596 1153.36035 1688.17542
1702.0 0.000588 1153.04590 1704.99963
1693.0 0.000591 1152.72998 1713.23389
1658.0 0.000603 1152.41406 1721.85156
1584.0 0.000631 1152.09741 1731.64783
1720.0 0.000581 1151.77954 1740.98572
1705.0 0.000587 1151.46082 1750.63452
1753.0 0.000570 1151.14197 1760.55811
1702.0 0.000588 1150.82214 1770.71216
1741.0 0.000574 1150.50134 1781.04578
1718.0 0.000582 1150.17969 1791.49866
1829.0 0.000547 1149.85730 1802.00464
1751.0 0.000571 1149.53442 1812.48743
1685.0 0.000593 1149.21045 1822.86401
1747.0 0.000572 1148.88574 1833.04138
1707.0 0.000586 1148.56042 1838.59290
1717.0 0.000582 1148.23413 1848.12634
1727.0 0.000579 1147.90698 1857.14063
1709.0 0.000585 1147.57922 1865.51733
1682.0 0.000595 1147.25049 1873.13623
1683.0 0.000594 1146.92102 1879.87805
1688.0 0.000592 1146.59045 1885.62231
1687.0 0.000593 1146.25964 1890.25647
1680.0 0.000595 1145.92773 1893.67566
1734.0 0.000577 1145.59485 1895.78674
1663.0 0.000601 1145.26135 1896.51147
1751.0 0.000571 1144.92712 1895.78821
1688.0 0.000592 1144.59204 1893.57629
1698.0 0.000589 1144.25610 1889.85608
1783.0 0.000561 1143.91907 1884.63000
1658.0 0.000603 1143.58142 1877.92236
1700.0 0.000588 1143.24316 1869.77844
1733.0 0.000577 1142.90381 1860.26355
1677.0 0.000596 1142.56348 1849.45789
1687.0 0.000593 1142.22266 1837.45642
1636.0 0.000611 1141.88037 1824.36511
1712.0 0.000584 1141.53809 1810.29626
1675.0 0.000597 1141.19434 1795.36670
1686.0 0.000593 1140.85034 1779.69568
1630.0 0.000613 1140.50500 1763.40186
1656.0 0.000604 1140.15881 1746.59863
1663.0 0.000601 1139.81213 1729.39893
1675.0 0.000597 1139.46448 1711.90527
1663.0 0.000601 1139.11584 1694.21863
1715.0 0.000583 1138.76624 1676.42896
1628.0 0.000614 1138.41602 1658.62244
1631.0 0.000613 1138.06445 1640.87451
1627.0 0.000615 1137.71265 1623.25806
1564.0 0.000639 1137.35962 1605.83508
1608.0 0.000622 1137.00586 1588.66357
1579.0 0.000633 1136.65125 1495.70862
1529.0 0.000654 1136.29541 1480.24475
1541.0 0.000649 1135.93896 1465.14551
1571.0 0.000637 1135.58179 1450.44629
1574.0 0.000635 1135.22327 1436.17651
1576.0 0.000635 1134.86450 1422.36230
1572.0 0.000636 1134.50464 1409.02539
1481.0 0.000675 1134.14355 1396.18250
1455.0 0.000687 1133.78162 1383.84729
1455.0 0.000687 1133.41907 1372.03125
1414.0 0.000707 1133.05554 1360.74121
1491.0 0.000671 1132.69104 1349.98206
1391.0 0.000719 1132.32556 1339.75537
1422.0 0.000703 1131.95972 1330.06067
1376.0 0.000727 1131.59216 1320.89722
1411.0 0.000709 1131.22412 1312.34045
1394.0 0.000717 1130.85535 1304.22534
1363.0 0.000734 1130.48560 1296.62427
1401.0 0.000714 1130.11487 1289.52771
1342.0 0.000745 1129.74304 1282.92822
1295.0 0.000772 1129.37048 1276.81506
1316.0 0.000760 1128.99707 1271.17920
1297.0 0.000771 1128.62268 1266.00781
1310.0 0.000763 1128.24719 1261.29175
1306.0 0.000766 1127.87097 1257.02002
1305.0 0.000766 1127.49414 1253.18164
1304.0 0.000767 1127.11584 1249.76611
1305.0 0.000766 1126.73682 1246.76282
1318.0 0.000759 1126.35669 1244.16162
1280.0 0.000781 1125.97595 1241.95325
1272.0 0.000786 1125.59424 1240.12866
1320.0 0.000758 1125.21118 1238.67810
1257.0 0.000796 1124.82776 1237.59363
1217.0 0.000822 1124.44312 1236.86682
1275.0 0.000784 1124.05750 1236.48962
1209.0 0.000827 1123.67126 1236.45447
1282.0 0.000780 1123.28394 1236.75403
1222.0 0.000818 1122.89539 1237.38062
1222.0 0.000818 1122.50635 1238.32654
1182.0 0.000846 1122.11597 1239.58484
1259.0 0.000794 1121.72473 1241.14783
1249.0 0.000801 1121.33276 1243.00842
1239.0 0.000807 1120.93982 1245.15747
1269.0 0.000788 1120.54565 1247.58777
1277.0 0.000783 1120.15076 1250.28955
1293.0 0.000773 1119.75464 1253.25488
1225.0 0.000816 1119.35779 1256.47449
1268.0 0.000789 1118.96008 1259.93774
1280.0 0.000781 1118.56152 1263.63538
1319.0 0.000758 1118.16174 1267.55713
1278.0 0.000782 1117.76099 1271.69226
1266.0 0.000790 1117.35950 1276.09534
1216.0 0.000822 1116.95703 1280.62549
1223.0 0.000818 1116.55347 1285.33667
1314.0 0.000761 1116.14880 1290.21765
1308.0 0.000765 1115.74341 1295.25684
1235.0 0.000810 1115.33704 1300.44458
1297.0 0.000771 1114.92944 1305.77197
1309.0 0.000764 1114.52100 1311.22961
1286.0 0.000778 1114.11182 1316.81079
1332.0 0.000751 1113.70166 1322.50952
1251.0 0.000799 1113.29028 1328.32410
1300.0 0.000769 1112.87817 1334.25476
1354.0 0.000739 1112.46497 1340.30542
1409.0 0.000710 1112.05054 1346.48486
1359.0 0.000736 1111.63550 1352.80664
1393.0 0.000718 1111.21936 1359.29126
1408.0 0.000710 1110.80225 1365.96436
1357.0 0.000737 1110.38452 1372.85828
1394.0 0.000717 1109.96558 1380.01147
1417.0 0.000706 1109.54553 1387.46838
1432.0 0.000698 1109.12463 1395.27832
1438.0 0.000695 1108.70227 1403.49573
1434.0 0.000697 1108.27966 1412.17883
1445.0 0.000692 1107.85559 1421.38733
1465.0 0.000683 1107.43030 1431.18237
1527.0 0.000655 1107.00500 1441.62598
1526.0 0.000655 1106.57764 1452.77930
1464.0 0.000683 1106.15002 1464.70056
1461.0 0.000684 1105.72119 1477.44568
1488.0 0.000672 1105.29126 1491.06763
1518.0 0.000659 1104.86047 1505.61536
1522.0 0.000657 1104.42871 1521.13013
1630.0 0.000613 1103.99573 1537.64978
1579.0 0.000633 1103.56201 1555.20496
1589.0 0.000629 1103.12756 1573.81934
1639.0 0.000610 1102.69189 1593.65564
1679.0 0.000596 1102.25525 1614.42981
1745.0 0.000573 1101.81750 1636.28650
1763.0 0.000567 1101.37878 1659.21387
1802.0 0.000555 1100.93896 1683.19031
1766.0 0.000566 1100.49841 1708.18604
1856.0 0.000539 1100.05688 1734.15686
1822.0 0.000549 1099.61426 1761.04883
1838.0 0.000544 1099.17078 1791.34802
1877.0 0.000533 1098.72583 1819.90906
1923.0 0.000520 1098.28064 1849.14990
1969.0 0.000508 1097.83362 1878.96204
1997.0 0.000501 1097.38611 1909.22229
2003.0 0.000499 1096.93762 1939.79285
2005.0 0.000499 1096.48792 1970.52197
2006.0 0.000499 1096.03748 2001.23938
2093.0 0.000478 1095.58594 2031.76147
2082.0 0.000480 1095.13354 2061.88794
2107.0 0.000475 1094.67981 2091.40527
2116.0 0.000473 1094.22534 2120.08423
2222.0 0.000450 1093.76978 2147.68506
2140.0 0.000467 1093.31335 2173.95776
2343.0 0.000427 1092.85608 2198.64502
2266.0 0.000441 1092.39746 2221.48755
2302.0 0.000434 1091.93811 2242.22754
2337.0 0.000428 1091.47754 2260.61670
2306.0 0.000434 1091.01624 2276.41797
2417.0 0.000414 1090.55396 2289.41821
2378.0 0.000421 1090.09033 2299.42847
2337.0 0.000428 1089.62585 2306.29663
2484.0 0.000403 1089.16052 2309.90674
2478.0 0.000404 1088.69397 2310.18945
2432.0 0.000411 1088.22693 2307.11865
2485.0 0.000402 1087.75842 2300.71680
2517.0 0.000397 1087.28894 2291.05151
2456.0 0.000407 1086.81860 2278.23315
2421.0 0.000413 1086.34717 2262.41040
2572.0 0.000389 1085.87488 2243.76416
2497.0 0.000400 1085.40186 2222.50415
2512.0 0.000398 1084.92725 2198.85742
2440.0 0.000410 1084.45215 2173.06714
2448.0 0.000408 1083.97583 2145.38135
2352.0 0.000425 1083.49854 2116.05054
2311.0 0.000433 1083.02026 2085.32642
2332.0 0.000429 1082.54089 2053.44897
2326.0 0.000430 1082.06079 2020.65393
2217.0 0.000451 1081.57959 1987.16333
2270.0 0.000441 1081.09729 1953.18848
2120.0 0.000472 1080.61414 1918.92651
2131.0 0.000469 1080.13000 1884.56055
2033.0 0.000492 1079.64478 1850.26086
2018.0 0.000496 1079.15869 1816.18237
1914.0 0.000522 1078.67163 1782.46790
1854.0 0.000539 1078.18396 1749.24585
1821.0 0.000549 1077.69446 1716.63293
1755.0 0.000570 1077.20471 1684.73218
1672.0 0.000598 1076.71362 1653.63550
1654.0 0.000605 1076.22156 1623.42346
1641.0 0.000609 1075.72876 1594.16455
1600.0 0.000625 1075.23462 1565.91772
1574.0 0.000635 1074.73987 1538.73218
1492.0 0.000670 1074.24353 1512.64636
1476.0 0.000678 1073.74683 1487.69153
1525.0 0.000656 1073.24927 1463.89026
1413.0 0.000708 1072.75049 1441.25549
1400.0 0.000714 1072.25073 1419.79736
1360.0 0.000735 1071.75000 1399.51526
1353.0 0.000739 1071.24817 1380.40515
1279.0 0.000782 1070.74536 1362.45776
1364.0 0.000733 1070.24194 1345.65833
1334.0 0.000750 1069.73730 1329.98926
1205.0 0.000830 1069.23157 1315.43030
1254.0 0.000797 1068.72534 1301.95691
1275.0 0.000784 1068.21765 1289.54333
1263.0 0.000792 1067.70935 1278.16333
1270.0 0.000787 1067.20007 1267.78748
1200.0 0.000833 1066.68970 1258.38696
1200.0 0.000833 1066.17798 1249.93359
1210.0 0.000826 1065.66565 1242.39734
1236.0 0.000809 1065.15259 1235.75012
1242.0 0.000805 1064.63831 1229.96338
1197.0 0.000835 1064.12292 1225.01074
1230.0 0.000813 1063.60706 1220.86475
1188.0 0.000842 1063.09009 1217.50024
1186.0 0.000843 1062.57202 1214.89160
1250.0 0.000800 1062.05286 1213.01575
1184.0 0.000845 1061.53333 1211.84875
1181.0 0.000847 1061.01233 1206.47656
1237.0 0.000808 1060.49060 1206.70776
1134.0 0.000882 1059.96777 1207.58020
1193.0 0.000838 1059.44434 1209.07080
1215.0 0.000823 1058.91956 1211.15820
1224.0 0.000817 1058.39404 1213.81799
1234.0 0.000810 1057.86768 1217.02649
1245.0 0.000803 1057.34045 1220.75793
1220.0 0.000820 1056.81201 1224.98608
1229.0 0.000814 1056.28247 1229.68225
1238.0 0.000808 1055.75244 1234.81628
1256.0 0.000796 1055.22144 1240.35559
1188.0 0.000842 1054.68921 1246.26489
1259.0 0.000794 1054.15637 1252.50671
1268.0 0.000789 1053.62280 1259.04211
1313.0 0.000762 1053.08777 1265.82678
1246.0 0.000803 1052.55200 1272.81519
1274.0 0.000785 1052.01526 1279.95862
1264.0 0.000791 1051.47778 1287.20410
1291.0 0.000775 1050.93933 1294.49768
1264.0 0.000791 1050.39990 1308.11340
1297.0 0.000771 1049.85962 1315.45898
1290.0 0.000775 1049.31873 1322.67273
1295.0 0.000772 1048.77661 1329.68896
1271.0 0.000787 1048.23340 1336.43970
1281.0 0.000781 1047.68945 1342.85413
1284.0 0.000779 1047.14465 1348.86304
1252.0 0.000799 1046.59937 1354.39575
1304.0 0.000767 1046.05237 1359.38342
1318.0 0.000759 1045.50500 1363.76074
1279.0 0.000782 1044.95679 1367.46619
1342.0 0.000745 1044.40747 1370.44421
1358.0 0.000736 1043.85730 1372.64722
1414.0 0.000707 1043.30627 1374.03723
1353.0 0.000739 1042.75427 1374.58643
1412.0 0.000708 1042.20154 1374.27820
1357.0 0.000737 1041.64795 1373.10901
1376.0 0.000727 1041.09338 1371.08728
1382.0 0.000724 1040.53784 1368.23193
1382.0 0.000724 1039.98157 1364.57458
1392.0 0.000718 1039.42444 1360.15601
1344.0 0.000744 1038.86646 1355.02490
1278.0 0.000782 1038.30750 1349.23633
1369.0 0.000730 1037.74756 1342.85107
1355.0 0.000738 1037.18701 1335.93335
1353.0 0.000739 1036.62573 1328.55017
1354.0 0.000739 1036.06323 1320.76929
1311.0 0.000763 1035.50012 1312.65930
1281.0 0.000781 1034.93604 1304.28870
1276.0 0.000784 1034.37109 1295.72498
1270.0 0.000787 1033.80554 1287.03467
1258.0 0.000795 1033.23901 1278.28333
1216.0 0.000822 1032.67163 1269.53613
1268.0 0.000789 1032.10327 1260.85535
1178.0 0.000849 1031.53430 1252.30347
1197.0 0.000835 1030.96423 1243.94067
1240.0 0.000806 1030.39355 1235.82593
1249.0 0.000801 1029.82190 1228.01794
1248.0 0.000801 1029.24939 1220.57263
1280.0 0.000781 1028.67639 1213.54602
1252.0 0.000799 1028.10217 1206.99133
1213.0 0.000824 1027.52747 1200.96228
1255.0 0.000797 1026.95178 1195.50964
1225.0 0.000816 1026.37537 1190.68445
1181.0 0.000847 1025.79785 1186.53601
1187.0 0.000842 1025.21973 1183.11194
1166.0 0.000858 1024.64087 1180.46008
1249.0 0.000801 1024.06128 1178.62573
1196.0 0.000836 1023.48071 1177.65356
1275.0 0.000784 1022.89929 1177.58752
1254.0 0.000797 1022.31732 1178.53296
1247.0 0.000802 1021.73450 1180.40247
1240.0 0.000806 1021.15088 1183.29712
1242.0 0.000805 1020.56647 1187.25232
1226.0 0.000816 1019.98096 1192.30090
1265.0 0.000791 1019.39496 1198.47156
1256.0 0.000796 1018.80817 1205.78943
1257.0 0.000796 1018.22052 1214.27576
1284.0 0.000779 1017.63232 1223.94556
1281.0 0.000781 1017.04327 1234.80762
1281.0 0.000781 1016.45337 1246.86487
1294.0 0.000773 1015.86255 1260.11230
1250.0 0.000800 1015.27136 1274.53699
1333.0 0.000750 1014.67926 1290.11755
1291.0 0.000775 1014.08624 1306.82117
1324.0 0.000755 1013.49261 1324.60718
1372.0 0.000729 1012.89832 1343.42273
1356.0 0.000737 1012.30322 1363.20422
1362.0 0.000734 1011.70740 1383.87634
1313.0 0.000762 1011.11084 1405.35229
1321.0 0.000757 1010.51337 1427.53296
1334.0 0.000750 1009.91528 1450.30798
1457.0 0.000686 1009.31659 1473.55420
1456.0 0.000687 1008.71698 1497.13843
1460.0 0.000685 1008.11682 1520.91479
1445.0 0.000692 1007.51599 1544.72827
1445.0 0.000692 1006.91437 1568.41321
1468.0 0.000681 1006.31189 1591.79541
1580.0 0.000633 1005.70892 1614.69275
1524.0 0.000656 1005.10516 1636.91614
1481.0 0.000675 1004.50049 1658.27246
1514.0 0.000661 1003.89551 1678.56494
1491.0 0.000671 1003.28955 1697.59583
1621.0 0.000617 1002.68311 1715.16919
1553.0 0.000644 1002.07593 1731.09399
1551.0 0.000645 1001.46802 1745.18762
1619.0 0.000618 1000.85931 1757.28003
1662.0 0.000602 1000.25006 1767.21765
1666.0 0.000600 999.64020 1774.86743
1549.0 0.000646 999.02930 1780.12085
1518.0 0.000659 998.41815 1773.58618
1645.0 0.000608 997.80658 1773.94666
1623.0 0.000616 997.19379 1771.76392
1579.0 0.000633 996.58051 1767.05566
1592.0 0.000628 995.96661 1759.87109
1613.0 0.000620 995.35205 1750.29150
1658.0 0.000603 994.73688 1738.42529
1539.0 0.000650 994.12097 1724.40527
1457.0 0.000686 993.50452 1708.38452
1487.0 0.000672 992.88757 1690.53186
1579.0 0.000633 992.26984 1671.02869
1489.0 0.000672 991.65161 1650.06226
1513.0 0.000661 991.03247 1627.82593
1494.0 0.000669 990.41309 1604.51367
1488.0 0.000672 989.79285 1580.31836
1461.0 0.000684 989.17188 1555.42920
1504.0 0.000665 988.55048 1530.02905
1442.0 0.000693 987.92859 1504.29419
1439.0 0.000695 987.30597 1478.39307
1447.0 0.000691 986.68268 1452.48340
1374.0 0.000728 986.05896 1426.71387
1411.0 0.000709 985.43457 1401.22107
1347.0 0.000742 984.80963 1376.13049
1306.0 0.000766 984.18414 1351.55518
1344.0 0.000744 983.55780 1327.59656
1301.0 0.000769 982.93109 1304.34241
1258.0 0.000795 982.30402 1281.86914
1303.0 0.000767 981.67627 1260.24023
1310.0 0.000763 981.04779 1239.50732
1276.0 0.000784 980.41876 1219.71033
1236.0 0.000809 979.78943 1200.87854
1200.0 0.000833 979.15930 1183.02942
1177.0 0.000850 978.52887 1166.17261
1190.0 0.000840 977.89783 1150.30664
1201.0 0.000833 977.26581 1135.42334
1211.0 0.000826 976.63385 1121.50659
1186.0 0.000843 976.00128 1108.53381
1202.0 0.000832 975.36786 1096.47681
1187.0 0.000842 974.73413 1085.30261
1122.0 0.000891 974.09991 1074.97449
1203.0 0.000831 973.46515 1065.65295
1093.0 0.000915 972.82996 1056.89917
1145.0 0.000873 972.19397 1048.86682
1116.0 0.000896 971.55774 1041.51050
1093.0 0.000915 970.92090 1034.78601
1056.0 0.000947 970.28381 1028.64868
1096.0 0.000912 969.64581 1023.05524
1079.0 0.000927 969.00751 1017.96295
1111.0 0.000900 968.36896 1013.33038
1039.0 0.000962 967.72974 1009.12024
1096.0 0.000912 967.08997 1005.29132
1050.0 0.000952 966.45001 1001.81000
1089.0 0.000918 965.80945 998.64301
1110.0 0.000901 965.16833 995.75952
1086.0 0.000921 964.52679 993.13068
1039.0 0.000962 963.88489 990.73029
1025.0 0.000976 963.24243 988.53442
1076.0 0.000929 962.59961 986.52075
1126.0 0.000888 961.95624 984.66901
1055.0 0.000948 961.31256 982.96118
996.0 0.001004 960.66840 981.38153
1000.0 0.001000 960.02386 979.91504
1092.0 0.000916 959.37891 978.54883
1056.0 0.000947 958.73352 977.27148
1077.0 0.000929 958.08771 976.07288
1109.0 0.000902 957.44141 974.94373
1142.0 0.000876 956.79492 973.87622
1115.0 0.000897 956.14783 972.86346
1109.0 0.000902 955.50055 971.89941
1149.0 0.000870 954.85291 970.97858
1201.0 0.000833 954.20465 970.09595
1230.0 0.000813 953.55603 969.24756
1220.0 0.000820 952.90717 968.42999
1242.0 0.000805 952.25769 967.63983
1246.0 0.000803 951.60803 966.87396
1262.0 0.000792 950.95819 966.12988
1274.0 0.000785 950.30780 965.40552
1252.0 0.000799 949.65704 964.69843
1298.0 0.000770 949.00610 964.00665
1281.0 0.000781 948.35449 961.77655
1169.0 0.000855 947.70282 961.12982
1199.0 0.000834 947.05078 960.49255
1158.0 0.000864 946.39844 959.89600
1102.0 0.000907 945.74561 961.83838
1119.0 0.000894 945.09253 961.27637
1059.0 0.000944 944.43921 960.71991
1011.0 0.000989 943.78558 960.16760
1012.0 0.000988 943.13159 959.61792
970.0 0.001031 942.47693 959.06995
960.0 0.001042 941.82251 958.52228
946.0 0.001057 941.16766 957.97375
975.0 0.001026 940.51239 957.42371
982.0 0.001018 939.85706 950.55060
939.0 0.001065 939.20142 950.12488
972.0 0.001029 938.54535 949.69141
957.0 0.001045 937.88904 949.24976
926.0 0.001080 937.23248 948.80103
970.0 0.001031 936.57574 948.34497
932.0 0.001073 935.91864 947.88275
943.0 0.001060 935.26129 947.41626
909.0 0.001100 934.60376 946.94659
903.0 0.001107 933.94604 946.47595
936.0 0.001068 933.28790 946.00720
945.0 0.001058 932.62964 945.54327
987.0 0.001013 931.97107 945.08801
962.0 0.001040 931.31238 944.64526
893.0 0.001120 930.65344 944.21930
1004.0 0.000996 929.99420 943.81445
966.0 0.001035 929.33490 943.43707
947.0 0.001056 928.67529 943.09247
937.0 0.001067 928.01556 942.78674
937.0 0.001067 927.35547 942.52637
917.0 0.001091 926.69531 942.31873
921.0 0.001086 926.03503 942.17084
928.0 0.001078 925.37463 942.09119
940.0 0.001064 924.71405 942.08838
956.0 0.001046 924.05298 942.17059
963.0 0.001038 923.39221 942.34784
929.0 0.001076 922.73083 942.62994
957.0 0.001045 922.06958 943.02808
906.0 0.001104 921.40778 943.55267
946.0 0.001057 920.74628 944.21637
927.0 0.001079 920.08453 945.03015
960.0 0.001042 919.42249 946.00739
928.0 0.001078 918.76044 947.16156
918.0 0.001089 918.09821 948.50580
924.0 0.001082 917.43604 950.05402
957.0 0.001045 916.77344 951.82092
917.0 0.001091 916.11096 953.82098
994.0 0.001006 915.44818 956.06842
954.0 0.001048 914.78534 958.57758
981.0 0.001019 914.12286 961.36340
976.0 0.001025 913.45953 964.43903
929.0 0.001076 912.79669 967.81805
970.0 0.001031 912.13348 971.51318
962.0 0.001040 911.47052 975.53571
1003.0 0.000997 910.80688 979.89594
978.0 0.001022 910.14343 984.60284
976.0 0.001025 909.48010 989.66302
988.0 0.001012 908.81683 995.08173
992.0 0.001008 908.15332 1001.06317
1036.0 0.000965 907.48969 1007.24341
984.0 0.001016 906.82599 1013.78900
978.0 0.001022 906.16223 1020.69397
983.0 0.001017 905.49860 1027.95056
1008.0 0.000992 904.83472 1035.54736
1046.0 0.000956 904.17120 1043.46863
1030.0 0.000971 903.50739 1051.69543
1075.0 0.000930 902.84338 1060.20532
1071.0 0.000934 902.17981 1068.97192
1045.0 0.000957 901.51563 1077.96484
1030.0 0.000971 900.85211 1087.15076
1101.0 0.000908 900.18817 1096.49158
1148.0 0.000871 899.52423 1105.94702
1077.0 0.000929 898.86041 1115.47253
1081.0 0.000925 898.19672 1125.02087
1087.0 0.000920 897.53314 1134.54126
1136.0 0.000880 896.86920 1143.98035
1086.0 0.000921 896.20569 1153.28174
1133.0 0.000883 895.54181 1162.38672
1165.0 0.000858 894.87836 1171.23425
1213.0 0.000824 894.21454 1179.76147
1203.0 0.000831 893.55109 1187.90405
1158.0 0.000864 892.88757 1195.59631
1222.0 0.000818 892.22418 1202.77319
1161.0 0.000861 891.56097 1209.36938
1200.0 0.000833 890.89746 1215.32043
1198.0 0.000835 890.23450 1220.56689
1171.0 0.000854 889.57123 1225.04980
1232.0 0.000812 888.90839 1228.71887
1252.0 0.000799 888.24530 1231.52722
1224.0 0.000817 887.58246 1233.43750
1258.0 0.000795 886.91980 1234.42102
1254.0 0.000797 886.25690 1234.45898
1167.0 0.000857 885.59460 1233.54272
1218.0 0.000821 884.93201 1231.67456
1261.0 0.000793 884.26978 1228.86780
1226.0 0.000816 883.60748 1225.32666
1225.0 0.000816 882.94562 1220.75684
1230.0 0.000813 882.28339 1215.35144
1199.0 0.000834 881.62195 1209.15918
1184.0 0.000845 880.96027 1202.23584
1191.0 0.000840 880.29883 1194.64001
1185.0 0.000844 879.63751 1186.47717
1224.0 0.000817 878.97620 1177.72961
1168.0 0.000856 878.31537 1168.50598
1161.0 0.000861 877.65436 1158.87219
1147.0 0.000872 876.99402 1148.89551
1126.0 0.000888 876.33313 1138.69141
1083.0 0.000923 875.67303 1128.22400
1097.0 0.000912 875.01294 1117.60571
1041.0 0.000961 874.35291 1106.89539
1071.0 0.000934 873.69318 1096.15100
1084.0 0.000923 873.03363 1085.42566
1079.0 0.000927 872.37439 1074.77100
1017.0 0.000983 871.71527 1064.23438
1059.0 0.000944 871.05640 1053.85913
974.0 0.001027 870.39783 1043.68579
966.0 0.001035 869.73926 1033.74988
997.0 0.001003 869.08124 1024.08447
952.0 0.001050 868.42303 1014.71710
986.0 0.001014 867.76544 1005.67267
929.0 0.001076 867.10797 996.97095
1050.0 0.000952 866.45081 988.62885
920.0 0.001087 865.79370 980.65887
925.0 0.001081 865.13708 973.06970
992.0 0.001008 864.48083 965.86694
920.0 0.001087 863.82440 959.11810
947.0 0.001056 863.16864 952.70837
848.0 0.001179 862.51282 946.68561
958.0 0.001044 861.85748 941.04449
904.0 0.001106 861.20227 935.77679
875.0 0.001143 860.54767 930.87207
894.0 0.001119 859.89319 926.31836
893.0 0.001120 859.23901 922.10266
897.0 0.001115 858.58533 918.21027
891.0 0.001122 857.93170 914.62500
893.0 0.001120 857.27863 911.33209
888.0 0.001126 856.62561 908.31519
892.0 0.001121 855.97314 905.55829
873.0 0.001145 855.32074 903.04767
859.0 0.001164 854.66895 900.76447
898.0 0.001114 854.01752 898.69684
868.0 0.001152 853.36621 896.83130
892.0 0.001121 852.71521 895.15668
875.0 0.001143 852.06482 893.66327
872.0 0.001147 851.41473 892.34277
821.0 0.001218 850.76483 891.18854
895.0 0.001117 850.11554 890.19727
886.0 0.001129 849.46619 889.36609
829.0 0.001206 848.81769 888.69568
856.0 0.001168 848.16962 888.18842
843.0 0.001186 847.52142 887.84869
846.0 0.001182 846.87415 887.68365
857.0 0.001167 846.22711 887.70166
860.0 0.001163 845.58032 887.91406
868.0 0.001152 844.93396 888.33295
880.0 0.001136 844.28827 888.90839
817.0 0.001224 843.64276 889.78522
847.0 0.001181 842.99768 890.91510
852.0 0.001174 842.35327 892.31433
847.0 0.001181 841.70880 894.00073
839.0 0.001192 841.06519 895.99158
825.0 0.001212 840.42169 898.30316
873.0 0.001145 839.77905 900.95135
865.0 0.001156 839.13647 903.95038
842.0 0.001188 838.49451 907.31287
862.0 0.001160 837.85333 914.77771
851.0 0.001175 837.21191 919.04694
864.0 0.001157 836.57153 923.71631
813.0 0.001230 835.93134 928.78802
851.0 0.001175 835.29175 934.26086
910.0 0.001099 834.65259 940.12897
873.0 0.001145 834.01398 946.38251
929.0 0.001076 833.37561 953.00629
880.0 0.001136 832.73792 959.98120
916.0 0.001092 832.10107 967.28333
857.0 0.001167 831.46429 974.88330
912.0 0.001096 830.82794 982.74817
958.0 0.001044 830.19238 990.83936
972.0 0.001029 829.55719 999.11548
928.0 0.001078 828.92236 1007.53064
973.0 0.001028 828.28857 1016.03741
945.0 0.001058 827.65472 1024.58398
951.0 0.001052 827.02179 1033.11914
1021.0 0.000979 826.38947 1041.62231
999.0 0.001001 825.75726 1049.77454
1016.0 0.000984 825.12598 1057.95850
1067.0 0.000937 824.49487 1065.92090
1093.0 0.000915 823.86475 1073.61292
1145.0 0.000873 823.23511 1080.99060
1138.0 0.000879 822.60583 1088.01355
1188.0 0.000842 821.97729 1094.64722
1209.0 0.000827 821.34924 1100.86133
1141.0 0.000876 820.72180 1106.63330
1245.0 0.000803 820.09479 1111.94788
1262.0 0.000792 819.46869 1116.79517
1176.0 0.000850 818.84265 1121.17578
1169.0 0.000855 818.21771 1125.09448
1300.0 0.000769 817.59308 1128.56628
1175.0 0.000851 816.96924 1131.61169
1208.0 0.000828 816.34601 1134.25903
1182.0 0.000846 815.72321 1136.54199
1226.0 0.000816 815.10120 1138.50061
1181.0 0.000847 814.47968 1140.17957
1110.0 0.000901 813.85889 1141.62720
1145.0 0.000873 813.23877 1142.89368
1094.0 0.000914 812.61920 1144.03210
1092.0 0.000916 812.00012 1145.09534
1115.0 0.000897 811.38196 1146.13611
1087.0 0.000920 810.76428 1147.20410
1049.0 0.000953 810.14746 1148.34656
1062.0 0.000942 809.53113 1149.60657
1092.0 0.000916 808.91522 1151.02124
1036.0 0.000965 808.30023 1152.62305
1046.0 0.000956 807.68573 1154.43481
1072.0 0.000933 807.07220 1156.47388
1086.0 0.000921 806.45929 1158.74866
1040.0 0.000962 805.84692 1161.25769
1074.0 0.000931 805.23511 1163.99219
1073.0 0.000932 804.62408 1166.93298
1107.0 0.000903 804.01404 1170.05225
1059.0 0.000944 803.40417 1173.31396
1045.0 0.000957 802.79535 1176.67334
1071.0 0.000934 802.18713 1180.07727
1092.0 0.000916 801.57971 1183.46667
1086.0 0.000921 800.97302 1186.77539
1100.0 0.000909 800.36676 1189.93274
1089.0 0.000918 799.76154 1192.86414
1090.0 0.000917 799.15692 1195.49158
1098.0 0.000911 798.55298 1197.73743
1088.0 0.000919 797.94971 1199.52332
1107.0 0.000903 797.34760 1200.77356
1124.0 0.000890 796.74548 1201.41797
1045.0 0.000957 796.14459 1201.38745
1081.0 0.000925 795.54468 1200.62415
1046.0 0.000956 794.94495 1199.07886
1073.0 0.000932 794.34637 1196.71167
1070.0 0.000935 793.74829 1193.49365
1127.0 0.000887 793.15118 1189.40845
1074.0 0.000931 792.55463 1184.45129
1110.0 0.000901 791.95892 1178.62915
1017.0 0.000983 791.36420 1171.96045
1038.0 0.000963 790.77002 1164.47437
1064.0 0.000940 790.17682 1156.20996
1051.0 0.000951 789.58423 1147.21399
1042.0 0.000960 788.99237 1137.53894
1063.0 0.000941 788.40143 1127.24878
1051.0 0.000951 787.81122 1116.40698
984.0 0.001016 787.22174 1105.08069
1069.0 0.000935 786.63330 1093.34167
1016.0 0.000984 786.04565 1081.26160
988.0 0.001012 785.45837 1068.91223
940.0 0.001064 784.87238 1057.15063
987.0 0.001013 784.28693 1044.48645
976.0 0.001025 783.70239 1031.76538
967.0 0.001034 783.11847 1019.41309
946.0 0.001057 782.53583 1006.77527
902.0 0.001109 781.95361 994.26770
958.0 0.001044 781.37244 981.94604
957.0 0.001045 780.79218 969.86072
939.0 0.001065 780.21265 958.05743
921.0 0.001086 779.63379 946.57886
966.0 0.001035 779.05597 935.45941
881.0 0.001135 778.47894 924.73169
862.0 0.001160 777.90277 914.42102
877.0 0.001140 777.32758 904.54895
953.0 0.001049 776.75299 895.13141
933.0 0.001072 776.17944 886.17981
914.0 0.001094 775.60681 877.70178
895.0 0.001117 775.03491 869.69922
886.0 0.001129 774.46411 862.17181
876.0 0.001142 773.89368 855.11444
824.0 0.001214 773.32471 848.51971
863.0 0.001159 772.75623 842.37653
827.0 0.001209 772.18884 836.67188
830.0 0.001205 771.62256 831.39056
854.0 0.001171 771.05664 826.51483
849.0 0.001178 770.49213 822.02661
821.0 0.001218 769.92804 817.90601
882.0 0.001134 769.36511 814.13239
836.0 0.001196 768.80310 810.68488
883.0 0.001133 768.24194 807.54236
835.0 0.001198 767.68176 804.68317
819.0 0.001221 767.12250 802.08612
827.0 0.001209 766.56427 799.73010
783.0 0.001277 766.00647 797.59521
763.0 0.001311 765.45013 795.66125
818.0 0.001222 764.89429 793.90955
885.0 0.001130 764.33972 792.32166
881.0 0.001135 763.78595 790.88019
808.0 0.001238 763.23309 789.56848
816.0 0.001225 762.68134 788.37158
832.0 0.001202 762.13031 787.27460
823.0 0.001215 761.58051 786.26410
800.0 0.001250 761.03131 785.32764
785.0 0.001274 760.48346 784.45355
793.0 0.001261 759.93610 783.63159
790.0 0.001266 759.39001 782.85223
835.0 0.001198 758.84479 782.10626
806.0 0.001241 758.30060 781.38690
782.0 0.001279 757.75726 780.68707
779.0 0.001284 757.21497 780.00061
814.0 0.001229 756.67365 779.32275
761.0 0.001314 756.13318 778.64874
816.0 0.001225 755.59393 777.97559
785.0 0.001274 755.05536 777.29956
792.0 0.001263 754.51807 776.61896
851.0 0.001175 753.98151 776.89709
801.0 0.001248 753.44598 776.22235
767.0 0.001304 752.91180 775.53937
787.0 0.001271 752.37811 774.84698
782.0 0.001279 751.84570 774.14569
778.0 0.001285 751.31421 773.43445
800.0 0.001250 750.78387 772.71411
818.0 0.001222 750.25439 771.98456
752.0 0.001330 749.72595 771.24658
763.0 0.001311 749.19849 770.50043
781.0 0.001280 748.67194 769.74658
783.0 0.001277 748.14667 768.98602
796.0 0.001256 747.62219 768.21948
819.0 0.001221 747.09882 767.44891
759.0 0.001318 746.57635 766.67377
766.0 0.001305 746.05511 765.89630
812.0 0.001232 745.53467 765.11761
773.0 0.001294 745.01556 765.28973
782.0 0.001279 744.49750 764.57758
769.0 0.001300 743.97998 763.87872
811.0 0.001233 743.46405 763.19745
750.0 0.001333 742.94879 762.53680
813.0 0.001230 742.43469 761.90210
847.0 0.001181 741.92163 761.29785
804.0 0.001244 741.40973 760.73004
771.0 0.001297 740.89856 759.79132
812.0 0.001232 740.38873 759.31714
843.0 0.001186 739.87994 758.89893
790.0 0.001266 739.37219 758.54401
785.0 0.001274 738.86566 758.26160
765.0 0.001307 738.35968 758.06091
778.0 0.001285 737.85504 757.95239
804.0 0.001244 737.35156 757.94690
768.0 0.001302 736.84900 758.05713
782.0 0.001279 736.34784 758.29626
801.0 0.001248 735.84747 758.98029
778.0 0.001285 735.34821 759.52600
772.0 0.001295 734.84991 760.24615
835.0 0.001198 734.35266 761.15845
819.0 0.001221 733.85669 762.28174
827.0 0.001209 733.36169 763.63501
808.0 0.001238 732.86768 765.23865
763.0 0.001311 732.37512 767.11487
803.0 0.001245 731.88342 769.28473
824.0 0.001214 731.39288 771.77100
782.0 0.001279 730.90326 774.59717
800.0 0.001250 730.41473 777.78644
873.0 0.001145 729.92749 781.36206
796.0 0.001256 729.44110 785.34692
754.0 0.001326 728.95624 789.76373
815.0 0.001227 728.47205 794.63428
792.0 0.001263 727.98907 799.97876
835.0 0.001198 727.50726 805.81616
853.0 0.001172 727.02649 812.16296
831.0 0.001203 726.54712 819.03448
840.0 0.001190 726.06842 826.44208
796.0 0.001256 725.59106 834.39502
895.0 0.001117 725.11469 842.89716
852.0 0.001174 724.63953 857.32977
827.0 0.001209 724.16559 867.00708
834.0 0.001199 723.69269 877.22559
923.0 0.001083 723.22089 887.97369
846.0 0.001182 722.74994 899.23169
878.0 0.001139 722.28052 910.97729
874.0 0.001144 721.81201 923.18054
837.0 0.001195 721.34467 935.97125
892.0 0.001121 720.87842 948.98334
884.0 0.001131 720.41351 962.62256
932.0 0.001073 719.94958 976.32281
932.0 0.001073 719.48663 990.26477
955.0 0.001047 719.02509 1004.38977
958.0 0.001044 718.56439 1018.63354
906.0 0.001104 718.10504 1032.92908
1018.0 0.000982 717.64673 1047.20581
1046.0 0.000956 717.18970 1061.39124
1061.0 0.000943 716.73358 1075.41113
1063.0 0.000941 716.27887 1089.18921
1100.0 0.000909 715.82513 1102.65063
1144.0 0.000874 715.37238 1115.72058
1141.0 0.000876 714.92133 1128.32581
1194.0 0.000838 714.47101 1140.39746
1191.0 0.000840 714.02185 1151.86877
1272.0 0.000786 713.57385 1162.67786
1266.0 0.000790 713.12701 1172.77100
1216.0 0.000822 712.68146 1182.10376
1300.0 0.000769 712.23700 1190.62671
1298.0 0.000770 711.79358 1198.31421
1326.0 0.000754 711.35132 1205.14294
1368.0 0.000731 710.91034 1211.10681
1373.0 0.000728 710.47040 1216.24890
1283.0 0.000779 710.03162 1220.49487
1350.0 0.000741 709.59393 1223.90747
1398.0 0.000715 709.15765 1226.52124
1282.0 0.000780 708.72253 1228.37976
1221.0 0.000819 708.28833 1229.53699
1279.0 0.000782 707.85547 1230.05579
1225.0 0.000816 707.42365 1230.00586
1192.0 0.000839 706.99329 1229.46533
1167.0 0.000857 706.56354 1228.51538
1207.0 0.000829 706.13550 1227.24207
1168.0 0.000856 705.70837 1225.73315
1179.0 0.000848 705.28253 1224.07764
1168.0 0.000856 704.85773 1222.36414
1154.0 0.000867 704.43414 1220.67871
1151.0 0.000869 704.01184 1219.10596
1133.0 0.000883 703.59045 1217.72388
1120.0 0.000893 703.17041 1216.60828
1092.0 0.000916 702.75177 1215.82666
1122.0 0.000891 702.33405 1215.44092
1184.0 0.000845 701.91766 1215.50476
1149.0 0.000870 701.50201 1216.06372
1150.0 0.000870 701.08801 1217.15527
1107.0 0.000903 700.67499 1218.80664
1202.0 0.000832 700.26324 1221.03662
1147.0 0.000872 699.85254 1223.85242
1143.0 0.000875 699.44324 1227.25342
1185.0 0.000844 699.03485 1231.22729
1163.0 0.000860 698.62793 1235.75134
1246.0 0.000803 698.22186 1240.79480
1239.0 0.000807 697.81702 1246.31470
1244.0 0.000804 697.41376 1252.26111
1243.0 0.000805 697.01105 1258.57349
1255.0 0.000797 696.61017 1265.18481
1236.0 0.000809 696.21021 1272.02063
1244.0 0.000804 695.81128 1279.00024
1310.0 0.000763 695.41364 1286.03809
1282.0 0.000780 695.01727 1293.04602
1274.0 0.000785 694.62219 1299.93250
1310.0 0.000763 694.22784 1306.60583
1236.0 0.000809 693.83514 1312.97546
1327.0 0.000754 693.44348 1318.95239
1308.0 0.000765 693.05310 1324.45178
1275.0 0.000784 692.66370 1329.39282
1365.0 0.000733 692.27570 1333.70264
1339.0 0.000747 691.88873 1337.31409
1330.0 0.000752 691.50293 1340.16956
1335.0 0.000749 691.11835 1342.22119
1360.0 0.000735 690.73505 1343.43127
1403.0 0.000713 690.35291 1343.77161
1333.0 0.000750 689.97186 1343.22729
1375.0 0.000727 689.59229 1341.79395
1355.0 0.000738 689.21350 1339.49548
1339.0 0.000747 688.83618 1336.31824
1367.0 0.000732 688.45996 1332.30884
1302.0 0.000768 688.08502 1327.50830
1355.0 0.000738 687.71124 1321.96912
1343.0 0.000745 687.33844 1315.75208
1355.0 0.000738 686.96722 1308.92676
1286.0 0.000778 686.59686 1301.57129
1326.0 0.000754 686.22784 1293.76965
1275.0 0.000784 685.85992 1285.61230
1324.0 0.000755 685.49323 1277.19324
1322.0 0.000756 685.12787 1268.60938
1231.0 0.000812 684.76361 1259.95947
1314.0 0.000761 684.40051 1251.34302
1268.0 0.000789 684.03845 1242.85852
1276.0 0.000784 683.67786 1234.78149
1274.0 0.000785 683.31830 1226.85864
1262.0 0.000792 682.96002 1219.34729
1270.0 0.000787 682.60291 1212.33057
1218.0 0.000821 682.24683 1205.88635
1267.0 0.000789 681.89209 1200.08362
1223.0 0.000818 681.53851 1194.98608
1264.0 0.000791 681.18616 1190.64832
1254.0 0.000797 680.83484 1187.11536
1248.0 0.000801 680.48505 1184.42395
1248.0 0.000801 680.13611 1182.60352
1255.0 0.000797 679.78845 1181.67017
1220.0 0.000820 679.44226 1181.63440
1283.0 0.000779 679.09674 1182.49487
1222.0 0.000818 678.75269 1184.24280
1224.0 0.000817 678.40985 1186.85938
1193.0 0.000838 678.06799 1190.31726
1218.0 0.000821 677.72754 1194.57996
1205.0 0.000830 677.38831 1199.84412
1209.0 0.000827 677.05017 1205.57898
1250.0 0.000800 676.71320 1211.96289
1263.0 0.000792 676.37744 1218.92810
1264.0 0.000791 676.04279 1226.39990
1256.0 0.000796 675.70941 1234.29907
1309.0 0.000764 675.37732 1242.53845
1242.0 0.000805 675.04614 1251.02588
1191.0 0.000840 674.71619 1259.66479
1300.0 0.000769 674.38757 1268.35388
1264.0 0.000791 674.06006 1276.98816
1176.0 0.000850 673.73376 1285.46057
1322.0 0.000756 673.40869 1293.66150
1340.0 0.000746 673.08472 1301.44006
1279.0 0.000782 672.76184 1308.76978
1240.0 0.000806 672.44025 1315.50085
1207.0 0.000829 672.11987 1321.53174
1321.0 0.000757 671.80048 1326.41919
1167.0 0.000857 671.48254 1330.76428
1279.0 0.000782 671.16559 1334.13745
1244.0 0.000804 670.84979 1336.46765
1223.0 0.000818 670.53540 1337.69507
1232.0 0.000812 670.22198 1337.77368
1203.0 0.000831 669.90979 1336.71521
1254.0 0.000797 669.59851 1334.41394
1258.0 0.000795 669.28882 1330.90967
1265.0 0.000791 668.98004 1326.21338
1234.0 0.000810 668.67255 1320.34790
1236.0 0.000809 668.36621 1313.34949
1243.0 0.000805 668.06085 1305.26404
1264.0 0.000791 667.75702 1296.14734
1204.0 0.000831 667.45398 1286.38562
1264.0 0.000791 667.15240 1275.42261
1302.0 0.000768 666.85162 1263.63647
1264.0 0.000791 666.55243 1251.10193
1272.0 0.000786 666.25433 1237.89844
1303.0 0.000767 665.95691 1224.10339
1234.0 0.000810 665.66125 1209.79370
1229.0 0.000814 665.36627 1195.04663
1243.0 0.000805 665.07288 1179.93530
1254.0 0.000797 664.78015 1164.53198
1243.0 0.000805 664.48907 1148.90552
1158.0 0.000864 664.19879 1133.12073
1192.0 0.000839 663.90985 1117.24121
1239.0 0.000807 663.62195 1101.32434
1167.0 0.000857 663.33533 1085.42688
1194.0 0.000838 663.04974 1069.60034
1142.0 0.000876 662.76526 1054.28528
1092.0 0.000916 662.48212 1038.76733
1064.0 0.000940 662.19989 1023.45905
1089.0 0.000918 661.91907 1008.39935
1082.0 0.000924 661.63898 993.62354
1054.0 0.000949 661.36029 979.16443
1030.0 0.000971 661.08282 965.05255
1013.0 0.000987 660.80615 951.64563
1094.0 0.000914 660.53107 938.31274
1005.0 0.000995 660.25684 925.39960
975.0 0.001026 659.98376 912.92603
1013.0 0.000987 659.71204 900.90802
901.0 0.001110 659.44122 889.36041
957.0 0.001045 659.17163 878.29517
913.0 0.001095 658.90302 867.72205
908.0 0.001101 658.63574 857.64911
881.0 0.001135 658.36951 848.08185
923.0 0.001083 658.10437 839.02466
972.0 0.001029 657.84027 830.47888
862.0 0.001160 657.57733 822.44562
853.0 0.001172 657.31567 814.92285
829.0 0.001206 657.05493 807.90796
829.0 0.001206 656.79547 801.39679
877.0 0.001140 656.53693 795.38287
892.0 0.001121 656.27972 789.85974
867.0 0.001153 656.02344 784.81836
824.0 0.001214 655.76831 780.25000
840.0 0.001190 655.51428 776.14301
829.0 0.001206 655.26147 773.71191
827.0 0.001209 655.00964 770.51965
844.0 0.001185 654.75909 767.75244
823.0 0.001215 654.50946 765.39520
779.0 0.001284 654.26099 763.43298
780.0 0.001282 654.01361 761.84998
781.0 0.001280 653.76733 760.62891
832.0 0.001202 653.52197 759.75299
789.0 0.001267 653.27795 759.20361
850.0 0.001176 653.03510 758.96307
828.0 0.001208 652.79321 759.01184
806.0 0.001241 652.55212 759.33099
770.0 0.001299 652.31244 759.90100
811.0 0.001233 652.07373 760.70197
791.0 0.001264 651.83630 761.71344
779.0 0.001284 651.59967 762.91602
802.0 0.001247 651.36432 764.28979
813.0 0.001230 651.12982 765.81378
778.0 0.001285 650.89667 767.46942
732.0 0.001366 650.66437 769.23694
818.0 0.001222 650.43323 771.09778
808.0 0.001238 650.20313 773.03339
794.0 0.001259 649.97412 775.02661
777.0 0.001287 649.74609 777.06073
765.0 0.001307 649.51923 779.12042
783.0 0.001277 649.29346 781.19141
825.0 0.001212 649.06866 783.26050
812.0 0.001232 648.84491 784.52942
769.0 0.001300 648.62225 786.58313
810.0 0.001235 648.40076 788.59058
807.0 0.001239 648.18024 790.55811
750.0 0.001333 647.96063 791.54901
768.0 0.001302 647.74219 793.43134
761.0 0.001314 647.52466 795.26068
749.0 0.001335 647.30829 797.03619
774.0 0.001292 647.09296 798.75842
818.0 0.001222 646.87872 800.42841
713.0 0.001403 646.66547 802.05017
747.0 0.001339 646.45313 803.62823
756.0 0.001323 646.24188 805.16913
762.0 0.001312 646.03162 806.68024
765.0 0.001307 645.82263 808.17023
758.0 0.001319 645.61456 810.20258
775.0 0.001290 645.40723 811.68622
753.0 0.001328 645.20117 813.86255
770.0 0.001299 644.99622 815.39697
759.0 0.001318 644.79218 816.97076
757.0 0.001321 644.58899 818.59644
797.0 0.001255 644.38690 820.28839
759.0 0.001318 644.18585 822.06079
773.0 0.001294 643.98584 823.92639
772.0 0.001295 643.78687 826.42865
755.0 0.001325 643.58875 828.52594
755.0 0.001325 643.39185 830.75244
767.0 0.001304 643.19574 833.11853
765.0 0.001307 643.00092 835.63153
771.0 0.001297 642.80682 838.29822
754.0 0.001326 642.61383 841.12323
749.0 0.001335 642.42157 844.10864
786.0 0.001272 642.23053 847.25519
793.0 0.001261 642.04047 850.56085
788.0 0.001269 641.85144 854.02179
799.0 0.001252 641.66327 857.63239
828.0 0.001208 641.47607 861.38318
816.0 0.001225 641.28979 865.26483
854.0 0.001171 641.10455 869.26379
820.0 0.001220 640.92041 873.36633
846.0 0.001182 640.73700 877.55524
835.0 0.001198 640.55463 881.81201
860.0 0.001163 640.37329 886.11664
815.0 0.001227 640.19293 890.44934
856.0 0.001168 640.01337 894.78180
830.0 0.001205 639.83496 899.09039
844.0 0.001185 639.65735 903.34961
942.0 0.001062 639.48065 907.53082
903.0 0.001107 639.30505 911.60547
936.0 0.001068 639.13025 915.54395
961.0 0.001041 638.95654 919.31549
982.0 0.001018 638.78369 922.88824
945.0 0.001058 638.61182 926.34821
946.0 0.001057 638.44080 929.43323
953.0 0.001049 638.27075 932.22955
1005.0 0.000995 638.10156 934.70276
972.0 0.001029 637.93329 936.82642
1031.0 0.000970 637.76605 938.57428
1026.0 0.000975 637.59973 939.92145
1025.0 0.000976 637.43427 935.48438
1116.0 0.000896 637.26959 936.04272
1054.0 0.000949 637.10614 936.14398
1022.0 0.000978 636.94336 935.77808
1075.0 0.000930 636.78156 934.93835
1063.0 0.000941 636.62067 933.62378
1040.0 0.000962 636.46057 931.83740
1066.0 0.000938 636.30139 929.42334
1029.0 0.000972 636.14337 926.72589
1001.0 0.000999 635.98584 923.59595
941.0 0.001063 635.82965 920.05505
957.0 0.001045 635.67395 916.12933
933.0 0.001072 635.51917 911.84729
921.0 0.001086 635.36560 907.24072
926.0 0.001080 635.21240 902.34418
952.0 0.001050 635.06036 897.19257
895.0 0.001117 634.90936 891.82281
873.0 0.001145 634.75903 886.27289
889.0 0.001125 634.60962 880.57880
896.0 0.001116 634.46106 874.77832
854.0 0.001171 634.31329 868.90771
853.0 0.001172 634.16632 863.00171
851.0 0.001175 634.02039 857.09357
837.0 0.001195 633.87518 851.21545
817.0 0.001224 633.73102 845.39612
808.0 0.001238 633.58752 839.66296
866.0 0.001155 633.44476 834.04047
830.0 0.001205 633.30310 828.55011
789.0 0.001267 633.16223 823.21094
811.0 0.001233 633.02191 818.03925
817.0 0.001224 632.88269 813.04730
753.0 0.001328 632.74414 808.24512
786.0 0.001272 632.60657 803.63977
794.0 0.001259 632.46991 799.23413
756.0 0.001323 632.33386 795.03015
777.0 0.001287 632.19861 791.02539
792.0 0.001263 632.06433 787.21539
761.0 0.001314 631.93085 783.59283
757.0 0.001321 631.79803 780.14880
776.0 0.001289 631.66602 776.87225
764.0 0.001309 631.53491 773.74988
782.0 0.001279 631.40460 770.76740
704.0 0.001420 631.27515 767.90991
731.0 0.001368 631.14642 765.16064
759.0 0.001318 631.01843 762.50317
774.0 0.001292 630.89130 759.92151
759.0 0.001318 630.76489 757.39880
799.0 0.001252 630.63922 754.92017
814.0 0.001229 630.51440 752.47064
723.0 0.001383 630.39038 750.03717
762.0 0.001312 630.26709 747.85181
747.0 0.001339 630.14447 745.41852
735.0 0.001361 630.02271 742.97052
745.0 0.001342 629.90167 740.50122
786.0 0.001272 629.78156 738.09680
757.0 0.001321 629.66205 735.57239
759.0 0.001318 629.54333 733.01685
750.0 0.001333 629.42529 730.43073
765.0 0.001307 629.30811 727.81512
759.0 0.001318 629.19165 725.17328
768.0 0.001302 629.07599 722.50879
746.0 0.001340 628.96069 719.82715
749.0 0.001335 628.84674 717.13409
748.0 0.001337 628.73309 714.43628
754.0 0.001326 628.62030 711.74139
745.0 0.001342 628.50818 709.05719
715.0 0.001399 628.39667 706.39233
739.0 0.001353 628.28625 703.75482
740.0 0.001351 628.17609 701.15369
731.0 0.001368 628.06702 698.59760
706.0 0.001416 627.95837 696.09552
681.0 0.001468 627.85046 693.65625
688.0 0.001453 627.74335 691.28815
691.0 0.001447 627.63702 688.99939
705.0 0.001418 627.53125 686.79761
710.0 0.001408 627.42639 684.69043
687.0 0.001456 627.32202 682.68512
707.0 0.001414 627.21820 680.78827
677.0 0.001477 627.11536 679.00574
667.0 0.001499 627.01300 677.34204
678.0 0.001475 626.91150 675.80322
705.0 0.001418 626.81042 674.39282
677.0 0.001477 626.71021 673.11554
690.0 0.001449 626.61072 672.08252
706.0 0.001416 626.51184 671.08063
695.0 0.001439 626.41351 670.21777
657.0 0.001522 626.31580 669.49622
744.0 0.001344 626.21887 668.91602
696.0 0.001437 626.12244 668.47766
665.0 0.001504 626.02692 668.18054
675.0 0.001481 625.93170 668.02338
674.0 0.001484 625.83740 668.00488
742.0 0.001348 625.74371 668.12408
730.0 0.001370 625.65045 668.37714
756.0 0.001323 625.55811 668.76196
666.0 0.001502 625.46613 669.27502
701.0 0.001427 625.37494 669.91345
663.0 0.001508 625.28442 670.67242
682.0 0.001466 625.19427 671.70251
692.0 0.001445 625.10498 672.69342
727.0 0.001376 625.01630 673.79156
687.0 0.001456 624.92822 675.69232
696.0 0.001437 624.84070 676.99780
676.0 0.001479 624.75360 678.39374
721.0 0.001387 624.66724 679.87402
669.0 0.001495 624.58154 681.43213
669.0 0.001495 624.49622 683.06104
716.0 0.001397 624.41162 684.75446
701.0 0.001427 624.32764 686.50458
702.0 0.001425 624.24426 688.30444
672.0 0.001488 624.16156 690.14594
670.0 0.001493 624.07916 692.02148
676.0 0.001479 623.99750 693.92267
647.0 0.001546 623.91644 695.84125
706.0 0.001416 623.83588 697.76843
755.0 0.001325 623.75598 699.69568
720.0 0.001389 623.67657 701.61395
689.0 0.001451 623.59766 703.51392
729.0 0.001372 623.51923 705.38654
707.0 0.001414 623.44153 707.22333
751.0 0.001332 623.36432 709.01428
716.0 0.001397 623.28766 710.75104
683.0 0.001464 623.21143 712.42480
686.0 0.001458 623.13593 714.02679
733.0 0.001364 623.06091 715.54993
688.0 0.001453 622.98621 716.98651
731.0 0.001368 622.91235 718.33014
755.0 0.001325 622.83875 719.57581
737.0 0.001357 622.76587 720.81744
687.0 0.001456 622.69324 721.85553
726.0 0.001377 622.62146 722.78607
710.0 0.001408 622.54993 723.60840
734.0 0.001362 622.47894 724.32300
728.0 0.001374 622.40857 724.93225
792.0 0.001263 622.33856 725.43994
707.0 0.001414 622.26935 725.84998
722.0 0.001385 622.20026 726.16919
727.0 0.001376 622.13184 726.40436
701.0 0.001427 622.06384 726.56329
712.0 0.001404 621.99622 726.65369
703.0 0.001422 621.92932 726.68573
726.0 0.001377 621.86279 726.47083
702.0 0.001425 621.79657 726.41534
702.0 0.001425 621.73114 726.32941
733.0 0.001364 621.66614 726.22168
699.0 0.001431 621.60144 726.10223
699.0 0.001431 621.53723 725.97925
744.0 0.001344 621.47345 725.86151
680.0 0.001471 621.41010 725.75623
737.0 0.001357 621.34723 725.67108
737.0 0.001357 621.28497 725.61200
717.0 0.001395 621.22296 725.58533
714.0 0.001401 621.16125 725.59589
749.0 0.001335 621.10034 725.64819
708.0 0.001412 621.03955 725.74536
723.0 0.001383 620.97931 725.89056
703.0 0.001422 620.91962 726.08588
697.0 0.001435 620.86023 726.33160
667.0 0.001499 620.80133 726.62903
683.0 0.001464 620.74292 726.97742
716.0 0.001397 620.68463 727.37524
709.0 0.001410 620.62683 727.82043
689.0 0.001451 620.56964 728.31073
763.0 0.001311 620.51270 728.84235
710.0 0.001408 620.45636 729.41058
706.0 0.001416 620.40009 730.01117
742.0 0.001348 620.34442 730.63812
742.0 0.001348 620.28912 731.28558
740.0 0.001351 620.23419 731.94666
714.0 0.001401 620.17963 732.61438
707.0 0.001414 620.12537 733.28137
715.0 0.001399 620.07166 734.52930
683.0 0.001464 620.01813 735.17804
719.0 0.001391 619.96515 735.80249
705.0 0.001418 619.91248 736.39545
720.0 0.001389 619.86005 736.94922
650.0 0.001538 619.80811 737.45654
696.0 0.001437 619.75653 737.91064
710.0 0.001408 619.70532 738.30542
697.0 0.001435 619.65436 738.63525
708.0 0.001412 619.60388 738.89557
670.0 0.001493 619.55353 739.08270
669.0 0.001495 619.50366 739.19379
741.0 0.001350 619.45428 739.22711
677.0 0.001477 619.40509 739.18274
713.0 0.001403 619.35620 739.10614
711.0 0.001406 619.30768 738.90967
723.0 0.001383 619.25940 738.64148
740.0 0.001351 619.21143 738.34827
702.0 0.001425 619.16400 737.95123
706.0 0.001416 619.11664 737.49902
718.0 0.001393 619.06970 736.99854
701.0 0.001427 619.02307 736.58429
704.0 0.001420 618.97675 736.01563
699.0 0.001431 618.93066 735.42578
729.0 0.001372 618.88507 734.82465
695.0 0.001439 618.83966 734.22205
694.0 0.001441 618.79437 733.62811
693.0 0.001443 618.74957 733.05273
678.0 0.001475 618.70496 732.50586
667.0 0.001499 618.66071 731.99652
740.0 0.001351 618.61682 731.53369
728.0 0.001374 618.57312 731.12610
703.0 0.001422 618.52960 730.78107
667.0 0.001499 618.48633 730.50562
710.0 0.001408 618.44336 730.30652
704.0 0.001420 618.40076 730.18860
684.0 0.001462 618.35822 730.15692
743.0 0.001346 618.31610 730.21527
734.0 0.001362 618.27435 730.36652
712.0 0.001404 618.23254 731.29712
679.0 0.001473 618.19135 731.64618
688.0 0.001453 618.15015 732.09119
676.0 0.001479 618.10919 732.63129
702.0 0.001425 618.06860 733.26410
723.0 0.001383 618.02814 733.98712
694.0 0.001441 617.98792 734.79639
751.0 0.001332 617.94781 735.68695
735.0 0.001361 617.90814 736.65356
775.0 0.001290 617.86859 737.68970
729.0 0.001372 617.82935 738.78741
711.0 0.001406 617.79022 739.93866
745.0 0.001342 617.75128 741.13440
768.0 0.001302 617.71271 742.36456
744.0 0.001344 617.67432 743.61798
823.0 0.001215 617.63611 744.88367
779.0 0.001284 617.59802 746.14948
781.0 0.001280 617.56024 747.40283
769.0 0.001300 617.52252 748.63080
777.0 0.001287 617.48486 749.81885
795.0 0.001258 617.44769 750.95453
734.0 0.001362 617.41064 752.02350
772.0 0.001295 617.37384 753.01215
803.0 0.001245 617.33704 756.30090
777.0 0.001287 617.30048 757.12286
774.0 0.001292 617.26404 757.82623
745.0 0.001342 617.22791 758.39972
765.0 0.001307 617.19165 758.83276
720.0 0.001389 617.15588 759.11633
800.0 0.001250 617.12030 759.24219
768.0 0.001302 617.08459 759.20416
742.0 0.001348 617.04938 758.99683
753.0 0.001328 617.01416 758.61761
745.0 0.001342 616.97882 758.06439
729.0 0.001372 616.94409 757.33759
718.0 0.001393 616.90918 756.43829
752.0 0.001330 616.87457 755.36993
751.0 0.001332 616.84003 754.13678
782.0 0.001279 616.80566 752.74396
743.0 0.001346 616.77136 751.19922
747.0 0.001339 616.73718 749.50916
745.0 0.001342 616.70331 747.68280
712.0 0.001404 616.66943 745.72888
767.0 0.001304 616.63568 743.65753
739.0 0.001353 616.60187 741.19031
744.0 0.001344 616.56848 738.91534
724.0 0.001381 616.53491 736.55310
707.0 0.001414 616.50183 734.11353
708.0 0.001412 616.46857 731.60773
729.0 0.001372 616.43549 729.04504
739.0 0.001353 616.40240 726.43561
744.0 0.001344 616.36951 723.78943
761.0 0.001314 616.33661 721.11682
683.0 0.001464 616.30396 718.42535
759.0 0.001318 616.27142 715.72534
734.0 0.001362 616.23877 713.02515
740.0 0.001351 616.20636 710.33295
704.0 0.001420 616.17389 707.65680
668.0 0.001497 616.14172 705.00482
696.0 0.001437 616.10950 702.38367
696.0 0.001437 616.07715 699.80072
705.0 0.001418 616.04523 697.26270
684.0 0.001462 616.01312 694.77582
690.0 0.001449 615.98132 692.34601
638.0 0.001567 615.94934 689.97833
661.0 0.001513 615.91754 687.67902
661.0 0.001513 615.88580 685.45197
732.0 0.001366 615.85406 683.30237
680.0 0.001471 615.82233 681.23358
637.0 0.001570 615.79071 679.24994
689.0 0.001451 615.75909 677.35498
702.0 0.001425 615.72748 675.55139
696.0 0.001437 615.69604 673.84222
666.0 0.001502 615.66455 672.23022
675.0 0.001481 615.63312 670.71765
642.0 0.001558 615.60187 669.30640
663.0 0.001508 615.57025 667.99915
720.0 0.001389 615.53906 666.79694
639.0 0.001565 615.50757 665.96045
712.0 0.001404 615.47644 664.97852
641.0 0.001560 615.44513 664.10675
667.0 0.001499 615.41370 663.34698
714.0 0.001401 615.38245 662.70172
714.0 0.001401 615.35132 662.17206
679.0 0.001473 615.32007 661.75946
638.0 0.001567 615.28870 661.46655
683.0 0.001464 615.25757 661.29535
690.0 0.001449 615.22620 661.24823
688.0 0.001453 615.19489 661.32758
683.0 0.001464 615.16382 661.53625
692.0 0.001445 615.13257 661.87732
670.0 0.001493 615.10138 662.35437
703.0 0.001422 615.06970 662.97137
709.0 0.001410 615.03870 663.73138
683.0 0.001464 615.00732 664.97559
704.0 0.001420 614.97601 666.08960
640.0 0.001563 614.94464 667.37000
696.0 0.001437 614.91309 668.82355
684.0 0.001462 614.88190 670.45746
692.0 0.001445 614.85034 672.27930
641.0 0.001560 614.81885 674.29718
669.0 0.001495 614.78729 676.52014
673.0 0.001486 614.75580 678.95758
710.0 0.001408 614.72418 681.61877
708.0 0.001412 614.69275 684.51422
719.0 0.001391 614.66089 687.65369
706.0 0.001416 614.62915 691.04913
713.0 0.001403 614.59735 694.71124
711.0 0.001406 614.56555 698.65131
710.0 0.001408 614.53357 702.88171
683.0 0.001464 614.50159 707.41327
697.0 0.001435 614.46967 712.25818
694.0 0.001441 614.43768 717.98938
753.0 0.001328 614.40546 723.59570
737.0 0.001357 614.37323 729.47681
682.0 0.001466 614.34100 735.72028
748.0 0.001337 614.30872 742.33594
739.0 0.001353 614.27631 749.33514
753.0 0.001328 614.24377 756.72711
769.0 0.001300 614.21100 764.52026
757.0 0.001321 614.17841 772.72253
731.0 0.001368 614.14575 781.33984
723.0 0.001383 614.11292 790.37744
802.0 0.001247 614.08008 799.82562
763.0 0.001311 614.04694 809.71185
787.0 0.001271 614.01385 820.02277
778.0 0.001285 613.98077 830.75568
777.0 0.001287 613.94751 841.90576
793.0 0.001261 613.91394 853.46552
853.0 0.001172 613.88055 865.42407
814.0 0.001229 613.84705 877.76886
802.0 0.001247 613.81329 890.48364
807.0 0.001239 613.77960 903.54877
872.0 0.001147 613.74561 916.94196
888.0 0.001126 613.71161 930.63696
950.0 0.001053 613.67743 944.60480
908.0 0.001101 613.64325 958.81207
940.0 0.001064 613.60883 973.22278
977.0 0.001024 613.57440 987.79773
956.0 0.001046 613.53979 1002.49255
953.0 0.001049 613.50519 1017.26190
1012.0 0.000988 613.47021 1032.05566
1143.0 0.000875 613.43536 1046.82068
1080.0 0.000926 613.40009 1061.50183
1112.0 0.000899 613.36481 1076.04028
1099.0 0.000910 613.32928 1090.37561
1122.0 0.000891 613.29382 1104.44397
1213.0 0.000824 613.25812 1118.18152
1230.0 0.000813 613.22235 1131.52075
1231.0 0.000812 613.18646 1144.39526
1232.0 0.000812 613.15039 1156.73730
1291.0 0.000775 613.11420 1168.47986
1297.0 0.000771 613.07794 1179.55542
1317.0 0.000759 613.04114 1189.89954
1377.0 0.000726 613.00458 1199.44946
1419.0 0.000705 612.96765 1208.14612
1394.0 0.000717 612.93073 1215.93457
1444.0 0.000693 612.89374 1222.76379
1407.0 0.000711 612.85638 1228.59009
1387.0 0.000721 612.81879 1233.37500
1446.0 0.000692 612.78094 1237.80444
1448.0 0.000691 612.74323 1240.43347
1499.0 0.000667 612.70532 1241.95349
1442.0 0.000693 612.66736 1242.35913
1433.0 0.000698 612.62897 1241.65344
1445.0 0.000692 612.59033 1239.84656
1429.0 0.000700 612.55164 1236.95886
1452.0 0.000689 612.51294 1233.01733
1390.0 0.000719 612.47388 1228.05701
1346.0 0.000743 612.43469 1222.11877
1308.0 0.000765 612.39539 1215.47656
1337.0 0.000748 612.35571 1207.76904
1295.0 0.000772 612.31598 1199.24573
1262.0 0.000792 612.27594 1190.05371
1226.0 0.000816 612.23608 1180.09949
1228.0 0.000814 612.19556 1169.52295
1184.0 0.000845 612.15509 1158.39148
1162.0 0.000861 612.11438 1146.77246
1137.0 0.000880 612.07355 1134.73560
1093.0 0.000915 612.03235 1122.34851
1058.0 0.000945 611.99103 1109.67908
1104.0 0.000906 611.94958 1096.79285
1014.0 0.000986 611.90796 1083.75488
982.0 0.001018 611.86603 1070.62878
1012.0 0.000988 611.82385 1057.47461
992.0 0.001008 611.78162 1044.35046
941.0 0.001063 611.73907 1031.31287
892.0 0.001121 611.69641 1018.41339
923.0 0.001083 611.65344 1005.70245
886.0 0.001129 611.61029 993.22662
912.0 0.001096 611.56689 981.02875
951.0 0.001052 611.52338 969.14832
880.0 0.001136 611.47955 957.62122
884.0 0.001131 611.43542 946.48022
918.0 0.001089 611.39117 935.75336
878.0 0.001139 611.34656 925.46649
851.0 0.001175 611.30194 915.63989
844.0 0.001185 611.25708 906.29126
869.0 0.001151 611.21167 897.43457
859.0 0.001164 611.16644 890.86060
824.0 0.001214 611.12091 883.20734
840.0 0.001190 611.07495 876.09167
785.0 0.001274 611.02905 868.70251
838.0 0.001193 610.98260 862.67468
834.0 0.001199 610.93622 857.18402
840.0 0.001190 610.88934 852.22522
799.0 0.001252 610.84216 847.79022
849.0 0.001178 610.79498 843.86884
844.0 0.001185 610.74744 840.58752
819.0 0.001221 610.69977 837.65601
871.0 0.001148 610.65186 835.19604
884.0 0.001131 610.60364 833.19043
811.0 0.001233 610.55499 831.62054
844.0 0.001185 610.50623 830.46777
855.0 0.001170 610.45728 829.71216
846.0 0.001182 610.40808 829.33331
832.0 0.001202 610.35864 829.31085
852.0 0.001174 610.30884 829.62494
854.0 0.001171 610.25885 830.25464
883.0 0.001133 610.20880 831.18073
856.0 0.001168 610.15820 832.38458
845.0 0.001183 610.10736 833.84698
888.0 0.001126 610.05627 835.55127
887.0 0.001127 610.00500 837.48053
875.0 0.001143 609.95343 839.62024
918.0 0.001089 609.90173 841.95532
865.0 0.001156 609.84955 844.47321
908.0 0.001101 609.79718 847.16180
897.0 0.001115 609.74463 850.01031
900.0 0.001111 609.69189 853.00873
939.0 0.001065 609.63867 856.14819
971.0 0.001030 609.58521 860.16626
934.0 0.001071 609.53162 863.66321
940.0 0.001064 609.47754 867.29095
968.0 0.001033 609.42328 871.04382
963.0 0.001038 609.36896 874.40955
961.0 0.001041 609.31409 878.40356
936.0 0.001068 609.25909 882.50830
953.0 0.001049 609.20386 887.02942
986.0 0.001014 609.14813 891.37946
926.0 0.001080 609.09229 895.83038
1002.0 0.000998 609.03601 900.37708
978.0 0.001022 608.97968 905.01367
956.0 0.001046 608.92285 909.73389
992.0 0.001008 608.86578 914.53082
963.0 0.001038 608.80847 919.39624
961.0 0.001041 608.75098 924.32190
921.0 0.001086 608.69293 929.29840
980.0 0.001020 608.63489 934.31555
997.0 0.001003 608.57666 939.36218
967.0 0.001034 608.51801 944.42633
974.0 0.001027 608.45892 949.49518
990.0 0.001010 608.39954 954.55524
996.0 0.001004 608.33984 959.59137
1004.0 0.000996 608.27997 964.58960
970.0 0.001031 608.21997 969.53351
1048.0 0.000954 608.15942 974.40710
1030.0 0.000971 608.09875 979.19360
1019.0 0.000981 608.03754 983.87610
1021.0 0.000979 607.97620 988.43750
1037.0 0.000964 607.91437 992.86029
1002.0 0.000998 607.85260 997.12756
999.0 0.001001 607.79034 1001.22302
997.0 0.001003 607.72766 1005.13007
977.0 0.001024 607.66486 1008.83246
996.0 0.001004 607.60175 1012.31586
970.0 0.001031 607.53827 1016.10107
1022.0 0.000978 607.47461 1019.11102
1009.0 0.000991 607.41052 1021.89410
988.0 0.001012 607.34601 1024.38000
980.0 0.001020 607.28137 1026.58960
984.0 0.001016 607.21643 1028.51563
964.0 0.001037 607.15125 1030.15247
965.0 0.001036 607.08563 1031.49585
954.0 0.001048 607.01965 1032.54285
1002.0 0.000998 606.95343 1033.29163
963.0 0.001038 606.88696 1033.74231
1007.0 0.000993 606.82007 1033.89502
919.0 0.001088 606.75299 1033.75171
939.0 0.001065 606.68561 1033.31445
1022.0 0.000978 606.61774 1032.58630
971.0 0.001030 606.54968 1031.57007
953.0 0.001049 606.48145 1030.26929
988.0 0.001012 606.41266 1028.68713
921.0 0.001086 606.34375 1026.82788
924.0 0.001082 606.27435 1024.69312
947.0 0.001056 606.20471 1022.28687
982.0 0.001018 606.13495 1019.61108
972.0 0.001029 606.06464 1016.66785
974.0 0.001027 605.99402 1013.45941
898.0 0.001114 605.92316 1009.98816
966.0 0.001035 605.85181 1006.25348
904.0 0.001106 605.78040 1002.25732
928.0 0.001078 605.70862 998.00128
935.0 0.001070 605.63641 993.48615
920.0 0.001087 605.56390 988.71417
914.0 0.001094 605.49133 983.68658
936.0 0.001068 605.41809 978.51886
956.0 0.001046 605.34479 972.99084
946.0 0.001057 605.27087 967.21863
971.0 0.001030 605.19690 961.20740
852.0 0.001174 605.12256 954.96332
890.0 0.001124 605.04785 948.49451
899.0 0.001112 604.97284 941.80963
926.0 0.001080 604.89752 935.00781
954.0 0.001048 604.82166 927.92505
909.0 0.001100 604.74579 920.66089
856.0 0.001168 604.66943 913.22766
887.0 0.001127 604.59290 905.64063
890.0 0.001124 604.51593 898.00940
889.0 0.001125 604.43860 890.16162
880.0 0.001136 604.36108 882.20807
877.0 0.001140 604.28290 874.16565
866.0 0.001155 604.20490 866.05249
795.0 0.001258 604.12640 857.88599
836.0 0.001196 604.04742 849.68494
771.0 0.001297 603.96820 841.46747
824.0 0.001214 603.88855 833.25220
772.0 0.001295 603.80878 825.05817
820.0 0.001220 603.72864 816.90259
844.0 0.001185 603.64813 808.80450
812.0 0.001232 603.56702 800.78107
800.0 0.001250 603.48608 792.85004
825.0 0.001212 603.40454 785.02795
758.0 0.001319 603.32294 777.33075
750.0 0.001333 603.24066 769.77466
729.0 0.001372 603.15808 762.50677
716.0 0.001397 603.07538 755.27856
744.0 0.001344 602.99237 748.23334
752.0 0.001330 602.90894 741.38165
713.0 0.001403 602.82507 734.73535
673.0 0.001486 602.74103 728.30396
714.0 0.001401 602.65656 722.09546
727.0 0.001376 602.57196 716.12579
696.0 0.001437 602.48682 710.46240
716.0 0.001397 602.40149 704.96399
692.0 0.001445 602.31567 699.71112
707.0 0.001414 602.22961 694.70581
726.0 0.001377 602.14337 689.95087
675.0 0.001481 602.05646 685.44519
676.0 0.001479 601.96967 681.18909
618.0 0.001618 601.88214 677.17969
661.0 0.001513 601.79443 673.41486
684.0 0.001462 601.70660 669.89111
665.0 0.001504 601.61829 666.60303
705.0 0.001418 601.52972 663.54608
672.0 0.001488 601.44067 660.71423
711.0 0.001406 601.35144 658.10016
680.0 0.001471 601.26166 655.69745
612.0 0.001634 601.17181 653.49799
645.0 0.001550 601.08160 651.49384
679.0 0.001473 600.99103 649.67651
706.0 0.001416 600.90009 648.03772
623.0 0.001605 600.80878 644.07080
624.0 0.001603 600.71729 642.52704
665.0 0.001504 600.62531 641.39905
643.0 0.001555 600.53302 640.41351
671.0 0.001490 600.44073 639.56183
659.0 0.001517 600.34766 638.83490
684.0 0.001462 600.25446 638.22406
681.0 0.001468 600.16119 637.77838
641.0 0.001560 600.06738 637.37585
660.0 0.001515 599.97308 637.06500
675.0 0.001481 599.87866 636.83850
654.0 0.001529 599.78363 636.68823
636.0 0.001572 599.68884 636.60754
624.0 0.001603 599.59338 636.58978
656.0 0.001524 599.49762 636.62811
672.0 0.001488 599.40149 636.71692
658.0 0.001520 599.30493 636.85028
645.0 0.001550 599.20831 637.02313
662.0 0.001511 599.11133 637.23059
613.0 0.001631 599.01398 637.46808
653.0 0.001531 598.91638 637.73169
660.0 0.001515 598.81818 638.01752
609.0 0.001642 598.71985 638.32324
635.0 0.001575 598.62140 638.64514
667.0 0.001499 598.52234 638.98077
680.0 0.001471 598.42328 639.32855
680.0 0.001471 598.32373 639.68573
699.0 0.001431 598.22369 640.13251
638.0 0.001567 598.12366 640.50806
660.0 0.001515 598.02307 640.88953
633.0 0.001580 597.92230 641.27618
598.0 0.001672 597.82104 641.66687
655.0 0.001527 597.71948 642.06165
558.0 0.001792 597.61774 642.45923
635.0 0.001575 597.51563 642.85944
634.0 0.001577 597.41321 643.26178
656.0 0.001524 597.31061 643.66522
645.0 0.001550 597.20740 644.07001
647.0 0.001546 597.10413 644.47510
675.0 0.001481 597.00061 644.88086
692.0 0.001445 596.89667 645.28607
618.0 0.001618 596.79224 645.69067
622.0 0.001608 596.68774 646.09442
655.0 0.001527 596.58282 646.49664
629.0 0.001590 596.47766 647.44391
638.0 0.001567 596.37213 647.85193
617.0 0.001621 596.26630 648.25836
629.0 0.001590 596.16016 648.66235
627.0 0.001595 596.05371 649.06482
654.0 0.001529 595.94708 649.46466
672.0 0.001488 595.83997 649.86218
620.0 0.001613 595.73273 650.25787
626.0 0.001597 595.62506 650.65100
607.0 0.001647 595.51733 651.04272
606.0 0.001650 595.40906 651.43262
642.0 0.001558 595.30042 651.82172
655.0 0.001527 595.19153 652.20978
624.0 0.001603 595.08240 652.59796
615.0 0.001626 594.97284 652.98694
640.0 0.001563 594.86316 653.37732
616.0 0.001623 594.75317 653.77032
600.0 0.001667 594.64288 654.16730
618.0 0.001618 594.53223 654.56940
669.0 0.001495 594.42145 654.97827
670.0 0.001493 594.31012 655.39545
668.0 0.001497 594.19855 655.82349
659.0 0.001517 594.08673 656.26410
633.0 0.001580 593.97467 656.71930
640.0 0.001563 593.86224 657.19147
669.0 0.001495 593.74969 658.95239
663.0 0.001508 593.63660 659.47705
645.0 0.001550 593.52332 660.02643
625.0 0.001600 593.40979 660.60309
611.0 0.001637 593.29596 661.20941
607.0 0.001647 593.18176 661.84796
669.0 0.001495 593.06726 662.52063
660.0 0.001515 592.95282 663.29871
624.0 0.001603 592.83765 664.04761
666.0 0.001502 592.72253 664.83759
645.0 0.001550 592.60687 665.66949
646.0 0.001548 592.49115 666.54431
610.0 0.001639 592.37488 667.46387
658.0 0.001520 592.25867 668.42834
636.0 0.001572 592.14185 669.43835
680.0 0.001471 592.02478 670.49365
642.0 0.001558 591.90759 671.59436
645.0 0.001550 591.78998 672.73907
648.0 0.001543 591.67236 673.92700
704.0 0.001420 591.55438 675.15674
665.0 0.001504 591.43597 676.42633
656.0 0.001524 591.31732 677.73322
647.0 0.001546 591.19855 679.07446
667.0 0.001499 591.07922 680.44714
616.0 0.001623 590.95972 681.84778
610.0 0.001639 590.84009 683.27264
631.0 0.001585 590.72009 684.71716
652.0 0.001534 590.59973 686.17670
641.0 0.001560 590.47925 687.64655
648.0 0.001543 590.35852 689.12158
683.0 0.001464 590.23749 690.59723
681.0 0.001468 590.11615 692.06799
673.0 0.001486 589.99475 693.52838
659.0 0.001517 589.87274 694.97351
647.0 0.001546 589.75061 696.39856
672.0 0.001488 589.62842 697.79822
706.0 0.001416 589.50543 699.16913
670.0 0.001493 589.38275 700.50555
685.0 0.001460 589.25958 701.80554
731.0 0.001368 589.13617 703.06525
666.0 0.001502 589.01257 704.28168
683.0 0.001464 588.88855 705.45398
696.0 0.001437 588.76465 706.58020
710.0 0.001408 588.64014 707.65955
664.0 0.001506 588.51556 708.69183
737.0 0.001357 588.39056 709.67743
705.0 0.001418 588.26538 710.61761
698.0 0.001433 588.13995 711.51331
689.0 0.001451 588.01422 712.36652
737.0 0.001357 587.88824 713.67023
706.0 0.001416 587.76221 714.45093
722.0 0.001385 587.63574 715.19623
684.0 0.001462 587.50897 715.90778
684.0 0.001462 587.38214 716.58911
730.0 0.001370 587.25507 717.43726
700.0 0.001429 587.12775 718.06567
694.0 0.001441 587.00000 718.66962
732.0 0.001366 586.87213 719.25067
729.0 0.001372 586.74414 719.81079
721.0 0.001387 586.61566 720.35052
696.0 0.001437 586.48718 720.87091
745.0 0.001342 586.35834 721.37085
726.0 0.001377 586.22925 721.85107
667.0 0.001499 586.10004 721.77417
705.0 0.001418 585.97070 722.21631
725.0 0.001379 585.84088 722.63422
702.0 0.001425 585.71088 723.02722
700.0 0.001429 585.58075 723.38873
655.0 0.001527 585.45032 723.71802
659.0 0.001517 585.31952 724.01123
660.0 0.001515 585.18878 724.26477
723.0 0.001383 585.05774 724.47351
717.0 0.001395 584.92633 724.92340
700.0 0.001429 584.79486 725.03363
677.0 0.001477 584.66309 725.08484
698.0 0.001433 584.53101 725.07257
716.0 0.001397 584.39899 724.99188
691.0 0.001447 584.26654 724.83698
724.0 0.001381 584.13385 724.60309
704.0 0.001420 584.00128 724.28503
705.0 0.001418 583.86829 723.87769
643.0 0.001555 583.73486 723.37677
741.0 0.001350 583.60150 722.77814
714.0 0.001401 583.46765 722.07764
721.0 0.001387 583.33386 721.27277
748.0 0.001337 583.19989 720.35999
729.0 0.001372 583.06549 719.33783
767.0 0.001304 582.93091 718.20508
799.0 0.001252 582.79639 716.96167
775.0 0.001290 582.66144 715.60773
750.0 0.001333 582.52631 714.14459
794.0 0.001259 582.39111 712.57526
866.0 0.001155 582.25555 710.90167
871.0 0.001148 582.11975 709.12842
818.0 0.001222 581.98401 707.25977
821.0 0.001218 581.84790 705.30121
844.0 0.001185 581.71167 703.25885
856.0 0.001168 581.57520 701.13855
807.0 0.001239 581.43848 698.94788
755.0 0.001325 581.30170 696.69348
810.0 0.001235 581.16461 694.38312
743.0 0.001346 581.02753 692.02539
732.0 0.001366 580.88995 689.78442
717.0 0.001395 580.75250 687.35645
734.0 0.001362 580.61475 684.90509
706.0 0.001416 580.47687 682.43817
705.0 0.001418 580.33868 679.96442
693.0 0.001443 580.20038 677.49158
673.0 0.001486 580.06183 675.02759
680.0 0.001471 579.92328 672.58014
666.0 0.001502 579.78430 670.15674
673.0 0.001486 579.64539 667.76459
675.0 0.001481 579.50616 665.41150
679.0 0.001473 579.36694 663.10339
663.0 0.001508 579.22736 660.84680
657.0 0.001522 579.08752 658.64758
657.0 0.001522 578.94794 656.51178
636.0 0.001572 578.80780 654.44403
663.0 0.001508 578.66760 652.44989
636.0 0.001572 578.52728 650.53290
673.0 0.001486 578.38672 648.69727
584.0 0.001712 578.24609 646.94629
608.0 0.001645 578.10535 645.28333
613.0 0.001631 577.96417 643.71088
655.0 0.001527 577.82300 642.23145
600.0 0.001667 577.68182 640.84613
655.0 0.001527 577.54034 639.55707
658.0 0.001520 577.39862 638.36456
675.0 0.001481 577.25696 637.26990
628.0 0.001592 577.11523 636.03387
635.0 0.001575 576.97308 635.13727
637.0 0.001570 576.83093 634.33875
645.0 0.001550 576.68866 633.63763
649.0 0.001541 576.54590 633.03326
636.0 0.001572 576.40338 632.52490
643.0 0.001555 576.26050 632.11194
628.0 0.001592 576.11768 631.79285
601.0 0.001664 575.97473 631.56702
661.0 0.001513 575.83142 631.43268
675.0 0.001481 575.68811 631.38910
688.0 0.001453 575.54468 631.43524
681.0 0.001468 575.40094 631.56976
686.0 0.001458 575.25726 631.79169
634.0 0.001577 575.11328 632.09961
630.0 0.001587 574.96954 632.49268
675.0 0.001481 574.82532 632.96997
631.0 0.001585 574.68097 633.53131
659.0 0.001517 574.53668 634.17474
653.0 0.001531 574.39233 634.90033
658.0 0.001520 574.24744 635.70740
653.0 0.001531 574.10278 636.59509
632.0 0.001582 573.95807 637.56250
670.0 0.001493 573.81311 638.60925
692.0 0.001445 573.66809 639.73547
655.0 0.001527 573.52264 640.93835
663.0 0.001508 573.37732 642.21722
644.0 0.001553 573.23187 643.57214
644.0 0.001553 573.08630 645.00134
695.0 0.001439 572.94080 646.50348
654.0 0.001529 572.79498 648.07764
683.0 0.001464 572.64917 649.72180
695.0 0.001439 572.50305 651.43420
674.0 0.001484 572.35706 653.21259
661.0 0.001513 572.21088 655.05511
690.0 0.001449 572.06470 656.95868
675.0 0.001481 571.91827 658.92151
672.0 0.001488 571.77179 660.94019
690.0 0.001449 571.62512 663.01184
670.0 0.001493 571.47852 665.13306
711.0 0.001406 571.33173 667.30054
714.0 0.001401 571.18469 669.77618
717.0 0.001395 571.03772 672.02753
674.0 0.001484 570.89063 674.31335
713.0 0.001403 570.74365 676.62982
729.0 0.001372 570.59631 678.97284
732.0 0.001366 570.44910 681.33752
721.0 0.001387 570.30176 683.71948
720.0 0.001389 570.15411 686.11469
662.0 0.001511 570.00665 688.51868
692.0 0.001445 569.85895 690.92664
710.0 0.001408 569.71112 693.33472
702.0 0.001425 569.56335 695.73859
700.0 0.001429 569.41541 698.13525
693.0 0.001443 569.26764 700.52032
704.0 0.001420 569.11957 702.96094
660.0 0.001515 568.97150 705.31592
738.0 0.001355 568.82330 707.65186
705.0 0.001418 568.67511 709.96649
718.0 0.001393 568.52667 712.25891
690.0 0.001449 568.37842 714.52863
691.0 0.001447 568.22986 716.77490
729.0 0.001372 568.08130 718.99829
761.0 0.001314 567.93274 721.19873
773.0 0.001294 567.78418 723.37744
750.0 0.001333 567.63544 725.53613
679.0 0.001473 567.48676 727.67529
702.0 0.001425 567.33795 729.79694
709.0 0.001410 567.18890 731.90265
691.0 0.001447 567.04010 733.99341
672.0 0.001488 566.89117 736.07080
725.0 0.001379 566.74207 738.13556
713.0 0.001403 566.59314 740.18884
722.0 0.001385 566.44385 742.23065
749.0 0.001335 566.29456 744.26099
714.0 0.001401 566.14539 746.27875
744.0 0.001344 565.99634 748.28339
741.0 0.001350 565.84692 750.27283
764.0 0.001309 565.69757 752.24457
745.0 0.001342 565.54803 754.19562
744.0 0.001344 565.39856 756.12219
715.0 0.001399 565.24939 758.01990
709.0 0.001410 565.09985 759.88342
774.0 0.001292 564.95026 761.70715
724.0 0.001381 564.80060 763.48462
686.0 0.001458 564.65112 765.20862
752.0 0.001330 564.50134 766.87201
788.0 0.001269 564.35175 768.46674
756.0 0.001323 564.20197 769.98438
739.0 0.001353 564.05243 771.41602
737.0 0.001357 563.90265 772.75281
788.0 0.001269 563.75275 773.98633
732.0 0.001366 563.60303 775.10651
743.0 0.001346 563.45325 776.10590
724.0 0.001381 563.30334 776.97498
734.0 0.001362 563.15350 777.70563
738.0 0.001355 563.00354 778.29114
749.0 0.001335 562.85376 778.72363
690.0 0.001449 562.70398 778.99738
775.0 0.001290 562.55402 779.10724
752.0 0.001330 562.40399 779.04810
737.0 0.001357 562.25409 778.81702
742.0 0.001348 562.10431 778.41150
736.0 0.001359 561.95428 777.83008
729.0 0.001372 561.80408 777.07178
724.0 0.001381 561.65411 776.13782
779.0 0.001284 561.50433 775.02997
753.0 0.001328 561.35449 773.21631
755.0 0.001325 561.20428 771.74280
745.0 0.001342 561.05432 770.13470
768.0 0.001302 560.90448 768.36761
747.0 0.001339 560.75446 766.73499
745.0 0.001342 560.60443 764.68286
736.0 0.001359 560.45447 762.49121
764.0 0.001309 560.30463 760.16687
690.0 0.001449 560.15460 757.71814
713.0 0.001403 560.00464 755.15234
748.0 0.001337 559.85474 752.47717
797.0 0.001255 559.70477 749.70166
736.0 0.001359 559.55481 746.83350
683.0 0.001464 559.40503 743.88165
756.0 0.001323 559.25519 740.85406
721.0 0.001387 559.10535 737.75952
734.0 0.001362 558.95538 734.60626
715.0 0.001399 558.80554 731.40326
709.0 0.001410 558.65588 728.15826
743.0 0.001346 558.50616 724.87982
776.0 0.001289 558.35632 721.57666
697.0 0.001435 558.20654 718.25629
699.0 0.001431 558.05695 714.92700
734.0 0.001362 557.90729 711.59711
788.0 0.001269 557.75775 708.27454
711.0 0.001406 557.60803 704.96674
727.0 0.001376 557.45868 701.68170
710.0 0.001408 557.30896 698.42664
729.0 0.001372 557.15955 695.21008
712.0 0.001404 557.00989 692.03864
662.0 0.001511 556.86047 688.92017
696.0 0.001437 556.71118 685.86212
711.0 0.001406 556.56177 682.87183
737.0 0.001357 556.41254 680.52118
704.0 0.001420 556.26318 677.69794
676.0 0.001479 556.11395 675.14655
697.0 0.001435 555.96478 672.51215
641.0 0.001560 555.81567 669.98169
692.0 0.001445 555.66656 667.56244
691.0 0.001447 555.51752 665.26013
670.0 0.001493 555.36847 663.08215
677.0 0.001477 555.21948 661.03448
636.0 0.001572 555.07068 659.12360
701.0 0.001427 554.92175 657.35510
695.0 0.001439 554.77301 655.73450
657.0 0.001522 554.62421 654.26727
665.0 0.001504 554.47552 652.95844
707.0 0.001414 554.32709 651.81219
697.0 0.001435 554.17865 650.83234
673.0 0.001486 554.03003 650.02258
703.0 0.001422 553.88141 649.38605
706.0 0.001416 553.73315 648.92529
665.0 0.001504 553.58484 649.13367
672.0 0.001488 553.43665 649.03589
705.0 0.001418 553.28839 649.11725
682.0 0.001466 553.14032 649.37842
619.0 0.001616 552.99219 649.81824
672.0 0.001488 552.84442 650.43512
675.0 0.001481 552.69653 651.22778
662.0 0.001511 552.54858 652.19238
609.0 0.001642 552.40094 653.32544
632.0 0.001582 552.25305 654.62286
616.0 0.001623 552.10547 656.07898
671.0 0.001490 551.95801 657.68829
664.0 0.001506 551.81061 659.44366
621.0 0.001610 551.66321 661.33801
653.0 0.001531 551.51593 663.36273
661.0 0.001513 551.36871 665.50848
633.0 0.001580 551.22168 667.76599
661.0 0.001513 551.07458 670.12476
679.0 0.001473 550.92773 672.57324
684.0 0.001462 550.78082 675.10004
698.0 0.001433 550.63403 677.69299
640.0 0.001563 550.48724 680.33942
667.0 0.001499 550.34070 683.02588
690.0 0.001449 550.19409 686.00403
717.0 0.001395 550.04779 688.74030
674.0 0.001484 549.90149 691.47638
652.0 0.001534 549.75513 694.19843
667.0 0.001499 549.60895 696.89233
640.0 0.001563 549.46289 699.54468
653.0 0.001531 549.31702 702.24121
683.0 0.001464 549.17120 704.77106
628.0 0.001592 549.02533 707.21997
675.0 0.001481 548.87982 709.57513
676.0 0.001479 548.73413 711.82587
673.0 0.001486 548.58881 713.96088
649.0 0.001541 548.44354 715.97064
659.0 0.001517 548.29810 717.72516
639.0 0.001565 548.15302 719.45898
690.0 0.001449 548.00812 721.04395
668.0 0.001497 547.86316 722.47418
700.0 0.001429 547.71826 723.74567
642.0 0.001558 547.57373 724.85480
659.0 0.001517 547.42908 725.80084
670.0 0.001493 547.28455 726.58246
658.0 0.001520 547.14026 727.20166
672.0 0.001488 546.99597 727.65973
684.0 0.001462 546.85162 727.99689
657.0 0.001522 546.70776 728.14587
631.0 0.001585 546.56396 728.14807
678.0 0.001475 546.41998 728.01379
628.0 0.001592 546.27649 727.74524
652.0 0.001534 546.13300 727.72266
679.0 0.001473 545.98950 727.22266
636.0 0.001572 545.84625 726.62012
662.0 0.001511 545.70306 725.92535
634.0 0.001577 545.55994 725.15131
625.0 0.001600 545.41705 724.30798
683.0 0.001464 545.27429 723.40802
655.0 0.001527 545.13159 722.46301
626.0 0.001597 544.98901 721.48480
664.0 0.001506 544.84656 720.48468
650.0 0.001538 544.70435 719.47467
609.0 0.001642 544.56207 718.46533
674.0 0.001484 544.42029 717.46655
698.0 0.001433 544.27832 716.48816
657.0 0.001522 544.13647 715.53973
697.0 0.001435 543.99493 714.62952
681.0 0.001468 543.85339 713.76477
684.0 0.001462 543.71216 712.95251
725.0 0.001379 543.57080 712.19812
690.0 0.001449 543.42975 711.50665
674.0 0.001484 543.28870 710.88269
646.0 0.001548 543.14801 710.32813
735.0 0.001361 543.00739 709.84589
669.0 0.001495 542.86694 709.43683
737.0 0.001357 542.72650 709.10187
730.0 0.001370 542.58618 708.83997
718.0 0.001393 542.44611 708.65021
753.0 0.001328 542.30621 708.53064
683.0 0.001464 542.16656 708.47815
708.0 0.001412 542.02692 708.48132
737.0 0.001357 541.88727 708.35388
767.0 0.001304 541.74805 708.48303
736.0 0.001359 541.60870 708.70166
789.0 0.001267 541.46967 708.92688
763.0 0.001311 541.33081 709.19141
756.0 0.001323 541.19208 709.48993
748.0 0.001337 541.05341 709.81561
722.0 0.001385 540.91498 710.58423
727.0 0.001376 540.77679 710.94904
737.0 0.001357 540.63849 711.32233
707.0 0.001414 540.50055 711.69763
703.0 0.001422 540.36273 712.06848
737.0 0.001357 540.22516 712.42926
707.0 0.001414 540.08777 712.92163
746.0 0.001340 539.95038 713.24567
792.0 0.001263 539.81293 713.54279
717.0 0.001395 539.67615 713.80835
736.0 0.001359 539.53925 714.03772
740.0 0.001351 539.40253 714.22638
720.0 0.001389 539.26611 714.37103
762.0 0.001312 539.12976 714.46747
713.0 0.001403 538.99335 715.07050
783.0 0.001277 538.85748 715.06799
717.0 0.001395 538.72156 715.00848
767.0 0.001304 538.58582 714.88904
761.0 0.001314 538.45026 714.70776
800.0 0.001250 538.31494 714.82855
753.0 0.001328 538.17969 714.51959
776.0 0.001289 538.04480 714.14258
764.0 0.001309 537.90979 713.69543
756.0 0.001323 537.77509 713.17694
792.0 0.001263 537.64075 712.58508
745.0 0.001342 537.50635 711.91919
794.0 0.001259 537.37207 711.17761
780.0 0.001282 537.23804 710.36005
803.0 0.001245 537.10437 709.46484
830.0 0.001205 536.97064 708.49237
788.0 0.001269 536.83704 707.44147
815.0 0.001227 536.70380 706.31183
852.0 0.001174 536.57062 705.10406
807.0 0.001239 536.43781 703.81750
785.0 0.001274 536.30493 702.45215
816.0 0.001225 536.17230 701.00873
846.0 0.001182 536.03992 699.48767
843.0 0.001186 535.90765 697.88922
796.0 0.001256 535.77563 696.21381
783.0 0.001277 535.64380 694.46283
784.0 0.001276 535.51221 692.63702
800.0 0.001250 535.38062 690.73682
840.0 0.001190 535.24933 688.76373
814.0 0.001229 535.11823 686.80676
790.0 0.001266 534.98724 684.69293
781.0 0.001280 534.85645 682.51117
734.0 0.001362 534.72595 680.26221
744.0 0.001344 534.59552 677.94958
815.0 0.001227 534.46521 675.57544
749.0 0.001335 534.33527 673.14246
695.0 0.001439 534.20532 670.65411
730.0 0.001370 534.07581 668.11322
764.0 0.001309 533.94647 665.52472
728.0 0.001374 533.81702 662.89209
696.0 0.001437 533.68805 660.22058
745.0 0.001342 533.55914 657.51453
724.0 0.001381 533.43042 654.77985
718.0 0.001393 533.30194 652.02087
706.0 0.001416 533.17371 649.24390
638.0 0.001567 533.04559 646.45459
675.0 0.001481 532.91766 643.65857
699.0 0.001431 532.78986 640.86182
651.0 0.001536 532.66223 638.06952
664.0 0.001506 532.53503 635.28790
663.0 0.001508 532.40771 632.52240
650.0 0.001538 532.28088 629.78442
664.0 0.001506 532.15405 627.06732
644.0 0.001553 532.02765 624.38232
613.0 0.001631 531.90112 621.73395
617.0 0.001621 531.77496 619.12665
614.0 0.001629 531.64917 616.56610
658.0 0.001520 531.52325 614.05469
618.0 0.001618 531.39771 611.59766
560.0 0.001786 531.27228 609.22095
596.0 0.001678 531.14709 606.88190
601.0 0.001664 531.02228 604.67767
625.0 0.001600 530.89734 602.47021
591.0 0.001692 530.77295 600.33136
618.0 0.001618 530.64850 598.37201
566.0 0.001767 530.52423 596.39850
596.0 0.001678 530.40033 592.88605
590.0 0.001695 530.27661 591.05756
625.0 0.001600 530.15302 589.01874
568.0 0.001761 530.02954 587.34869
550.0 0.001818 529.90637 585.75690
533.0 0.001876 529.78357 584.24493
591.0 0.001692 529.66071 582.81226
611.0 0.001637 529.53821 581.45984
632.0 0.001582 529.41577 580.18726
609.0 0.001642 529.29382 578.99347
560.0 0.001786 529.17181 577.88141
571.0 0.001751 529.05011 576.84521
599.0 0.001669 528.92853 575.88623
602.0 0.001661 528.80731 575.00458
597.0 0.001675 528.68616 574.19849
577.0 0.001733 528.56537 573.46753
585.0 0.001709 528.44458 572.80988
615.0 0.001626 528.32410 572.22510
611.0 0.001637 528.20380 571.71179
555.0 0.001802 528.08380 571.26801
579.0 0.001727 527.96381 570.89386
586.0 0.001706 527.84424 570.58771
617.0 0.001621 527.72485 570.34814
616.0 0.001623 527.60553 570.17426
583.0 0.001715 527.48651 570.06519
581.0 0.001721 527.36768 570.02026
577.0 0.001733 527.24902 570.03851
579.0 0.001727 527.13074 570.11914
618.0 0.001618 527.01251 570.26147
579.0 0.001727 526.89459 570.46576
574.0 0.001742 526.77673 570.73102
608.0 0.001645 526.65912 571.05688
593.0 0.001686 526.54187 571.44409
551.0 0.001815 526.42474 571.89124
579.0 0.001727 526.30774 572.39923
639.0 0.001565 526.19122 572.96814
601.0 0.001664 526.07458 573.59772
616.0 0.001623 525.95837 574.28802
616.0 0.001623 525.84210 575.03955
593.0 0.001686 525.72638 575.85236
584.0 0.001712 525.61078 576.72632
574.0 0.001742 525.49530 577.71942
590.0 0.001695 525.38000 578.71729
579.0 0.001727 525.26508 579.77667
558.0 0.001792 525.15015 580.89746
567.0 0.001764 525.03564 582.07880
572.0 0.001748 524.92133 583.32117
558.0 0.001792 524.80719 584.64655
594.0 0.001684 524.69318 586.01257
594.0 0.001684 524.57953 587.43719
558.0 0.001792 524.46588 588.92096
591.0 0.001692 524.35272 590.46167
616.0 0.001623 524.23950 592.05853
619.0 0.001616 524.12677 593.70996
574.0 0.001742 524.01392 595.41425
590.0 0.001695 523.90155 597.16974
567.0 0.001764 523.78937 598.97430
587.0 0.001704 523.67731 600.82489
590.0 0.001695 523.56567 602.71967
634.0 0.001577 523.45392 604.65582
614.0 0.001629 523.34265 606.62988
582.0 0.001718 523.23138 608.63916
586.0 0.001706 523.12048 610.67926
582.0 0.001718 523.00983 612.74731
620.0 0.001613 522.89929 614.83899
638.0 0.001567 522.78912 616.94971
630.0 0.001587 522.67896 619.07599
612.0 0.001634 522.56915 621.21332
624.0 0.001603 522.45941 623.35681
613.0 0.001631 522.35004 625.50183
615.0 0.001626 522.24072 627.65167
647.0 0.001546 522.13171 629.78601
649.0 0.001541 522.02289 631.90839
682.0 0.001466 521.91431 634.01318
611.0 0.001637 521.80597 636.09692
638.0 0.001567 521.69781 638.15454
661.0 0.001513 521.58990 640.18243
653.0 0.001531 521.48218 642.17578
637.0 0.001570 521.37469 644.13184
609.0 0.001642 521.26740 646.19861
669.0 0.001495 521.16046 648.06964
643.0 0.001555 521.05359 649.89258
661.0 0.001513 520.94690 651.66473
648.0 0.001543 520.84052 653.38367
660.0 0.001515 520.73425 655.12036
622.0 0.001608 520.62823 656.72699
648.0 0.001543 520.52258 658.27368
709.0 0.001410 520.41687 659.75958
674.0 0.001484 520.31152 661.29193
687.0 0.001456 520.20636 662.65216
670.0 0.001493 520.10156 663.94714
694.0 0.001441 519.99683 665.17639
695.0 0.001439 519.89221 666.33875
655.0 0.001527 519.78809 667.43372
657.0 0.001522 519.68414 668.46167
648.0 0.001543 519.58020 669.42212
686.0 0.001458 519.47650 670.31519
646.0 0.001548 519.37311 671.14246
635.0 0.001575 519.26978 672.60596
676.0 0.001479 519.16687 673.31219
675.0 0.001481 519.06396 673.95605
696.0 0.001437 518.96155 674.54022
675.0 0.001481 518.85913 675.06647
676.0 0.001479 518.75684 675.53778
699.0 0.001431 518.65509 675.95691
682.0 0.001466 518.55322 676.32721
753.0 0.001328 518.45184 676.65216
703.0 0.001422 518.35046 676.93500
688.0 0.001453 518.24933 677.17969
688.0 0.001453 518.14844 677.38995
662.0 0.001511 518.04785 677.56934
675.0 0.001481 517.94745 677.72137
699.0 0.001431 517.84717 677.85040
696.0 0.001437 517.74719 677.95868
656.0 0.001524 517.64728 678.05023
681.0 0.001468 517.54779 678.12775
662.0 0.001511 517.44836 678.19366
719.0 0.001391 517.34912 678.25079
662.0 0.001511 517.25024 678.30078
700.0 0.001429 517.15137 678.34589
679.0 0.001473 517.05298 678.57324
654.0 0.001529 516.95453 678.61304
685.0 0.001460 516.85632 678.65027
625.0 0.001600 516.75836 678.68506
668.0 0.001497 516.66077 678.71814
675.0 0.001481 516.56317 678.74768
696.0 0.001437 516.46588 678.77319
651.0 0.001536 516.36871 678.53931
625.0 0.001600 516.27185 678.55542
674.0 0.001484 516.17523 678.56342
625.0 0.001600 516.07867 678.56128
673.0 0.001486 515.98260 678.54590
676.0 0.001479 515.88641 678.51569
675.0 0.001481 515.79041 678.60400
656.0 0.001524 515.69489 678.53589
599.0 0.001669 515.59955 678.44397
611.0 0.001637 515.50433 678.32526
658.0 0.001520 515.40912 678.17651
670.0 0.001493 515.31433 678.06726
646.0 0.001548 515.21967 677.84937
663.0 0.001508 515.12524 677.59235
645.0 0.001550 515.03094 677.29236
616.0 0.001623 514.93695 676.94702
655.0 0.001527 514.84308 676.55353
674.0 0.001484 514.74957 676.10913
663.0 0.001508 514.65619 675.61163
616.0 0.001623 514.56281 675.05817
633.0 0.001580 514.46997 674.52802
640.0 0.001563 514.37714 674.07983
643.0 0.001555 514.28448 673.37585
623.0 0.001605 514.19208 672.58966
619.0 0.001616 514.09991 671.74158
630.0 0.001587 514.00787 670.83112
621.0 0.001610 513.91608 669.85822
648.0 0.001543 513.82452 668.82361
651.0 0.001536 513.73309 667.72729
639.0 0.001565 513.64191 666.56970
600.0 0.001667 513.55090 665.35217
654.0 0.001529 513.46008 664.69885
645.0 0.001550 513.36932 663.37183
594.0 0.001684 513.27911 661.98895
623.0 0.001605 513.18872 660.55414
641.0 0.001560 513.09869 659.06812
589.0 0.001698 513.00897 657.53320
615.0 0.001626 512.91925 655.95319
583.0 0.001715 512.82996 654.32922
627.0 0.001595 512.74066 652.66620
658.0 0.001520 512.65155 650.96545
599.0 0.001669 512.56274 649.23096
654.0 0.001529 512.47394 647.46631
646.0 0.001548 512.38556 645.67468
653.0 0.001531 512.29730 643.85956
653.0 0.001531 512.20929 642.02484
666.0 0.001502 512.12134 640.17468
636.0 0.001572 512.03369 638.31219
670.0 0.001493 511.94604 636.44153
635.0 0.001575 511.85873 634.56671
627.0 0.001595 511.77151 632.69220
636.0 0.001572 511.68457 630.82043
564.0 0.001773 511.59781 628.95673
635.0 0.001575 511.51129 627.10352
585.0 0.001709 511.42496 625.26611
573.0 0.001745 511.33875 623.44696
602.0 0.001661 511.25262 621.65045
579.0 0.001727 511.16669 619.88007
622.0 0.001608 511.08121 618.13910
589.0 0.001698 510.99576 616.43109
632.0 0.001582 510.91055 614.75989
568.0 0.001761 510.82550 613.20532
561.0 0.001783 510.74054 611.61755
611.0 0.001637 510.65573 610.07635
597.0 0.001675 510.57129 608.58472
598.0 0.001672 510.48691 607.14557
618.0 0.001618 510.40271 605.76270
612.0 0.001634 510.31866 604.43842
621.0 0.001610 510.23499 603.17603
614.0 0.001629 510.15137 601.97876
618.0 0.001618 510.06790 600.84912
600.0 0.001667 509.98450 599.78979
604.0 0.001656 509.90149 598.80322
659.0 0.001517 509.81854 597.89264
618.0 0.001618 509.73587 597.06049
600.0 0.001667 509.65338 596.30841
596.0 0.001678 509.57104 595.63904
601.0 0.001664 509.48886 595.05432
593.0 0.001686 509.40662 594.55652
613.0 0.001631 509.32483 594.14709
590.0 0.001695 509.24307 593.82825
592.0 0.001689 509.16180 593.60010
596.0 0.001678 509.08041 593.46497
596.0 0.001678 508.99927 593.42352
628.0 0.001592 508.91824 593.47644
602.0 0.001661 508.83749 593.62415
623.0 0.001605 508.75674 593.86731
618.0 0.001618 508.67630 594.20636
625.0 0.001600 508.59604 594.64050
617.0 0.001621 508.51587 595.17004
603.0 0.001658 508.43594 595.79364
606.0 0.001650 508.35608 596.51141
597.0 0.001675 508.27652 597.32172
581.0 0.001721 508.19714 598.23285
623.0 0.001605 508.11777 599.22479
590.0 0.001695 508.03873 600.30463
604.0 0.001656 507.95981 601.47095
623.0 0.001605 507.88098 602.72168
610.0 0.001639 507.80231 604.05389
605.0 0.001653 507.72379 605.46490
630.0 0.001587 507.64551 606.95221
579.0 0.001727 507.56747 608.51276
617.0 0.001621 507.48950 610.14288
570.0 0.001754 507.41162 611.83929
628.0 0.001592 507.33395 613.59778
613.0 0.001631 507.25644 615.41486
648.0 0.001543 507.17914 617.28534
659.0 0.001517 507.10205 619.20563
605.0 0.001653 507.02505 621.17084
609.0 0.001642 506.94833 623.17505
611.0 0.001637 506.87149 625.21350
596.0 0.001678 506.79489 627.28046
636.0 0.001572 506.71854 629.37036
626.0 0.001597 506.64233 631.12555
648.0 0.001543 506.56619 633.27344
652.0 0.001534 506.49030 635.39679
616.0 0.001623 506.41455 637.51654
667.0 0.001499 506.33887 639.62573
609.0 0.001642 506.26343 641.73303
629.0 0.001590 506.18817 643.80292
632.0 0.001582 506.11307 645.83990
645.0 0.001550 506.03802 647.83752
655.0 0.001527 505.96310 649.78784
617.0 0.001621 505.88846 651.72693
649.0 0.001541 505.81390 653.56110
652.0 0.001534 505.73947 655.32507
605.0 0.001653 505.66519 657.06287
642.0 0.001558 505.59119 658.67218
665.0 0.001504 505.51718 660.19067
649.0 0.001541 505.44342 661.61151
648.0 0.001543 505.36963 662.92877
634.0 0.001577 505.29623 664.13708
625.0 0.001600 505.22290 665.23102
649.0 0.001541 505.14960 666.20679
657.0 0.001522 505.07645 667.23676
637.0 0.001570 505.00345 667.96741
678.0 0.001475 504.93060 668.57086
635.0 0.001575 504.85794 669.04620
589.0 0.001698 504.78537 669.39227
635.0 0.001575 504.71313 669.60974
612.0 0.001634 504.64093 669.70032
650.0 0.001538 504.56863 669.66522
608.0 0.001645 504.49658 669.47076
630.0 0.001587 504.42480 669.19427
688.0 0.001453 504.35309 668.80273
691.0 0.001447 504.28162 668.30060
637.0 0.001570 504.21014 667.69299
642.0 0.001558 504.13882 666.61786
626.0 0.001597 504.06763 665.82062
631.0 0.001585 503.99655 664.93579
668.0 0.001497 503.92566 664.00391
654.0 0.001529 503.85498 662.96533
654.0 0.001529 503.78433 661.85992
615.0 0.001626 503.71378 660.69482
645.0 0.001550 503.64337 659.94104
614.0 0.001629 503.57306 658.68207
651.0 0.001536 503.50302 657.38556
619.0 0.001616 503.43298 656.05865
648.0 0.001543 503.36313 654.70886
643.0 0.001555 503.29337 653.34338
615.0 0.001626 503.22369 651.96899
666.0 0.001502 503.15430 650.59357
644.0 0.001553 503.08490 649.22351
626.0 0.001597 503.01559 647.86523
662.0 0.001511 502.94641 646.52563
617.0 0.001621 502.87756 645.21021
652.0 0.001534 502.80862 643.92590
646.0 0.001548 502.73987 642.67755
674.0 0.001484 502.67117 641.47058
664.0 0.001506 502.60269 640.30975
659.0 0.001517 502.53430 639.19989
652.0 0.001534 502.46600 638.14478
634.0 0.001577 502.39780 637.14801
692.0 0.001445 502.32965 636.21295
641.0 0.001560 502.26175 635.34204
656.0 0.001524 502.19403 634.53766
620.0 0.001613 502.12625 633.80145
634.0 0.001577 502.05862 633.13495
628.0 0.001592 501.99124 632.53857
650.0 0.001538 501.92377 632.01306
659.0 0.001517 501.85648 631.51880
634.0 0.001577 501.78943 631.13452
613.0 0.001631 501.72238 630.81946
666.0 0.001502 501.65558 630.57324
665.0 0.001504 501.58862 630.39282
680.0 0.001471 501.52197 630.27704
658.0 0.001520 501.45535 630.22363
726.0 0.001377 501.38879 630.23047
672.0 0.001488 501.32242 630.29407
656.0 0.001524 501.25616 630.41235
578.0 0.001730 501.19003 630.58160
628.0 0.001592 501.12396 630.79889
651.0 0.001536 501.05789 631.06079
615.0 0.001626 500.99210 631.49133
664.0 0.001506 500.92624 631.83984
650.0 0.001538 500.86072 632.22180
693.0 0.001443 500.79523 632.63403
661.0 0.001513 500.72971 633.07239
653.0 0.001531 500.66425 633.53339
632.0 0.001582 500.59906 634.01270
616.0 0.001623 500.53387 634.50598
649.0 0.001541 500.46887 635.00940
618.0 0.001618 500.40393 635.51880
644.0 0.001553 500.33893 636.03088
619.0 0.001616 500.27432 636.54150
639.0 0.001565 500.20953 637.04651
652.0 0.001534 500.14505 637.54321
657.0 0.001522 500.08047 638.02747
633.0 0.001580 500.01608 638.64777
629.0 0.001590 499.95178 639.10046
651.0 0.001536 499.88757 639.55798
676.0 0.001479 499.82339 640.26514
647.0 0.001546 499.75937 640.70929
634.0 0.001577 499.69537 641.07263
617.0 0.001621 499.63159 641.40826
635.0 0.001575 499.56784 642.52802
650.0 0.001538 499.50412 642.81195
613.0 0.001631 499.44052 643.15491
629.0 0.001590 499.37708 643.38586
581.0 0.001721 499.31354 643.58862
604.0 0.001656 499.25021 643.76404
638.0 0.001567 499.18704 643.91364
622.0 0.001608 499.12387 644.03864
649.0 0.001541 499.06085 644.14069
642.0 0.001558 498.99777 644.22156
669.0 0.001495 498.93494 644.28387
667.0 0.001499 498.87201 644.32916
673.0 0.001486 498.80923 644.36041
593.0 0.001686 498.74667 644.38007
681.0 0.001468 498.68411 644.39044
610.0 0.001639 498.62146 644.39410
610.0 0.001639 498.55902 644.39392
601.0 0.001664 498.49670 644.39172
616.0 0.001623 498.43439 644.39020
586.0 0.001706 498.37216 644.39172
607.0 0.001647 498.31003 644.39807
657.0 0.001522 498.24786 644.41132
632.0 0.001582 498.18597 644.43268
599.0 0.001669 498.12402 644.46442
578.0 0.001730 498.06219 644.50635
596.0 0.001678 498.00037 644.56079
617.0 0.001621 497.93875 644.62695
635.0 0.001575 497.87701 644.70618
615.0 0.001626 497.81543 644.79724
576.0 0.001736 497.75406 644.90070
641.0 0.001560 497.69263 645.11462
639.0 0.001565 497.63116 645.24023
641.0 0.001560 497.56989 645.37421
609.0 0.001642 497.50870 645.51569
597.0 0.001675 497.44751 645.66248
598.0 0.001672 497.38644 645.39111
646.0 0.001548 497.32544 645.54486
671.0 0.001490 497.26447 645.69647
629.0 0.001590 497.20361 645.84320
670.0 0.001493 497.14276 645.98279
616.0 0.001623 497.08191 646.11145
626.0 0.001597 497.02127 646.22693
596.0 0.001678 496.96057 646.32642
607.0 0.001647 496.89999 646.40656
653.0 0.001531 496.83945 646.46527
610.0 0.001639 496.77899 646.49927
623.0 0.001605 496.71854 646.50653
592.0 0.001689 496.65814 646.48474
658.0 0.001520 496.59781 646.43134
658.0 0.001520 496.53769 646.34430
611.0 0.001637 496.47745 646.27606
609.0 0.001642 496.41733 646.11786
654.0 0.001529 496.35730 645.92108
645.0 0.001550 496.29721 645.68512
657.0 0.001522 496.23724 645.40796
615.0 0.001626 496.17731 645.08917
632.0 0.001582 496.11740 644.72827
646.0 0.001548 496.05771 644.32379
637.0 0.001570 495.99786 643.87494
669.0 0.001495 495.93808 643.38190
671.0 0.001490 495.87848 642.84387
658.0 0.001520 495.81891 642.26062
654.0 0.001529 495.75934 641.63159
637.0 0.001570 495.69977 640.95740
643.0 0.001555 495.64029 640.23694
637.0 0.001570 495.58093 639.47095
647.0 0.001546 495.52161 638.65906
644.0 0.001553 495.46213 637.80182
675.0 0.001481 495.40286 636.89941
640.0 0.001563 495.34369 635.95245
623.0 0.001605 495.28455 634.96118
633.0 0.001580 495.22540 633.92657
640.0 0.001563 495.16620 632.84906
653.0 0.001531 495.10715 631.72974
655.0 0.001527 495.04810 630.57001
606.0 0.001650 494.98917 629.37054
672.0 0.001488 494.93018 628.13336
584.0 0.001712 494.87122 626.85956
628.0 0.001592 494.81241 625.55115
641.0 0.001560 494.75351 624.20984
651.0 0.001536 494.69476 622.83777
643.0 0.001555 494.63602 621.43713
633.0 0.001580 494.57730 620.23352
626.0 0.001597 494.51862 618.79572
617.0 0.001621 494.45996 617.33813
612.0 0.001634 494.40134 615.86395
658.0 0.001520 494.34274 614.37555
634.0 0.001577 494.28427 612.87646
641.0 0.001560 494.22577 611.37006
665.0 0.001504 494.16721 609.85919
585.0 0.001709 494.10880 608.34723
617.0 0.001621 494.05045 606.83826
609.0 0.001642 493.99207 605.33508
603.0 0.001658 493.93372 603.84100
614.0 0.001629 493.87543 602.36475
622.0 0.001608 493.81702 600.89990
632.0 0.001582 493.75888 599.45459
611.0 0.001637 493.70062 598.03204
602.0 0.001661 493.64246 596.63501
588.0 0.001701 493.58417 595.26733
611.0 0.001637 493.52615 593.93134
609.0 0.001642 493.46808 592.62970
587.0 0.001704 493.40991 591.36505
588.0 0.001701 493.35193 590.14026
605.0 0.001653 493.29388 588.95709
581.0 0.001721 493.23581 587.81781
560.0 0.001786 493.17789 586.72394
634.0 0.001577 493.11993 585.67755
621.0 0.001610 493.06195 584.67950
640.0 0.001563 493.00412 583.73157
626.0 0.001597 492.94620 582.30981
606.0 0.001650 492.88837 581.49506
604.0 0.001656 492.83054 580.70630
606.0 0.001650 492.77258 579.97028
622.0 0.001608 492.71484 579.45929
593.0 0.001686 492.65704 578.83905
616.0 0.001623 492.59943 578.73175
619.0 0.001616 492.54160 578.22815
564.0 0.001773 492.48386 577.77881
638.0 0.001567 492.42612 577.38214
634.0 0.001577 492.36835 577.03882
624.0 0.001603 492.31073 576.74701
602.0 0.001661 492.25311 576.50629
577.0 0.001733 492.19550 576.31622
616.0 0.001623 492.13785 576.17548
607.0 0.001647 492.08014 576.08295
647.0 0.001546 492.02267 576.03784
660.0 0.001515 491.96509 576.03925
585.0 0.001709 491.90750 576.08594
642.0 0.001558 491.84998 576.17743
605.0 0.001653 491.79236 576.31226
613.0 0.001631 491.73474 576.48999
626.0 0.001597 491.67737 576.70972
625.0 0.001600 491.61987 576.97156
598.0 0.001672 491.56235 577.27399
632.0 0.001582 491.50482 577.61713
619.0 0.001616 491.44742 578.00116
640.0 0.001563 491.38998 578.42523
616.0 0.001623 491.33246 578.88983
620.0 0.001613 491.27512 579.39484
640.0 0.001563 491.21765 579.94043
659.0 0.001517 491.16019 580.52722
623.0 0.001605 491.10281 581.15521
636.0 0.001572 491.04547 581.82532
611.0 0.001637 490.98801 582.53741
605.0 0.001653 490.93060 584.34961
595.0 0.001681 490.87317 585.15576
633.0 0.001580 490.81586 586.00537
656.0 0.001524 490.75848 586.89917
616.0 0.001623 490.70108 587.83759
606.0 0.001650 490.64383 588.82086
594.0 0.001684 490.58636 589.85223
637.0 0.001570 490.52902 590.92615
593.0 0.001686 490.47174 592.04504
585.0 0.001709 490.41449 593.20959
624.0 0.001603 490.35712 594.41931
582.0 0.001718 490.29974 595.67438
570.0 0.001754 490.24237 596.97363
597.0 0.001675 490.18515 598.31738
568.0 0.001761 490.12778 599.70465
653.0 0.001531 490.07034 601.13477
635.0 0.001575 490.01315 602.60699
595.0 0.001681 489.95578 604.12109
664.0 0.001506 489.89847 605.67505
619.0 0.001616 489.84113 607.26837
599.0 0.001669 489.78378 609.30664
654.0 0.001529 489.72647 610.97943
623.0 0.001605 489.66907 612.68738
599.0 0.001669 489.61182 614.42914
611.0 0.001637 489.55463 616.25415
607.0 0.001647 489.49713 618.05890
638.0 0.001567 489.43991 619.89227
642.0 0.001558 489.38251 621.75177
606.0 0.001650 489.32520 623.64404
625.0 0.001600 489.26785 625.55029
639.0 0.001565 489.21057 627.47693
640.0 0.001563 489.15320 629.57275
634.0 0.001577 489.09579 631.53387
617.0 0.001621 489.03851 633.54010
641.0 0.001560 488.98114 635.52448
653.0 0.001531 488.92374 637.51599
643.0 0.001555 488.86642 639.51208
634.0 0.001577 488.80908 641.38922
629.0 0.001590 488.75159 643.38696
636.0 0.001572 488.69427 645.38000
663.0 0.001508 488.63687 647.36566
672.0 0.001488 488.57944 649.34088
630.0 0.001587 488.52200 651.30164
645.0 0.001550 488.46463 653.24591
646.0 0.001548 488.40717 655.16974
639.0 0.001565 488.34979 657.07013
627.0 0.001595 488.29236 658.94379
658.0 0.001520 488.23495 660.78748
626.0 0.001597 488.17749 662.59839
656.0 0.001524 488.12000 664.37341
707.0 0.001414 488.06259 666.10925
678.0 0.001475 488.00513 667.80389
652.0 0.001534 487.94763 669.45435
706.0 0.001416 487.89014 671.05786
668.0 0.001497 487.83270 672.61273
663.0 0.001508 487.77515 674.11670
702.0 0.001425 487.71759 675.56738
664.0 0.001506 487.66000 677.36670
669.0 0.001495 487.60251 678.71021
662.0 0.001511 487.54489 679.99622
660.0 0.001515 487.48737 681.22424
636.0 0.001572 487.42978 682.39282
681.0 0.001468 487.37222 683.50128
705.0 0.001418 487.31461 684.54950
666.0 0.001502 487.25690 685.53662
659.0 0.001517 487.19943 686.46307
697.0 0.001435 487.14182 687.32867
702.0 0.001425 487.08408 688.13324
677.0 0.001477 487.02646 688.87756
658.0 0.001520 486.96875 689.56122
683.0 0.001464 486.91107 690.18512
695.0 0.001439 486.85342 690.74884
702.0 0.001425 486.79565 691.25415
696.0 0.001437 486.73788 691.70038
714.0 0.001401 486.68027 692.08856
717.0 0.001395 486.62241 692.41937
705.0 0.001418 486.56467 692.69312
748.0 0.001337 486.50693 692.91071
702.0 0.001425 486.44916 693.07245
706.0 0.001416 486.39130 693.17938
703.0 0.001422 486.33350 693.23248
743.0 0.001346 486.27570 693.23169
720.0 0.001389 486.21774 693.17877
736.0 0.001359 486.15997 693.07422
725.0 0.001379 486.10205 693.21613
695.0 0.001439 486.04416 693.01788
719.0 0.001391 485.98621 692.77118
706.0 0.001416 485.92834 692.47772
680.0 0.001471 485.87030 692.13849
701.0 0.001427 485.81244 691.75482
680.0 0.001471 485.75446 691.32770
685.0 0.001460 485.69653 690.85748
695.0 0.001439 485.63843 690.34662
675.0 0.001481 485.58051 689.79468
720.0 0.001389 485.52237 689.27625
693.0 0.001443 485.46432 688.64685
702.0 0.001425 485.40631 687.97858
667.0 0.001499 485.34811 687.27246
675.0 0.001481 485.29010 686.52820
641.0 0.001560 485.23196 685.74542
668.0 0.001497 485.17380 684.93433
662.0 0.001511 485.11566 684.07422
621.0 0.001610 485.05750 683.17426
679.0 0.001473 484.99936 682.23364
663.0 0.001508 484.94113 681.25171
635.0 0.001575 484.88290 680.22668
621.0 0.001610 484.82471 679.15729
659.0 0.001517 484.76642 678.04248
662.0 0.001511 484.70819 676.88080
642.0 0.001558 484.64984 675.67047
619.0 0.001616 484.59152 674.56342
665.0 0.001504 484.53320 673.25574
652.0 0.001534 484.47476 671.89459
653.0 0.001531 484.41650 670.48071
660.0 0.001515 484.35818 669.01984
651.0 0.001536 484.29971 667.49896
645.0 0.001550 484.24127 665.92444
659.0 0.001517 484.18298 664.29657
668.0 0.001497 484.12448 662.20154
622.0 0.001608 484.06607 660.47290
579.0 0.001727 484.00751 658.69452
625.0 0.001600 483.94910 656.86823
648.0 0.001543 483.89050 654.99677
654.0 0.001529 483.83200 653.08319
620.0 0.001613 483.77344 651.13055
623.0 0.001605 483.71484 649.14209
603.0 0.001658 483.65631 647.12219
609.0 0.001642 483.59769 645.07471
630.0 0.001587 483.53900 643.00415
583.0 0.001715 483.48044 640.91614
665.0 0.001504 483.42175 638.81415
620.0 0.001613 483.36304 636.70428
685.0 0.001460 483.30429 634.59143
663.0 0.001508 483.24573 632.48083
595.0 0.001681 483.18692 630.37775
613.0 0.001631 483.12823 628.28754
594.0 0.001684 483.06937 626.21552
592.0 0.001689 483.01062 624.16705
619.0 0.001616 482.95187 622.14685
591.0 0.001692 482.89304 620.16083
561.0 0.001783 482.83414 618.21344
555.0 0.001802 482.77542 616.30908
640.0 0.001563 482.71649 614.45331
586.0 0.001706 482.65768 612.64972
598.0 0.001672 482.59863 610.90356
594.0 0.001684 482.53976 609.21838
582.0 0.001718 482.48090 607.59814
606.0 0.001650 482.42184 606.04657
592.0 0.001689 482.36292 604.56659
581.0 0.001721 482.30392 603.16223
591.0 0.001692 482.24503 601.83582
620.0 0.001613 482.18594 600.66840
625.0 0.001600 482.12698 599.50702
562.0 0.001779 482.06787 598.43134
569.0 0.001757 482.00885 597.44324
603.0 0.001658 481.94968 596.54376
598.0 0.001672 481.89063 595.73492
576.0 0.001736 481.83151 595.01678
581.0 0.001721 481.77237 594.39148
536.0 0.001866 481.71320 593.85828
580.0 0.001724 481.65402 593.41846
614.0 0.001629 481.59482 593.07104
592.0 0.001689 481.53555 592.81573
602.0 0.001661 481.47635 592.65228
563.0 0.001776 481.41721 592.57941
608.0 0.001645 481.35794 592.59601
634.0 0.001577 481.29868 592.70032
604.0 0.001656 481.23947 592.89056
591.0 0.001692 481.18011 593.16510
559.0 0.001789 481.12082 593.52069
589.0 0.001698 481.06146 593.95563
608.0 0.001645 481.00220 594.46631
622.0 0.001608 480.94278 594.80945
593.0 0.001686 480.88342 595.76532
607.0 0.001647 480.82404 596.49023
647.0 0.001546 480.76468 597.27789
658.0 0.001520 480.70526 598.12378
603.0 0.001658 480.64575 599.02399
623.0 0.001605 480.58646 599.97400
654.0 0.001529 480.52698 600.96973
683.0 0.001464 480.46741 602.00665
653.0 0.001531 480.40802 603.08032
587.0 0.001704 480.34857 604.18597
633.0 0.001580 480.28903 605.31848
635.0 0.001575 480.22952 606.47400
616.0 0.001623 480.16998 607.64734
681.0 0.001468 480.11047 608.83411
668.0 0.001497 480.05087 610.03009
662.0 0.001511 479.99130 611.23077
657.0 0.001522 479.93167 611.97723
668.0 0.001497 479.87213 613.17792
649.0 0.001541 479.81256 614.37067
658.0 0.001520 479.75296 615.55273
684.0 0.001462 479.69330 616.72034
684.0 0.001462 479.63367 617.87097
672.0 0.001488 479.57407 619.00171
702.0 0.001425 479.51437 620.11011
682.0 0.001466 479.45471 621.19470
668.0 0.001497 479.39511 622.25317
698.0 0.001433 479.33536 623.28522
667.0 0.001499 479.27557 624.28925
663.0 0.001508 479.21585 625.26538
643.0 0.001555 479.15622 626.21240
656.0 0.001524 479.09653 627.13202
682.0 0.001466 479.03677 628.02332
636.0 0.001572 478.97705 628.88794
613.0 0.001631 478.91724 629.72699
622.0 0.001608 478.85742 630.54163
621.0 0.001610 478.79773 631.33331
602.0 0.001661 478.73795 632.10443
648.0 0.001543 478.67816 632.85675
633.0 0.001580 478.61835 633.48541
608.0 0.001645 478.55862 634.20789
609.0 0.001642 478.49869 634.91925
634.0 0.001577 478.43887 635.62170
612.0 0.001634 478.37903 636.31830
646.0 0.001548 478.31924 637.01257
629.0 0.001590 478.25943 637.70660
631.0 0.001585 478.19949 638.40411
638.0 0.001567 478.13965 639.10785
596.0 0.001678 478.07983 639.82123
628.0 0.001592 478.01999 640.54694
658.0 0.001520 477.96008 641.29169
619.0 0.001616 477.90024 642.05157
563.0 0.001776 477.84042 642.83301
610.0 0.001639 477.78055 643.64130
606.0 0.001650 477.72064 644.47333
633.0 0.001580 477.66083 645.33405
621.0 0.001610 477.60083 646.38354
627.0 0.001595 477.54095 647.39642
645.0 0.001550 477.48111 648.35730
650.0 0.001538 477.42108 649.35364
644.0 0.001553 477.36136 650.38599
636.0 0.001572 477.30139 651.45483
621.0 0.001610 477.24139 652.56036
658.0 0.001520 477.18149 653.72858
678.0 0.001475 477.12152 654.90619
666.0 0.001502 477.06161 656.11847
651.0 0.001536 477.00174 657.36377
650.0 0.001538 476.94177 658.64014
638.0 0.001567 476.88190 659.94464
613.0 0.001631 476.82193 661.27557
618.0 0.001618 476.76205 662.62909
633.0 0.001580 476.70221 664.00159
669.0 0.001495 476.64224 665.38892
667.0 0.001499 476.58231 666.78711
637.0 0.001570 476.52237 668.19153
637.0 0.001570 476.46252 669.59729
642.0 0.001558 476.40259 670.99847
701.0 0.001427 476.34271 672.39038
652.0 0.001534 476.28275 673.76685
662.0 0.001511 476.22284 675.12262
693.0 0.001443 476.16296 676.51489
644.0 0.001553 476.10306 677.81085
653.0 0.001531 476.04321 679.06854
716.0 0.001397 475.98328 680.28107
709.0 0.001410 475.92331 681.44348
724.0 0.001381 475.86349 682.54980
659.0 0.001517 475.80353 683.59479
684.0 0.001462 475.74374 684.57385
672.0 0.001488 475.68381 685.48199
653.0 0.001531 475.62390 686.31500
667.0 0.001499 475.56409 687.06909
639.0 0.001565 475.50430 687.74054
668.0 0.001497 475.44440 688.32672
644.0 0.001553 475.38458 688.82452
646.0 0.001548 475.32468 689.23279
668.0 0.001497 475.26492 689.54956
663.0 0.001508 475.20502 689.77344
641.0 0.001560 475.14517 689.90375
684.0 0.001462 475.08536 689.94049
666.0 0.001502 475.02567 689.88379
655.0 0.001527 474.96573 689.73364
636.0 0.001572 474.90598 689.49249
622.0 0.001608 474.84625 689.15881
617.0 0.001621 474.78647 688.73474
659.0 0.001517 474.72672 688.29791
626.0 0.001597 474.66699 687.69861
669.0 0.001495 474.60724 687.01398
655.0 0.001527 474.54755 686.24591
628.0 0.001592 474.48785 685.40289
657.0 0.001522 474.42813 684.47430
685.0 0.001460 474.36847 683.46887
641.0 0.001560 474.30875 682.38898
670.0 0.001493 474.24911 681.23657
644.0 0.001553 474.18958 680.01398
686.0 0.001458 474.12985 678.72400
674.0 0.001484 474.07019 677.36914
680.0 0.001471 474.01053 675.95154
695.0 0.001439 473.95102 674.47321
698.0 0.001433 473.89151 672.93762
683.0 0.001464 473.83185 671.34705
681.0 0.001468 473.77243 669.70337
649.0 0.001541 473.71280 668.01935
691.0 0.001447 473.65320 666.27753
641.0 0.001560 473.59375 664.48975
650.0 0.001538 473.53427 662.65881
679.0 0.001473 473.47476 660.78650
645.0 0.001550 473.41531 658.87531
653.0 0.001531 473.35590 656.92725
669.0 0.001495 473.29648 654.94397
646.0 0.001548 473.23706 652.92773
656.0 0.001524 473.17770 650.87988
659.0 0.001517 473.11838 648.80298
676.0 0.001479 473.05890 646.69873
650.0 0.001538 472.99966 644.56787
715.0 0.001399 472.94037 642.41278
655.0 0.001527 472.88110 640.23480
647.0 0.001546 472.82181 638.03619
710.0 0.001408 472.76251 635.81793
664.0 0.001506 472.70343 633.58173
637.0 0.001570 472.64423 631.32916
717.0 0.001395 472.58502 629.06226
637.0 0.001570 472.52573 626.78247
684.0 0.001462 472.46664 624.49164
628.0 0.001592 472.40753 622.19141
594.0 0.001684 472.34848 619.88422
615.0 0.001626 472.28943 617.57123
622.0 0.001608 472.23032 615.25446
595.0 0.001681 472.17136 612.93604
606.0 0.001650 472.11237 610.61761
624.0 0.001603 472.05344 607.65295
579.0 0.001727 471.99442 605.35864
579.0 0.001727 471.93558 603.05743
607.0 0.001647 471.87659 600.76373
603.0 0.001658 471.81775 598.47931
550.0 0.001818 471.75891 596.21899
571.0 0.001751 471.70010 593.95929
578.0 0.001730 471.64133 591.71393
575.0 0.001739 471.58252 589.48486
571.0 0.001751 471.52377 587.27301
591.0 0.001692 471.46509 585.52673
546.0 0.001832 471.40649 583.52600
554.0 0.001805 471.34778 581.38062
588.0 0.001701 471.28909 579.25775
542.0 0.001845 471.23056 577.15820
541.0 0.001848 471.17194 575.08313
533.0 0.001876 471.11346 573.03357
525.0 0.001905 471.05493 571.01025
555.0 0.001802 470.99646 569.01349
556.0 0.001799 470.93799 567.04449
549.0 0.001821 470.87958 565.10321
538.0 0.001859 470.82132 563.19055
515.0 0.001942 470.76297 561.30646
501.0 0.001996 470.70468 559.45197
533.0 0.001876 470.64624 557.62659
537.0 0.001862 470.58810 555.83099
518.0 0.001931 470.52985 554.06512
534.0 0.001873 470.47165 552.32880
543.0 0.001842 470.41364 550.62207
514.0 0.001946 470.35538 548.97742
518.0 0.001931 470.29736 547.57025
518.0 0.001931 470.23938 545.95709
495.0 0.002020 470.18140 544.37335
543.0 0.001842 470.12335 542.81769
501.0 0.001996 470.06537 541.29053
487.0 0.002053 470.00745 539.79047
496.0 0.002016 469.94958 538.31750
547.0 0.001828 469.89175 536.87115
565.0 0.001770 469.83398 535.45044
552.0 0.001812 469.77625 534.05481
487.0 0.002053 469.71851 532.68365
540.0 0.001852 469.66086 531.33679
518.0 0.001931 469.60330 530.01312
504.0 0.001984 469.54565 528.71198
501.0 0.001996 469.48804 527.43335
479.0 0.002088 469.43057 526.17645
495.0 0.002020 469.37308 524.94110
514.0 0.001946 469.31570 523.72632
498.0 0.002008 469.25827 522.53235
516.0 0.001938 469.20087 521.35901
499.0 0.002004 469.14349 520.20587
487.0 0.002053 469.08630 519.07318
489.0 0.002045 469.02902 517.96796
536.0 0.001866 468.97186 516.87549
520.0 0.001923 468.91467 515.80359
500.0 0.002000 468.85757 514.75189
512.0 0.001953 468.80051 513.72198
523.0 0.001912 468.74353 512.73492
537.0 0.001862 468.68661 511.74670
494.0 0.002024 468.62958 510.78046
511.0 0.001957 468.57278 508.84756
542.0 0.001845 468.51593 507.93323
528.0 0.001894 468.45905 507.04202
529.0 0.001890 468.40234 506.17459
542.0 0.001845 468.34558 505.33145
546.0 0.001832 468.28894 504.51334
501.0 0.001996 468.23230 503.72095
509.0 0.001965 468.17584 502.95453
522.0 0.001916 468.11932 502.21536
520.0 0.001923 468.06271 501.50363
514.0 0.001946 468.00638 500.82056
525.0 0.001905 467.95001 500.16656
479.0 0.002088 467.89359 499.54276
508.0 0.001969 467.83728 498.94958
515.0 0.001942 467.78110 498.38782
503.0 0.001988 467.72488 497.85867
510.0 0.001961 467.66864 497.36246
511.0 0.001957 467.61261 496.90015
493.0 0.002028 467.55652 496.47272
490.0 0.002041 467.50061 496.08063
561.0 0.001783 467.44470 495.72476
510.0 0.001961 467.38876 495.40579
506.0 0.001976 467.33289 495.12457
500.0 0.002000 467.27713 494.88162
506.0 0.001976 467.22144 494.67767
530.0 0.001887 467.16571 494.51324
536.0 0.001866 467.11005 494.38907
517.0 0.001934 467.05444 494.30551
506.0 0.001976 466.99887 494.26321
541.0 0.001848 466.94351 494.26242
501.0 0.001996 466.88803 494.30356
521.0 0.001919 466.83261 494.38699
504.0 0.001984 466.77725 494.51273
497.0 0.002012 466.72202 494.68134
534.0 0.001873 466.66684 494.89270
500.0 0.002000 466.61166 495.14639
505.0 0.001980 466.55661 495.44308
484.0 0.002066 466.50134 495.78214
516.0 0.001938 466.44644 496.16354
493.0 0.002028 466.39154 496.58679
506.0 0.001976 466.33658 497.05161
542.0 0.001845 466.28168 497.56290
499.0 0.002004 466.22699 498.10910
484.0 0.002066 466.17221 498.69476
511.0 0.001957 466.11755 499.31946
570.0 0.001754 466.06290 499.98190
516.0 0.001938 466.00833 500.68134
506.0 0.001976 465.95392 501.50491
539.0 0.001855 465.89944 502.27686
522.0 0.001916 465.84497 503.08408
509.0 0.001965 465.79065 503.92126
492.0 0.002033 465.73642 504.78931
505.0 0.001980 465.68216 505.68591
539.0 0.001855 465.62805 506.61005
560.0 0.001786 465.57388 507.55969
558.0 0.001792 465.51984 508.53329
538.0 0.001859 465.46591 509.52841
546.0 0.001832 465.41196 510.54385
517.0 0.001934 465.35806 511.57932
525.0 0.001905 465.30429 512.62866
535.0 0.001869 465.25049 513.69208
510.0 0.001961 465.19696 514.80890
531.0 0.001883 465.14328 515.89392
585.0 0.001709 465.08957 516.98657
512.0 0.001953 465.03616 518.08447
532.0 0.001880 464.98267 519.18542
519.0 0.001927 464.92929 520.28723
508.0 0.001969 464.87598 521.38751
518.0 0.001931 464.82266 522.53937
539.0 0.001855 464.76956 523.63177
600.0 0.001667 464.71628 524.71655
467.0 0.002141 464.66324 525.79181
528.0 0.001894 464.61029 526.85553
541.0 0.001848 464.55722 527.90588
560.0 0.001786 464.50433 528.94110
498.0 0.002008 464.45157 529.95984
567.0 0.001764 464.39871 530.96063
516.0 0.001938 464.34601 531.94122
524.0 0.001908 464.29343 532.90137
533.0 0.001876 464.24075 533.83942
512.0 0.001953 464.18820 534.87512
530.0 0.001887 464.13574 535.76813
531.0 0.001883 464.08334 536.63696
532.0 0.001880 464.03107 537.48120
503.0 0.001988 463.97876 538.30090
545.0 0.001835 463.92654 539.09619
531.0 0.001883 463.87451 539.86713
549.0 0.001821 463.82236 540.61371
565.0 0.001770 463.77029 541.33722
530.0 0.001887 463.71835 542.03754
556.0 0.001799 463.66650 542.71613
543.0 0.001842 463.61472 543.37421
547.0 0.001828 463.56293 544.01257
547.0 0.001828 463.51129 544.63251
575.0 0.001739 463.45953 545.23584
582.0 0.001718 463.40802 545.82330
555.0 0.001802 463.35651 546.39667
538.0 0.001859 463.30502 547.03888
564.0 0.001773 463.25363 547.58978
573.0 0.001745 463.20239 548.13129
528.0 0.001894 463.15106 548.66547
528.0 0.001894 463.09998 549.19318
508.0 0.001969 463.04883 549.71661
521.0 0.001919 462.99774 550.23639
575.0 0.001739 462.94687 550.75482
590.0 0.001695 462.89600 551.27271
534.0 0.001873 462.84500 551.79120
578.0 0.001730 462.79419 552.31140
573.0 0.001745 462.74353 553.02051
529.0 0.001890 462.69287 553.57013
555.0 0.001802 462.64233 554.13812
565.0 0.001770 462.59177 554.70264
556.0 0.001799 462.54132 555.27570
566.0 0.001767 462.49100 555.85724
590.0 0.001695 462.44061 556.44836
587.0 0.001704 462.39035 557.04907
587.0 0.001704 462.34015 557.65918
550.0 0.001818 462.29004 558.27905
527.0 0.001898 462.23996 558.90845
554.0 0.001805 462.19000 559.54681
512.0 0.001953 462.14001 560.19293
567.0 0.001764 462.09018 560.84723
569.0 0.001757 462.04047 561.50793
592.0 0.001689 461.99075 562.17426
573.0 0.001745 461.94104 562.84534
576.0 0.001736 461.89139 563.51929
564.0 0.001773 461.84195 564.19464
566.0 0.001767 461.79248 564.87036
568.0 0.001761 461.74307 565.54382
548.0 0.001825 461.69385 566.21362
588.0 0.001701 461.64447 566.87750
601.0 0.001664 461.59531 567.53400
554.0 0.001805 461.54623 568.18030
525.0 0.001905 461.49722 568.81445
556.0 0.001799 461.44818 569.43451
538.0 0.001859 461.39926 570.03833
558.0 0.001792 461.35040 570.62280
532.0 0.001880 461.30157 571.18671
593.0 0.001686 461.25287 571.72766
559.0 0.001789 461.20425 572.24353
532.0 0.001880 461.15564 572.73291
585.0 0.001709 461.10709 573.19366
560.0 0.001786 461.05862 573.62451
572.0 0.001748 461.01035 574.02362
596.0 0.001678 460.96198 574.39020
584.0 0.001712 460.91379 573.47339
545.0 0.001835 460.86557 573.78113
558.0 0.001792 460.81732 574.10809
538.0 0.001859 460.76944 574.36523
575.0 0.001739 460.72144 574.56897
570.0 0.001754 460.67337 574.73676
602.0 0.001661 460.62555 574.86932
574.0 0.001742 460.57788 574.96686
580.0 0.001724 460.53009 575.03003
548.0 0.001825 460.48245 575.05975
539.0 0.001855 460.43488 575.05627
564.0 0.001773 460.38736 575.02094
584.0 0.001712 460.33984 574.95465
572.0 0.001748 460.29254 574.85846
539.0 0.001855 460.24518 574.73322
601.0 0.001664 460.19794 574.58038
560.0 0.001786 460.15079 574.40057
562.0 0.001779 460.10355 574.19525
584.0 0.001712 460.05655 573.96521
582.0 0.001718 460.00961 573.71136
578.0 0.001730 459.96262 573.43469
572.0 0.001748 459.91574 573.13647
576.0 0.001736 459.86887 572.81616
540.0 0.001852 459.82224 572.47607
556.0 0.001799 459.77551 572.11572
590.0 0.001695 459.72882 571.75677
528.0 0.001894 459.68237 571.35876
553.0 0.001808 459.63596 570.94232
598.0 0.001672 459.58945 570.64026
555.0 0.001802 459.54306 570.18848
568.0 0.001761 459.49686 569.71930
546.0 0.001832 459.45062 569.23267
603.0 0.001658 459.40448 568.72986
587.0 0.001704 459.35837 567.84100
574.0 0.001742 459.31235 567.30475
585.0 0.001709 459.26633 566.75513
588.0 0.001701 459.22049 566.18439
608.0 0.001645 459.17459 565.59625
590.0 0.001695 459.12891 564.99097
607.0 0.001647 459.08319 564.38470
547.0 0.001828 459.03754 563.74750
585.0 0.001709 458.99194 563.13013
526.0 0.001901 458.94635 562.46051
528.0 0.001894 458.90094 561.77527
551.0 0.001815 458.85550 561.07367
570.0 0.001754 458.81006 560.35669
512.0 0.001953 458.76483 559.62457
568.0 0.001761 458.71967 558.87787
541.0 0.001848 458.67447 558.11694
577.0 0.001733 458.62939 557.34467
546.0 0.001832 458.58435 556.55695
547.0 0.001828 458.53940 555.75647
579.0 0.001727 458.49454 554.94476
586.0 0.001706 458.44955 554.12201
559.0 0.001789 458.40475 553.28925
521.0 0.001919 458.36002 552.44714
520.0 0.001923 458.31537 551.59674
512.0 0.001953 458.27087 550.73914
580.0 0.001724 458.22623 549.87537
577.0 0.001733 458.18179 549.00677
585.0 0.001709 458.13730 548.13428
571.0 0.001751 458.09286 547.25891
593.0 0.001686 458.04858 546.38214
550.0 0.001818 458.00433 545.50531
573.0 0.001745 457.96011 544.62964
545.0 0.001835 457.91599 543.75665
562.0 0.001779 457.87183 542.88696
551.0 0.001815 457.82788 542.02277
534.0 0.001873 457.78381 541.16510
531.0 0.001883 457.73987 540.31537
529.0 0.001890 457.69595 539.47467
533.0 0.001876 457.65216 538.64423
539.0 0.001855 457.60852 537.82611
542.0 0.001845 457.56482 537.02069
540.0 0.001852 457.52106 536.23206
523.0 0.001912 457.47745 535.45660
531.0 0.001883 457.43393 534.69739
549.0 0.001821 457.39044 533.98181
523.0 0.001912 457.34702 533.25934
531.0 0.001883 457.30368 532.55652
574.0 0.001742 457.26035 531.87384
543.0 0.001842 457.21710 531.21191
525.0 0.001905 457.17386 530.57202
505.0 0.001980 457.13074 529.95361
489.0 0.002045 457.08755 529.35828
576.0 0.001736 457.04446 528.78534
525.0 0.001905 457.00146 528.23596
564.0 0.001773 456.95853 527.70953
565.0 0.001770 456.91568 527.20654
550.0 0.001818 456.87274 526.72656
534.0 0.001873 456.82996 526.26953
523.0 0.001912 456.78717 525.83545
538.0 0.001859 456.74451 525.42297
545.0 0.001835 456.70181 525.03296
543.0 0.001842 456.65918 524.66400
512.0 0.001953 456.61667 524.31525
528.0 0.001894 456.57407 523.98584
512.0 0.001953 456.53165 523.67542
510.0 0.001961 456.48923 523.38239
546.0 0.001832 456.44684 523.10565
509.0 0.001965 456.40460 522.84467
513.0 0.001949 456.36221 522.49139
510.0 0.001961 456.32001 522.25793
522.0 0.001916 456.27795 522.03558
536.0 0.001866 456.23566 521.82330
515.0 0.001942 456.19354 521.61926
537.0 0.001862 456.15155 521.42236
537.0 0.001862 456.10956 521.23059
525.0 0.001905 456.06757 521.04279
524.0 0.001908 456.02563 520.85718
512.0 0.001953 455.98367 520.67255
548.0 0.001825 455.94193 520.40552
497.0 0.002012 455.90005 520.21790
539.0 0.001855 455.85831 520.02698
518.0 0.001931 455.81659 519.83063
577.0 0.001733 455.77487 519.62787
522.0 0.001916 455.73331 519.41699
532.0 0.001880 455.69171 519.19739
527.0 0.001898 455.65012 518.96729
531.0 0.001883 455.60867 518.72601
514.0 0.001946 455.56714 518.48828
492.0 0.002033 455.52567 518.22040
506.0 0.001976 455.48422 518.05804
517.0 0.001934 455.44293 517.76630
545.0 0.001835 455.40158 517.45972
533.0 0.001876 455.36035 517.13770
511.0 0.001957 455.31906 516.79999
516.0 0.001938 455.27786 516.44580
507.0 0.001972 455.23660 516.07629
485.0 0.002062 455.19553 515.68994
522.0 0.001916 455.15430 515.28784
526.0 0.001901 455.11322 514.87012
513.0 0.001949 455.07217 514.43665
513.0 0.001949 455.03116 513.98773
506.0 0.001976 454.99023 513.52454
489.0 0.002045 454.94928 513.10693
505.0 0.001980 454.90836 512.61676
487.0 0.002053 454.86743 512.11896
524.0 0.001908 454.82657 511.60425
522.0 0.001916 454.78580 511.07803
516.0 0.001938 454.74500 510.54193
526.0 0.001901 454.70422 509.99646
502.0 0.001992 454.66345 509.44266
506.0 0.001976 454.62271 508.88144
544.0 0.001838 454.58191 508.32050
549.0 0.001821 454.54138 507.74768
505.0 0.001980 454.50073 507.17065
508.0 0.001969 454.46008 506.59006
512.0 0.001953 454.41956 506.00735
499.0 0.002004 454.37888 505.42288
510.0 0.001961 454.33841 504.83823
519.0 0.001927 454.29788 504.25415
482.0 0.002075 454.25739 503.67136
501.0 0.001996 454.21695 503.09061
519.0 0.001927 454.17648 502.51297
520.0 0.001923 454.13605 501.93893
492.0 0.002033 454.09573 501.36923
532.0 0.001880 454.05533 500.80475
485.0 0.002062 454.01495 500.25067
526.0 0.001901 453.97467 499.69815
494.0 0.002024 453.93423 499.15240
499.0 0.002004 453.89398 498.61389
503.0 0.001988 453.85373 498.08264
529.0 0.001890 453.81345 497.55969
469.0 0.002132 453.77319 497.04483
483.0 0.002070 453.73294 496.53860
493.0 0.002028 453.69269 496.05420
554.0 0.001805 453.65256 495.64465
552.0 0.001812 453.61234 495.16635
454.0 0.002203 453.57220 494.69763
436.0 0.002294 453.53198 494.23782
522.0 0.001916 453.49185 493.78757
475.0 0.002105 453.45178 493.34674
479.0 0.002088 453.41165 492.91541
481.0 0.002079 453.37158 492.49353
497.0 0.002012 453.33151 492.10608
498.0 0.002008 453.29135 491.70291
484.0 0.002066 453.25134 491.30960
542.0 0.001845 453.21124 490.92807
494.0 0.002024 453.17114 490.55338
510.0 0.001961 453.13113 490.18793
509.0 0.001965 453.09100 489.83200
483.0 0.002070 453.05109 489.48541
515.0 0.001942 453.01099 489.14844
536.0 0.001866 452.97095 488.82050
494.0 0.002024 452.93091 488.50223
521.0 0.001919 452.89099 488.19336
514.0 0.001946 452.85092 487.89429
490.0 0.002041 452.81100 487.60455
512.0 0.001953 452.77100 487.32489
476.0 0.002101 452.73093 487.05472
489.0 0.002045 452.69095 486.79459
521.0 0.001919 452.65100 486.54416
467.0 0.002141 452.61093 486.30411
507.0 0.001972 452.57092 486.07397
477.0 0.002096 452.53091 485.85406
505.0 0.001980 452.49084 485.64441
502.0 0.001992 452.45087 485.44525
508.0 0.001969 452.41089 485.25662
502.0 0.001992 452.37097 485.07834
465.0 0.002151 452.33090 484.91064
452.0 0.002212 452.29086 484.75287
477.0 0.002096 452.25092 484.60574
498.0 0.002008 452.21078 484.46912
460.0 0.002174 452.17075 484.34265
483.0 0.002070 452.13074 484.22659
466.0 0.002146 452.09070 484.12094
480.0 0.002083 452.05060 484.02515
493.0 0.002028 452.01056 483.93930
507.0 0.001972 451.97046 483.86301
487.0 0.002053 451.93033 483.79651
460.0 0.002174 451.89035 483.73944
504.0 0.001984 451.85019 483.69138
476.0 0.002101 451.81006 483.66119
498.0 0.002008 451.76993 483.63055
482.0 0.002075 451.72980 483.60846
480.0 0.002083 451.68961 483.59436
486.0 0.002058 451.64938 483.58789
469.0 0.002132 451.60922 483.58850
471.0 0.002123 451.56906 483.59619
471.0 0.002123 451.52878 483.69382
488.0 0.002049 451.48856 483.71494
476.0 0.002101 451.44824 483.74216
466.0 0.002146 451.40796 483.79428
462.0 0.002165 451.36771 483.83176
467.0 0.002141 451.32736 483.87405
460.0 0.002174 451.28696 483.89630
482.0 0.002075 451.24667 483.96188
510.0 0.001961 451.20627 484.01599
497.0 0.002012 451.16589 484.07324
459.0 0.002179 451.12537 484.04666
488.0 0.002049 451.08493 484.16281
476.0 0.002101 451.04453 484.22861
475.0 0.002105 451.00397 484.29630
474.0 0.002110 450.96341 484.36572
463.0 0.002160 450.92288 484.43741
537.0 0.001862 450.88229 484.50958
502.0 0.001992 450.84161 484.58319
448.0 0.002232 450.80109 484.65778
480.0 0.002083 450.76031 484.73337
502.0 0.001992 450.71970 484.81009
480.0 0.002083 450.67892 484.88763
491.0 0.002037 450.63821 484.96652
491.0 0.002037 450.59738 485.04611
465.0 0.002151 450.55658 485.12695
478.0 0.002092 450.51566 485.22318
508.0 0.001969 450.47470 485.30627
469.0 0.002132 450.43381 485.41730
491.0 0.002037 450.39285 485.50391
484.0 0.002066 450.35190 485.59207
501.0 0.001996 450.31085 485.68149
482.0 0.002075 450.26974 485.80020
473.0 0.002114 450.22858 485.89328
483.0 0.002070 450.18744 485.98816
483.0 0.002070 450.14627 486.08459
503.0 0.001988 450.10498 486.18225
484.0 0.002066 450.06378 486.28195
489.0 0.002045 450.02246 486.38278
503.0 0.001988 449.98117 486.48526
502.0 0.001992 449.93970 486.58853
493.0 0.002028 449.89819 486.69290
490.0 0.002041 449.85675 486.82388
470.0 0.002128 449.81519 486.97223
482.0 0.002075 449.77365 487.26706
484.0 0.002066 449.73199 487.37515
486.0 0.002058 449.69034 487.48276
496.0 0.002016 449.64862 487.69128
484.0 0.002066 449.60681 487.79807
496.0 0.002016 449.56506 487.90326
485.0 0.002062 449.52304 488.00616
477.0 0.002096 449.48120 488.10617
468.0 0.002137 449.43921 488.20270
461.0 0.002169 449.39716 488.37662
437.0 0.002288 449.35507 488.46533
498.0 0.002008 449.31299 488.54898
484.0 0.002066 449.27072 488.62680
489.0 0.002045 449.22858 488.69821
466.0 0.002146 449.18628 488.76239
476.0 0.002101 449.14392 488.81888
496.0 0.002016 449.10147 488.86679
514.0 0.001946 449.05908 488.90588
507.0 0.001972 449.01651 488.93500
490.0 0.002041 448.97391 488.95374
476.0 0.002101 448.93130 488.96182
483.0 0.002070 448.88858 488.95813
469.0 0.002132 448.84583 488.94217
500.0 0.002000 448.80304 488.91391
493.0 0.002028 448.76010 488.87244
487.0 0.002053 448.71713 488.81741
492.0 0.002033 448.67413 488.74844
458.0 0.002183 448.63113 488.66541
444.0 0.002252 448.58792 488.56818
487.0 0.002053 448.54465 488.45584
479.0 0.002088 448.50143 488.32874
487.0 0.002053 448.45807 488.18695
471.0 0.002123 448.41473 488.03018
480.0 0.002083 448.37122 487.85886
518.0 0.001931 448.32773 487.67285
484.0 0.002066 448.28409 487.47269
512.0 0.001953 448.24033 487.25818
502.0 0.001992 448.19653 487.03033
482.0 0.002075 448.15277 486.78891
481.0 0.002079 448.10876 486.62820
488.0 0.002049 448.06482 486.36310
521.0 0.001919 448.02075 486.08682
497.0 0.002012 447.97662 485.80002
457.0 0.002188 447.93253 485.50317
496.0 0.002016 447.88821 485.19751
497.0 0.002012 447.84384 484.94373
462.0 0.002165 447.79935 484.62341
487.0 0.002053 447.75500 484.20200
490.0 0.002041 447.71027 483.87125
496.0 0.002016 447.66562 483.53656
465.0 0.002151 447.62088 483.19919
492.0 0.002033 447.57602 482.85974
484.0 0.002066 447.53110 482.51996
491.0 0.002037 447.48618 482.18073
489.0 0.002045 447.44107 481.84317
495.0 0.002020 447.39600 481.50867
504.0 0.001984 447.35062 481.17819
522.0 0.001916 447.30539 480.85263
515.0 0.001942 447.25992 480.53366
486.0 0.002058 447.21448 480.22229
462.0 0.002165 447.16885 479.91919
457.0 0.002188 447.12317 479.62604
465.0 0.002151 447.07751 479.35031
477.0 0.002096 447.03159 479.07938
481.0 0.002079 446.98563 478.82410
540.0 0.001852 446.93967 478.57950
494.0 0.002024 446.89346 478.34970
489.0 0.002045 446.84735 478.13489
502.0 0.001992 446.80106 477.93671
438.0 0.002283 446.75458 477.75552
454.0 0.002203 446.70813 477.59665
485.0 0.002062 446.66159 477.45178
481.0 0.002079 446.61493 477.32547
494.0 0.002024 446.56808 477.21878
500.0 0.002000 446.52127 477.13879
494.0 0.002024 446.47421 477.07306
462.0 0.002165 446.42719 477.11325
469.0 0.002132 446.38007 477.08994
492.0 0.002033 446.33276 477.11209
460.0 0.002174 446.28552 477.13205
478.0 0.002092 446.23807 477.17392
503.0 0.001988 446.19052 477.23737
481.0 0.002079 446.14285 477.32248
478.0 0.002092 446.09509 477.42935
490.0 0.002041 446.04727 477.55777
507.0 0.001972 445.99936 477.70728
465.0 0.002151 445.95120 477.87747
494.0 0.002024 445.90305 478.06836
496.0 0.002016 445.85477 478.27924
482.0 0.002075 445.80637 478.50961
466.0 0.002146 445.75797 478.75885
476.0 0.002101 445.70929 479.02625
518.0 0.001931 445.66061 479.31107
462.0 0.002165 445.61188 479.61316
521.0 0.001919 445.56296 479.93069
503.0 0.001988 445.51392 480.26324
505.0 0.001980 445.46484 480.60956
492.0 0.002033 445.41553 480.97018
484.0 0.002066 445.36624 481.34256
470.0 0.002128 445.31686 481.75751
483.0 0.002070 445.26718 482.14966
500.0 0.002000 445.21750 482.54984
533.0 0.001876 445.16772 482.95734
512.0 0.001953 445.11786 483.37057
495.0 0.002020 445.06778 483.84482
493.0 0.002028 445.01770 483.98019
503.0 0.001988 444.96738 484.40448
509.0 0.001965 444.91702 484.82928
507.0 0.001972 444.86655 485.25290
495.0 0.002020 444.81601 485.70316
475.0 0.002105 444.76529 486.12534
490.0 0.002041 444.71451 486.53937
500.0 0.002000 444.66354 486.94675
498.0 0.002008 444.61246 487.34595
460.0 0.002174 444.56122 487.73550
495.0 0.002020 444.51004 488.12228
535.0 0.001869 444.45850 488.48895
522.0 0.001916 444.40692 488.84213
499.0 0.002004 444.35529 489.18024
526.0 0.001901 444.30350 489.50259
492.0 0.002033 444.25168 489.80768
494.0 0.002024 444.19965 490.09543
493.0 0.002028 444.14746 490.36304
517.0 0.001934 444.09512 490.61038
513.0 0.001949 444.04272 490.83664
431.0 0.002320 443.99014 491.04117
480.0 0.002083 443.93756 491.22311
479.0 0.002088 443.88477 491.38208
494.0 0.002024 443.83191 491.51740
502.0 0.001992 443.77887 491.62894
454.0 0.002203 443.72568 491.71625
481.0 0.002079 443.67233 491.77914
491.0 0.002037 443.61893 491.92328
450.0 0.002222 443.56546 491.93924
488.0 0.002049 443.51172 491.93121
516.0 0.001938 443.45798 491.89923
500.0 0.002000 443.40405 491.84412
490.0 0.002041 443.34995 491.76636
476.0 0.002101 443.29568 491.66629
496.0 0.002016 443.24139 491.54492
456.0 0.002193 443.18689 491.40332
463.0 0.002160 443.13235 491.26044
517.0 0.001934 443.07761 491.08093
495.0 0.002020 443.02274 490.88480
481.0 0.002079 442.96774 490.67285
481.0 0.002079 442.91257 490.44638
478.0 0.002092 442.85730 490.20706
512.0 0.001953 442.80197 489.95636
493.0 0.002028 442.74637 489.69623
485.0 0.002062 442.69073 489.42764
450.0 0.002222 442.63495 489.15353
506.0 0.001976 442.57898 488.87436
502.0 0.001992 442.52292 488.59268
506.0 0.001976 442.46667 488.31052
491.0 0.002037 442.41031 488.15262
472.0 0.002119 442.35373 487.87546
494.0 0.002024 442.29724 487.60312
501.0 0.001996 442.24045 487.33777
484.0 0.002066 442.18341 487.08142
496.0 0.002016 442.12643 486.82303
504.0 0.001984 442.06927 486.58994
496.0 0.002016 442.01184 486.37152
489.0 0.002045 441.95444 486.16870
478.0 0.002092 441.89688 485.98407
468.0 0.002137 441.83905 485.81897
454.0 0.002203 441.78107 485.67542
485.0 0.002062 441.72308 485.55429
479.0 0.002088 441.66489 485.45734
518.0 0.001931 441.60657 485.40012
468.0 0.002137 441.54797 485.35590
489.0 0.002045 441.48944 485.34009
513.0 0.001949 441.43060 485.35318
479.0 0.002088 441.37183 485.39706
517.0 0.001934 441.31277 485.47180
467.0 0.002141 441.25354 485.57880
476.0 0.002101 441.19418 485.71875
461.0 0.002169 441.13470 485.89163
491.0 0.002037 441.07507 486.09836
476.0 0.002101 441.01517 486.33902
468.0 0.002137 440.95529 486.61432
497.0 0.002012 440.89526 486.92380
485.0 0.002062 440.83499 487.26779
500.0 0.002000 440.77466 487.64572
475.0 0.002105 440.71414 488.06049
505.0 0.001980 440.65338 488.50586
530.0 0.001887 440.59268 488.98480
475.0 0.002105 440.53168 489.50153
490.0 0.002041 440.47061 490.04388
495.0 0.002020 440.40930 490.61731
502.0 0.001992 440.34790 491.22015
503.0 0.001988 440.28625 491.85156
480.0 0.002083 440.22461 492.51031
523.0 0.001912 440.16272 493.19501
491.0 0.002037 440.10077 493.90430
495.0 0.002020 440.03848 494.63657
502.0 0.001992 439.97623 495.39020
499.0 0.002004 439.91379 496.16348
519.0 0.001927 439.85114 496.97574
498.0 0.002008 439.78833 497.78305
531.0 0.001883 439.72537 498.60474
507.0 0.001972 439.66238 499.43860
502.0 0.001992 439.59912 500.28235
483.0 0.002070 439.53583 501.13419
475.0 0.002105 439.47223 501.99203
498.0 0.002008 439.40857 502.85330
472.0 0.002119 439.34473 503.71576
494.0 0.002024 439.28076 504.59290
487.0 0.002053 439.21655 505.45178
498.0 0.002008 439.15219 506.30569
527.0 0.001898 439.08786 507.15118
516.0 0.001938 439.02328 508.02548
536.0 0.001866 438.95850 508.84927
494.0 0.002024 438.89352 509.65851
470.0 0.002128 438.82846 510.45139
488.0 0.002049 438.76318 511.22455
525.0 0.001905 438.69781 511.97699
539.0 0.001855 438.63239 512.70660
517.0 0.001934 438.56668 513.41034
522.0 0.001916 438.50092 514.08752
530.0 0.001887 438.43478 514.73529
504.0 0.001984 438.36868 515.35260
525.0 0.001905 438.30240 515.93738
473.0 0.002114 438.23587 516.48810
479.0 0.002088 438.16931 517.00348
487.0 0.002053 438.10260 517.48206
510.0 0.001961 438.03564 517.92230
492.0 0.002033 437.96854 518.32410
502.0 0.001992 437.90131 518.68549
455.0 0.002198 437.83392 519.00647
480.0 0.002083 437.76636 519.28583
482.0 0.002075 437.69867 519.52380
486.0 0.002058 437.63080 519.71912
518.0 0.001931 437.56281 519.87262
522.0 0.001916 437.49463 519.98358
500.0 0.002000 437.42633 520.05243
546.0 0.001832 437.35785 520.07886
525.0 0.001905 437.28918 520.06384
506.0 0.001976 437.22043 520.00726
505.0 0.001980 437.15149 519.91040
559.0 0.001789 437.08234 519.77313
521.0 0.001919 437.01309 519.59698
487.0 0.002053 436.94370 519.38214
515.0 0.001942 436.87411 519.12964
513.0 0.001949 436.80438 518.73254
515.0 0.001942 436.73456 518.40839
503.0 0.001988 436.66452 518.04938
500.0 0.002000 436.59439 517.65698
457.0 0.002188 436.52402 517.23145
498.0 0.002008 436.45343 516.77478
464.0 0.002155 436.38278 516.28754
482.0 0.002075 436.31201 515.77087
510.0 0.001961 436.24106 515.22552
519.0 0.001927 436.16998 514.65289
510.0 0.001961 436.09869 514.05353
521.0 0.001919 436.02722 513.42902
576.0 0.001736 435.95569 512.77954
521.0 0.001919 435.88391 512.10657
492.0 0.002033 435.81207 511.41071
520.0 0.001923 435.73999 510.69296
519.0 0.001927 435.66779 509.95435
534.0 0.001873 435.59546 509.19540
479.0 0.002088 435.52295 508.41693
523.0 0.001912 435.45026 507.62024
497.0 0.002012 435.37750 506.82861
502.0 0.001992 435.30453 505.99762
522.0 0.001916 435.23138 505.15048
527.0 0.001898 435.15808 504.28830
544.0 0.001838 435.08466 503.41193
509.0 0.001965 435.01117 502.52249
494.0 0.002024 434.93744 501.63385
501.0 0.001996 434.86349 500.72076
500.0 0.002000 434.78952 499.79758
526.0 0.001901 434.71530 498.86484
514.0 0.001946 434.64093 497.92422
510.0 0.001961 434.56650 496.97604
504.0 0.001984 434.49176 496.02200
519.0 0.001927 434.41702 495.06302
530.0 0.001887 434.34213 494.10037
513.0 0.001949 434.26706 493.13516
487.0 0.002053 434.19180 492.16833
476.0 0.002101 434.11636 491.20129
468.0 0.002137 434.04077 490.23523
491.0 0.002037 433.96512 489.27057
469.0 0.002132 433.88937 488.30936
481.0 0.002079 433.81329 487.36414
476.0 0.002101 433.73718 486.41269
464.0 0.002155 433.66089 485.46759
494.0 0.002024 433.58444 484.52982
499.0 0.002004 433.50797 483.60074
471.0 0.002123 433.43118 482.68060
484.0 0.002066 433.35428 481.77094
461.0 0.002169 433.27719 480.73508
489.0 0.002045 433.20016 479.84982
475.0 0.002105 433.12277 478.97757
467.0 0.002141 433.04532 478.11905
470.0 0.002128 432.96780 477.27499
487.0 0.002053 432.88992 476.44577
430.0 0.002326 432.81213 475.63260
475.0 0.002105 432.73401 474.83554
485.0 0.002062 432.65588 474.05573
461.0 0.002169 432.57758 473.29324
451.0 0.002217 432.49915 472.54871
479.0 0.002088 432.42056 471.82285
468.0 0.002137 432.34174 471.14734
459.0 0.002179 432.26285 470.54050
482.0 0.002075 432.18381 469.87396
464.0 0.002155 432.10464 469.22751
502.0 0.001992 432.02536 468.60095
442.0 0.002262 431.94577 467.99512
424.0 0.002358 431.86627 467.40976
436.0 0.002294 431.78656 466.84521
446.0 0.002242 431.70679 466.30133
456.0 0.002193 431.62659 465.81711
452.0 0.002212 431.54657 465.31281
488.0 0.002049 431.46622 464.83264
477.0 0.002096 431.38574 464.37354
438.0 0.002283 431.30518 463.93561
458.0 0.002183 431.22449 463.51846
427.0 0.002342 431.14368 463.12222
437.0 0.002288 431.06268 462.74680
460.0 0.002174 430.98163 462.40802
455.0 0.002198 430.90033 462.07382
425.0 0.002353 430.81900 461.75970
432.0 0.002315 430.73746 461.46545
464.0 0.002155 430.65591 461.19098
456.0 0.002193 430.57416 460.93585
449.0 0.002227 430.49219 460.69980
459.0 0.002179 430.41019 460.48239
432.0 0.002315 430.32800 460.28336
455.0 0.002198 430.24576 460.10251
449.0 0.002227 430.16330 459.93921
426.0 0.002347 430.08087 459.80603
474.0 0.002110 429.99808 459.67676
495.0 0.002020 429.91531 459.56354
485.0 0.002062 429.83231 459.46643
430.0 0.002326 429.74936 459.38458
485.0 0.002062 429.66614 459.31781
445.0 0.002247 429.58279 459.26541
452.0 0.002212 429.49942 459.22708
460.0 0.002174 429.41586 459.20215
455.0 0.002198 429.33218 459.19040
458.0 0.002183 429.24829 459.19092
483.0 0.002070 429.16449 459.30902
472.0 0.002119 429.08035 459.33411
445.0 0.002247 428.99625 459.37036
488.0 0.002049 428.91196 459.41739
466.0 0.002146 428.82758 459.47452
441.0 0.002268 428.74304 459.54181
458.0 0.002183 428.65836 459.61819
462.0 0.002165 428.57364 459.70395
440.0 0.002273 428.48874 459.79825
432.0 0.002315 428.40378 459.90036
456.0 0.002193 428.31873 460.01022
444.0 0.002252 428.23343 460.12781
489.0 0.002045 428.14813 460.25217
469.0 0.002132 428.06265 460.39429
451.0 0.002217 427.97714 460.53192
453.0 0.002208 427.89148 460.67511
459.0 0.002179 427.80566 460.86636
484.0 0.002066 427.71970 461.02069
478.0 0.002092 427.63379 461.26559
446.0 0.002242 427.54767 461.42990
488.0 0.002049 427.46143 461.59866
488.0 0.002049 427.37506 461.77106
461.0 0.002169 427.28876 461.94690
461.0 0.002169 427.20206 462.20798
449.0 0.002227 427.11545 462.39056
482.0 0.002075 427.02878 462.57623
438.0 0.002283 426.94193 462.76340
440.0 0.002273 426.85492 462.95276
449.0 0.002227 426.76791 463.16623
448.0 0.002232 426.68079 463.35925
483.0 0.002070 426.59341 463.55380
457.0 0.002188 426.50610 463.74887
477.0 0.002096 426.41873 463.94476
484.0 0.002066 426.33112 464.14120
448.0 0.002232 426.24353 464.33786
450.0 0.002222 426.15576 464.53455
429.0 0.002331 426.06799 464.73114
451.0 0.002217 425.98007 464.92740
460.0 0.002174 425.89197 465.12289
457.0 0.002188 425.80386 465.34747
454.0 0.002203 425.71564 465.54230
484.0 0.002066 425.62747 465.73624
491.0 0.002037 425.53903 465.92886
464.0 0.002155 425.45053 466.12042
418.0 0.002392 425.36197 466.31058
479.0 0.002088 425.27325 466.49933
467.0 0.002141 425.18466 466.68677
460.0 0.002174 425.09576 466.87201
475.0 0.002105 425.00681 467.05566
474.0 0.002110 424.91782 467.23721
511.0 0.001957 424.82877 467.41653
472.0 0.002119 424.73965 467.59369
462.0 0.002165 424.65039 467.78171
442.0 0.002262 424.56119 467.95346
440.0 0.002273 424.47174 468.12241
477.0 0.002096 424.38220 468.28836
470.0 0.002128 424.29260 468.45111
461.0 0.002169 424.20309 468.61469
459.0 0.002179 424.11334 468.77026
486.0 0.002058 424.02350 468.92194
475.0 0.002105 423.93384 469.06946
495.0 0.002020 423.84387 469.21259
487.0 0.002053 423.75381 469.35104
470.0 0.002128 423.66376 469.48462
468.0 0.002137 423.57364 469.61349
477.0 0.002096 423.48349 469.73694
480.0 0.002083 423.39322 469.85458
486.0 0.002058 423.30286 469.96652
531.0 0.001883 423.21243 470.07275
465.0 0.002151 423.12198 470.17233
468.0 0.002137 423.03140 470.26132
477.0 0.002096 422.94095 470.34781
469.0 0.002132 422.85025 470.42715
460.0 0.002174 422.75961 470.49902
447.0 0.002237 422.66879 470.56360
456.0 0.002193 422.57806 470.62003
443.0 0.002257 422.48709 470.66852
448.0 0.002232 422.39615 470.70813
501.0 0.001996 422.30533 470.73920
461.0 0.002169 422.21420 470.76099
465.0 0.002151 422.12308 470.81287
462.0 0.002165 422.03195 470.81595
412.0 0.002427 421.94083 470.80844
468.0 0.002137 421.84952 470.79074
461.0 0.002169 421.75821 470.76193
483.0 0.002070 421.66693 470.72195
474.0 0.002110 421.57553 470.67004
469.0 0.002132 421.48410 470.60608
482.0 0.002075 421.39258 470.52988
428.0 0.002336 421.30109 470.44070
504.0 0.001984 421.20956 470.33844
490.0 0.002041 421.11792 470.22266
454.0 0.002203 421.02625 470.09280
467.0 0.002141 420.93469 469.94904
462.0 0.002165 420.84290 469.79056
477.0 0.002096 420.75119 469.61719
504.0 0.001984 420.65942 469.43677
506.0 0.001976 420.56760 469.23325
491.0 0.002037 420.47571 469.02274
496.0 0.002016 420.38388 468.80750
451.0 0.002217 420.29199 468.55743
476.0 0.002101 420.20010 468.29160
496.0 0.002016 420.10809 468.02753
453.0 0.002208 420.01617 467.73074
492.0 0.002033 419.92413 467.41803
466.0 0.002146 419.83206 467.09042
440.0 0.002273 419.73999 466.74725
468.0 0.002137 419.64792 466.38937
460.0 0.002174 419.55585 466.01703
482.0 0.002075 419.46371 465.63022
487.0 0.002053 419.37158 465.23004
472.0 0.002119 419.27948 464.81644
448.0 0.002232 419.18732 464.39053
426.0 0.002347 419.09506 463.95239
441.0 0.002268 419.00293 463.50278
438.0 0.002283 418.91061 463.04251
423.0 0.002364 418.81839 462.52521
440.0 0.002273 418.72617 462.04617
446.0 0.002242 418.63391 461.55878
462.0 0.002165 418.54178 461.06400
458.0 0.002183 418.44949 460.56232
446.0 0.002242 418.35724 460.05496
440.0 0.002273 418.26501 459.59686
409.0 0.002445 418.17264 459.08096
442.0 0.002262 418.08041 458.56238
473.0 0.002114 417.98825 458.04196
483.0 0.002070 417.89587 457.52020
424.0 0.002358 417.80362 456.99838
447.0 0.002237 417.71143 456.47754
426.0 0.002347 417.61923 455.95847
449.0 0.002227 417.52698 455.44186
445.0 0.002247 417.43466 454.92896
450.0 0.002222 417.34241 454.42075
440.0 0.002273 417.25024 453.91788
443.0 0.002257 417.15802 453.42142
433.0 0.002309 417.06592 452.93176
445.0 0.002247 416.97369 452.45035
456.0 0.002193 416.88153 451.98318
440.0 0.002273 416.78931 451.52878
463.0 0.002160 416.69727 451.07599
462.0 0.002165 416.60510 450.63422
442.0 0.002262 416.51306 450.20432
454.0 0.002203 416.42099 449.78680
457.0 0.002188 416.32898 449.41812
472.0 0.002119 416.23694 449.02747
466.0 0.002146 416.14499 448.65048
435.0 0.002299 416.05304 448.28857
462.0 0.002165 415.96109 447.94153
418.0 0.002392 415.86917 447.61032
435.0 0.002299 415.77731 447.30869
443.0 0.002257 415.68549 447.10590
408.0 0.002451 415.59372 446.84488
448.0 0.002232 415.50195 446.58130
426.0 0.002347 415.41013 446.33508
471.0 0.002123 415.31851 446.15436
455.0 0.002198 415.22684 445.94513
457.0 0.002188 415.13519 445.75357
477.0 0.002096 415.04367 445.58032
486.0 0.002058 414.95206 445.42563
453.0 0.002208 414.86069 445.28946
440.0 0.002273 414.76923 445.17249
461.0 0.002169 414.67789 445.07336
448.0 0.002232 414.58652 444.99335
427.0 0.002342 414.49524 444.93170
470.0 0.002128 414.40399 444.88831
427.0 0.002342 414.31284 444.86380
428.0 0.002336 414.22159 444.85678
442.0 0.002262 414.13055 444.86801
496.0 0.002016 414.03961 444.97763
467.0 0.002141 413.94858 445.02432
472.0 0.002119 413.85767 445.09152
473.0 0.002114 413.76685 445.12936
442.0 0.002262 413.67606 445.22717
443.0 0.002257 413.58530 445.34088
438.0 0.002283 413.49466 445.46982
437.0 0.002288 413.40414 445.61423
424.0 0.002358 413.31360 445.77261
437.0 0.002288 413.22305 445.94522
440.0 0.002273 413.13287 446.13113
473.0 0.002114 413.04248 446.32932
435.0 0.002299 412.95221 446.53958
452.0 0.002212 412.86206 446.76416
430.0 0.002326 412.77194 446.99600
482.0 0.002075 412.68201 447.23721
449.0 0.002227 412.59204 447.48758
476.0 0.002101 412.50220 447.74597
430.0 0.002326 412.41251 448.01096
451.0 0.002217 412.32275 448.28433
463.0 0.002160 412.23322 448.56076
450.0 0.002222 412.14362 448.84183
420.0 0.002381 412.05426 449.12570
457.0 0.002188 411.96497 449.41202
463.0 0.002160 411.87558 449.69965
457.0 0.002188 411.78656 449.98721
447.0 0.002237 411.69748 450.27414
473.0 0.002114 411.60840 450.55914
453.0 0.002208 411.51962 450.84106
465.0 0.002151 411.43076 451.11908
466.0 0.002146 411.34213 451.39240
494.0 0.002024 411.25348 451.65897
460.0 0.002174 411.16504 451.91898
487.0 0.002053 411.07669 452.17053
465.0 0.002151 410.98831 452.41309
449.0 0.002227 410.90030 452.64572
476.0 0.002101 410.81213 452.86725
452.0 0.002212 410.72415 453.07678
452.0 0.002212 410.63623 453.27405
474.0 0.002110 410.54865 453.45767
477.0 0.002096 410.46097 453.62711
492.0 0.002033 410.37344 453.78162
469.0 0.002132 410.28610 453.92084
478.0 0.002092 410.19879 454.04431
466.0 0.002146 410.11160 454.15100
486.0 0.002058 410.02451 454.24121
484.0 0.002066 409.93765 454.31436
491.0 0.002037 409.85083 454.37027
464.0 0.002155 409.76413 454.40887
459.0 0.002179 409.67755 454.42990
489.0 0.002045 409.59109 454.43396
464.0 0.002155 409.50482 454.42062
448.0 0.002232 409.41855 454.33475
495.0 0.002020 409.33258 454.28842
476.0 0.002101 409.24658 454.22589
465.0 0.002151 409.16080 454.14746
447.0 0.002237 409.07513 454.05392
448.0 0.002232 408.98972 453.94580
472.0 0.002119 408.90433 453.86789
477.0 0.002096 408.81897 453.73279
405.0 0.002469 408.73392 453.58554
427.0 0.002342 408.64893 453.42667
497.0 0.002012 408.56403 453.25705
469.0 0.002132 408.47931 453.07715
460.0 0.002174 408.39493 452.92636
477.0 0.002096 408.31049 452.73087
476.0 0.002101 408.22614 452.52884
422.0 0.002370 408.14209 452.32092
457.0 0.002188 408.05823 452.10815
433.0 0.002309 407.97437 451.89185
457.0 0.002188 407.89069 451.67288
465.0 0.002151 407.80719 451.45221
437.0 0.002288 407.72388 451.23126
429.0 0.002331 407.64066 451.01089
461.0 0.002169 407.55762 450.79187
450.0 0.002222 407.47476 450.57568
439.0 0.002278 407.39209 450.36276
478.0 0.002092 407.30951 450.15439
439.0 0.002278 407.22717 449.95135
431.0 0.002320 407.14490 449.75510
446.0 0.002242 407.06284 449.56573
461.0 0.002169 406.98096 449.38412
501.0 0.001996 406.89917 449.21164
437.0 0.002288 406.81769 449.04825
455.0 0.002198 406.73627 448.89526
415.0 0.002410 406.65509 448.75330
448.0 0.002232 406.57401 448.62210
458.0 0.002183 406.49319 448.50330
447.0 0.002237 406.41245 448.39648
468.0 0.002137 406.33197 448.31555
456.0 0.002193 406.25159 448.23453
450.0 0.002222 406.17142 448.16690
455.0 0.002198 406.09146 448.11276
458.0 0.002183 406.01175 448.07980
444.0 0.002252 405.93207 448.05380
459.0 0.002179 405.85266 448.04132
430.0 0.002326 405.77341 448.04294
456.0 0.002193 405.69437 448.05783
470.0 0.002128 405.61548 448.08640
457.0 0.002188 405.53680 448.12793
456.0 0.002193 405.45840 448.20068
480.0 0.002083 405.38004 448.26880
464.0 0.002155 405.30194 448.34924
463.0 0.002160 405.22406 448.44131
457.0 0.002188 405.14636 448.54437
462.0 0.002165 405.06885 448.65796
452.0 0.002212 404.99146 448.78134
464.0 0.002155 404.91443 448.91400
456.0 0.002193 404.83749 449.05496
437.0 0.002288 404.76077 449.25272
451.0 0.002217 404.68427 449.40842
504.0 0.001984 404.60794 449.57001
481.0 0.002079 404.53192 449.73633
455.0 0.002198 404.45593 449.90656
465.0 0.002151 404.38031 450.08014
460.0 0.002174 404.30481 450.25565
447.0 0.002237 404.22955 450.43213
458.0 0.002183 404.15454 450.60880
452.0 0.002212 404.07965 450.78391
444.0 0.002252 404.00500 450.95737
448.0 0.002232 403.93051 451.12750
425.0 0.002353 403.85638 451.29358
422.0 0.002370 403.78244 451.45432
444.0 0.002252 403.70862 451.60880
458.0 0.002183 403.63507 451.75653
444.0 0.002252 403.56177 451.89560
460.0 0.002174 403.48868 452.02560
421.0 0.002375 403.41580 452.14597
439.0 0.002278 403.34317 452.25546
426.0 0.002347 403.27072 452.35327
486.0 0.002058 403.19849 452.43887
467.0 0.002141 403.12650 452.51120
484.0 0.002066 403.05481 452.56989
471.0 0.002123 402.98331 452.61435
480.0 0.002083 402.91196 452.64417
476.0 0.002101 402.84091 452.65839
447.0 0.002237 402.77011 452.65714
449.0 0.002227 402.69946 452.64017
464.0 0.002155 402.62912 452.60678
483.0 0.002070 402.55908 452.55710
452.0 0.002212 402.48917 452.50354
452.0 0.002212 402.41943 452.42114
444.0 0.002252 402.35007 452.39075
471.0 0.002123 402.28091 452.27661
487.0 0.002053 402.21201 452.14627
442.0 0.002262 402.14331 452.00021
477.0 0.002096 402.07489 451.83878
490.0 0.002041 402.00665 451.66220
466.0 0.002146 401.93878 451.47128
451.0 0.002217 401.87103 451.26602
432.0 0.002315 401.80356 451.07187
482.0 0.002075 401.73633 450.84082
425.0 0.002353 401.66931 450.59756
436.0 0.002294 401.60263 450.34335
403.0 0.002481 401.53619 449.88181
468.0 0.002137 401.46994 449.60773
434.0 0.002304 401.40399 449.32455
463.0 0.002160 401.33841 449.09354
503.0 0.001988 401.27286 448.79755
474.0 0.002110 401.20770 448.49548
432.0 0.002315 401.14273 448.18744
427.0 0.002342 401.07809 447.86960
461.0 0.002169 401.01367 447.55331
427.0 0.002342 400.94946 447.23373
437.0 0.002288 400.88559 446.91257
449.0 0.002227 400.82196 446.58975
455.0 0.002198 400.75861 446.26633
423.0 0.002364 400.69547 445.94315
486.0 0.002058 400.63263 445.52386
475.0 0.002105 400.57004 445.20377
419.0 0.002387 400.50754 444.88806
405.0 0.002469 400.44565 444.57697
463.0 0.002160 400.38385 444.31946
429.0 0.002331 400.32233 444.01242
436.0 0.002294 400.26102 443.71005
446.0 0.002242 400.20010 443.41281
467.0 0.002141 400.13928 443.12073
454.0 0.002203 400.07898 442.83441
424.0 0.002358 400.01877 442.56842
398.0 0.002513 399.95886 442.29446
407.0 0.002457 399.89920 442.03632
443.0 0.002257 399.83981 441.77603
443.0 0.002257 399.78079 441.64636
454.0 0.002203 399.72202 441.40128
467.0 0.002141 399.66345 441.16299
482.0 0.002075 399.60516 440.93173
433.0 0.002309 399.54721 440.70752
428.0 0.002336 399.48953 440.49063
419.0 0.002387 399.43216 440.29495
495.0 0.002020 399.37500 440.09140
482.0 0.002075 399.31818 439.89432
448.0 0.002232 399.26160 439.70343
463.0 0.002160 399.20529 439.51868
439.0 0.002278 399.14932 439.33984
448.0 0.002232 399.09351 439.16632
447.0 0.002237 399.03812 438.92065
440.0 0.002273 398.98306 438.75787
435.0 0.002299 398.92813 438.59961
411.0 0.002433 398.87360 438.44547
443.0 0.002257 398.81927 438.29556
441.0 0.002268 398.76526 438.14877
437.0 0.002288 398.71155 438.00558
463.0 0.002160 398.65811 437.86505
410.0 0.002439 398.60501 437.72693
436.0 0.002294 398.55219 437.59122
424.0 0.002358 398.49951 437.45724
403.0 0.002481 398.44730 437.32489
425.0 0.002353 398.39529 437.19379
439.0 0.002278 398.34357 437.06357
414.0 0.002415 398.29221 436.93396
452.0 0.002212 398.24118 436.80499
455.0 0.002198 398.19031 436.67603
425.0 0.002353 398.13974 436.54724
484.0 0.002066 398.08957 436.41821
380.0 0.002632 398.03964 436.28882
424.0 0.002358 397.99005 436.16553
449.0 0.002227 397.94070 436.03497
429.0 0.002331 397.89163 435.90417
448.0 0.002232 397.84283 435.77261
412.0 0.002427 397.79449 435.64053
437.0 0.002288 397.74634 435.51349
466.0 0.002146 397.69849 435.38037
461.0 0.002169 397.65100 435.24591
403.0 0.002481 397.60370 435.11133
420.0 0.002381 397.55670 434.97620
459.0 0.002179 397.51013 434.84076
442.0 0.002262 397.46371 434.70538
412.0 0.002427 397.41763 434.56967
408.0 0.002451 397.37195 434.43442
451.0 0.002217 397.32648 434.29922
416.0 0.002404 397.28128 434.16486
397.0 0.002519 397.23645 434.03119
441.0 0.002268 397.19186 433.89841
453.0 0.002208 397.14764 433.87112
405.0 0.002469 397.10376 433.74216
434.0 0.002304 397.06009 433.63513
423.0 0.002364 397.01672 433.50995
454.0 0.002203 396.97375 433.38699
407.0 0.002457 396.93100 433.26648
443.0 0.002257 396.88855 433.14844
418.0 0.002392 396.84647 433.03357
458.0 0.002183 396.80466 432.92157
431.0 0.002320 396.76315 432.81259
406.0 0.002463 396.72192 432.70746
427.0 0.002342 396.68103 432.60565
462.0 0.002165 396.64047 432.50723
450.0 0.002222 396.60028 432.29019
407.0 0.002457 396.56018 432.20068
440.0 0.002273 396.52048 432.11526
419.0 0.002387 396.48105 432.03397
415.0 0.002410 396.44208 431.97418
430.0 0.002326 396.40329 431.90302
490.0 0.002041 396.36478 431.83606
441.0 0.002268 396.32666 431.77347
473.0 0.002114 396.28882 431.71536
420.0 0.002381 396.25125 431.66144
454.0 0.002203 396.21405 431.61169
379.0 0.002639 396.17709 431.56613
422.0 0.002370 396.14053 431.52469
433.0 0.002309 396.10416 431.48715
432.0 0.002315 396.06815 431.45328
442.0 0.002262 396.03250 431.42340
441.0 0.002268 395.99701 431.39700
432.0 0.002315 395.96204 431.37408
425.0 0.002353 395.92719 431.35437
446.0 0.002242 395.89273 431.33771
436.0 0.002294 395.85852 431.33051
443.0 0.002257 395.82465 431.33392
435.0 0.002299 395.79111 431.32581
435.0 0.002299 395.75790 431.32059
408.0 0.002451 395.72498 431.31708
422.0 0.002370 395.69229 431.31610
410.0 0.002439 395.65997 431.31699
421.0 0.002375 395.62796 431.31982
425.0 0.002353 395.59625 431.32419
424.0 0.002358 395.56485 431.33038
401.0 0.002494 395.53366 431.33768
428.0 0.002336 395.50293 431.34647
432.0 0.002315 395.47238 431.35703
434.0 0.002304 395.44217 431.38254
426.0 0.002347 395.41226 431.39526
430.0 0.002326 395.38269 431.40918
433.0 0.002309 395.35339 431.42435
451.0 0.002217 395.32452 431.44037
430.0 0.002326 395.29578 431.45776
411.0 0.002433 395.26746 431.47620
411.0 0.002433 395.23938 431.49588
418.0 0.002392 395.21155 431.51672
419.0 0.002387 395.18414 431.53864
422.0 0.002370 395.15695 431.56180
425.0 0.002353 395.13013 431.58652
438.0 0.002283 395.10349 431.61279
427.0 0.002342 395.07739 431.64038
447.0 0.002237 395.05139 431.67026
420.0 0.002381 395.02579 431.70157
415.0 0.002410 395.00031 431.73483
414.0 0.002415 394.97534 431.77008
455.0 0.002198 394.95056 431.80762
438.0 0.002283 394.92606 431.84741
422.0 0.002370 394.90198 431.89001
440.0 0.002273 394.87802 431.93539
443.0 0.002257 394.85449 431.99939
415.0 0.002410 394.83118 432.07788
454.0 0.002203 394.80826 432.13342
449.0 0.002227 394.78564 432.19257
409.0 0.002445 394.76321 432.25571
433.0 0.002309 394.74121 432.32263
406.0 0.002463 394.71942 432.39432
452.0 0.002212 394.69791 432.47012
423.0 0.002364 394.67667 432.55093
413.0 0.002421 394.65582 432.63623
473.0 0.002114 394.63528 432.72745
483.0 0.002070 394.61493 432.82343
477.0 0.002096 394.59491 432.92538
440.0 0.002273 394.57513 433.03357
448.0 0.002232 394.55576 433.14706
454.0 0.002203 394.53659 433.27252
415.0 0.002410 394.51764 433.39850
415.0 0.002410 394.49918 433.53143
426.0 0.002347 394.48080 433.67078
432.0 0.002315 394.46286 433.82486
448.0 0.002232 394.44519 433.99173
460.0 0.002174 394.42764 434.15259
439.0 0.002278 394.41055 434.32071
447.0 0.002237 394.39374 434.49619
424.0 0.002358 394.37714 434.67883
425.0 0.002353 394.36078 434.86841
483.0 0.002070 394.34485 435.06546
481.0 0.002079 394.32910 435.26959
454.0 0.002203 394.31372 435.48083
445.0 0.002247 394.29849 435.69894
421.0 0.002375 394.28366 435.92410
407.0 0.002457 394.26907 436.15619
449.0 0.002227 394.25473 436.39084
438.0 0.002283 394.24066 436.63571
439.0 0.002278 394.22693 436.90994
446.0 0.002242 394.21344 437.16751
432.0 0.002315 394.20020 437.43954
420.0 0.002381 394.18723 437.70743
430.0 0.002326 394.17453 437.98083
423.0 0.002364 394.16214 438.28799
436.0 0.002294 394.14999 438.57010
465.0 0.002151 394.13815 438.85635
433.0 0.002309 394.12659 439.16531
471.0 0.002123 394.11526 439.45792
462.0 0.002165 394.10425 439.75415
396.0 0.002525 394.09335 440.05115
416.0 0.002404 394.08289 440.33060
434.0 0.002304 394.07266 440.62946
444.0 0.002252 394.06262 440.92834
424.0 0.002358 394.05289 441.22699
450.0 0.002222 394.04343 441.52429
452.0 0.002212 394.03421 441.82086
450.0 0.002222 394.02533 442.11417
446.0 0.002242 394.01654 442.36209
437.0 0.002288 394.00815 442.64893
450.0 0.002222 393.99994 442.93109
476.0 0.002101 393.99207 443.20856
454.0 0.002203 393.98438 443.48010
447.0 0.002237 393.97699 443.74594
445.0 0.002247 393.96985 444.00394
442.0 0.002262 393.96292 444.25439
477.0 0.002096 393.95618 444.49631
453.0 0.002208 393.94974 444.72919
463.0 0.002160 393.94354 444.95264
467.0 0.002141 393.93774 445.16595
443.0 0.002257 393.93207 445.36874
429.0 0.002331 393.92661 445.59464
452.0 0.002212 393.92142 445.77463
469.0 0.002132 393.91641 445.94299
445.0 0.002247 393.91177 446.09857
451.0 0.002217 393.90735 446.24146
442.0 0.002262 393.90308 446.37112
456.0 0.002193 393.89908 446.48773
452.0 0.002212 393.89529 446.59061
463.0 0.002160 393.89182 446.68018
432.0 0.002315 393.88846 446.75580
469.0 0.002132 393.88538 446.81784
437.0 0.002288 393.88263 446.87881
455.0 0.002198 393.87997 446.91370
473.0 0.002114 393.87762 446.93457
456.0 0.002193 393.87552 446.94208
425.0 0.002353 393.87360 446.93643
490.0 0.002041 393.87192 446.91730
465.0 0.002151 393.87042 446.88553
456.0 0.002193 393.86920 446.84091
451.0 0.002217 393.86813 446.78394
429.0 0.002331 393.86734 446.71500
471.0 0.002123 393.86667 446.63403
467.0 0.002141 393.86630 446.54193
401.0 0.002494 393.86618 446.43860
444.0 0.002252 393.86624 446.32410
450.0 0.002222 393.86649 446.19925
417.0 0.002398 393.86703 446.06439
447.0 0.002237 393.86768 445.91940
438.0 0.002283 393.86850 445.76526
459.0 0.002179 393.86960 445.60168
460.0 0.002174 393.87100 445.42908
482.0 0.002075 393.87241 445.24780
426.0 0.002347 393.87415 445.05798
441.0 0.002268 393.87607 444.86035
434.0 0.002304 393.87814 444.65463
436.0 0.002294 393.88040 444.44128
459.0 0.002179 393.88293 444.22049
404.0 0.002475 393.88565 443.99243
431.0 0.002320 393.88846 443.75681
418.0 0.002392 393.89148 443.51489
414.0 0.002415 393.89481 443.26563
463.0 0.002160 393.89822 443.01001
425.0 0.002353 393.90176 442.74756
437.0 0.002288 393.90558 442.47855
426.0 0.002347 393.90961 442.20316
442.0 0.002262 393.91382 441.92123
438.0 0.002283 393.91809 441.63275
474.0 0.002110 393.92270 441.34668
447.0 0.002237 393.92740 441.04578
445.0 0.002247 393.93228 440.73795
413.0 0.002421 393.93723 440.42389
469.0 0.002132 393.94244 440.10318
453.0 0.002208 393.94788 439.77631
446.0 0.002242 393.95346 439.44260
450.0 0.002222 393.95911 439.10223
456.0 0.002193 393.96503 438.75537
447.0 0.002237 393.97110 438.40186
429.0 0.002331 393.97736 438.04239
457.0 0.002188 393.98367 437.67560
413.0 0.002421 393.99023 437.30209
427.0 0.002342 393.99689 436.92169
458.0 0.002183 394.00369 436.56268
435.0 0.002299 394.01065 436.16931
445.0 0.002247 394.01779 435.76978
471.0 0.002123 394.02509 435.36322
445.0 0.002247 394.03250 434.95068
457.0 0.002188 394.04010 434.53192
419.0 0.002387 394.04776 434.21835
420.0 0.002381 394.05566 433.80338
412.0 0.002427 394.06366 433.36990
426.0 0.002347 394.07181 432.93600
408.0 0.002451 394.08005 432.50800
433.0 0.002309 394.08847 432.06082
454.0 0.002203 394.09698 431.63605
450.0 0.002222 394.10562 431.28760
410.0 0.002439 394.11438 430.83078
439.0 0.002278 394.12338 430.37057
459.0 0.002179 394.13239 429.90796
388.0 0.002577 394.14154 429.44290
420.0 0.002381 394.15082 428.97632
407.0 0.002457 394.16028 428.50809
419.0 0.002387 394.16977 428.03903
414.0 0.002415 394.17941 427.56973
442.0 0.002262 394.18915 427.10022
426.0 0.002347 394.19904 426.63116
409.0 0.002445 394.20889 426.16330
415.0 0.002410 394.21915 425.69681
418.0 0.002392 394.22919 425.23215
415.0 0.002410 394.23947 424.77310
421.0 0.002375 394.24979 424.31363
433.0 0.002309 394.26031 423.85748
450.0 0.002222 394.27090 423.40521
437.0 0.002288 394.28159 422.95715
426.0 0.002347 394.29236 422.51373
426.0 0.002347 394.30322 422.07523
416.0 0.002404 394.31421 421.64554
401.0 0.002494 394.32523 421.21881
394.0 0.002538 394.33630 420.79849
410.0 0.002439 394.34753 420.38531
385.0 0.002597 394.35883 419.97961
435.0 0.002299 394.37024 419.58133
421.0 0.002375 394.38168 419.20203
409.0 0.002445 394.39319 418.82071
437.0 0.002288 394.40475 418.44800
408.0 0.002451 394.41632 418.08478
399.0 0.002506 394.42816 417.73132
384.0 0.002604 394.43997 417.38745
441.0 0.002268 394.45181 417.05417
437.0 0.002288 394.46381 416.73145
439.0 0.002278 394.47568 416.21121
413.0 0.002421 394.48773 415.91205
453.0 0.002208 394.49985 415.62451
401.0 0.002494 394.51202 415.34860
401.0 0.002494 394.52426 415.08487
428.0 0.002336 394.53653 414.83331
386.0 0.002591 394.54877 414.59491
377.0 0.002653 394.56116 414.36905
379.0 0.002639 394.57355 414.15634
436.0 0.002294 394.58594 413.99786
433.0 0.002309 394.59845 413.81293
396.0 0.002525 394.61096 413.64148
471.0 0.002123 394.62347 413.48407
414.0 0.002415 394.63617 413.36194
395.0 0.002532 394.64871 413.23264
387.0 0.002584 394.66138 413.11761
403.0 0.002481 394.67401 413.03906
429.0 0.002331 394.68677 412.95300
413.0 0.002421 394.69952 412.88135
444.0 0.002252 394.71219 412.82434
403.0 0.002481 394.72507 412.79782
408.0 0.002451 394.73773 412.77072
434.0 0.002304 394.75058 412.75751
408.0 0.002451 394.76331 412.75970
390.0 0.002564 394.77621 412.77628
386.0 0.002591 394.78903 412.80786
423.0 0.002364 394.80185 412.85388
423.0 0.002364 394.81470 412.91434
415.0 0.002410 394.82755 412.98969
429.0 0.002331 394.84033 413.07925
424.0 0.002358 394.85318 413.18323
410.0 0.002439 394.86600 413.30161
467.0 0.002141 394.87885 413.43433
395.0 0.002532 394.89163 413.58084
423.0 0.002364 394.90442 413.74155
395.0 0.002532 394.91721 413.91583
419.0 0.002387 394.92996 414.10370
407.0 0.002457 394.94269 414.30518
431.0 0.002320 394.95544 414.51971
419.0 0.002387 394.96817 414.74765
423.0 0.002364 394.98087 414.98837
420.0 0.002381 394.99347 415.24194
421.0 0.002375 395.00613 415.51028
433.0 0.002309 395.01877 415.78857
400.0 0.002500 395.03128 416.07904
415.0 0.002410 395.04385 416.38107
399.0 0.002506 395.05634 416.69510
440.0 0.002273 395.06876 417.02032
452.0 0.002212 395.08109 417.37244
410.0 0.002439 395.09360 417.71994
407.0 0.002457 395.10583 418.07773
395.0 0.002532 395.11816 418.44586
409.0 0.002445 395.13034 418.82416
444.0 0.002252 395.14246 419.21204
400.0 0.002500 395.15451 419.60919
394.0 0.002538 395.16666 420.01596
409.0 0.002445 395.17868 420.43417
442.0 0.002262 395.19055 420.85822
397.0 0.002519 395.20248 421.29016
396.0 0.002525 395.21423 421.72983
416.0 0.002404 395.22601 422.17752
414.0 0.002415 395.23761 422.63205
407.0 0.002457 395.24930 423.09354
407.0 0.002457 395.26074 423.56149
406.0 0.002463 395.27225 424.03534
407.0 0.002457 395.28351 424.51511
420.0 0.002381 395.29483 424.99991
424.0 0.002358 395.30606 425.48975
399.0 0.002506 395.31720 425.98416
398.0 0.002513 395.32819 426.48254
427.0 0.002342 395.33908 426.98471
421.0 0.002375 395.34995 427.50525
392.0 0.002551 395.36075 428.01349
393.0 0.002545 395.37143 428.52982
410.0 0.002439 395.38190 429.04230
432.0 0.002315 395.39243 429.55679
437.0 0.002288 395.40286 430.07257
437.0 0.002288 395.41309 430.59030
432.0 0.002315 395.42316 431.12146
412.0 0.002427 395.43326 431.63596
458.0 0.002183 395.44308 432.14926
407.0 0.002457 395.45288 432.66083
425.0 0.002353 395.46262 433.17007
423.0 0.002364 395.47223 433.67697
374.0 0.002674 395.48169 434.18018
435.0 0.002299 395.49106 434.75415
428.0 0.002336 395.50015 435.25024
408.0 0.002451 395.50934 435.74176
409.0 0.002445 395.51819 436.22769
420.0 0.002381 395.52710 436.70801
404.0 0.002475 395.53586 437.18167
417.0 0.002398 395.54440 437.64868
430.0 0.002326 395.55289 438.10825
405.0 0.002469 395.56116 438.56003
432.0 0.002315 395.56924 439.00369
433.0 0.002309 395.57724 439.44412
407.0 0.002457 395.58514 439.86987
433.0 0.002309 395.59290 440.28555
432.0 0.002315 395.60040 440.69122
417.0 0.002398 395.60782 441.08673
459.0 0.002179 395.61508 441.47092
421.0 0.002375 395.62225 441.84396
446.0 0.002242 395.62918 442.20511
430.0 0.002326 395.63602 442.55475
451.0 0.002217 395.64261 442.98532
453.0 0.002208 395.64911 443.31152
433.0 0.002309 395.65543 443.62674
414.0 0.002415 395.66165 443.92715
439.0 0.002278 395.66760 444.21405
410.0 0.002439 395.67343 444.49518
454.0 0.002203 395.67902 444.75449
504.0 0.001984 395.68454 444.99942
445.0 0.002247 395.68979 445.23004
453.0 0.002208 395.69489 445.44730
475.0 0.002105 395.69980 445.64841
458.0 0.002183 395.70462 445.83405
455.0 0.002198 395.70917 446.00430
473.0 0.002114 395.71359 446.15939
454.0 0.002203 395.71774 446.29843
435.0 0.002299 395.72177 446.42160
495.0 0.002020 395.72562 446.52856
456.0 0.002193 395.72928 446.61926
449.0 0.002227 395.73264 446.69385
475.0 0.002105 395.73587 446.75162
437.0 0.002288 395.73889 446.79285
443.0 0.002257 395.74173 446.81717
443.0 0.002257 395.74435 446.82498
467.0 0.002141 395.74683 446.81607
473.0 0.002114 395.74902 446.79034
427.0 0.002342 395.75107 446.83441
465.0 0.002151 395.75281 446.77573
475.0 0.002105 395.75449 446.69998
457.0 0.002188 395.75580 446.60764
451.0 0.002217 395.75696 446.49869
470.0 0.002128 395.75800 446.37344
451.0 0.002217 395.75876 446.23685
452.0 0.002212 395.75919 446.07935
454.0 0.002203 395.75958 445.90634
437.0 0.002288 395.75955 445.72046
445.0 0.002247 395.75946 445.42511
444.0 0.002252 395.75912 445.20679
417.0 0.002398 395.75839 444.97372
430.0 0.002326 395.75769 444.72809
437.0 0.002288 395.75650 444.46713
446.0 0.002242 395.75525 444.19925
460.0 0.002174 395.75375 443.91180
449.0 0.002227 395.75198 443.61206
428.0 0.002336 395.74994 443.30014
425.0 0.002353 395.74780 442.97681
464.0 0.002155 395.74521 442.64258
426.0 0.002347 395.74252 442.29776
441.0 0.002268 395.73959 441.94290
413.0 0.002421 395.73633 441.57922
462.0 0.002165 395.73282 441.20709
444.0 0.002252 395.72913 440.82654
423.0 0.002364 395.72519 440.43887
447.0 0.002237 395.72092 440.04440
458.0 0.002183 395.71652 439.64429
457.0 0.002188 395.71179 439.23862
449.0 0.002227 395.70676 438.82849
427.0 0.002342 395.70166 438.41443
400.0 0.002500 395.69614 438.00412
411.0 0.002433 395.69037 437.58472
453.0 0.002208 395.68442 437.16354
416.0 0.002404 395.67813 436.74152
423.0 0.002364 395.67160 436.31934
426.0 0.002347 395.66473 435.89752
393.0 0.002545 395.65765 435.48199
435.0 0.002299 395.65030 435.19675
440.0 0.002273 395.64276 434.78226
442.0 0.002262 395.63483 434.37091
435.0 0.002299 395.62671 433.96381
428.0 0.002336 395.61826 433.56125
444.0 0.002252 395.60959 433.16434
457.0 0.002188 395.60065 432.77362
388.0 0.002577 395.59143 432.38947
405.0 0.002469 395.58194 432.01227
436.0 0.002294 395.57205 431.64343
424.0 0.002358 395.56198 431.28262
409.0 0.002445 395.55167 430.93057
426.0 0.002347 395.54099 430.58826
426.0 0.002347 395.53003 430.25549
419.0 0.002387 395.51886 429.93335
440.0 0.002273 395.50732 429.62134
437.0 0.002288 395.49567 429.32050
421.0 0.002375 395.48349 429.03116
401.0 0.002494 395.47113 428.75299
417.0 0.002398 395.45847 428.48944
429.0 0.002331 395.44553 428.23566
459.0 0.002179 395.43225 427.99350
431.0 0.002320 395.41876 427.76404
448.0 0.002232 395.40503 427.54654
422.0 0.002370 395.39081 427.34207
420.0 0.002381 395.37646 427.14957
407.0 0.002457 395.36166 426.99127
431.0 0.002320 395.34674 426.82391
418.0 0.002392 395.33145 426.66852
429.0 0.002331 395.31577 426.47192
405.0 0.002469 395.29996 426.34283
422.0 0.002370 395.28375 426.22375
434.0 0.002304 395.26724 426.11594
463.0 0.002160 395.25046 426.01910
427.0 0.002342 395.23337 425.93369
432.0 0.002315 395.21597 425.90817
436.0 0.002294 395.19827 425.84314
443.0 0.002257 395.18024 425.78806
436.0 0.002294 395.16190 425.74203
443.0 0.002257 395.14328 425.70490
433.0 0.002309 395.12436 425.67603
432.0 0.002315 395.10510 425.67050
446.0 0.002242 395.08560 425.65689
414.0 0.002415 395.06567 425.70267
460.0 0.002174 395.04559 425.70236
471.0 0.002123 395.02518 425.70798
483.0 0.002070 395.00427 425.71848
430.0 0.002326 394.98315 425.73349
427.0 0.002342 394.96182 425.75259
465.0 0.002151 394.94009 425.77475
425.0 0.002353 394.91797 425.82483
443.0 0.002257 394.89572 425.84833
461.0 0.002169 394.87308 425.87753
462.0 0.002165 394.85013 425.90744
464.0 0.002155 394.82684 425.93811
429.0 0.002331 394.80313 425.96826
443.0 0.002257 394.77933 425.99817
482.0 0.002075 394.75500 426.02634
447.0 0.002237 394.73053 426.05304
451.0 0.002217 394.70566 426.07727
434.0 0.002304 394.68054 426.09888
431.0 0.002320 394.65506 426.11719
459.0 0.002179 394.62921 426.13165
408.0 0.002451 394.60309 426.14368
441.0 0.002268 394.57672 426.14954
436.0 0.002294 394.54990 426.15005
437.0 0.002288 394.52292 426.14560
466.0 0.002146 394.49554 426.15005
445.0 0.002247 394.46790 426.13364
421.0 0.002375 394.43982 426.11136
415.0 0.002410 394.41150 426.08237
447.0 0.002237 394.38284 426.04666
418.0 0.002392 394.35388 426.00375
429.0 0.002331 394.32468 425.95398
445.0 0.002247 394.29501 425.89676
433.0 0.002309 394.26517 425.80780
408.0 0.002451 394.23492 425.73605
409.0 0.002445 394.20441 425.65701
410.0 0.002439 394.17355 425.57059
417.0 0.002398 394.14240 425.47659
385.0 0.002597 394.11093 425.37546
409.0 0.002445 394.07907 425.26721
416.0 0.002404 394.04700 425.15170
429.0 0.002331 394.01453 425.02914
427.0 0.002342 393.98178 424.89987
418.0 0.002392 393.94879 424.76434
421.0 0.002375 393.91547 424.62244
439.0 0.002278 393.88168 424.47403
442.0 0.002262 393.84775 424.31995
451.0 0.002217 393.81348 424.16046
426.0 0.002347 393.77881 423.99545
388.0 0.002577 393.74399 423.82550
434.0 0.002304 393.70862 423.65094
384.0 0.002604 393.67316 423.47195
407.0 0.002457 393.63721 423.28870
407.0 0.002457 393.60117 423.10187
416.0 0.002404 393.56470 422.91150
432.0 0.002315 393.52786 422.71793
442.0 0.002262 393.49078 422.52158
448.0 0.002232 393.45334 422.32288
436.0 0.002294 393.41571 422.13373
448.0 0.002232 393.37772 421.93097
417.0 0.002398 393.33942 421.76456
434.0 0.002304 393.30075 421.55981
388.0 0.002577 393.26184 421.35422
429.0 0.002331 393.22266 421.14774
417.0 0.002398 393.18307 420.94080
426.0 0.002347 393.14325 420.73376
417.0 0.002398 393.10318 420.53928
412.0 0.002427 393.06284 420.33307
386.0 0.002591 393.02203 420.12726
421.0 0.002375 392.98108 419.92258
424.0 0.002358 392.93970 419.71869
421.0 0.002375 392.89810 419.51599
429.0 0.002331 392.85623 419.31512
424.0 0.002358 392.81406 419.11597
418.0 0.002392 392.77167 418.91837
416.0 0.002404 392.72882 418.72302
383.0 0.002611 392.68579 418.52963
378.0 0.002646 392.64236 418.33859
416.0 0.002404 392.59882 418.15012
419.0 0.002387 392.55490 417.96417
397.0 0.002519 392.51059 417.78113
411.0 0.002433 392.46619 417.60086
414.0 0.002415 392.42133 417.42355
394.0 0.002538 392.37634 417.24945
412.0 0.002427 392.33102 416.98871
423.0 0.002364 392.28540 416.82166
440.0 0.002273 392.23947 416.65802
397.0 0.002519 392.19333 416.49796
419.0 0.002387 392.14688 416.34180
436.0 0.002294 392.10025 416.18948
437.0 0.002288 392.05325 416.04080
432.0 0.002315 392.00598 415.89633
402.0 0.002488 391.95850 415.75592
409.0 0.002445 391.91068 415.61945
405.0 0.002469 391.86258 415.48770
454.0 0.002203 391.81439 415.36020
418.0 0.002392 391.76584 415.23749
380.0 0.002632 391.71701 415.11942
429.0 0.002331 391.66785 415.00607
432.0 0.002315 391.61853 414.89807
432.0 0.002315 391.56888 414.79477
411.0 0.002433 391.51904 414.69696
412.0 0.002427 391.46899 414.60477
407.0 0.002457 391.41867 414.51794
428.0 0.002336 391.36792 414.43671
472.0 0.002119 391.31711 414.36133
412.0 0.002427 391.26602 414.29199
451.0 0.002217 391.21469 414.22897
440.0 0.002273 391.16309 414.17212
413.0 0.002421 391.11133 414.12152
397.0 0.002519 391.05930 414.07791
425.0 0.002353 391.00699 414.04092
398.0 0.002513 390.95441 414.01071
405.0 0.002469 390.90170 413.98865
435.0 0.002299 390.84879 413.97269
393.0 0.002545 390.79556 413.96588
425.0 0.002353 390.74210 413.96475
424.0 0.002358 390.68842 413.97122
406.0 0.002463 390.63461 413.98511
405.0 0.002469 390.58054 414.00739
418.0 0.002392 390.52618 414.03717
427.0 0.002342 390.47165 414.07547
423.0 0.002364 390.41690 414.12146
429.0 0.002331 390.36206 414.17621
405.0 0.002469 390.30692 414.23904
389.0 0.002571 390.25159 414.35617
442.0 0.002262 390.19598 414.43640
392.0 0.002551 390.14032 414.52557
454.0 0.002203 390.08432 414.62347
427.0 0.002342 390.02820 414.73004
428.0 0.002336 389.97195 414.84552
447.0 0.002237 389.91537 414.96994
446.0 0.002242 389.85864 415.10333
427.0 0.002342 389.80179 415.24600
435.0 0.002299 389.74475 415.39780
444.0 0.002252 389.68753 415.55859
438.0 0.002283 389.63000 415.72845
436.0 0.002294 389.57245 415.90771
414.0 0.002415 389.51465 416.09610
442.0 0.002262 389.45676 416.29364
441.0 0.002268 389.39859 416.50055
413.0 0.002421 389.34036 416.71649
421.0 0.002375 389.28204 416.94144
443.0 0.002257 389.22330 417.17572
423.0 0.002364 389.16467 417.41937
455.0 0.002198 389.10568 417.67151
455.0 0.002198 389.04666 417.93292
461.0 0.002169 388.98749 418.20331
456.0 0.002193 388.92819 418.48276
458.0 0.002183 388.86877 418.77054
421.0 0.002375 388.80911 419.06671
436.0 0.002294 388.74939 419.37161
414.0 0.002415 388.68951 419.70230
466.0 0.002146 388.62952 420.02310
437.0 0.002288 388.56946 420.35190
412.0 0.002427 388.50906 420.68823
462.0 0.002165 388.44885 421.03192
434.0 0.002304 388.38821 421.38257
446.0 0.002242 388.32770 421.73984
441.0 0.002268 388.26694 422.10345
454.0 0.002203 388.20618 422.47318
457.0 0.002188 388.14520 422.84854
405.0 0.002469 388.08423 423.22894
432.0 0.002315 388.02307 423.61426
442.0 0.002262 387.96191 424.06696
451.0 0.002217 387.90054 424.47662
465.0 0.002151 387.83923 424.87448
434.0 0.002304 387.77777 425.27481
449.0 0.002227 387.71616 425.67776
407.0 0.002457 387.65451 426.08524
408.0 0.002451 387.59280 426.50241
406.0 0.002463 387.53107 426.94043
429.0 0.002331 387.46921 427.36697
437.0 0.002288 387.40726 427.73245
435.0 0.002299 387.34531 428.13794
412.0 0.002427 387.28326 428.59290
443.0 0.002257 387.22119 428.99313
445.0 0.002247 387.15909 429.39041
437.0 0.002288 387.09692 429.78317
417.0 0.002398 387.03473 430.17142
431.0 0.002320 386.97247 430.55362
437.0 0.002288 386.91016 430.98303
401.0 0.002494 386.84778 431.35266
430.0 0.002326 386.78540 431.71432
407.0 0.002457 386.72308 432.06763
420.0 0.002381 386.66080 432.41190
408.0 0.002451 386.59821 432.74606
444.0 0.002252 386.53580 433.06992
457.0 0.002188 386.47333 433.38281
409.0 0.002445 386.41098 433.68359
458.0 0.002183 386.34845 433.97186
452.0 0.002212 386.28598 434.24759
445.0 0.002247 386.22366 434.50952
415.0 0.002410 386.16110 434.75748
425.0 0.002353 386.09869 434.99063
421.0 0.002375 386.03629 435.20889
411.0 0.002433 385.97400 435.41150
432.0 0.002315 385.91156 435.59784
445.0 0.002247 385.84918 435.76846
434.0 0.002304 385.78690 435.96420
457.0 0.002188 385.72455 436.10275
440.0 0.002273 385.66235 436.22226
459.0 0.002179 385.60010 436.32419
445.0 0.002247 385.53802 436.40900
435.0 0.002299 385.47589 436.47485
409.0 0.002445 385.41391 436.52316
432.0 0.002315 385.35187 436.55334
421.0 0.002375 385.29007 436.56543
416.0 0.002404 385.22809 436.56375
462.0 0.002165 385.16629 436.53937
454.0 0.002203 385.10471 436.49722
437.0 0.002288 385.04300 436.37543
422.0 0.002370 384.98141 436.29791
431.0 0.002320 384.92001 436.23819
430.0 0.002326 384.85867 436.12646
428.0 0.002336 384.79736 435.99765
450.0 0.002222 384.73618 435.85239
429.0 0.002331 384.67511 435.69077
436.0 0.002294 384.61414 435.52182
414.0 0.002415 384.55325 435.32883
427.0 0.002342 384.49249 435.12091
432.0 0.002315 384.43198 434.89853
392.0 0.002551 384.37143 434.66208
415.0 0.002410 384.31107 434.41254
448.0 0.002232 384.25085 434.15009
411.0 0.002433 384.19077 433.87579
419.0 0.002387 384.13077 433.64807
418.0 0.002392 384.07089 433.35327
407.0 0.002457 384.01138 433.04880
450.0 0.002222 383.95181 432.73520
426.0 0.002347 383.89249 432.41336
455.0 0.002198 383.83331 432.08392
447.0 0.002237 383.77423 431.74759
440.0 0.002273 383.71536 431.40567
433.0 0.002309 383.65677 431.05862
451.0 0.002217 383.59824 430.70758
420.0 0.002381 383.54001 430.35312
418.0 0.002392 383.48175 430.01010
450.0 0.002222 383.42392 429.65106
447.0 0.002237 383.36612 429.29129
422.0 0.002370 383.30865 428.93121
396.0 0.002525 383.25125 428.57178
422.0 0.002370 383.19415 428.21362
458.0 0.002183 383.13724 427.85754
439.0 0.002278 383.08047 427.50415
438.0 0.002283 383.02393 427.15491
441.0 0.002268 382.96774 426.80917
423.0 0.002364 382.91180 426.47116
404.0 0.002475 382.85599 426.13611
381.0 0.002625 382.80048 425.80667
421.0 0.002375 382.74515 425.48392
438.0 0.002283 382.69003 425.16794
411.0 0.002433 382.63516 424.85953
392.0 0.002551 382.58060 424.55911
407.0 0.002457 382.52628 424.26715
392.0 0.002551 382.47235 423.98398
436.0 0.002294 382.41858 423.70975
404.0 0.002475 382.36511 423.44501
430.0 0.002326 382.31180 423.19012
382.0 0.002618 382.25885 422.94504
406.0 0.002463 382.20633 422.71024
411.0 0.002433 382.15393 422.48560
423.0 0.002364 382.10187 422.27170
430.0 0.002326 382.05002 422.06860
412.0 0.002427 381.99860 421.87567
427.0 0.002342 381.94745 421.77219
385.0 0.002597 381.89651 421.60135
394.0 0.002538 381.84610 421.48361
409.0 0.002445 381.79587 421.33499
420.0 0.002381 381.74594 421.19614
423.0 0.002364 381.69638 421.06842
412.0 0.002427 381.64716 420.95053
415.0 0.002410 381.59827 420.84290
420.0 0.002381 381.54962 420.74539
429.0 0.002331 381.50143 420.65762
414.0 0.002415 381.45361 420.61649
406.0 0.002463 381.40607 420.54733
411.0 0.002433 381.35889 420.48721
412.0 0.002427 381.31210 420.43567
431.0 0.002320 381.26569 420.39243
432.0 0.002315 381.21960 420.35706
434.0 0.002304 381.17395 420.32959
410.0 0.002439 381.12851 420.30890
440.0 0.002273 381.08359 420.29468
437.0 0.002288 381.03903 420.28741
437.0 0.002288 380.99484 420.28555
414.0 0.002415 380.95108 420.30875
400.0 0.002500 380.90771 420.31763
427.0 0.002342 380.86475 420.33109
399.0 0.002506 380.82220 420.34869
397.0 0.002519 380.77991 420.37027
382.0 0.002618 380.73825 420.39484
417.0 0.002398 380.69699 420.42188
436.0 0.002294 380.65601 420.48117
432.0 0.002315 380.61542 420.53418
395.0 0.002532 380.57538 420.56744
389.0 0.002571 380.53583 420.61838
412.0 0.002427 380.49658 420.65314
451.0 0.002217 380.45779 420.68790
398.0 0.002513 380.41940 420.72229
401.0 0.002494 380.38159 420.75607
383.0 0.002611 380.34412 420.78854
430.0 0.002326 380.30716 420.81964
403.0 0.002481 380.27060 420.85928
426.0 0.002347 380.23453 420.88654
390.0 0.002564 380.19888 420.92053
409.0 0.002445 380.16382 420.94214
388.0 0.002577 380.12918 420.96109
392.0 0.002551 380.09494 420.97675
400.0 0.002500 380.06125 420.98828
448.0 0.002232 380.02795 420.99655
422.0 0.002370 379.99518 420.97791
413.0 0.002421 379.96295 420.97800
433.0 0.002309 379.93118 420.97369
402.0 0.002488 379.89996 420.96518
405.0 0.002469 379.86917 420.95197
409.0 0.002445 379.83878 420.93387
405.0 0.002469 379.80914 420.91116
405.0 0.002469 379.77985 420.88345
401.0 0.002494 379.75101 420.85095
420.0 0.002381 379.72281 420.81638
382.0 0.002618 379.69501 420.77402
411.0 0.002433 379.66791 420.72662
440.0 0.002273 379.64114 420.67404
405.0 0.002469 379.61502 420.61664
409.0 0.002445 379.58926 420.55414
402.0 0.002488 379.56418 420.48697
401.0 0.002494 379.53964 420.41571
420.0 0.002381 379.51563 420.33859
435.0 0.002299 379.49213 420.26965
444.0 0.002252 379.46912 420.18274
410.0 0.002439 379.44666 420.09103
403.0 0.002481 379.42484 420.00052
417.0 0.002398 379.40341 419.89948
423.0 0.002364 379.38266 419.79388
431.0 0.002320 379.36246 419.70297
405.0 0.002469 379.34277 419.58847
369.0 0.002710 379.32367 419.46951
444.0 0.002252 379.30511 419.34604
423.0 0.002364 379.28708 419.21805
451.0 0.002217 379.26971 419.08600
434.0 0.002304 379.25284 418.94928
413.0 0.002421 379.23651 418.80884
405.0 0.002469 379.22070 418.66397
433.0 0.002309 379.20566 418.51489
440.0 0.002273 379.19104 418.36160
431.0 0.002320 379.17706 418.23108
419.0 0.002387 379.16351 418.07013
415.0 0.002410 379.15073 417.90488
446.0 0.002242 379.13849 417.73605
410.0 0.002439 379.12683 417.56528
422.0 0.002370 379.11563 417.38846
433.0 0.002309 379.10516 417.20789
419.0 0.002387 379.09528 417.02350
417.0 0.002398 379.08585 416.83588
418.0 0.002392 379.07709 416.64420
429.0 0.002331 379.06894 416.46155
429.0 0.002331 379.06140 416.26331
410.0 0.002439 379.05438 416.06168
360.0 0.002778 379.04800 415.85693
405.0 0.002469 379.04221 415.64883
394.0 0.002538 379.03696 415.45297
425.0 0.002353 379.03226 415.23941
408.0 0.002451 379.02835 415.02298
397.0 0.002519 379.02493 414.80405
418.0 0.002392 379.02209 414.58301
446.0 0.002242 379.01984 414.35950
436.0 0.002294 379.01819 414.14029
423.0 0.002364 379.01721 413.91299
441.0 0.002268 379.01682 413.68454
437.0 0.002288 379.01691 413.45453
404.0 0.002475 379.01767 413.22321
388.0 0.002577 379.01901 412.99118
421.0 0.002375 379.02109 412.75842
376.0 0.002660 379.02356 412.52576
380.0 0.002632 379.02676 412.30331
422.0 0.002370 379.03049 412.07059
388.0 0.002577 379.03488 411.83847
407.0 0.002457 379.03983 411.60727
412.0 0.002427 379.04529 411.37695
400.0 0.002500 379.05151 411.14819
385.0 0.002597 379.05823 410.92126
392.0 0.002551 379.06555 410.69638
418.0 0.002392 379.07352 410.47363
427.0 0.002342 379.08200 410.25394
376.0 0.002660 379.09113 410.03677
380.0 0.002632 379.10077 409.82300
408.0 0.002451 379.11108 409.61267
433.0 0.002309 379.12189 409.40631
421.0 0.002375 379.13324 409.20404
408.0 0.002451 379.14542 409.00626
418.0 0.002392 379.15802 408.81311
412.0 0.002427 379.17117 408.62454
405.0 0.002469 379.18494 408.44186
399.0 0.002506 379.19928 408.26413
397.0 0.002519 379.21417 408.09235
436.0 0.002294 379.22971 407.92627
407.0 0.002457 379.24576 407.76648
438.0 0.002283 379.26239 407.61301
453.0 0.002208 379.27951 407.47028
394.0 0.002538 379.29724 407.33023
396.0 0.002525 379.31561 407.19702
428.0 0.002336 379.33438 407.07101
456.0 0.002193 379.35382 406.95187
410.0 0.002439 379.37384 406.84058
401.0 0.002494 379.39432 406.73633
414.0 0.002415 379.41525 406.64005
411.0 0.002433 379.43680 406.55112
413.0 0.002421 379.45898 406.47049
417.0 0.002398 379.48166 406.39731
412.0 0.002427 379.50479 406.37039
389.0 0.002571 379.52838 406.31506
422.0 0.002370 379.55270 406.26828
421.0 0.002375 379.57748 406.22964
423.0 0.002364 379.60260 406.19943
414.0 0.002415 379.62836 406.17706
412.0 0.002427 379.65460 406.16357
417.0 0.002398 379.68134 406.15775
405.0 0.002469 379.70862 406.25778
416.0 0.002404 379.73624 406.26993
411.0 0.002433 379.76450 406.28934
389.0 0.002571 379.79309 406.24289
368.0 0.002717 379.82224 406.27914
409.0 0.002445 379.85184 406.32391
423.0 0.002364 379.88181 406.37601
423.0 0.002364 379.91229 406.43634
420.0 0.002381 379.94321 406.50458
423.0 0.002364 379.97461 406.58038
414.0 0.002415 380.00641 406.66412
406.0 0.002463 380.03870 406.75531
421.0 0.002375 380.07129 406.85413
397.0 0.002519 380.10440 406.96045
419.0 0.002387 380.13791 407.07397
428.0 0.002336 380.17178 407.19489
428.0 0.002336 380.20605 407.32318
399.0 0.002506 380.24066 407.45825
406.0 0.002463 380.27563 407.54166
359.0 0.002786 380.31104 407.69153
406.0 0.002463 380.34674 407.84830
433.0 0.002309 380.38284 408.01187
433.0 0.002309 380.41928 408.22141
412.0 0.002427 380.45615 408.39908
419.0 0.002387 380.49323 408.58347
437.0 0.002288 380.53067 408.77451
439.0 0.002278 380.56839 408.97238
426.0 0.002347 380.60641 409.17679
414.0 0.002415 380.64468 409.38770
410.0 0.002439 380.68335 409.60535
400.0 0.002500 380.72217 409.82944
420.0 0.002381 380.76135 410.05975
437.0 0.002288 380.80072 410.29712
402.0 0.002488 380.84027 410.54086
405.0 0.002469 380.88019 410.79080
425.0 0.002353 380.92014 411.04721
432.0 0.002315 380.96048 411.31012
432.0 0.002315 381.00092 411.57935
412.0 0.002427 381.04163 411.85516
439.0 0.002278 381.08246 412.13751
401.0 0.002494 381.12341 412.42593
439.0 0.002278 381.16461 412.72061
450.0 0.002222 381.20590 413.02158
425.0 0.002353 381.24728 413.32889
418.0 0.002392 381.28885 413.64276
411.0 0.002433 381.33044 413.96246
450.0 0.002222 381.37219 414.28860
392.0 0.002551 381.41394 414.62109
385.0 0.002597 381.45590 414.95947
427.0 0.002342 381.49774 415.30435
435.0 0.002299 381.53967 415.65512
434.0 0.002304 381.58182 416.01196
453.0 0.002208 381.62366 416.37509
400.0 0.002500 381.66562 416.74396
426.0 0.002347 381.70761 417.11902
429.0 0.002331 381.74954 417.49963
416.0 0.002404 381.79138 417.88632
425.0 0.002353 381.83322 418.27859
447.0 0.002237 381.87491 418.69247
431.0 0.002320 381.91663 419.16086
427.0 0.002342 381.95804 419.58560
440.0 0.002273 381.99942 420.00156
399.0 0.002506 382.04062 420.42288
446.0 0.002242 382.08179 420.84955
396.0 0.002525 382.12262 421.28198
424.0 0.002358 382.16336 421.71878
411.0 0.002433 382.20389 422.16064
412.0 0.002427 382.24411 422.60727
417.0 0.002398 382.28409 423.05893
427.0 0.002342 382.32388 423.51486
417.0 0.002398 382.36334 423.97546
424.0 0.002358 382.40250 424.43948
398.0 0.002513 382.44128 424.90836
419.0 0.002387 382.47980 425.38049
443.0 0.002257 382.51788 425.85663
413.0 0.002421 382.55576 426.33585
434.0 0.002304 382.59308 426.81848
470.0 0.002128 382.63007 427.30380
477.0 0.002096 382.66650 427.79160
425.0 0.002353 382.70258 428.28201
449.0 0.002227 382.73810 428.77441
435.0 0.002299 382.77313 429.26855
423.0 0.002364 382.80768 429.76419
430.0 0.002326 382.84164 430.26099
431.0 0.002320 382.87500 430.75806
443.0 0.002257 382.90781 431.25583
419.0 0.002387 382.94006 431.75354
433.0 0.002309 382.97162 432.25461
461.0 0.002169 383.00250 432.75119
426.0 0.002347 383.03271 433.24661
418.0 0.002392 383.06232 433.74057
422.0 0.002370 383.09100 434.23221
434.0 0.002304 383.11905 434.72134
443.0 0.002257 383.14627 435.21948
449.0 0.002227 383.17270 435.70251
449.0 0.002227 383.19839 436.18118
472.0 0.002119 383.22311 436.65561
451.0 0.002217 383.24695 437.12476
416.0 0.002404 383.26990 437.58878
445.0 0.002247 383.29190 438.04642
427.0 0.002342 383.31308 438.49835
472.0 0.002119 383.33307 438.94250
449.0 0.002227 383.35211 439.37958
427.0 0.002342 383.37009 439.80826
437.0 0.002288 383.38705 440.22864
458.0 0.002183 383.40292 440.63977
473.0 0.002114 383.41763 441.04153
466.0 0.002146 383.43109 441.43277
420.0 0.002381 383.44342 441.81348
473.0 0.002114 383.45450 442.18359
451.0 0.002217 383.46448 442.58426
467.0 0.002141 383.47302 442.93127
433.0 0.002309 383.48029 443.26624
435.0 0.002299 383.48624 443.58807
432.0 0.002315 383.49078 443.89667
441.0 0.002268 383.49393 444.19141
417.0 0.002398 383.49570 444.47198
428.0 0.002336 383.49591 444.73767
431.0 0.002320 383.49457 444.98859
463.0 0.002160 383.49176 445.22418
430.0 0.002326 383.48743 445.44388
410.0 0.002439 383.48151 445.64771
409.0 0.002445 383.47379 445.88113
442.0 0.002262 383.46442 446.05249
438.0 0.002283 383.45340 446.20724
476.0 0.002101 383.44067 446.34500
474.0 0.002110 383.42612 446.46552
447.0 0.002237 383.40970 446.56888
423.0 0.002364 383.39145 446.65479
433.0 0.002309 383.37125 446.72330
408.0 0.002451 383.34918 446.77417
414.0 0.002415 383.32523 446.80759
440.0 0.002273 383.29907 446.82355
423.0 0.002364 383.27100 446.82144
476.0 0.002101 383.24075 446.80219
451.0 0.002217 383.20853 446.76584
475.0 0.002105 383.17395 446.71185
447.0 0.002237 383.13721 446.66010
426.0 0.002347 383.09827 446.57294
388.0 0.002577 383.05704 446.46906
440.0 0.002273 383.01340 446.34964
448.0 0.002232 382.96738 446.21384
437.0 0.002288 382.91907 446.06256
440.0 0.002273 382.86816 445.89600
436.0 0.002294 382.81470 445.71448
445.0 0.002247 382.75879 445.51859
418.0 0.002392 382.70023 445.30917
470.0 0.002128 382.63910 445.08966
479.0 0.002088 382.57526 444.85394
453.0 0.002208 382.50867 444.60544
442.0 0.002262 382.43927 444.34497
446.0 0.002242 382.36694 444.07306
420.0 0.002381 382.29190 443.79059
479.0 0.002088 382.21396 443.49796
428.0 0.002336 382.13290 443.11331
414.0 0.002415 382.04883 442.80185
421.0 0.002375 381.96176 442.48245
408.0 0.002451 381.87155 442.15463
431.0 0.002320 381.77808 441.81964
420.0 0.002381 381.68158 441.47800
475.0 0.002105 381.58163 441.12991
406.0 0.002463 381.47842 440.77612
423.0 0.002364 381.37173 440.41736
442.0 0.002262 381.26181 440.05396
470.0 0.002128 381.14825 439.68665
433.0 0.002309 381.03122 439.31564
447.0 0.002237 380.91052 438.94235
451.0 0.002217 380.78625 438.66824
420.0 0.002381 380.65817 438.29218
408.0 0.002451 380.52640 437.91431
434.0 0.002304 380.39072 437.53867
408.0 0.002451 380.25125 437.15884
452.0 0.002212 380.10785 436.77866
464.0 0.002155 379.96036 436.39819
411.0 0.002433 379.80896 436.01791
418.0 0.002392 379.65329 435.63800
423.0 0.002364 379.49350 435.25858
417.0 0.002398 379.32941 434.88016
421.0 0.002375 379.16125 434.50308
419.0 0.002387 378.98862 434.12723
424.0 0.002358 378.81146 433.75269
410.0 0.002439 378.63004 433.37961
457.0 0.002188 378.44388 433.00815
441.0 0.002268 378.25311 432.63815
423.0 0.002364 378.05771 432.27011
413.0 0.002421 377.85757 431.90381
440.0 0.002273 377.65259 431.53915
436.0 0.002294 377.44266 431.17636
431.0 0.002320 377.22806 430.81519
446.0 0.002242 377.00821 430.45566
448.0 0.002232 376.78333 430.09732
418.0 0.002392 376.55322 429.74048
435.0 0.002299 376.31812 429.38507
447.0 0.002237 376.07758 429.03058
460.0 0.002174 375.83157 428.67700
428.0 0.002336 375.58017 428.32413
435.0 0.002299 375.32346 427.97195
437.0 0.002288 375.06104 427.62000
454.0 0.002203 374.79282 427.26755
441.0 0.002268 374.51917 426.91550
421.0 0.002375 374.23947 426.56265
436.0 0.002294 373.95401 426.20883
462.0 0.002165 373.66248 425.85367
463.0 0.002160 373.36520 425.49753
438.0 . . .
435.0 . . .
440.0 . . .
446.0 . . .
412.0 . . .
437.0 . . .
431.0 . . .
427.0 . . .
451.0 . . .
412.0 . . .
444.0 . . .
447.0 . . .
456.0 . . .
448.0 . . .
453.0 . . .
484.0 . . .
442.0 . . .
457.0 . . .
445.0 . . .
465.0 . . .
437.0 . . .
416.0 . . .
417.0 . . .
457.0 . . .
465.0 . . .
463.0 . . .
437.0 . . .
422.0 . . .
422.0 . . .
429.0 . . .
448.0 . . .
477.0 . . .
490.0 . . .
438.0 . . .
428.0 . . .
455.0 . . .
417.0 . . .
440.0 . . .
433.0 . . .
428.0 . . .
403.0 . . .
439.0 . . .
439.0 . . .
445.0 . . .
420.0 . . .
409.0 . . .
424.0 . . .
435.0 . . .
444.0 . . .
423.0 . . .
383.0 . . .
423.0 . . .
448.0 . . .
445.0 . . .
429.0 . . .
429.0 . . .
403.0 . . .
409.0 . . .
418.0 . . .
434.0 . . .
436.0 . . .
442.0 . . .
429.0 . . .
460.0 . . .
441.0 . . .
419.0 . . .
414.0 . . .
416.0 . . .
429.0 . . .
466.0 . . .
465.0 . . .
435.0 . . .
415.0 . . .
441.0 . . .
413.0 . . .
441.0 . . .
445.0 . . .
439.0 . . .
460.0 . . .
428.0 . . .
460.0 . . .
469.0 . . .
413.0 . . .
435.0 . . .
438.0 . . .
428.0 . . .
442.0 . . .
435.0 . . .
432.0 . . .
452.0 . . .
482.0 . . .
457.0 . . .
405.0 . . .
440.0 . . .
467.0 . . .
450.0 . . .
429.0 . . .
415.0 . . .
431.0 . . .
417.0 . . .
400.0 . . .
417.0 . . .
402.0 . . .
456.0 . . .
449.0 . . .
399.0 . . .
426.0 . . .
417.0 . . .
456.0 . . .
410.0 . . .
437.0 . . .
426.0 . . .
440.0 . . .
456.0 . . .
449.0 . . .
453.0 . . .
462.0 . . .
452.0 . . .
410.0 . . .
435.0 . . .
400.0 . . .
456.0 . . .
424.0 . . .
427.0 . . .
429.0 . . .
401.0 . . .
436.0 . . .
451.0 . . .
426.0 . . .
428.0 . . .
444.0 . . .
435.0 . . .
425.0 . . .
453.0 . . .
468.0 . . .
395.0 . . .
472.0 . . .
422.0 . . .
448.0 . . .
446.0 . . .
433.0 . . .
459.0 . . .
405.0 . . .
454.0 . . .
432.0 . . .
438.0 . . .
425.0 . . .
458.0 . . .
411.0 . . .
376.0 . . .
415.0 . . .
428.0 . . .
443.0 . . .
447.0 . . .
448.0 . . .
458.0 . . .
448.0 . . .
443.0 . . .
442.0 . . .
424.0 . . .
459.0 . . .
434.0 . . .
426.0 . . .
452.0 . . .
421.0 . . .
442.0 . . .
441.0 . . .
484.0 . . .
440.0 . . .
433.0 . . .
434.0 . . .
437.0 . . .
479.0 . . .
435.0 . . .
444.0 . . .
420.0 . . .
436.0 . . .
445.0 . . .
452.0 . . .
433.0 . . .
435.0 . . .
438.0 . . .
459.0 . . .
442.0 . . .
464.0 . . .
413.0 . . .
429.0 . . .
446.0 . . .
411.0 . . .
407.0 . . .
420.0 . . .
466.0 . . .
421.0 . . .
451.0 . . .
415.0 . . .
391.0 . . .
441.0 . . .
443.0 . . .
423.0 . . .
431.0 . . .
426.0 . . .
443.0 . . .
413.0 . . .
429.0 . . .
419.0 . . .
407.0 . . .
430.0 . . .
425.0 . . .
406.0 . . .
413.0 . . .
410.0 . . .
411.0 . . .
387.0 . . .
418.0 . . .
444.0 . . .
406.0 . . .
413.0 . . .
422.0 . . .
404.0 . . .
415.0 . . .
378.0 . . .
424.0 . . .
403.0 . . .
408.0 . . .
437.0 . . .
403.0 . . .
433.0 . . .
465.0 . . .
421.0 . . .
420.0 . . .
384.0 . . .
429.0 . . .
380.0 . . .
384.0 . . .
431.0 . . .
418.0 . . .
386.0 . . .
386.0 . . .
418.0 . . .
389.0 . . .
363.0 . . .
378.0 . . .
381.0 . . .
409.0 . . .
442.0 . . .
403.0 . . .
424.0 . . .
397.0 . . .
394.0 . . .
372.0 . . .
404.0 . . .
393.0 . . .
392.0 . . .
391.0 . . .
442.0 . . .
418.0 . . .
401.0 . . .
388.0 . . .
421.0 . . .
383.0 . . .
402.0 . . .
391.0 . . .
405.0 . . .
400.0 . . .
397.0 . . .
402.0 . . .
420.0 . . .
402.0 . . .
412.0 . . .
384.0 . . .
398.0 . . .
400.0 . . .
430.0 . . .
392.0 . . .
381.0 . . .
378.0 . . .
408.0 . . .
372.0 . . .
422.0 . . .
416.0 . . .
416.0 . . .
405.0 . . .
398.0 . . .
405.0 . . .
391.0 . . .
402.0 . . .
386.0 . . .
373.0 . . .
429.0 . . .
425.0 . . .
402.0 . . .
369.0 . . .
385.0 . . .
430.0 . . .
378.0 . . .
443.0 . . .
379.0 . . .
378.0 . . .
445.0 . . .
377.0 . . .
402.0 . . .
406.0 . . .
419.0 . . .
384.0 . . .
401.0 . . .
400.0 . . .
372.0 . . .
441.0 . . .
415.0 . . .
405.0 . . .
404.0 . . .
416.0 . . .
380.0 . . .
392.0 . . .
421.0 . . .
384.0 . . .
407.0 . . .
382.0 . . .
424.0 . . .
377.0 . . .
420.0 . . .
442.0 . . .
403.0 . . .
377.0 . . .
418.0 . . .
427.0 . . .
410.0 . . .
398.0 . . .
416.0 . . .
412.0 . . .
420.0 . . .
408.0 . . .
402.0 . . .
428.0 . . .
410.0 . . .
416.0 . . .
401.0 . . .
416.0 . . .
425.0 . . .
413.0 . . .
372.0 . . .
366.0 . . .
358.0 . . .
397.0 . . .
367.0 . . .
400.0 . . .
409.0 . . .
383.0 . . .
420.0 . . .
425.0 . . .
418.0 . . .
397.0 . . .
382.0 . . .
393.0 . . .
401.0 . . .
408.0 . . .
402.0 . . .
406.0 . . .
374.0 . . .
432.0 . . .
394.0 . . .
413.0 . . .
392.0 . . .
379.0 . . .
407.0 . . .
427.0 . . .
402.0 . . .
380.0 . . .
405.0 . . .
404.0 . . .
422.0 . . .
392.0 . . .
404.0 . . .
403.0 . . .
415.0 . . .
378.0 . . .
416.0 . . .
401.0 . . .
445.0 . . .
393.0 . . .
402.0 . . .
443.0 . . .
392.0 . . .
400.0 . . .
433.0 . . .
455.0 . . .
427.0 . . .
459.0 . . .
454.0 . . .
404.0 . . .
389.0 . . .
373.0 . . .
415.0 . . .
361.0 . . .
438.0 . . .
450.0 . . .
422.0 . . .
419.0 . . .
423.0 . . .
404.0 . . .
423.0 . . .
434.0 . . .
394.0 . . .
444.0 . . .
393.0 . . .
427.0 . . .
392.0 . . .
415.0 . . .
418.0 . . .
384.0 . . .
412.0 . . .
420.0 . . .
398.0 . . .
406.0 . . .
379.0 . . .
399.0 . . .
435.0 . . .
382.0 . . .
406.0 . . .
397.0 . . .
409.0 . . .
394.0 . . .
399.0 . . .
378.0 . . .
431.0 . . .
392.0 . . .
383.0 . . .
388.0 . . .
418.0 . . .
387.0 . . .
382.0 . . .
391.0 . . .
399.0 . . .
409.0 . . .
391.0 . . .
407.0 . . .
410.0 . . .
384.0 . . .
402.0 . . .
402.0 . . .
392.0 . . .
417.0 . . .
380.0 . . .
417.0 . . .
397.0 . . .
377.0 . . .
392.0 . . .
399.0 . . .
382.0 . . .
396.0 . . .
394.0 . . .
418.0 . . .
396.0 . . .
389.0 . . .
374.0 . . .
382.0 . . .
368.0 . . .
398.0 . . .
386.0 . . .
377.0 . . .
384.0 . . .
405.0 . . .
393.0 . . .
402.0 . . .
378.0 . . .
403.0 . . .
376.0 . . .
347.0 . . .
376.0 . . .
367.0 . . .
369.0 . . .
366.0 . . .
391.0 . . .
381.0 . . .
405.0 . . .
382.0 . . .
376.0 . . .
367.0 . . .
380.0 . . .
382.0 . . .
371.0 . . .
388.0 . . .
407.0 . . .
414.0 . . .
405.0 . . .
414.0 . . .
399.0 . . .
400.0 . . .
376.0 . . .
388.0 . . .
381.0 . . .
417.0 . . .
390.0 . . .
380.0 . . .
426.0 . . .
373.0 . . .
375.0 . . .
414.0 . . .
387.0 . . .
406.0 . . .
430.0 . . .
397.0 . . .
364.0 . . .
388.0 . . .
405.0 . . .
394.0 . . .
380.0 . . .
393.0 . . .
434.0 . . .
407.0 . . .
395.0 . . .
416.0 . . .
406.0 . . .
401.0 . . .
365.0 . . .
366.0 . . .
376.0 . . .
363.0 . . .
386.0 . . .
405.0 . . .
393.0 . . .
384.0 . . .
404.0 . . .
365.0 . . .
399.0 . . .
375.0 . . .
392.0 . . .
392.0 . . .
387.0 . . .
408.0 . . .
395.0 . . .
375.0 . . .
392.0 . . .
388.0 . . .
385.0 . . .
374.0 . . .
370.0 . . .
396.0 . . .
384.0 . . .
390.0 . . .
387.0 . . .
399.0 . . .
407.0 . . .
420.0 . . .
417.0 . . .
388.0 . . .
367.0 . . .
436.0 . . .
371.0 . . .
400.0 . . .
401.0 . . .
370.0 . . .
405.0 . . .
396.0 . . .
410.0 . . .
390.0 . . .
393.0 . . .
394.0 . . .
426.0 . . .
388.0 . . .
379.0 . . .
383.0 . . .
389.0 . . .
399.0 . . .
381.0 . . .
404.0 . . .
405.0 . . .
392.0 . . .
406.0 . . .
431.0 . . .
396.0 . . .
400.0 . . .
408.0 . . .
417.0 . . .
411.0 . . .
399.0 . . .
400.0 . . .
411.0 . . .
409.0 . . .
396.0 . . .
348.0 . . .
394.0 . . .
403.0 . . .
387.0 . . .
406.0 . . .
387.0 . . .
403.0 . . .
377.0 . . .
402.0 . . .
406.0 . . .
416.0 . . .
399.0 . . .
364.0 . . .
369.0 . . .
369.0 . . .
387.0 . . .
406.0 . . .
412.0 . . .
387.0 . . .
369.0 . . .
381.0 . . .
454.0 . . .
391.0 . . .
418.0 . . .
391.0 . . .
390.0 . . .
395.0 . . .
408.0 . . .
402.0 . . .
413.0 . . .
379.0 . . .
384.0 . . .
360.0 . . .
376.0 . . .
385.0 . . .
386.0 . . .
402.0 . . .
369.0 . . .
386.0 . . .
374.0 . . .
393.0 . . .
377.0 . . .
393.0 . . .
402.0 . . .
386.0 . . .
385.0 . . .
403.0 . . .
380.0 . . .
418.0 . . .
382.0 . . .
351.0 . . .
390.0 . . .
414.0 . . .
380.0 . . .
354.0 . . .
407.0 . . .
375.0 . . .
410.0 . . .
386.0 . . .
358.0 . . .
394.0 . . .
411.0 . . .
399.0 . . .
386.0 . . .
422.0 . . .
407.0 . . .
403.0 . . .
405.0 . . .
398.0 . . .
397.0 . . .
410.0 . . .
416.0 . . .
393.0 . . .
378.0 . . .
371.0 . . .
351.0 . . .
366.0 . . .
412.0 . . .
401.0 . . .
391.0 . . .
392.0 . . .
414.0 . . .
459.0 . . .
396.0 . . .
379.0 . . .
363.0 . . .
380.0 . . .
404.0 . . .
392.0 . . .
381.0 . . .
385.0 . . .
398.0 . . .
413.0 . . .
371.0 . . .
389.0 . . .
403.0 . . .
385.0 . . .
386.0 . . .
413.0 . . .
380.0 . . .
386.0 . . .
422.0 . . .
412.0 . . .
388.0 . . .
382.0 . . .
376.0 . . .
405.0 . . .
388.0 . . .
381.0 . . .
436.0 . . .
389.0 . . .
390.0 . . .
393.0 . . .
384.0 . . .
379.0 . . .
384.0 . . .
390.0 . . .
419.0 . . .
388.0 . . .
367.0 . . .
405.0 . . .
405.0 . . .
378.0 . . .
373.0 . . .
433.0 . . .
407.0 . . .
389.0 . . .
377.0 . . .
390.0 . . .
409.0 . . .
387.0 . . .
381.0 . . .
417.0 . . .
397.0 . . .
380.0 . . .
435.0 . . .
384.0 . . .
390.0 . . .
417.0 . . .
388.0 . . .
393.0 . . .
400.0 . . .
393.0 . . .
408.0 . . .
388.0 . . .
388.0 . . .
414.0 . . .
381.0 . . .
429.0 . . .
388.0 . . .
368.0 . . .
381.0 . . .
376.0 . . .
382.0 . . .
397.0 . . .
414.0 . . .
401.0 . . .
399.0 . . .
400.0 . . .
367.0 . . .
380.0 . . .
358.0 . . .
380.0 . . .
352.0 . . .
348.0 . . .
376.0 . . .
401.0 . . .
375.0 . . .
372.0 . . .
408.0 . . .
386.0 . . .
368.0 . . .
399.0 . . .
388.0 . . .
388.0 . . .
363.0 . . .
392.0 . . .
374.0 . . .
395.0 . . .
382.0 . . .
349.0 . . .
379.0 . . .
383.0 . . .
355.0 . . .
357.0 . . .
383.0 . . .
360.0 . . .
345.0 . . .
352.0 . . .
378.0 . . .
375.0 . . .
360.0 . . .
362.0 . . .
403.0 . . .
399.0 . . .
368.0 . . .
390.0 . . .
391.0 . . .
365.0 . . .
370.0 . . .
365.0 . . .
359.0 . . .
361.0 . . .
339.0 . . .
360.0 . . .
358.0 . . .
332.0 . . .
380.0 . . .
388.0 . . .
337.0 . . .
345.0 . . .
361.0 . . .
389.0 . . .
351.0 . . .
340.0 . . .
362.0 . . .
398.0 . . .
380.0 . . .
360.0 . . .
343.0 . . .
350.0 . . .
357.0 . . .
409.0 . . .
381.0 . . .
353.0 . . .
365.0 . . .
382.0 . . .
344.0 . . .
380.0 . . .
356.0 . . .
346.0 . . .
356.0 . . .
366.0 . . .
367.0 . . .
362.0 . . .
380.0 . . .
394.0 . . .
378.0 . . .
356.0 . . .
384.0 . . .
365.0 . . .
354.0 . . .
378.0 . . .
386.0 . . .
359.0 . . .
355.0 . . .
409.0 . . .
413.0 . . .
340.0 . . .
364.0 . . .
384.0 . . .
359.0 . . .
337.0 . . .
325.0 . . .
364.0 . . .
404.0 . . .
335.0 . . .
359.0 . . .
365.0 . . .
349.0 . . .
339.0 . . .
375.0 . . .
387.0 . . .
372.0 . . .
348.0 . . .
382.0 . . .
364.0 . . .
375.0 . . .
360.0 . . .
377.0 . . .
383.0 . . .
371.0 . . .
358.0 . . .
350.0 . . .
364.0 . . .
364.0 . . .
357.0 . . .
375.0 . . .
365.0 . . .
390.0 . . .
372.0 . . .
397.0 . . .
411.0 . . .
382.0 . . .
364.0 . . .
393.0 . . .
398.0 . . .
384.0 . . .
372.0 . . .
378.0 . . .
394.0 . . .
351.0 . . .
341.0 . . .
352.0 . . .
375.0 . . .
380.0 . . .
371.0 . . .
359.0 . . .
359.0 . . .
394.0 . . .
377.0 . . .
358.0 . . .
391.0 . . .
383.0 . . .
333.0 . . .
363.0 . . .
354.0 . . .
398.0 . . .
378.0 . . .
364.0 . . .
358.0 . . .
364.0 . . .
374.0 . . .
406.0 . . .
362.0 . . .
383.0 . . .
349.0 . . .
380.0 . . .
368.0 . . .
361.0 . . .
348.0 . . .
396.0 . . .
363.0 . . .
362.0 . . .
393.0 . . .
380.0 . . .
352.0 . . .
362.0 . . .
371.0 . . .
360.0 . . .
377.0 . . .
369.0 . . .
378.0 . . .
369.0 . . .
363.0 . . .
366.0 . . .
371.0 . . .
351.0 . . .
349.0 . . .
353.0 . . .
371.0 . . .
376.0 . . .
342.0 . . .
386.0 . . .
387.0 . . .
360.0 . . .
405.0 . . .
441.0 . . .
394.0 . . .
358.0 . . .
362.0 . . .
361.0 . . .
389.0 . . .
398.0 . . .
376.0 . . .
379.0 . . .
377.0 . . .
387.0 . . .
394.0 . . .
359.0 . . .
383.0 . . .
379.0 . . .
388.0 . . .
376.0 . . .
413.0 . . .
325.0 . . .
382.0 . . .
405.0 . . .
401.0 . . .
412.0 . . .
404.0 . . .
371.0 . . .
396.0 . . .
367.0 . . .
368.0 . . .
324.0 . . .
348.0 . . .
362.0 . . .
360.0 . . .
394.0 . . .
389.0 . . .
367.0 . . .
350.0 . . .
352.0 . . .
353.0 . . .
376.0 . . .
360.0 . . .
373.0 . . .
383.0 . . .
348.0 . . .
362.0 . . .
376.0 . . .
345.0 . . .
356.0 . . .
345.0 . . .
392.0 . . .
368.0 . . .
360.0 . . .
354.0 . . .
380.0 . . .
379.0 . . .
376.0 . . .
395.0 . . .
378.0 . . .
360.0 . . .
395.0 . . .
367.0 . . .
353.0 . . .
344.0 . . .
370.0 . . .
354.0 . . .
394.0 . . .
401.0 . . .
368.0 . . .
378.0 . . .
370.0 . . .
397.0 . . .
363.0 . . .
330.0 . . .
319.0 . . .
loop_
_refln_index_h
_refln_index_k
_refln_index_l
_pd_refln_wavelength_id
_refln_observed_status
_refln_F_squared_meas
_refln_F_squared_calc
_refln_phase_calc
_refln_d_spacing
_gsas_i100_meas
1 0 0 1 o 562.740 559.759 0.00 7.87467 4.15
1 0 0 2 o 562.740 559.759 0.00 7.87467 2.08
0 0 2 2 o 87.183 32.198 0.00 7.16440 0.26
0 0 2 1 o 87.183 32.198 0.00 7.16440 0.51
0 1 1 2 o 1388.996 1503.887 180.00 6.66480 7.37
0 1 1 1 o 1388.996 1503.887 180.00 6.66480 14.73
1 0 -2 1 o 142.128 122.305 180.00 5.45117 0.45
1 0 -2 2 o 142.128 122.305 180.00 5.45117 0.22
1 0 2 1 o 402.727 471.713 180.00 5.15955 1.37
1 0 2 2 o 402.727 471.713 180.00 5.15955 0.69
1 1 0 2 o 387.433 450.482 180.00 5.44183 1.55
1 1 0 1 o 387.433 450.482 180.00 5.44183 3.11
0 1 2 1 o 1958.756 2066.854 0.00 5.19004 12.22
0 1 2 2 o 1958.756 2066.854 0.00 5.19004 6.11
1 1 -1 2 o 1071.490 1100.333 0.00 5.15293 3.50
1 1 -1 1 o 1071.490 1100.333 0.00 5.15293 7.00
1 1 1 1 o 2231.993 2086.485 180.00 5.02412 13.90
1 1 1 2 o 2231.993 2086.485 180.00 5.02412 6.95
1 1 -2 1 o 2966.043 3146.848 180.00 4.41533 13.63
1 1 -2 2 o 2966.043 3146.848 180.00 4.41533 6.81
1 1 2 1 o 1.049 9.318 180.00 4.25603 0.00
1 1 2 2 o 1.049 9.318 180.00 4.25603 0.00
0 1 3 2 o 5488.996 4680.419 180.00 4.03314 10.72
0 1 3 1 o 5488.996 4680.419 180.00 4.03314 21.44
2 0 0 1 o 6145.057 6399.091 180.00 3.93734 11.57
2 0 0 2 o 6145.057 6399.091 180.00 3.93734 5.78
0 2 0 1 o 795.761 916.015 180.00 3.76440 1.39
0 2 0 2 o 795.761 916.015 180.00 3.76440 0.69
1 1 -3 2 o 2968.321 3210.388 0.00 3.65955 4.68
1 1 -3 1 o 2968.321 3210.388 0.00 3.65955 9.37
0 0 4 1 o 1329.405 1515.714 180.00 3.58220 2.06
0 0 4 2 o 1329.405 1515.714 180.00 3.58220 1.03
0 2 1 2 o 589.009 623.530 180.00 3.64085 0.98
0 2 1 1 o 589.009 623.530 180.00 3.64085 1.97
2 0 -2 1 o 895.376 819.602 0.00 3.53386 1.30
2 0 -2 2 o 895.376 819.602 0.00 3.53386 0.65
1 1 3 2 o 80.226 73.531 0.00 3.52372 0.12
1 1 3 1 o 80.226 73.531 0.00 3.52372 0.25
2 1 0 2 o 824.979 838.593 0.00 3.48902 1.22
2 1 0 1 o 824.979 838.593 0.00 3.48902 2.45
2 0 2 1 o 4635.158 4362.249 0.00 3.37293 6.34
2 0 2 2 o 4635.158 4362.249 0.00 3.37293 3.17
1 0 -4 2 o 76885.49 74898.90 180.00 3.33067 50.00
1 0 -4 1 o 76885.49 74898.90 180.00 3.33067 100.00
2 1 -1 1 o 903.662 908.293 180.00 3.42872 2.58
2 1 -1 2 o 903.662 908.293 180.00 3.42872 1.29
0 2 2 1 o 299.131 289.501 0.00 3.33240 0.80
0 2 2 2 o 299.131 289.501 0.00 3.33240 0.40
1 2 0 1 o 128.546 122.936 0.00 3.39629 0.35
1 2 0 2 o 128.546 122.936 0.00 3.39629 0.18
1 0 4 2 o 6514.066 6841.913 0.00 3.19492 3.97
1 0 4 1 o 6514.066 6841.913 0.00 3.19492 7.95
2 1 1 2 o 1126.974 1085.000 180.00 3.35250 1.48
2 1 1 1 o 1126.974 1085.000 180.00 3.35250 2.96
1 2 -1 1 o 2135.669 2055.208 180.00 3.32251 5.67
1 2 -1 2 o 2135.669 2055.208 180.00 3.32251 2.83
0 1 4 1 o 369.170 376.708 0.00 3.23472 0.99
0 1 4 2 o 369.170 376.708 0.00 3.23472 0.49
1 2 1 2 o 509.648 570.733 180.00 3.28722 0.66
1 2 1 1 o 509.648 570.733 180.00 3.28722 1.31
2 1 -2 2 o 12.358 16.087 180.00 3.19899 0.03
2 1 -2 1 o 12.358 16.087 180.00 3.19899 0.05
1 1 -4 1 o 7788.320 7024.376 0.00 3.04592 16.87
1 1 -4 2 o 7788.320 7024.376 0.00 3.04592 8.44
1 2 -2 1 o 508.796 482.382 180.00 3.09758 1.18
1 2 -2 2 o 508.796 482.382 180.00 3.09758 0.59
2 1 2 1 o 68.440 62.999 0.00 3.07814 0.16
2 1 2 2 o 68.440 62.999 0.00 3.07814 0.08
1 2 2 1 o 75.985 66.155 0.00 3.04104 0.17
1 2 2 2 o 75.985 66.155 0.00 3.04104 0.09
1 1 4 2 o 120.627 112.024 0.00 2.94106 0.12
1 1 4 1 o 120.627 112.024 0.00 2.94106 0.24
0 2 3 2 o 1573.965 1563.867 0.00 2.95652 1.59
0 2 3 1 o 1573.965 1563.867 0.00 2.95652 3.19
2 1 -3 2 o 4220.422 4132.593 0.00 2.88537 4.09
2 1 -3 1 o 4220.422 4132.593 0.00 2.88537 8.18
1 2 -3 2 o 195.338 36.085 0.00 2.79951 0.19
1 2 -3 1 o 195.338 36.085 0.00 2.79951 0.37
2 1 3 1 o 192.495 190.452 180.00 2.75397 0.32
2 1 3 2 o 192.495 190.452 180.00 2.75397 0.16
2 0 -4 1 o 0.473 0.767 180.00 2.72558 0.00
2 0 -4 2 o 0.473 0.767 180.00 2.72558 0.00
0 1 5 2 o 14.333 28.135 0.00 2.67830 0.02
0 1 5 1 o 14.333 28.135 0.00 2.67830 0.03
1 2 3 1 o 1761.408 1922.424 0.00 2.73728 3.14
1 2 3 2 o 1761.408 1922.424 0.00 2.73728 1.57
2 2 0 2 o 126.765 153.071 180.00 2.72092 0.10
2 2 0 1 o 126.765 153.071 180.00 2.72092 0.20
2 2 -1 1 o 35.867 101.025 180.00 2.69203 0.07
2 2 -1 2 o 35.867 101.025 180.00 2.69203 0.04
2 0 4 2 o 180.720 104.718 180.00 2.57977 0.07
2 0 4 1 o 180.720 104.718 180.00 2.57977 0.14
1 1 -5 1 o 121.884 72.406 0.00 2.57647 0.17
1 1 -5 2 o 121.884 72.406 0.00 2.57647 0.09
2 2 1 1 o 1274.373 1443.374 0.00 2.65466 2.15
2 2 1 2 o 1274.373 1443.374 0.00 2.65466 1.07
0 2 4 1 o 2.272 1.426 0.00 2.59502 0.00
0 2 4 2 o 2.272 1.426 0.00 2.59502 0.00
3 0 0 2 o 4099.546 5029.821 0.00 2.62489 1.65
3 0 0 1 o 4099.546 5029.821 0.00 2.62489 3.29
2 1 -4 1 o 65.650 29.805 0.00 2.56281 0.11
2 1 -4 2 o 65.650 29.805 0.00 2.56281 0.05
2 2 -2 1 o 3.883 2.076 0.00 2.57646 0.01
2 2 -2 2 o 3.883 2.076 0.00 2.57646 0.00
1 1 5 2 o 935.211 917.110 0.00 2.49671 0.67
1 1 5 1 o 935.211 917.110 0.00 2.49671 1.34
1 2 -4 1 o 403.565 395.569 0.00 2.49446 0.58
1 2 -4 2 o 403.565 395.569 0.00 2.49446 0.29
3 0 -2 2 o 1695.443 1652.514 180.00 2.50981 0.63
3 0 -2 1 o 1695.443 1652.514 180.00 2.50981 1.26
2 2 2 1 o 2098.295 2068.140 180.00 2.51206 3.03
2 2 2 2 o 2098.295 2068.140 180.00 2.51206 1.52
0 3 1 1 o 317.988 310.025 0.00 2.47197 0.42
0 3 1 2 o 317.988 310.025 0.00 2.47197 0.21
2 1 4 1 o 6231.194 5982.048 180.00 2.44048 8.46
2 1 4 2 o 6231.194 5982.048 180.00 2.44048 4.23
1 2 4 1 o 254.810 240.162 0.00 2.43587 0.32
1 2 4 2 o 254.810 240.162 0.00 2.43587 0.16
3 1 0 2 o 3273.880 3260.426 0.00 2.47857 2.30
3 1 0 1 o 3273.880 3260.426 0.00 2.47857 4.59
0 0 6 2 o 15.103 14.800 180.00 2.38813 0.00
0 0 6 1 o 15.103 14.800 180.00 2.38813 0.01
3 0 2 1 o 9.930 8.443 180.00 2.42189 0.01
3 0 2 2 o 9.930 8.443 180.00 2.42189 0.00
3 1 -1 2 o 589.452 567.244 0.00 2.46395 0.40
3 1 -1 1 o 589.452 567.244 0.00 2.46395 0.80
2 2 -3 2 o 22.575 17.518 180.00 2.40395 0.02
2 2 -3 1 o 22.575 17.518 180.00 2.40395 0.03
3 1 1 1 o 413.756 335.211 0.00 2.42121 0.56
3 1 1 2 o 413.756 335.211 0.00 2.42121 0.28
0 3 2 1 o 327.033 356.037 0.00 2.36849 0.41
0 3 2 2 o 327.033 356.037 0.00 2.36849 0.20
1 0 -6 1 o 157.663 134.575 180.00 2.32119 0.09
1 0 -6 2 o 157.663 134.575 180.00 2.32119 0.05
1 3 0 2 o 463.918 445.842 0.00 2.39111 0.29
1 3 0 1 o 463.918 445.842 0.00 2.39111 0.58
3 1 -2 2 o 452.210 518.166 0.00 2.38100 0.29
3 1 -2 1 o 452.210 518.166 0.00 2.38100 0.59
1 3 -1 1 o 313.380 335.038 180.00 2.36494 0.42
1 3 -1 2 o 313.380 335.038 180.00 2.36494 0.21
1 3 1 1 o 2262.328 2127.163 0.00 2.35211 2.89
1 3 1 2 o 2262.328 2127.163 0.00 2.35211 1.45
0 1 6 2 o 22.957 23.239 0.00 2.27636 0.01
0 1 6 1 o 22.957 23.239 0.00 2.27636 0.02
1 0 6 1 o 1805.593 2119.138 180.00 2.25112 1.04
1 0 6 2 o 1805.593 2119.138 180.00 2.25112 0.52
2 2 3 2 o 906.545 800.106 180.00 2.32636 0.56
2 2 3 1 o 906.545 800.106 180.00 2.32636 1.12
0 2 5 1 o 784.430 765.002 0.00 2.28020 0.95
0 2 5 2 o 784.430 765.002 0.00 2.28020 0.47
2 1 -5 1 o 4.147 4.484 180.00 2.26961 0.00
2 1 -5 2 o 4.147 4.484 180.00 2.26961 0.00
1 3 -2 2 o 190.440 187.756 180.00 2.27962 0.11
1 3 -2 1 o 190.440 187.756 180.00 2.27962 0.22
3 1 2 1 o 1.879 0.920 0.00 2.30554 0.00
3 1 2 2 o 1.879 0.920 0.00 2.30554 0.00
1 1 -6 1 o 423.911 422.669 0.00 2.21816 0.43
1 1 -6 2 o 423.911 422.669 0.00 2.21816 0.21
1 2 -5 1 o 152.557 150.928 180.00 2.21638 0.17
1 2 -5 2 o 152.557 150.928 180.00 2.21638 0.09
1 3 2 2 o 112.959 139.172 180.00 2.25680 0.06
1 3 2 1 o 112.959 139.172 180.00 2.25680 0.13
3 1 -3 2 o 154.154 190.932 0.00 2.24840 0.08
3 1 -3 1 o 154.154 190.932 0.00 2.24840 0.16
0 3 3 2 o 979.002 989.684 0.00 2.22160 0.56
0 3 3 1 o 979.002 989.684 0.00 2.22160 1.13
2 2 -4 1 o 143.586 136.856 180.00 2.20767 0.16
2 2 -4 2 o 143.586 136.856 180.00 2.20767 0.08
1 1 6 2 o 1139.670 1071.446 180.00 2.15677 0.60
1 1 6 1 o 1139.670 1071.446 180.00 2.15677 1.20
1 2 5 2 o 74.267 70.494 180.00 2.16499 0.04
1 2 5 1 o 74.267 70.494 180.00 2.16499 0.09
2 1 5 2 o 64.746 61.255 180.00 2.16325 0.04
2 1 5 1 o 64.746 61.255 180.00 2.16325 0.07
3 0 -4 1 o 384.484 367.899 0.00 2.17530 0.20
3 0 -4 2 o 384.484 367.899 0.00 2.17530 0.10
1 3 -3 1 o 1369.786 1285.975 180.00 2.15262 1.40
1 3 -3 2 o 1369.786 1285.975 180.00 2.15262 0.70
3 1 3 2 o 4914.564 4576.907 180.00 2.15458 2.51
3 1 3 1 o 4914.564 4576.907 180.00 2.15458 5.02
2 2 4 1 o 520.730 489.494 0.00 2.12802 0.52
2 2 4 2 o 520.730 489.494 0.00 2.12802 0.26
2 0 -6 2 o 176.694 184.959 0.00 2.09376 0.04
2 0 -6 1 o 176.694 184.959 0.00 2.09376 0.08
3 2 0 2 o 1105.210 1016.951 180.00 2.15313 0.57
3 2 0 1 o 1105.210 1016.951 180.00 2.15313 1.14
1 3 3 1 o 925.812 849.526 180.00 2.12394 0.93
1 3 3 2 o 925.812 849.526 180.00 2.12394 0.46
3 2 -1 1 o 317.634 312.015 0.00 2.14353 0.35
3 2 -1 2 o 317.634 312.015 0.00 2.14353 0.17
3 1 -4 1 o 1212.541 1305.091 180.00 2.08981 1.20
3 1 -4 2 o 1212.541 1305.091 180.00 2.08981 0.60
3 0 4 2 o 64.300 55.983 180.00 2.06372 0.02
3 0 4 1 o 64.300 55.983 180.00 2.06372 0.04
2 3 0 2 o 867.905 778.212 0.00 2.11627 0.42
2 3 0 1 o 867.905 778.212 0.00 2.11627 0.84
3 2 1 2 o 297.122 268.674 0.00 2.11520 0.14
3 2 1 1 o 297.122 268.674 0.00 2.11520 0.28
2 3 -1 2 o 3050.352 3138.704 0.00 2.10259 1.50
2 3 -1 1 o 3050.352 3138.704 0.00 2.10259 3.01
0 3 4 1 o 333.919 305.178 180.00 2.05539 0.30
0 3 4 2 o 333.919 305.178 180.00 2.05539 0.15
3 2 -2 2 o 1150.561 1256.278 0.00 2.08823 0.56
3 2 -2 1 o 1150.561 1256.278 0.00 2.08823 1.12
2 3 1 1 o 603.338 646.110 0.00 2.08465 0.56
2 3 1 2 o 603.338 646.110 0.00 2.08465 0.28
2 1 -6 2 o 1039.151 1197.269 0.00 2.01721 0.46
2 1 -6 1 o 1039.151 1197.269 0.00 2.01721 0.92
0 2 6 1 o 54.138 62.894 180.00 2.01657 0.05
0 2 6 2 o 54.138 62.894 180.00 2.01657 0.03
2 0 6 1 o 1.145 0.638 180.00 1.99371 0.00
2 0 6 2 o 1.145 0.638 180.00 1.99371 0.00
1 3 -4 1 o 284.842 277.536 0.00 2.00432 0.25
1 3 -4 2 o 284.842 277.536 0.00 2.00432 0.12
2 3 -2 1 o 138.606 147.373 0.00 2.04613 0.13
2 3 -2 2 o 138.606 147.373 0.00 2.04613 0.06
2 2 -5 2 o 146.413 160.737 0.00 2.01187 0.07
2 2 -5 1 o 146.413 160.737 0.00 2.01187 0.15
3 2 2 2 o 281.327 356.348 0.00 2.03677 0.12
3 2 2 1 o 281.327 356.348 0.00 2.03677 0.25
1 2 -6 1 o 26.351 22.451 180.00 1.97578 0.02
1 2 -6 2 o 26.351 22.451 180.00 1.97578 0.01
0 1 7 2 o 245.338 208.204 0.00 1.97527 0.10
0 1 7 1 o 245.338 208.204 0.00 1.97527 0.21
3 1 4 2 o 165.714 140.788 180.00 1.99030 0.07
3 1 4 1 o 165.714 140.788 180.00 1.99030 0.13
2 3 2 2 o 172.186 196.328 180.00 2.01342 0.08
2 3 2 1 o 172.186 196.328 180.00 2.01342 0.15
3 2 -3 2 o 1493.456 1287.666 180.00 1.99705 0.65
3 2 -3 1 o 1493.456 1287.666 180.00 1.99705 1.31
1 1 -7 1 o 3173.045 3263.841 0.00 1.94044 2.58
1 1 -7 2 o 3173.045 3263.841 0.00 1.94044 1.29
1 3 4 1 o 162.624 135.666 180.00 1.97355 0.13
1 3 4 2 o 162.624 135.666 180.00 1.97355 0.07
2 3 -3 1 o 1205.327 1136.886 180.00 1.95646 1.03
2 3 -3 2 o 1205.327 1136.886 180.00 1.95646 0.52
1 2 6 2 o 507.145 507.111 0.00 1.93202 0.21
1 2 6 1 o 507.145 507.111 0.00 1.93202 0.41
2 1 6 2 o 0.169 0.136 180.00 1.92728 0.00
2 1 6 1 o 0.169 0.136 180.00 1.92728 0.00
4 0 0 1 o 7.366 6.295 180.00 1.96867 0.00
4 0 0 2 o 7.366 6.295 180.00 1.96867 0.00
2 2 5 1 o 659.343 680.921 180.00 1.93667 0.53
2 2 5 2 o 659.343 680.921 180.00 1.93667 0.27
3 1 -5 1 o 382.141 367.456 0.00 1.92495 0.31
3 1 -5 2 o 382.141 367.456 0.00 1.92495 0.16
1 1 7 1 o -0.039 0.001 0.00 1.89228 0.00
1 1 7 2 o -0.039 0.001 0.00 1.89228 0.00
3 2 3 2 o 0.126 0.118 0.00 1.93044 0.00
3 2 3 1 o 0.126 0.118 0.00 1.93044 0.00
4 0 -2 2 o 3.410 3.146 0.00 1.92564 0.00
4 0 -2 1 o 3.410 3.146 0.00 1.92564 0.00
0 3 5 2 o 802.950 783.474 180.00 1.88799 0.32
0 3 5 1 o 802.950 783.474 180.00 1.88799 0.63
2 3 3 1 o 172.023 174.861 0.00 1.91395 0.12
2 3 3 2 o 172.023 174.861 0.00 1.91395 0.06
4 1 0 1 o 0.115 0.490 0.00 1.90463 0.00
4 1 0 2 o 0.115 0.490 0.00 1.90463 0.00
4 1 -1 2 o 1734.887 2199.247 0.00 1.90133 0.68
4 1 -1 1 o 1734.887 2199.247 0.00 1.90133 1.36
1 3 -5 1 o 22.534 16.824 0.00 1.85128 0.02
1 3 -5 2 o 22.534 16.824 0.00 1.85128 0.01
3 2 -4 1 o 73.514 65.106 0.00 1.88345 0.05
3 2 -4 2 o 73.514 65.106 0.00 1.88345 0.03
0 4 0 1 o 2955.992 2524.008 180.00 1.88220 1.12
0 4 0 2 o 2955.992 2524.008 180.00 1.88220 0.56
4 0 2 1 o 1066.961 783.489 180.00 1.87210 0.41
4 0 2 2 o 1066.961 783.489 180.00 1.87210 0.20
0 4 1 1 o 1846.789 1351.713 0.00 1.86617 1.38
0 4 1 2 o 1846.789 1351.713 0.00 1.86617 0.69
4 1 1 2 o 909.387 681.020 0.00 1.87500 0.33
4 1 1 1 o 909.387 681.020 0.00 1.87500 0.66
2 3 -4 2 o 337.242 280.474 180.00 1.84620 0.12
2 3 -4 1 o 337.242 280.474 180.00 1.84620 0.24
2 2 -6 1 o 95.136 90.519 0.00 1.82977 0.07
2 2 -6 2 o 95.136 90.519 0.00 1.82977 0.04
4 1 -2 2 o 11.592 8.861 180.00 1.86559 0.00
4 1 -2 1 o 11.592 8.861 180.00 1.86559 0.01
3 1 5 2 o 1182.117 1141.809 180.00 1.82814 0.41
3 1 5 1 o 1182.117 1141.809 180.00 1.82814 0.83
3 0 -6 1 o 240.690 247.337 180.00 1.81706 0.08
3 0 -6 2 o 240.690 247.337 180.00 1.81706 0.04
2 1 -7 1 o 1261.538 1392.703 180.00 1.80447 0.87
2 1 -7 2 o 1261.538 1392.703 180.00 1.80447 0.44
0 0 8 1 o 1008.972 1052.082 180.00 1.79110 0.35
0 0 8 2 o 1008.972 1052.082 180.00 1.79110 0.18
1 3 5 2 o 1430.792 1436.814 180.00 1.82102 0.51
1 3 5 1 o 1430.792 1436.814 180.00 1.82102 1.02
0 2 7 2 o 1106.495 1211.984 180.00 1.79830 0.39
0 2 7 1 o 1106.495 1211.984 180.00 1.79830 0.78
0 4 2 2 o 214.131 216.344 0.00 1.82042 0.08
0 4 2 1 o 214.131 216.344 0.00 1.82042 0.15
1 4 0 1 o 1.135 1.097 180.00 1.83063 0.00
1 4 0 2 o 1.135 1.097 180.00 1.83063 0.00
1 2 -7 2 o 27.572 28.357 0.00 1.77190 0.01
1 2 -7 1 o 27.572 28.357 0.00 1.77190 0.02
1 4 -1 1 o 67.456 68.779 180.00 1.81881 0.04
1 4 -1 2 o 67.456 68.779 180.00 1.81881 0.02
3 2 4 2 o 151.148 167.393 0.00 1.80962 0.05
3 2 4 1 o 151.148 167.393 0.00 1.80962 0.11
1 0 -8 1 o 784.300 815.558 0.00 1.76771 0.27
1 0 -8 2 o 784.300 815.558 0.00 1.76771 0.13
4 1 2 2 o 49.332 51.128 180.00 1.81678 0.02
4 1 2 1 o 49.332 51.128 180.00 1.81678 0.03
1 4 1 1 o 7.354 7.895 180.00 1.81295 0.00
1 4 1 2 o 7.354 7.895 180.00 1.81295 0.00
2 3 4 2 o 0.226 0.244 0.00 1.79885 0.00
2 3 4 1 o 0.226 0.244 0.00 1.79885 0.00
3 3 0 2 o 1.926 2.077 0.00 1.81394 0.00
3 3 0 1 o 1.926 2.077 0.00 1.81394 0.00
4 1 -3 1 o 126.455 145.602 180.00 1.80257 0.09
4 1 -3 2 o 126.455 145.602 180.00 1.80257 0.04
3 3 -1 1 o 413.004 469.189 180.00 1.80819 0.28
3 3 -1 2 o 413.004 469.189 180.00 1.80819 0.14
3 1 -6 1 o 19.364 20.521 0.00 1.76634 0.02
3 1 -6 2 o 19.364 20.521 0.00 1.76634 0.01
0 1 8 1 o 596.742 609.234 180.00 1.74247 0.39
0 1 8 2 o 596.742 609.234 180.00 1.74247 0.20
2 2 6 2 o 235.698 243.111 180.00 1.76186 0.07
2 2 6 1 o 235.698 243.111 180.00 1.76186 0.15
1 4 -2 2 o 278.254 278.912 180.00 1.77913 0.10
1 4 -2 1 o 278.254 278.912 180.00 1.77913 0.19
4 0 -4 2 o 4342.634 4583.142 180.00 1.76693 0.72
4 0 -4 1 o 4342.634 4583.142 180.00 1.76693 1.45
3 3 1 1 o 24.786 26.226 180.00 1.79109 0.02
3 3 1 2 o 24.786 26.226 180.00 1.79109 0.01
3 2 -5 2 o 530.264 543.647 180.00 1.76008 0.17
3 2 -5 1 o 530.264 543.647 180.00 1.76008 0.35
1 0 8 1 o 1041.686 1035.331 180.00 1.72602 0.33
1 0 8 2 o 1041.686 1035.331 180.00 1.72602 0.16
1 2 7 2 o 260.993 273.673 0.00 1.73501 0.08
1 2 7 1 o 260.993 273.673 0.00 1.73501 0.16
1 4 2 1 o 181.370 192.388 0.00 1.76822 0.12
1 4 2 2 o 181.370 192.388 0.00 1.76822 0.06
0 4 3 2 o 755.208 743.323 0.00 1.75113 0.24
0 4 3 1 o 755.208 743.323 0.00 1.75113 0.48
3 3 -2 1 o 46.342 47.566 0.00 1.77463 0.03
3 3 -2 2 o 46.342 47.566 0.00 1.77463 0.02
1 1 -8 2 o 20.329 19.033 0.00 1.72091 0.01
1 1 -8 1 o 20.329 19.033 0.00 1.72091 0.01
2 1 7 2 o 2110.048 2159.474 0.00 1.72904 0.66
2 1 7 1 o 2110.048 2159.474 0.00 1.72904 1.31
0 3 6 1 o 0.412 0.427 0.00 1.73001 0.00
0 3 6 2 o 0.412 0.427 0.00 1.73001 0.00
3 0 6 1 o 550.910 511.913 0.00 1.71985 0.18
3 0 6 2 o 550.910 511.913 0.00 1.71985 0.09
2 3 -5 1 o 1.506 1.528 180.00 1.72704 0.00
2 3 -5 2 o 1.506 1.528 180.00 1.72704 0.00
4 1 3 1 o 22.544 23.945 180.00 1.73753 0.01
4 1 3 2 o 22.544 23.945 180.00 1.73753 0.01
1 3 -6 1 o 129.996 105.577 0.00 1.70405 0.08
1 3 -6 2 o 129.996 105.577 0.00 1.70405 0.04
4 2 0 2 o 213.494 214.951 180.00 1.74451 0.07
4 2 0 1 o 213.494 214.951 180.00 1.74451 0.14
3 3 2 2 o 111.190 113.993 180.00 1.74272 0.03
3 3 2 1 o 111.190 113.993 180.00 1.74272 0.07
4 2 -1 1 o 724.458 750.274 180.00 1.74197 0.46
4 2 -1 2 o 724.458 750.274 180.00 1.74197 0.23
1 4 -3 1 o 589.325 524.716 180.00 1.71675 0.37
1 4 -3 2 o 589.325 524.716 180.00 1.71675 0.19
4 1 -4 2 o 104.713 98.342 180.00 1.72019 0.03
4 1 -4 1 o 104.713 98.342 180.00 1.72019 0.06
1 1 8 1 o 2067.595 2002.385 0.00 1.68238 1.23
1 1 8 2 o 2067.595 2002.385 0.00 1.68238 0.62
3 3 -3 2 o 0.743 0.595 180.00 1.71764 0.00
3 3 -3 1 o 0.743 0.595 180.00 1.71764 0.00
4 2 1 1 o 532.237 512.354 180.00 1.72165 0.34
4 2 1 2 o 532.237 512.354 180.00 1.72165 0.17
4 0 4 2 o 1099.127 1036.697 0.00 1.68647 0.17
4 0 4 1 o 1099.127 1036.697 0.00 1.68647 0.33
3 1 6 1 o 99.762 100.074 0.00 1.67666 0.06
3 1 6 2 o 99.762 100.074 0.00 1.67666 0.03
1 4 3 2 o 1123.271 879.171 180.00 1.70210 0.34
1 4 3 1 o 1123.271 879.171 180.00 1.70210 0.69
3 2 5 2 o 220.170 209.925 0.00 1.68517 0.07
3 2 5 1 o 220.170 209.925 0.00 1.68517 0.14
2 0 -8 2 o 7258.654 7568.902 0.00 1.66534 1.03
2 0 -8 1 o 7258.654 7568.902 0.00 1.66534 2.07
4 2 -2 2 o 337.704 288.935 180.00 1.71436 0.10
4 2 -2 1 o 337.704 288.935 180.00 1.71436 0.21
1 3 6 1 o 148.765 150.191 0.00 1.67574 0.09
1 3 6 2 o 148.765 150.191 0.00 1.67574 0.04
2 2 -7 1 o 224.506 233.926 0.00 1.66657 0.12
2 2 -7 2 o 224.506 233.926 0.00 1.66657 0.06
2 3 5 1 o 154.302 153.612 0.00 1.67877 0.10
2 3 5 2 o 154.302 153.612 0.00 1.67877 0.05
2 4 0 2 o 0.865 0.462 0.00 1.69814 0.00
2 4 0 1 o 0.865 0.462 0.00 1.69814 0.00
2 4 -1 2 o 673.616 605.234 0.00 1.69105 0.20
2 4 -1 1 o 673.616 605.234 0.00 1.69105 0.41
0 4 4 1 o 13.587 14.467 0.00 1.66620 0.01
0 4 4 2 o 13.587 14.467 0.00 1.66620 0.00
4 2 2 2 o 97.130 98.518 0.00 1.67625 0.03
4 2 2 1 o 97.130 98.518 0.00 1.67625 0.06
2 4 1 2 o 482.841 477.376 180.00 1.68167 0.15
2 4 1 1 o 482.841 477.376 180.00 1.68167 0.30
3 3 3 1 o 1268.172 1296.486 0.00 1.67471 0.76
3 3 3 2 o 1268.172 1296.486 0.00 1.67471 0.38
2 1 -8 1 o 4815.897 5035.616 180.00 1.62603 2.64
2 1 -8 2 o 4815.897 5035.616 180.00 1.62603 1.32
4 2 -3 2 o 11.973 12.730 180.00 1.66507 0.00
4 2 -3 1 o 11.973 12.730 180.00 1.66507 0.01
2 4 -2 2 o 318.041 337.945 180.00 1.66126 0.09
2 4 -2 1 o 318.041 337.945 180.00 1.66126 0.18
1 4 -4 1 o 1167.575 1131.901 0.00 1.63865 0.65
1 4 -4 2 o 1167.575 1131.901 0.00 1.63865 0.33
4 1 4 2 o 236.019 216.909 0.00 1.64568 0.07
4 1 4 1 o 236.019 216.909 0.00 1.64568 0.14
3 2 -6 1 o 27.802 27.569 180.00 1.63639 0.02
3 2 -6 2 o 27.802 27.569 180.00 1.63639 0.01
3 3 -4 1 o 705.750 651.103 180.00 1.64375 0.39
3 3 -4 2 o 705.750 651.103 180.00 1.64375 0.20
0 2 8 1 o 160.712 167.992 180.00 1.61736 0.08
0 2 8 2 o 160.712 167.992 180.00 1.61736 0.04
3 1 -7 2 o 1689.868 1772.722 180.00 1.62029 0.46
3 1 -7 1 o 1689.868 1772.722 180.00 1.62029 0.91
2 4 2 1 o 1186.237 1082.922 180.00 1.64361 0.67
2 4 2 2 o 1186.237 1082.922 180.00 1.64361 0.33
4 1 -5 1 o 240.716 254.779 180.00 1.62678 0.13
4 1 -5 2 o 240.716 254.779 180.00 1.62678 0.07
1 2 -8 2 o 43.272 42.047 180.00 1.60008 0.01
1 2 -8 1 o 43.272 42.047 180.00 1.60008 0.02
2 3 -6 1 o 0.142 0.150 0.00 1.60771 0.00
2 3 -6 2 o 0.142 0.150 0.00 1.60771 0.00
2 2 7 2 o 596.558 639.739 0.00 1.60660 0.16
2 2 7 1 o 596.558 639.739 0.00 1.60660 0.33
2 0 8 2 o 11.512 10.102 0.00 1.59746 0.00
2 0 8 1 o 11.512 10.102 0.00 1.59746 0.00
1 4 4 2 o 19.619 20.924 180.00 1.62170 0.01
1 4 4 1 o 19.619 20.924 180.00 1.62170 0.01
2 4 -3 2 o 322.330 346.600 0.00 1.61218 0.09
2 4 -3 1 o 322.330 346.600 0.00 1.61218 0.18
4 2 3 1 o 1062.735 1134.761 0.00 1.61341 0.59
4 2 3 2 o 1062.735 1134.761 0.00 1.61341 0.29
0 3 7 1 o 0.076 0.001 180.00 1.58623 0.00
0 3 7 2 o 0.076 0.001 180.00 1.58623 0.00
3 3 4 2 o 17.090 14.290 0.00 1.59398 0.00
3 3 4 1 o 17.090 14.290 0.00 1.59398 0.01
1 2 8 1 o 18.806 17.767 180.00 1.56896 0.01
1 2 8 2 o 18.806 17.767 180.00 1.56896 0.00
4 2 -4 2 o 556.766 550.979 0.00 1.59950 0.15
4 2 -4 1 o 556.766 550.979 0.00 1.59950 0.30
1 3 -7 2 o 444.577 420.432 180.00 1.56803 0.12
1 3 -7 1 o 444.577 420.432 180.00 1.56803 0.23
0 1 9 1 o 154.938 153.048 180.00 1.55764 0.08
0 1 9 2 o 154.938 153.048 180.00 1.55764 0.04
2 1 8 2 o 325.344 319.244 0.00 1.56267 0.08
2 1 8 1 o 325.344 319.244 0.00 1.56267 0.16
2 4 3 1 o 9.021 6.956 180.00 1.58814 0.00
2 4 3 2 o 9.021 6.956 180.00 1.58814 0.00
0 4 5 1 o 348.155 311.371 180.00 1.57322 0.18
0 4 5 2 o 348.155 311.371 180.00 1.57322 0.09
3 2 6 2 o 29.023 28.434 180.00 1.56432 0.01
3 2 6 1 o 29.023 28.434 180.00 1.56432 0.02
1 1 -9 2 o 63.861 60.922 0.00 1.54398 0.02
1 1 -9 1 o 63.861 60.922 0.00 1.54398 0.03
4 0 -6 1 o 100.673 99.878 0.00 1.56194 0.03
4 0 -6 2 o 100.673 99.878 0.00 1.56194 0.01
2 3 6 2 o 53.507 53.279 0.00 1.56105 0.01
2 3 6 1 o 53.507 53.279 0.00 1.56105 0.03
3 3 -5 1 o 2166.134 2168.722 180.00 1.55982 1.09
3 3 -5 2 o 2166.134 2168.722 180.00 1.55982 0.55
1 4 -5 1 o 844.533 828.075 0.00 1.55179 0.42
1 4 -5 2 o 844.533 828.075 0.00 1.55179 0.21
3 1 7 2 o 190.574 179.505 0.00 1.53942 0.05
3 1 7 1 o 190.574 179.505 0.00 1.53942 0.09
5 0 0 1 o 2656.764 2318.388 180.00 1.57493 0.68
5 0 0 2 o 2656.764 2318.388 180.00 1.57493 0.34
1 3 7 2 o 43.956 41.950 180.00 1.54228 0.01
1 3 7 1 o 43.956 41.950 180.00 1.54228 0.02
2 4 -4 2 o 2.111 2.010 180.00 1.54879 0.00
2 4 -4 1 o 2.111 2.010 180.00 1.54879 0.00
4 1 5 1 o 94.910 91.701 0.00 1.54860 0.05
4 1 5 2 o 94.910 91.701 0.00 1.54860 0.02
2 2 -8 1 o 31.753 29.121 180.00 1.52296 0.02
2 2 -8 2 o 31.753 29.121 180.00 1.52296 0.01
5 0 -2 2 o 601.146 606.601 0.00 1.55632 0.08
5 0 -2 1 o 601.146 606.601 0.00 1.55632 0.15
1 1 9 1 o 14.133 13.574 180.00 1.51257 0.01
1 1 9 2 o 14.133 13.574 180.00 1.51257 0.00
3 0 -8 2 o 17.084 15.103 180.00 1.51902 0.00
3 0 -8 1 o 17.084 15.103 180.00 1.51902 0.01
1 4 5 2 o 202.200 189.289 0.00 1.53383 0.05
1 4 5 1 o 202.200 189.289 0.00 1.53383 0.10
4 2 4 1 o 245.624 231.632 180.00 1.53907 0.12
4 2 4 2 o 245.624 231.632 180.00 1.53907 0.06
4 1 -6 1 o 558.631 519.554 180.00 1.52938 0.27
4 1 -6 2 o 558.631 519.554 180.00 1.52938 0.14
3 2 -7 2 o 417.362 382.368 0.00 1.51824 0.10
3 2 -7 1 o 417.362 382.368 0.00 1.51824 0.20
4 3 0 2 o 0.313 0.303 180.00 1.54895 0.00
4 3 0 1 o 0.313 0.303 180.00 1.54895 0.00
4 3 -1 2 o 1103.967 1063.710 180.00 1.54717 0.28
4 3 -1 1 o 1103.967 1063.710 180.00 1.54717 0.56
5 1 -1 1 o 71.932 67.842 180.00 1.54160 0.04
5 1 -1 2 o 71.932 67.842 180.00 1.54160 0.02
5 1 0 2 o 62.117 58.752 0.00 1.54157 0.01
5 1 0 1 o 62.117 58.752 0.00 1.54157 0.03
4 2 -5 2 o 1.675 1.501 0.00 1.52358 0.00
4 2 -5 1 o 1.675 1.501 0.00 1.52358 0.00
4 3 1 1 o 634.036 594.521 0.00 1.53288 0.31
4 3 1 2 o 634.036 594.521 0.00 1.53288 0.15
5 0 2 2 o 194.363 175.521 0.00 1.52071 0.02
5 0 2 1 o 194.363 175.521 0.00 1.52071 0.05
2 4 4 1 o 2.330 2.098 0.00 1.52052 0.00
2 4 4 2 o 2.330 2.098 0.00 1.52052 0.00
4 3 -2 2 o 159.529 147.837 0.00 1.52773 0.04
4 3 -2 1 o 159.529 147.837 0.00 1.52773 0.07
2 3 -7 2 o 823.559 797.578 0.00 1.49362 0.19
2 3 -7 1 o 823.559 797.578 0.00 1.49362 0.38
3 4 -1 1 o 16.234 14.499 180.00 1.52615 0.01
3 4 -1 2 o 16.234 14.499 180.00 1.52615 0.00
3 3 5 1 o 22.975 23.177 180.00 1.50696 0.01
3 3 5 2 o 22.975 23.177 180.00 1.50696 0.01
3 4 0 2 o 86.005 79.917 180.00 1.52960 0.02
3 4 0 1 o 86.005 79.917 180.00 1.52960 0.04
5 1 -2 2 o 5.997 5.529 0.00 1.52409 0.00
5 1 -2 1 o 5.997 5.529 0.00 1.52409 0.00
5 1 1 2 o 173.676 157.659 180.00 1.52399 0.04
5 1 1 1 o 173.676 157.659 180.00 1.52399 0.08
3 1 -8 2 o 18.549 17.075 0.00 1.48902 0.00
3 1 -8 1 o 18.549 17.075 0.00 1.48902 0.01
2 1 -9 1 o 20.430 18.476 180.00 1.47593 0.01
2 1 -9 2 o 20.430 18.476 180.00 1.47593 0.00
3 4 1 2 o 250.939 229.827 0.00 1.51582 0.06
3 4 1 1 o 250.939 229.827 0.00 1.51582 0.12
4 0 6 2 o 6.847 5.930 0.00 1.47952 0.00
4 0 6 1 o 6.847 5.930 0.00 1.47952 0.00
0 2 9 1 o 115.357 112.327 180.00 1.46634 0.05
0 2 9 2 o 115.357 112.327 180.00 1.46634 0.02
3 4 -2 2 o 549.853 565.914 0.00 1.50581 0.13
3 4 -2 1 o 549.853 565.914 0.00 1.50581 0.26
0 4 6 1 o 19.709 16.864 180.00 1.47826 0.01
0 4 6 2 o 19.709 16.864 180.00 1.47826 0.00
0 5 1 2 o 268.486 274.039 180.00 1.49751 0.06
0 5 1 1 o 268.486 274.039 180.00 1.49751 0.12
2 2 8 1 o 30.989 28.978 180.00 1.47053 0.01
2 2 8 2 o 30.989 28.978 180.00 1.47053 0.01
2 4 -5 1 o 39.932 34.278 180.00 1.47641 0.02
2 4 -5 2 o 39.932 34.278 180.00 1.47641 0.01
4 3 2 2 o 0.424 0.442 0.00 1.50057 0.00
4 3 2 1 o 0.424 0.442 0.00 1.50057 0.00
4 3 -3 1 o 31.463 30.484 180.00 1.49254 0.01
4 3 -3 2 o 31.463 30.484 180.00 1.49254 0.01
3 3 -6 1 o 7.878 7.296 180.00 1.47178 0.00
3 3 -6 2 o 7.878 7.296 180.00 1.47178 0.00
5 1 -3 1 o 72.266 68.213 180.00 1.49077 0.03
5 1 -3 2 o 72.266 68.213 180.00 1.49077 0.01
5 1 2 1 o 376.666 351.794 0.00 1.49061 0.18
5 1 2 2 o 376.666 351.794 0.00 1.49061 0.09
1 2 -9 1 o 142.412 148.316 0.00 1.45492 0.07
1 2 -9 2 o 142.412 148.316 0.00 1.45492 0.03
1 4 -6 1 o 17.951 17.959 180.00 1.46196 0.01
1 4 -6 2 o 17.951 17.959 180.00 1.46196 0.00
0 3 8 2 o 2.419 2.482 180.00 1.45788 0.00
0 3 8 1 o 2.419 2.482 180.00 1.45788 0.00
3 4 2 1 o 45.785 40.029 180.00 1.48616 0.02
3 4 2 2 o 45.785 40.029 180.00 1.48616 0.01
0 5 2 2 o 493.338 444.022 0.00 1.47357 0.11
0 5 2 1 o 493.338 444.022 0.00 1.47357 0.22
1 3 -8 1 o 131.009 139.170 180.00 1.44519 0.05
1 3 -8 2 o 131.009 139.170 180.00 1.44519 0.03
5 0 -4 2 o 157.016 144.725 0.00 1.47198 0.02
5 0 -4 1 o 157.016 144.725 0.00 1.47198 0.03
3 2 7 2 o 338.165 357.513 180.00 1.45111 0.07
3 2 7 1 o 338.165 357.513 180.00 1.45111 0.15
3 0 8 1 o 11.196 11.910 0.00 1.44289 0.00
3 0 8 2 o 11.196 11.910 0.00 1.44289 0.00
0 0 10 1 o 214.632 235.348 0.00 1.43288 0.04
0 0 10 2 o 214.632 235.348 0.00 1.43288 0.02
1 5 0 1 o 171.837 143.434 0.00 1.47896 0.08
1 5 0 2 o 171.837 143.434 0.00 1.47896 0.04
1 5 -1 2 o 172.042 156.583 0.00 1.47271 0.04
1 5 -1 1 o 172.042 156.583 0.00 1.47271 0.08
4 2 5 1 o 136.677 139.370 0.00 1.45879 0.06
4 2 5 2 o 136.677 139.370 0.00 1.45879 0.03
3 4 -3 2 o 209.122 196.061 0.00 1.47052 0.05
3 4 -3 1 o 209.122 196.061 0.00 1.47052 0.09
4 1 6 2 o 953.347 1006.227 180.00 1.45176 0.21
4 1 6 1 o 953.347 1006.227 180.00 1.45176 0.41
1 5 1 2 o 683.145 649.217 180.00 1.46959 0.15
1 5 1 1 o 683.145 649.217 180.00 1.46959 0.30
2 3 7 1 o 414.152 438.344 180.00 1.44999 0.18
2 3 7 2 o 414.152 438.344 180.00 1.44999 0.09
1 4 6 2 o 537.602 573.828 0.00 1.44397 0.11
1 4 6 1 o 537.602 573.828 0.00 1.44397 0.23
1 2 9 1 o 392.962 425.010 0.00 1.42855 0.17
1 2 9 2 o 392.962 425.010 0.00 1.42855 0.08
2 4 5 1 o 38.377 40.674 180.00 1.44591 0.02
2 4 5 2 o 38.377 40.674 180.00 1.44591 0.01
1 5 -2 2 o 14.280 15.262 180.00 1.45140 0.00
1 5 -2 1 o 14.280 15.262 180.00 1.45140 0.01
1 0 -10 1 o 66.916 69.704 0.00 1.42363 0.01
1 0 -10 2 o 66.916 69.704 0.00 1.42363 0.01
4 3 3 2 o 28.406 29.904 0.00 1.45499 0.01
4 3 3 1 o 28.406 29.904 0.00 1.45499 0.01
2 1 9 2 o 575.862 599.036 0.00 1.42239 0.12
2 1 9 1 o 575.862 599.036 0.00 1.42239 0.23
4 2 -6 1 o 109.116 117.421 180.00 1.44268 0.05
4 2 -6 2 o 109.116 117.421 180.00 1.44268 0.02
4 1 -7 1 o 0.276 0.333 180.00 1.43305 0.00
4 1 -7 2 o 0.276 0.333 180.00 1.43305 0.00
4 3 -4 1 o 5.822 6.188 0.00 1.44476 0.00
4 3 -4 2 o 5.822 6.188 0.00 1.44476 0.00
5 1 -4 2 o 2.658 3.038 0.00 1.44462 0.00
5 1 -4 1 o 2.658 3.038 0.00 1.44462 0.00
5 1 3 1 o 152.806 163.406 0.00 1.44442 0.07
5 1 3 2 o 152.806 163.406 0.00 1.44442 0.03
3 1 8 2 o 407.646 418.231 180.00 1.41710 0.09
3 1 8 1 o 407.646 418.231 180.00 1.41710 0.17
5 2 -1 2 o 655.890 700.871 180.00 1.45293 0.14
5 2 -1 1 o 655.890 700.871 180.00 1.45293 0.29
5 2 0 1 o 62.383 66.826 0.00 1.45290 0.03
5 2 0 2 o 62.383 66.826 0.00 1.45290 0.01
1 3 8 2 o 52.219 54.168 180.00 1.42214 0.01
1 3 8 1 o 52.219 54.168 180.00 1.42214 0.02
1 5 2 2 o 4.181 4.406 0.00 1.44546 0.00
1 5 2 1 o 4.181 4.406 0.00 1.44546 0.00
3 4 3 2 o 487.488 522.661 0.00 1.44331 0.10
3 4 3 1 o 487.488 522.661 0.00 1.44331 0.21
0 5 3 2 o 73.178 83.081 180.00 1.43608 0.02
0 5 3 1 o 73.178 83.081 180.00 1.43608 0.03
0 1 10 1 o 789.291 809.212 0.00 1.40761 0.32
0 1 10 2 o 789.291 809.212 0.00 1.40761 0.16
1 1 -10 2 o 0.572 0.507 0.00 1.39884 0.00
1 1 -10 1 o 0.572 0.507 0.00 1.39884 0.00
3 3 6 1 o 90.513 92.688 180.00 1.41868 0.04
3 3 6 2 o 90.513 92.688 180.00 1.41868 0.02
1 0 10 1 o 0.789 0.480 0.00 1.39623 0.00
1 0 10 2 o 0.789 0.480 0.00 1.39623 0.00
5 2 -2 1 o 9.004 10.259 180.00 1.43825 0.00
5 2 -2 2 o 9.004 10.259 180.00 1.43825 0.00
5 2 1 1 o 4.145 4.586 180.00 1.43816 0.00
5 2 1 2 o 4.145 4.586 180.00 1.43816 0.00
3 2 -8 1 o 35.476 36.752 0.00 1.40866 0.02
3 2 -8 2 o 35.476 36.752 0.00 1.40866 0.01
5 0 4 1 o 267.021 275.153 0.00 1.41330 0.06
5 0 4 2 o 267.021 275.153 0.00 1.41330 0.03
3 4 -4 2 o 79.638 82.969 0.00 1.42335 0.02
3 4 -4 1 o 79.638 82.969 0.00 1.42335 0.03
2 2 -9 2 o 3.357 3.132 0.00 1.39756 0.00
2 2 -9 1 o 3.357 3.132 0.00 1.39756 0.00
1 5 -3 1 o 241.073 246.258 0.00 1.41694 0.10
1 5 -3 2 o 241.073 246.258 0.00 1.41694 0.05
2 3 -8 1 o 214.428 185.124 180.00 1.38761 0.08
2 3 -8 2 o 214.428 185.124 180.00 1.38761 0.04
2 4 -6 2 o 76.791 72.814 0.00 1.39975 0.02
2 4 -6 1 o 76.791 72.814 0.00 1.39975 0.03
1 5 3 1 o 63.688 66.786 0.00 1.40867 0.03
1 5 3 2 o 63.688 66.786 0.00 1.40867 0.01
5 2 -3 1 o 192.724 202.131 0.00 1.41014 0.08
5 2 -3 2 o 192.724 202.131 0.00 1.41014 0.04
5 2 2 2 o 481.241 504.707 180.00 1.41001 0.10
5 2 2 1 o 481.241 504.707 180.00 1.41001 0.19
1 1 10 1 o 1.448 1.345 0.00 1.37282 0.00
1 1 10 2 o 1.448 1.345 0.00 1.37282 0.00
0 4 7 2 o 314.457 270.474 0.00 1.38551 0.06
0 4 7 1 o 314.457 270.474 0.00 1.38551 0.12
3 3 -7 1 o 136.190 117.900 0.00 1.38404 0.05
3 3 -7 2 o 136.190 117.900 0.00 1.38404 0.03
4 3 4 1 o 76.382 72.677 0.00 1.39977 0.03
4 3 4 2 o 76.382 72.677 0.00 1.39977 0.01
1 4 -7 1 o 968.355 888.115 0.00 1.37333 0.37
1 4 -7 2 o 968.355 888.115 0.00 1.37333 0.18
3 1 -9 1 o 1.172 1.102 0.00 1.37245 0.00
3 1 -9 2 o 1.172 1.102 0.00 1.37245 0.00
2 5 0 2 o 1.015 1.072 0.00 1.40642 0.00
2 5 0 1 o 1.015 1.072 0.00 1.40642 0.00
2 0 -10 2 o 166.348 154.257 0.00 1.37102 0.02
2 0 -10 1 o 166.348 154.257 0.00 1.37102 0.03
5 1 -5 1 o 324.936 274.923 180.00 1.38927 0.13
5 1 -5 2 o 324.936 274.923 180.00 1.38927 0.06
5 1 4 1 o 588.464 497.233 180.00 1.38904 0.23
5 1 4 2 o 588.464 497.233 180.00 1.38904 0.12
0 5 4 2 o 180.177 151.770 180.00 1.38811 0.04
0 5 4 1 o 180.177 151.770 180.00 1.38811 0.07
4 3 -5 2 o 425.660 360.612 0.00 1.38808 0.08
4 3 -5 1 o 425.660 360.612 0.00 1.38808 0.17
2 5 -1 2 o 112.940 113.662 180.00 1.40238 0.02
2 5 -1 1 o 112.940 113.662 180.00 1.40238 0.05
3 4 4 1 o 202.705 172.857 180.00 1.39067 0.07
3 4 4 2 o 202.705 172.857 180.00 1.39067 0.04
4 2 6 2 o 99.187 89.377 0.00 1.37699 0.02
4 2 6 1 o 99.187 89.377 0.00 1.37699 0.04
2 5 1 1 o 23.787 21.375 0.00 1.39702 0.01
2 5 1 2 o 23.787 21.375 0.00 1.39702 0.00
1 5 -4 2 o 311.711 286.777 180.00 1.37206 0.06
1 5 -4 1 o 311.711 286.777 180.00 1.37206 0.12
2 5 -2 2 o 45.910 38.212 0.00 1.38525 0.01
2 5 -2 1 o 45.910 38.212 0.00 1.38525 0.02
4 0 -8 2 o 118.607 116.200 0.00 1.36279 0.01
4 0 -8 1 o 118.607 116.200 0.00 1.36279 0.02
2 4 6 2 o 138.128 130.092 0.00 1.36864 0.03
2 4 6 1 o 138.128 130.092 0.00 1.36864 0.05
2 1 -10 2 o 173.777 173.488 180.00 1.34883 0.03
2 1 -10 1 o 173.777 173.488 180.00 1.34883 0.06
4 1 7 1 o 376.412 377.390 180.00 1.35869 0.14
4 1 7 2 o 376.412 377.390 180.00 1.35869 0.07
2 2 9 2 o 0.666 0.674 0.00 1.35185 0.00
2 2 9 1 o 0.666 0.674 0.00 1.35185 0.00
3 4 -5 1 o 35.703 33.908 180.00 1.36780 0.01
3 4 -5 2 o 35.703 33.908 180.00 1.36780 0.01
1 4 7 2 o 68.558 69.387 0.00 1.35594 0.01
1 4 7 1 o 68.558 69.387 0.00 1.35594 0.03
4 2 -7 1 o 231.828 230.090 0.00 1.36100 0.09
4 2 -7 2 o 231.828 230.090 0.00 1.36100 0.04
5 2 -4 2 o 101.905 94.703 0.00 1.37090 0.02
5 2 -4 1 o 101.905 94.703 0.00 1.37090 0.04
5 2 3 2 o 677.604 629.656 180.00 1.37073 0.13
5 2 3 1 o 677.604 629.656 180.00 1.37073 0.25
3 2 8 2 o 178.514 177.196 0.00 1.34731 0.03
3 2 8 1 o 178.514 177.196 0.00 1.34731 0.06
2 5 2 2 o 322.194 290.904 180.00 1.37497 0.06
2 5 2 1 o 322.194 290.904 180.00 1.37497 0.12
0 2 10 1 o 2.925 2.790 180.00 1.33915 0.00
0 2 10 2 o 2.925 2.790 180.00 1.33915 0.00
0 3 9 2 o 659.119 641.525 0.00 1.34438 0.12
0 3 9 1 o 659.119 641.525 0.00 1.34438 0.24
1 5 4 1 o 19.557 19.347 180.00 1.36207 0.01
1 5 4 2 o 19.557 19.347 180.00 1.36207 0.00
1 3 -9 1 o 31.608 30.017 0.00 1.33557 0.01
1 3 -9 2 o 31.608 30.017 0.00 1.33557 0.01
2 3 8 1 o 15.104 15.032 180.00 1.34761 0.01
2 3 8 2 o 15.104 15.032 180.00 1.34761 0.00
1 2 -10 2 o 1.017 0.952 0.00 1.33159 0.00
1 2 -10 1 o 1.017 0.952 0.00 1.33159 0.00
5 0 -6 1 o 4.757 4.790 0.00 1.34943 0.00
5 0 -6 2 o 4.757 4.790 0.00 1.34943 0.00
4 1 -8 1 o 331.451 315.535 0.00 1.34100 0.12
4 1 -8 2 o 331.451 315.535 0.00 1.34100 0.06
2 5 -3 1 o 219.110 223.522 0.00 1.35641 0.08
2 5 -3 2 o 219.110 223.522 0.00 1.35641 0.04
2 0 10 1 o 227.834 230.040 180.00 1.32323 0.04
2 0 10 2 o 227.834 230.040 180.00 1.32323 0.02
4 4 0 2 o 188.874 190.170 0.00 1.36046 0.03
4 4 0 1 o 188.874 190.170 0.00 1.36046 0.07
4 4 -1 2 o 261.826 265.517 180.00 1.35925 0.05
4 4 -1 1 o 261.826 265.517 180.00 1.35925 0.09
3 3 7 2 o 409.351 389.732 180.00 1.33261 0.07
3 3 7 1 o 409.351 389.732 180.00 1.33261 0.15
4 3 5 2 o 76.479 71.464 180.00 1.33855 0.02
4 3 5 1 o 76.479 71.464 180.00 1.33855 0.03
0 5 5 2 o 540.604 513.443 0.00 1.33296 0.10
0 5 5 1 o 540.604 513.443 0.00 1.33296 0.19
2 5 3 2 o 169.489 161.431 0.00 1.34200 0.03
2 5 3 1 o 169.489 161.431 0.00 1.34200 0.06
4 4 1 2 o 408.545 416.521 0.00 1.34953 0.08
4 4 1 1 o 408.545 416.521 0.00 1.34953 0.15
5 1 -6 2 o 17.228 16.894 0.00 1.32826 0.00
5 1 -6 1 o 17.228 16.894 0.00 1.32826 0.01
2 4 -7 2 o 26.781 27.239 0.00 1.32251 0.01
2 4 -7 1 o 26.781 27.239 0.00 1.32251 0.01
5 1 5 2 o 407.907 400.208 0.00 1.32802 0.07
5 1 5 1 o 407.907 400.208 0.00 1.32802 0.14
1 2 10 2 o 128.349 138.982 0.00 1.30909 0.02
1 2 10 1 o 128.349 138.982 0.00 1.30909 0.04
4 4 -2 1 o 3.881 3.834 180.00 1.34601 0.00
4 4 -2 2 o 3.881 3.834 180.00 1.34601 0.00
1 3 9 2 o 67.052 70.144 180.00 1.31508 0.01
1 3 9 1 o 67.052 70.144 180.00 1.31508 0.02
3 4 5 1 o 828.839 789.832 180.00 1.33174 0.30
3 4 5 2 o 828.839 789.832 180.00 1.33174 0.15
4 3 -6 1 o 1.058 1.051 180.00 1.32608 0.00
4 3 -6 2 o 1.058 1.051 180.00 1.32608 0.00
1 5 -5 1 o 137.423 141.070 0.00 1.31985 0.05
1 5 -5 2 o 137.423 141.070 0.00 1.31985 0.02
2 1 10 2 o 47.758 54.131 180.00 1.30326 0.01
2 1 10 1 o 47.758 54.131 180.00 1.30326 0.02
3 1 9 2 o 0.296 0.369 180.00 1.30890 0.00
3 1 9 1 o 0.296 0.369 180.00 1.30890 0.00
3 2 -9 1 o 52.729 57.269 0.00 1.30876 0.02
3 2 -9 2 o 52.729 57.269 0.00 1.30876 0.01
5 2 -5 1 o 746.086 755.410 0.00 1.32332 0.27
5 2 -5 2 o 746.086 755.410 0.00 1.32332 0.13
5 2 4 1 o 144.163 146.100 180.00 1.32312 0.05
5 2 4 2 o 144.163 146.100 180.00 1.32312 0.03
5 3 -1 2 o 283.330 264.409 0.00 1.33402 0.05
5 3 -1 1 o 283.330 264.409 0.00 1.33402 0.10
5 3 0 1 o 1.806 1.687 180.00 1.33400 0.00
5 3 0 2 o 1.806 1.687 180.00 1.33400 0.00
4 4 2 2 o 49.865 48.983 0.00 1.32733 0.01
4 4 2 1 o 49.865 48.983 0.00 1.32733 0.02
2 5 -4 1 o 89.567 92.839 180.00 1.31800 0.03
2 5 -4 2 o 89.567 92.839 180.00 1.31800 0.02
3 3 -8 1 o 124.613 136.224 0.00 1.29951 0.04
3 3 -8 2 o 124.613 136.224 0.00 1.29951 0.02
0 4 8 1 o 0.509 0.539 180.00 1.29751 0.00
0 4 8 2 o 0.509 0.539 180.00 1.29751 0.00
1 5 5 1 o 2.926 3.277 0.00 1.30875 0.00
1 5 5 2 o 2.926 3.277 0.00 1.30875 0.00
4 4 -3 1 o 89.637 91.938 180.00 1.32176 0.03
4 4 -3 2 o 89.637 91.938 180.00 1.32176 0.02
3 4 -6 1 o 178.840 200.372 0.00 1.30728 0.06
3 4 -6 2 o 178.840 200.372 0.00 1.30728 0.03
2 2 -10 2 o 3.962 3.769 0.00 1.28824 0.00
2 2 -10 1 o 3.962 3.769 0.00 1.28824 0.00
3 0 -10 1 o 127.761 120.247 180.00 1.28793 0.02
3 0 -10 2 o 127.761 120.247 180.00 1.28793 0.01
5 3 -2 2 o 46.806 47.757 0.00 1.32263 0.01
5 3 -2 1 o 46.806 47.757 0.00 1.32263 0.02
5 3 1 2 o 71.476 73.063 0.00 1.32257 0.01
5 3 1 1 o 71.476 73.063 0.00 1.32257 0.03
4 2 7 2 o 189.294 199.384 0.00 1.29681 0.03
4 2 7 1 o 189.294 199.384 0.00 1.29681 0.06
2 3 -9 2 o 69.657 67.811 180.00 1.29078 0.01
2 3 -9 1 o 69.657 67.811 180.00 1.29078 0.03
1 1 -11 2 o 369.357 329.693 180.00 1.27791 0.06
1 1 -11 1 o 369.357 329.693 180.00 1.27791 0.12
4 0 8 1 o 327.223 314.963 180.00 1.28989 0.06
4 0 8 2 o 327.223 314.963 180.00 1.28989 0.03
0 1 11 1 o 13.772 12.135 0.00 1.28355 0.01
0 1 11 2 o 13.772 12.135 0.00 1.28355 0.00
1 4 -8 1 o 7.017 6.537 180.00 1.28853 0.00
1 4 -8 2 o 7.017 6.537 180.00 1.28853 0.00
6 0 0 2 o 12.290 12.930 180.00 1.31245 0.00
6 0 0 1 o 12.290 12.930 180.00 1.31245 0.00
2 4 7 2 o 288.676 286.595 180.00 1.29193 0.05
2 4 7 1 o 288.676 286.595 180.00 1.29193 0.10
2 5 4 2 o 79.735 91.345 0.00 1.30045 0.02
2 5 4 1 o 79.735 91.345 0.00 1.30045 0.03
6 0 -2 1 o 96.917 116.949 180.00 1.30377 0.02
6 0 -2 2 o 96.917 116.949 180.00 1.30377 0.01
3 5 0 1 o 5.439 6.829 180.00 1.30612 0.00
3 5 0 2 o 5.439 6.829 180.00 1.30612 0.00
5 0 6 2 o 543.537 479.044 0.00 1.28265 0.04
5 0 6 1 o 543.537 479.044 0.00 1.28265 0.08
5 3 -3 2 o 670.720 772.744 180.00 1.30067 0.12
5 3 -3 1 o 670.720 772.744 180.00 1.30067 0.23
5 3 2 1 o 86.591 99.101 180.00 1.30057 0.03
5 3 2 2 o 86.591 99.101 180.00 1.30057 0.01
4 2 -8 1 o 41.444 36.173 180.00 1.28141 0.01
4 2 -8 2 o 41.444 36.173 180.00 1.28141 0.01
3 5 -1 1 o 82.519 99.050 180.00 1.30396 0.03
3 5 -1 2 o 82.519 99.050 180.00 1.30396 0.01
3 1 -10 1 o 311.724 267.275 180.00 1.26949 0.10
3 1 -10 2 o 311.724 267.275 180.00 1.26949 0.05
4 4 3 2 o 815.815 850.720 180.00 1.29547 0.14
4 4 3 1 o 815.815 850.720 180.00 1.29547 0.28
3 5 1 1 o 32.332 35.042 0.00 1.29751 0.01
3 5 1 2 o 32.332 35.042 0.00 1.29751 0.01
1 4 8 1 o 28.520 25.266 0.00 1.27212 0.01
1 4 8 2 o 28.520 25.266 0.00 1.27212 0.00
4 1 8 1 o 111.025 97.738 0.00 1.27136 0.04
4 1 8 2 o 111.025 97.738 0.00 1.27136 0.02
6 1 0 1 o 581.437 588.749 0.00 1.29295 0.20
6 1 0 2 o 581.437 588.749 0.00 1.29295 0.10
4 4 -4 1 o 55.269 51.494 0.00 1.28823 0.02
4 4 -4 2 o 55.269 51.494 0.00 1.28823 0.01
0 5 6 1 o 142.119 129.037 180.00 1.27371 0.04
0 5 6 2 o 142.119 129.037 180.00 1.27371 0.02
1 1 11 2 o 291.943 265.876 180.00 1.25603 0.05
1 1 11 1 o 291.943 265.876 180.00 1.25603 0.09
3 5 -2 1 o 126.616 125.200 180.00 1.29121 0.04
3 5 -2 2 o 126.616 125.200 180.00 1.29121 0.02
6 1 -1 2 o 0.223 0.238 180.00 1.29403 0.00
6 1 -1 1 o 0.223 0.238 180.00 1.29403 0.00
4 3 6 1 o 19.326 17.554 0.00 1.27452 0.01
4 3 6 2 o 19.326 17.554 0.00 1.27452 0.00
6 0 2 2 o 351.476 311.068 180.00 1.27852 0.03
6 0 2 1 o 351.476 311.068 180.00 1.27852 0.05
2 5 -5 2 o 28.411 25.530 180.00 1.27253 0.00
2 5 -5 1 o 28.411 25.530 180.00 1.27253 0.01
6 1 -2 1 o 1.722 1.531 0.00 1.28465 0.00
6 1 -2 2 o 1.722 1.531 0.00 1.28465 0.00
5 2 -6 1 o 144.906 125.737 0.00 1.27028 0.05
5 2 -6 2 o 144.906 125.737 0.00 1.27028 0.02
5 2 5 1 o 50.907 43.588 180.00 1.27006 0.02
5 2 5 2 o 50.907 43.588 180.00 1.27006 0.01
5 1 -7 2 o 10.998 8.801 0.00 1.26468 0.00
5 1 -7 1 o 10.998 8.801 0.00 1.26468 0.00
3 4 6 1 o 9.612 8.072 180.00 1.26964 0.00
3 4 6 2 o 9.612 8.072 180.00 1.26964 0.00
5 1 6 1 o 28.952 23.131 0.00 1.26443 0.01
5 1 6 2 o 28.952 23.131 0.00 1.26443 0.00
3 2 9 1 o 188.072 182.185 180.00 1.25331 0.06
3 2 9 2 o 188.072 182.185 180.00 1.25331 0.03
6 1 1 2 o 236.752 202.742 180.00 1.28150 0.04
6 1 1 1 o 236.752 202.742 180.00 1.28150 0.07
1 5 -6 1 o 506.076 400.507 0.00 1.26324 0.16
1 5 -6 2 o 506.076 400.507 0.00 1.26324 0.08
4 3 -7 1 o 63.952 49.584 180.00 1.26181 0.02
4 3 -7 2 o 63.952 49.584 180.00 1.26181 0.01
3 5 2 2 o 746.066 649.663 0.00 1.27876 0.12
3 5 2 1 o 746.066 649.663 0.00 1.27876 0.25
4 1 -9 1 o 15.910 14.734 180.00 1.25494 0.01
4 1 -9 2 o 15.910 14.734 180.00 1.25494 0.00
2 3 9 2 o 70.941 66.450 180.00 1.25451 0.01
2 3 9 1 o 70.941 66.450 180.00 1.25451 0.02
2 2 10 2 o 14.546 15.389 180.00 1.24835 0.00
2 2 10 1 o 14.546 15.389 180.00 1.24835 0.00
2 1 -11 2 o 969.644 1063.592 180.00 1.24037 0.15
2 1 -11 1 o 969.644 1063.592 180.00 1.24037 0.30
3 3 8 1 o 47.173 48.411 180.00 1.25088 0.01
3 3 8 2 o 47.173 48.411 180.00 1.25088 0.01
5 3 -4 1 o 26.220 22.741 180.00 1.26969 0.01
5 3 -4 2 o 26.220 22.741 180.00 1.26969 0.00
5 3 3 2 o 17.010 14.936 0.00 1.26955 0.00
5 3 3 1 o 17.010 14.936 0.00 1.26955 0.00
0 3 10 1 o 14.791 16.332 180.00 1.24434 0.00
0 3 10 2 o 14.791 16.332 180.00 1.24434 0.00
3 5 -3 1 o 59.856 50.091 180.00 1.26875 0.02
3 5 -3 2 o 59.856 50.091 180.00 1.26875 0.01
2 4 -8 2 o 58.103 63.160 180.00 1.24723 0.01
2 4 -8 1 o 58.103 63.160 180.00 1.24723 0.02
6 1 -3 2 o 58.045 45.540 0.00 1.26550 0.01
6 1 -3 1 o 58.045 45.540 0.00 1.26550 0.02
1 5 6 2 o 1287.898 1310.587 0.00 1.25158 0.20
1 5 6 1 o 1287.898 1310.587 0.00 1.25158 0.41
1 3 -10 1 o 23.242 25.122 180.00 1.23827 0.01
1 3 -10 2 o 23.242 25.122 180.00 1.23827 0.00
2 5 5 2 o 195.298 193.302 180.00 1.25284 0.03
2 5 5 1 o 195.298 193.302 180.00 1.25284 0.06
0 2 11 1 o 26.320 25.664 180.00 1.23100 0.01
0 2 11 2 o 26.320 25.664 180.00 1.23100 0.00
6 1 2 2 o 4.003 2.900 180.00 1.26048 0.00
6 1 2 1 o 4.003 2.900 180.00 1.26048 0.00
4 4 4 1 o 476.954 429.581 180.00 1.25603 0.15
4 4 4 2 o 476.954 429.581 180.00 1.25603 0.08
3 0 10 2 o 396.607 376.047 180.00 1.22949 0.03
3 0 10 1 o 396.607 376.047 180.00 1.22949 0.06
6 0 -4 1 o 969.624 905.295 0.00 1.25491 0.15
6 0 -4 2 o 969.624 905.295 0.00 1.25491 0.08
3 4 -7 1 o 186.688 210.730 180.00 1.24463 0.06
3 4 -7 2 o 186.688 210.730 180.00 1.24463 0.03
4 4 -5 1 o 10.346 11.745 0.00 1.24757 0.00
4 4 -5 2 o 10.346 11.745 0.00 1.24757 0.00
1 2 -11 1 o 188.164 169.596 180.00 1.22602 0.06
1 2 -11 2 o 188.164 169.596 180.00 1.22602 0.03
3 5 3 1 o 96.205 100.087 0.00 1.25115 0.03
3 5 3 2 o 96.205 100.087 0.00 1.25115 0.01
0 6 0 1 o 689.987 648.436 0.00 1.25480 0.11
0 6 0 2 o 689.987 648.436 0.00 1.25480 0.06
0 6 1 2 o 111.845 119.782 0.00 1.25002 0.02
0 6 1 1 o 111.845 119.782 0.00 1.25002 0.03
1 3 10 1 o 11.435 9.970 180.00 1.22011 0.00
1 3 10 2 o 11.435 9.970 180.00 1.22011 0.00
3 3 -9 2 o 24.407 20.858 0.00 1.21985 0.00
3 3 -9 1 o 24.407 20.858 0.00 1.21985 0.01
3 5 -4 1 o 0.859 0.986 180.00 1.23808 0.00
3 5 -4 2 o 0.859 0.986 180.00 1.23808 0.00
3 2 -10 1 o 13.632 12.080 0.00 1.21858 0.00
3 2 -10 2 o 13.632 12.080 0.00 1.21858 0.00
6 1 -4 1 o 382.738 426.870 180.00 1.23783 0.12
6 1 -4 2 o 382.738 426.870 180.00 1.23783 0.06
0 4 9 1 o 2.920 2.673 0.00 1.21555 0.00
0 4 9 2 o 2.920 2.673 0.00 1.21555 0.00
4 2 8 2 o 203.740 176.167 0.00 1.22024 0.03
4 2 8 1 o 203.740 176.167 0.00 1.22024 0.06
3 1 10 2 o 700.545 650.729 0.00 1.21342 0.10
3 1 10 1 o 700.545 650.729 0.00 1.21342 0.21
6 2 -1 1 o 373.410 436.905 0.00 1.24023 0.12
6 2 -1 2 o 373.410 436.905 0.00 1.24023 0.06
0 6 2 1 o 16.712 18.328 180.00 1.23599 0.01
0 6 2 2 o 16.712 18.328 180.00 1.23599 0.00
2 4 8 2 o 145.297 128.173 0.00 1.21794 0.02
2 4 8 1 o 145.297 128.173 0.00 1.21794 0.04
5 3 -5 1 o 250.541 248.049 0.00 1.23161 0.08
5 3 -5 2 o 250.541 248.049 0.00 1.23161 0.04
6 2 0 1 o 36.893 42.370 0.00 1.23928 0.01
6 2 0 2 o 36.893 42.370 0.00 1.23928 0.01
5 3 4 1 o 12.977 12.808 180.00 1.23145 0.00
5 3 4 2 o 12.977 12.808 180.00 1.23145 0.00
2 5 -6 2 o 180.107 155.051 180.00 1.22246 0.03
2 5 -6 1 o 180.107 155.051 180.00 1.22246 0.05
1 6 0 1 o 58.086 66.831 180.00 1.23917 0.02
1 6 0 2 o 58.086 66.831 180.00 1.23917 0.01
6 1 3 2 o 2.665 2.627 0.00 1.23126 0.00
6 1 3 1 o 2.665 2.627 0.00 1.23126 0.00
1 2 11 2 o 639.820 640.242 180.00 1.20667 0.10
1 2 11 1 o 639.820 640.242 180.00 1.20667 0.19
5 0 -8 2 o 1299.933 1154.690 0.00 1.21648 0.10
5 0 -8 1 o 1299.933 1154.690 0.00 1.21648 0.19
1 4 -9 2 o 458.093 450.208 180.00 1.20903 0.07
1 4 -9 1 o 458.093 450.208 180.00 1.20903 0.14
1 6 -1 1 o 13.222 14.179 180.00 1.23548 0.00
1 6 -1 2 o 13.222 14.179 180.00 1.23548 0.00
0 5 7 2 o 53.679 50.298 180.00 1.21294 0.01
0 5 7 1 o 53.679 50.298 180.00 1.21294 0.02
1 6 1 1 o 256.595 265.570 180.00 1.23364 0.08
1 6 1 2 o 256.595 265.570 180.00 1.23364 0.04
2 1 11 2 o 101.267 101.387 180.00 1.20125 0.02
2 1 11 1 o 101.267 101.387 180.00 1.20125 0.03
6 2 -2 1 o 616.499 616.106 0.00 1.23198 0.19
6 2 -2 2 o 616.499 616.106 0.00 1.23198 0.09
5 2 -7 1 o 0.199 0.123 0.00 1.21432 0.00
5 2 -7 2 o 0.199 0.123 0.00 1.21432 0.00
5 2 6 1 o 160.132 147.507 180.00 1.21410 0.05
5 2 6 2 o 160.132 147.507 180.00 1.21410 0.02
2 3 -10 1 o 5.410 5.460 180.00 1.20318 0.00
2 3 -10 2 o 5.410 5.460 180.00 1.20318 0.00
6 2 1 1 o 29.891 28.003 0.00 1.22919 0.01
6 2 1 2 o 29.891 28.003 0.00 1.22919 0.00
4 2 -9 2 o 761.650 770.176 0.00 1.20569 0.11
4 2 -9 1 o 761.650 770.176 0.00 1.20569 0.23
1 6 -2 1 o 374.261 315.595 0.00 1.22282 0.12
1 6 -2 2 o 374.261 315.595 0.00 1.22282 0.06
4 3 7 1 o 0.459 0.416 0.00 1.21015 0.00
4 3 7 2 o 0.459 0.416 0.00 1.21015 0.00
1 5 -7 1 o 0.073 0.077 0.00 1.20474 0.00
1 5 -7 2 o 0.073 0.077 0.00 1.20474 0.00
3 5 4 1 o 91.642 81.216 0.00 1.21639 0.03
3 5 4 2 o 91.642 81.216 0.00 1.21639 0.01
3 4 7 1 o 275.849 278.623 0.00 1.20683 0.08
3 4 7 2 o 275.849 278.623 0.00 1.20683 0.04
4 4 5 2 o 218.896 210.692 180.00 1.21124 0.03
4 4 5 1 o 218.896 210.692 180.00 1.21124 0.06
1 6 2 1 o 4.215 3.359 180.00 1.21926 0.00
1 6 2 2 o 4.215 3.359 180.00 1.21926 0.00
6 0 4 2 o 298.930 288.083 180.00 1.21095 0.02
6 0 4 1 o 298.930 288.083 180.00 1.21095 0.05
5 1 -8 2 o 115.864 116.192 180.00 1.20090 0.02
5 1 -8 1 o 115.864 116.192 180.00 1.20090 0.04
5 1 7 1 o 100.922 100.975 180.00 1.20066 0.03
5 1 7 2 o 100.922 100.975 180.00 1.20066 0.01
0 6 3 1 o 2.302 2.131 0.00 1.21362 0.00
0 6 3 2 o 2.302 2.131 0.00 1.21362 0.00
6 2 -3 2 o 14.350 12.555 180.00 1.21505 0.00
6 2 -3 1 o 14.350 12.555 180.00 1.21505 0.01
4 4 -6 2 o 63.775 64.567 180.00 1.20197 0.01
4 4 -6 1 o 63.775 64.567 180.00 1.20197 0.02
2 5 6 2 o 198.270 200.047 180.00 1.20157 0.03
2 5 6 1 o 198.270 200.047 180.00 1.20157 0.06
6 1 -5 2 o 125.306 128.162 0.00 1.20332 0.02
6 1 -5 1 o 125.306 128.162 0.00 1.20332 0.04
6 2 2 2 o 156.841 153.082 0.00 1.21060 0.02
6 2 2 1 o 156.841 153.082 0.00 1.21060 0.04
3 5 -5 1 o 96.584 97.165 0.00 1.20100 0.03
3 5 -5 2 o 96.584 97.165 0.00 1.20100 0.01
1 6 -3 1 o 35.511 36.037 180.00 1.20199 0.01
1 6 -3 2 o 35.511 36.037 180.00 1.20199 0.01
5 4 -1 1 o 816.473 835.509 0.00 1.20788 0.24
5 4 -1 2 o 816.473 835.509 0.00 1.20788 0.12
5 4 0 2 o 403.111 412.682 0.00 1.20786 0.06
5 4 0 1 o 403.111 412.682 0.00 1.20786 0.12
5 4 -2 2 o 80.057 79.397 180.00 1.19941 0.01
5 4 -2 1 o 80.057 79.397 180.00 1.19941 0.02
5 4 1 2 o 179.708 178.202 0.00 1.19936 0.02
5 4 1 1 o 179.708 178.202 0.00 1.19936 0.05
