#------------------------------------------------------------------------------
#$Date: 2016-03-24 02:12:01 +0200 (Thu, 24 Mar 2016) $
#$Revision: 179561 $
#$URL: svn://www.crystallography.net/cod/cif/4/50/30/4503049.cif $
#------------------------------------------------------------------------------
#
# This file is available in the Crystallography Open Database (COD),
# http://www.crystallography.net/
#
# All data on this site have been placed in the public domain by the
# contributors.
#
data_4503049
loop_
_publ_author_name
'Neels, Antonia'
'Mantero, D\'eborah Gonz\'alez'
'Stoeckli-Evans, Helen'
_publ_section_title
;
 Solid-State Synthesis of New Diimide Compounds: A Two-Step Reaction
 Followed by X-ray Powder Diffraction
;
_journal_issue                   4
_journal_name_full               'Crystal Growth &amp; Design'
_journal_page_first              1147
_journal_paper_doi               10.1021/cg070058q
_journal_volume                  8
_journal_year                    2008
_chemical_compound_source        synthesis
_chemical_formula_analytical     'C20 H18 N4 O8'
_chemical_formula_moiety         'C10 H4 O8, 2(C5 H7 N2)'
_chemical_formula_structural     'C20 H18 N4 O8'
_chemical_formula_sum            'C20 H18 N4 O8'
_chemical_formula_weight         442.38
_chemical_name_systematic        ' ?'
_space_group_IT_number           2
_symmetry_cell_setting           triclinic
_symmetry_space_group_name_Hall  '-P 1'
_symmetry_space_group_name_H-M   'P -1'
_audit_creation_date             2005-05-23T22:14
_audit_creation_method           'from EXP file using GSAS2CIF'
_audit_update_record
' 2005-05-23T22:14  Initial CIF as created by GSAS2CIF'
_cell_angle_alpha                96.3647(14)
_cell_angle_beta                 95.9064(15)
_cell_angle_gamma                108.8978(12)
_cell_formula_units_Z            1
_cell_length_a                   11.39876(18)
_cell_length_b                   11.86430(15)
_cell_length_c                   3.80225(6)
_cell_measurement_temperature    293
_cell_volume                     478.197(13)
_computing_data_collection       'WinXPow, Stoe & Cie (1997)'
_computing_data_reduction        'WinXPow, Stoe & Cie (1997)'
_computing_molecular_graphics    PLATON04
_computing_publication_material  GSAS
_computing_structure_refinement  GSAS
_computing_structure_solution    DASH
_diffrn_ambient_temperature      293
_diffrn_detector                 'linear PSD'
_diffrn_measurement_device_type  'Stoe STADIP'
_diffrn_radiation_monochromator  'curved Ge111'
_diffrn_radiation_polarisn_ratio 0.564
_diffrn_radiation_probe          x-ray
_diffrn_radiation_type           'Cu K\a1'
_diffrn_radiation_wavelength     1.54051
_diffrn_source                   X-rays
_diffrn_source_target            'Cu \Ka'
_diffrn_source_type              'sealed tube'
_exptl_absorpt_coefficient_mu    1.032
_exptl_absorpt_correction_T_max  1.00000
_exptl_absorpt_correction_T_min  1.00000
_exptl_absorpt_process_details
;   GSAS Absorption/surface roughness correction: function number 0
 No correction is applied.
;
_exptl_crystal_density_diffrn    1.536
_pd_block_id                     2005-05-23T22:14|2a|g|g
_pd_calc_method                  'Rietveld Refinement'
_pd_char_colour                  white
_pd_char_particle_morphology     powder
_pd_instr_location               ' ?'
_pd_meas_2theta_range_inc        0.01
_pd_meas_2theta_range_max        99.99
_pd_meas_2theta_range_min        4.0
_pd_meas_number_of_points        9600
_pd_meas_scan_method             step
_pd_phase_name                   2a
_pd_prep_temperature             293
_pd_proc_2theta_range_inc        0.01
_pd_proc_2theta_range_max        99.96839
_pd_proc_2theta_range_min        3.97839
_pd_proc_info_datetime           2005-05-23T22:14:49
_pd_proc_info_excluded_regions
; data <4deg excluded - no reflections observed
data >80deg excluded - strong overlapp of reflections
;
_pd_proc_ls_background_function
;   GSAS Background function number 2 with 15 terms.
 Cosine Fourier series
      1:    55377.0     2:   -172114.     3:    248316.     4:   -145878.    
      5:   -133760.     6:    385263.     7:   -429627.     8:    289395.    
      9:   -121282.    10:    33744.9    11:   -20641.3    12:    25438.0    
     13:   -19501.3    14:    8220.31    15:   -1515.63    
;
_pd_proc_ls_peak_cutoff          0.00100
_pd_proc_ls_pref_orient_corr
;   March-Dollase
 AXIS  1 Ratio=     1.088 Frac     1.000  h= 0.000  k= 1.000  l= 0.000
 AXIS  2 Ratio=     1.000 Frac     0.000  h= 1.000  k= 0.000  l= 1.000
 Prefered orientation correction range: Min=   0.77655, Max=   1.13479
;
_pd_proc_ls_profile_function
;
 CW Profile function number 2 with  18 terms
 Profile coefficients for Simpson's rule integration of pseudovoigt function
 C.J. Howard (1982). J. Appl. Cryst.,15,615-620.
 P. Thompson, D.E. Cox & J.B. Hastings (1987). J. Appl. Cryst.,20,79-83.
 Peak tails are ignored  where the intensity is below 0.0010 times the peak
   Aniso. broadening axis   0.0   0.0   1.0
;
_pd_proc_ls_prof_R_factor        0.0385
_pd_proc_ls_prof_wR_expected     0.0217
_pd_proc_ls_prof_wR_factor       0.0519
_pd_proc_number_of_points        9600
_pd_spec_mounting
;
capillary
;
_pd_spec_mount_mode              transmission
_pd_spec_shape                   cylinder
_pd_spec_size_axial              0.5
_pd_spec_size_equat              5
_pd_spec_size_thick              0.5
_refine_diff_density_max         0.275
_refine_diff_density_min         -0.297
_refine_ls_goodness_of_fit_all   2.51
_refine_ls_hydrogen_treatment    constr
_refine_ls_matrix_type           full
_refine_ls_number_parameters     73
_refine_ls_number_restraints     84
_refine_ls_R_Fsqd_factor         0.09115
_refine_ls_shift/su_max          0.04
_refine_ls_shift/su_mean         0.00
_reflns_d_resolution_high        1.200
_reflns_d_resolution_low         11.092
_reflns_limit_h_max              9
_reflns_limit_h_min              0
_reflns_limit_k_max              9
_reflns_limit_k_min              -10
_reflns_limit_l_max              3
_reflns_limit_l_min              -3
_reflns_number_observed          1148
_cod_data_source_file            cg070058q-file003.cif
_cod_data_source_block           2a_publ
_cod_depositor_comments
;
The following automatic conversions were performed:

'_geom_bond_publ_flag' value 'N' changed to 'n' according to
/home/saulius/struct/CIF-dictionaries/cif_core.dic dictionary named
'cif_core.dic' version 2.4.1 from 2010-06-29 (42
times).

'_geom_angle_publ_flag' value 'N' changed to 'n' according
to /home/saulius/struct/CIF-dictionaries/cif_core.dic dictionary
named 'cif_core.dic' version 2.4.1 from 2010-06-29 (41 time).

Automatic conversion script
Id: cif_fix_values 1715 2011-07-08 13:25:40Z adriana 
;
_cod_original_cell_volume        478.19(1)
_cod_original_sg_symbol_H-M      'p -1'
_cod_database_code               4503049
#BEGIN Tags that were not found in dictionaries:
_refine_ls_r_f_factor            0.0635
_gsas_exptl_extinct_corr_t_min   1.00000
_gsas_exptl_extinct_corr_t_max   1.00000
#END Tags that were not found in dictionaries
loop_
_symmetry_equiv_pos_site_id
_symmetry_equiv_pos_as_xyz
1 +x,+y,+z
-1 -x,-y,-z
loop_
_atom_site_type_symbol
_atom_site_label
_atom_site_fract_x
_atom_site_fract_y
_atom_site_fract_z
_atom_site_occupancy
_atom_site_thermal_displace_type
_atom_site_U_iso_or_equiv
_atom_site_symmetry_multiplicity
C C1 0.45835(24) 0.37432(20) 0.4822(11) 1.0 Uiso 0.0436(13) 2
C C2 0.37699(24) 0.42968(21) 0.3255(12) 1.0 Uiso 0.0436(13) 2
C C3 0.58021(23) 0.44469(23) 0.6398(13) 1.0 Uiso 0.0436(13) 2
C C4 0.42441(31) 0.23992(26) 0.5067(12) 1.0 Uiso 0.0436(13) 2
C C5 0.24586(28) 0.37573(28) 0.1329(11) 1.0 Uiso 0.0436(13) 2
C C6 0.75279(20) 0.14081(18) 0.1712(8) 1.0 Uiso 0.0436(13) 2
C C7 0.77219(18) 0.26267(19) 0.2812(9) 1.0 Uiso 0.0436(13) 2
C C8 0.88203(22) 0.33545(8) 0.4944(9) 1.0 Uiso 0.0436(13) 2
C C9 0.95854(18) 0.17213(19) 0.4821(9) 1.0 Uiso 0.0436(13) 2
C C10 0.84898(23) 0.09725(9) 0.2775(9) 1.0 Uiso 0.0436(13) 2
N N1 0.97442(24) 0.29065(24) 0.5801(10) 1.0 Uiso 0.0488(9) 2
N N2 0.64283(24) 0.07083(23) -0.0355(8) 1.0 Uiso 0.0488(9) 2
O O1 0.50191(31) 0.20497(33) 0.6822(10) 1.0 Uiso 0.0488(9) 2
O O2 0.31623(24) 0.16464(33) 0.3545(10) 1.0 Uiso 0.0488(9) 2
O O3 0.18872(32) 0.25972(23) 0.0649(10) 1.0 Uiso 0.0488(9) 2
O O4 0.18372(33) 0.44053(32) 0.0391(10) 1.0 Uiso 0.0488(9) 2
H H3 0.63694 0.40619 0.70124 1.0 Uiso 0.025 2
H H7 0.70875 0.293 0.21628 1.0 Uiso 0.025 2
H H8 0.89622 0.41682 0.56702 1.0 Uiso 0.025 2
H H9 1.02347 0.14409 0.55036 1.0 Uiso 0.025 2
H H10 0.8382 0.01687 0.20039 1.0 Uiso 0.025 2
H H1 1.04389 0.33688 0.71229 1.0 Uiso 0.025 2
H H2A 0.63011 -0.00408 -0.10781 1.0 Uiso 0.025 2
H H2B 0.58566 0.10107 -0.09118 1.0 Uiso 0.025 2
H H1O 0.20145 0.15954 0.1883 1.0 Uiso 0.025 2
loop_
_atom_type_symbol
_atom_type_number_in_cell
_atom_type_scat_dispersion_real
_atom_type_scat_dispersion_imag
_atom_type_scat_Cromer_Mann_a1
_atom_type_scat_Cromer_Mann_a2
_atom_type_scat_Cromer_Mann_a3
_atom_type_scat_Cromer_Mann_a4
_atom_type_scat_Cromer_Mann_b1
_atom_type_scat_Cromer_Mann_b2
_atom_type_scat_Cromer_Mann_b3
_atom_type_scat_Cromer_Mann_b4
_atom_type_scat_Cromer_Mann_c
_atom_type_scat_source
C 20.0 0.017 0.009 2.31000 20.8439 1.02000 10.2075 1.58860 0.56870 0.86500
51.6512 0.21560 International_Tables_Vol_C
N 4.0 0.029 0.018 12.2126 0.00570 3.13220 9.89330 2.01250 28.9975 1.16630
0.58260 -11.529 International_Tables_Vol_C
O 8.0 0.047 0.032 3.04850 13.2771 2.28680 5.70110 1.54630 0.32390 0.86700
32.9089 0.25080 International_Tables_Vol_C
H 18.0 0.000 0.000 0.49300 10.5109 0.32291 26.1257 0.14019 3.14236 0.04081
57.7997 0.00304 International_Tables_Vol_C
loop_
_geom_angle_atom_site_label_1
_geom_angle_atom_site_label_2
_geom_angle_atom_site_label_3
_geom_angle
_geom_angle_site_symmetry_1
_geom_angle_site_symmetry_3
_geom_angle_publ_flag
C2 C1 C3 119.88(19) 1_555 1_555 n
C2 C1 C4 125.71(22) 1_555 1_555 n
C3 C1 C4 114.38(21) 1_555 1_555 n
C1 C2 C3 117.77(19) 1_555 -1_666 n
C1 C2 C5 130.52(23) 1_555 1_555 n
C3 C2 C5 111.66(21) -1_666 1_555 n
C1 C3 C2 122.17(11) 1_555 -1_666 n
C1 C3 H3 118.64(27) 1_555 1_555 n
C2 C3 H3 118.86(27) -1_666 1_555 n
C1 C4 O1 118.84(31) 1_555 1_555 n
C1 C4 O2 120.09(30) 1_555 1_555 n
O1 C4 O2 121.05(32) 1_555 1_555 n
C2 C5 O3 121.80(30) 1_555 1_555 n
C2 C5 O4 121.52(32) 1_555 1_555 n
O3 C5 O4 116.64(32) 1_555 1_555 n
C7 C6 C10 117.72(13) 1_555 1_555 n
C7 C6 N2 119.01(18) 1_555 1_555 n
C10 C6 N2 123.26(18) 1_555 1_555 n
C6 C7 C8 120.32(9) 1_555 1_555 n
C6 C7 H7 118.96(19) 1_555 1_555 n
C8 C7 H7 120.68(20) 1_555 1_555 n
C7 C8 N1 119.93(12) 1_555 1_555 n
C7 C8 H8 120.98(19) 1_555 1_555 n
N1 C8 H8 118.93(20) 1_555 1_555 n
C10 C9 N1 119.65(11) 1_555 1_555 n
C10 C9 H9 121.30(19) 1_555 1_555 n
N1 C9 H9 119.03(20) 1_555 1_555 n
C6 C10 C9 120.84(9) 1_555 1_555 n
C6 C10 H10 118.56(19) 1_555 1_555 n
C9 C10 H10 120.57(20) 1_555 1_555 n
C8 N1 C9 121.40(17) 1_555 1_555 n
C8 N1 H1 119.79(26) 1_555 1_555 n
C9 N1 H1 118.69(26) 1_555 1_555 n
C6 N2 H2A 119.97(24) 1_555 1_555 n
C6 N2 H2B 120.12(25) 1_555 1_555 n
H2A N2 H2B 119.89(28) 1_555 1_555 n
C4 O2 H1O 142.2(4) 1_555 1_555 n
C5 O3 H1O 137.22(33) 1_555 1_555 n
N2 H2A H2B 30.02(16) 1_555 1_555 n
N2 H2B H2A 30.08(17) 1_555 1_555 n
O2 H1O O3 119.39(20) 1_555 1_555 n
loop_
_geom_bond_atom_site_label_1
_geom_bond_atom_site_label_2
_geom_bond_distance
_geom_bond_site_symmetry_2
_geom_bond_publ_flag
C1 C2 1.4192(24) 1_555 n
C1 C3 1.3972(25) 1_555 n
C1 C4 1.5304(27) 1_555 n
C2 C1 1.4192(24) 1_555 n
C2 C3 1.3961(24) -1_666 n
C2 C5 1.4937(27) 1_555 n
C3 C1 1.3972(25) 1_555 n
C3 C2 1.3961(24) -1_666 n
C3 H3 0.93015(35) 1_555 n
C4 C1 1.5304(27) 1_555 n
C4 O1 1.2548(28) 1_555 n
C4 O2 1.2955(28) 1_555 n
C5 C2 1.4937(27) 1_555 n
C5 O3 1.3005(28) 1_555 n
C5 O4 1.2576(29) 1_555 n
C6 C7 1.3978(22) 1_555 n
C6 C10 1.3982(22) 1_555 n
C6 N2 1.3625(25) 1_555 n
C7 C6 1.3978(22) 1_555 n
C7 C8 1.3806(21) 1_555 n
C7 H7 0.93003(35) 1_555 n
C8 C7 1.3806(21) 1_555 n
C8 N1 1.3521(25) 1_555 n
C8 H8 0.93005(35) 1_555 n
C9 C10 1.3719(21) 1_555 n
C9 N1 1.3616(25) 1_555 n
C9 H9 0.93007(35) 1_555 n
C10 C6 1.3982(22) 1_555 n
C10 C9 1.3719(21) 1_555 n
C10 H10 0.93013(35) 1_555 n
N1 C8 1.3521(25) 1_555 n
N1 C9 1.3616(25) 1_555 n
N1 H1 0.8695(23) 1_555 n
N2 C6 1.3625(25) 1_555 n
N2 H2A 0.8606(25) 1_555 n
N2 H2B 0.8591(24) 1_555 n
O1 C4 1.2548(28) 1_555 n
O2 C4 1.2955(28) 1_555 n
O2 H1O 1.3729(24) 1_555 n
O3 C5 1.3005(28) 1_555 n
O3 H1O 1.3694(24) 1_555 n
O4 C5 1.2576(29) 1_555 n
loop_
_pd_meas_counts_total
_pd_proc_ls_weight
_pd_proc_intensity_bkg_calc
_pd_calc_intensity_total
1230.0 . . .
1207.0 0.000829 1477.00952 1477.61328
1184.0 0.000845 1477.23987 1477.82898
1198.0 0.000835 1477.45313 1478.03369
1247.0 0.000802 1477.66980 1478.26648
1209.0 0.000827 1477.86438 1478.46887
1160.0 0.000862 1478.09583 1478.69934
1206.0 0.000829 1478.28491 1478.89868
1217.0 0.000822 1478.48157 1479.06567
1202.0 0.000832 1478.70190 1479.27820
1187.0 0.000842 1478.92078 1479.52002
1227.0 0.000815 1479.08716 1479.68652
1232.0 0.000812 1479.33679 1479.92004
1299.0 0.000770 1479.56665 1480.17395
1273.0 0.000786 1479.77893 1480.36963
1218.0 0.000821 1479.97046 1480.57141
1232.0 0.000812 1480.16931 1480.77893
1289.0 0.000776 1480.40149 1480.99365
1271.0 0.000787 1480.61719 1481.21753
1288.0 0.000776 1480.85999 1481.44543
1293.0 0.000773 1481.04749 1481.65564
1334.0 0.000750 1481.24646 1481.85400
1272.0 0.000786 1481.48975 1482.08899
1235.0 0.000810 1481.69971 1482.28418
1271.0 0.000787 1481.91638 1482.50793
1259.0 0.000794 1482.14978 1482.74207
1290.0 0.000775 1482.37573 1482.97546
1236.0 0.000809 1482.59229 1483.16882
1296.0 0.000772 1482.78259 1483.37488
1285.0 0.000778 1482.99536 1483.57922
1269.0 0.000788 1483.26563 1483.84949
1304.0 0.000767 1483.45142 1484.04358
1264.0 0.000791 1483.69702 1484.28687
1293.0 0.000773 1483.88416 1484.48364
1211.0 0.000826 1484.10962 1484.70178
1256.0 0.000796 1484.35095 1484.94275
1248.0 0.000801 1484.56628 1485.14148
1333.0 0.000750 1484.78772 1485.37036
1261.0 0.000793 1485.03699 1485.61145
1308.0 0.000765 1485.27380 1485.87268
1323.0 0.000756 1485.47375 1486.05664
1277.0 0.000783 1485.69019 1486.29639
1251.0 0.000799 1485.92188 1486.51038
1314.0 0.000761 1486.15894 1486.75500
1328.0 0.000753 1486.37891 1486.96021
1286.0 0.000778 1486.61414 1487.18738
1307.0 0.000765 1486.84827 1487.41187
1379.0 0.000725 1487.06726 1487.64648
1367.0 0.000732 1487.31738 1487.88843
1294.0 0.000773 1487.55786 1488.11316
1283.0 0.000779 1487.74402 1488.33752
1309.0 0.000764 1488.01343 1488.59912
1321.0 0.000757 1488.20032 1488.77124
1405.0 0.000712 1488.44104 1489.01770
1287.0 0.000777 1488.70361 1489.27258
1319.0 0.000758 1488.90027 1489.49268
1326.0 0.000754 1489.14819 1489.72388
1315.0 0.000760 1489.37195 1489.95557
1290.0 0.000775 1489.61047 1490.20105
1273.0 0.000786 1489.85059 1490.42444
1336.0 0.000749 1490.07446 1490.64063
1380.0 0.000725 1490.29932 1490.87915
1371.0 0.000729 1490.53894 1491.11890
1321.0 0.000757 1490.80505 1491.37732
1366.0 0.000732 1491.00037 1491.58667
1331.0 0.000751 1491.27930 1491.84790
1324.0 0.000755 1491.47815 1492.06274
1370.0 0.000730 1491.74548 1492.32825
1355.0 0.000738 1491.94788 1492.52393
1289.0 0.000776 1492.18726 1492.77905
1373.0 0.000728 1492.42749 1493.00195
1355.0 0.000738 1492.69849 1493.26343
1428.0 0.000700 1492.94751 1493.53625
1358.0 0.000736 1493.18835 1493.74402
1289.0 0.000776 1493.39722 1493.96887
1387.0 0.000721 1493.64026 1494.21094
1366.0 0.000732 1493.92798 1494.49902
1393.0 0.000718 1494.12170 1494.69128
1345.0 0.000743 1494.37988 1494.94788
1392.0 0.000718 1494.65735 1495.23218
1344.0 0.000744 1494.85535 1495.41992
1402.0 0.000713 1495.13745 1495.69446
1404.0 0.000712 1495.38013 1495.93457
1410.0 0.000709 1495.60168 1496.15564
1379.0 0.000725 1495.84094 1496.41089
1418.0 0.000705 1496.08936 1496.64990
1421.0 0.000704 1496.33411 1496.89307
1383.0 0.000723 1496.61133 1497.17847
1427.0 0.000701 1496.82739 1497.40100
1466.0 0.000682 1497.09473 1497.65308
1417.0 0.000706 1497.36707 1497.91309
1420.0 0.000704 1497.57813 1498.14722
1419.0 0.000705 1497.85156 1498.41333
1429.0 0.000700 1498.09753 1498.65784
1474.0 0.000678 1498.34912 1498.91772
1449.0 0.000690 1498.57239 1499.13940
1418.0 0.000705 1498.83472 1499.38477
1424.0 0.000702 1499.10278 1499.65918
1393.0 0.000718 1499.34424 1499.89148
1424.0 0.000702 1499.57312 1500.14136
1440.0 0.000694 1499.87134 1500.42468
1382.0 0.000724 1500.09766 1500.65637
1402.0 0.000713 1500.32849 1500.87915
1441.0 0.000694 1500.62048 1501.16785
1422.0 0.000703 1500.88965 1501.42773
1457.0 0.000686 1501.10596 1501.65283
1451.0 0.000689 1501.36255 1501.92358
1433.0 0.000698 1501.66003 1502.20984
1416.0 0.000706 1501.86792 1502.43396
1485.0 0.000673 1502.13464 1502.69897
1461.0 0.000684 1502.40906 1502.94617
1428.0 0.000700 1502.65039 1503.19421
1440.0 0.000694 1502.92432 1503.47522
1488.0 0.000672 1503.21570 1503.73560
1391.0 0.000719 1503.44580 1504.01147
1405.0 0.000712 1503.72192 1504.26880
1446.0 0.000692 1503.99927 1504.55273
1446.0 0.000692 1504.24731 1504.77612
1445.0 0.000692 1504.49475 1505.04541
1449.0 0.000690 1504.73242 1505.29016
1435.0 0.000697 1505.05188 1505.59192
1483.0 0.000674 1505.26611 1505.83582
1422.0 0.000703 1505.55652 1506.10193
1491.0 0.000671 1505.84814 1506.37646
1451.0 0.000689 1506.09753 1506.63940
1455.0 0.000687 1506.36450 1506.90527
1461.0 0.000684 1506.60767 1507.17017
1463.0 0.000684 1506.88831 1507.43372
1436.0 0.000696 1507.15967 1507.69519
1452.0 0.000689 1507.39966 1507.93323
1446.0 0.000692 1507.67261 1508.22021
1446.0 0.000692 1507.94788 1508.48584
1460.0 0.000685 1508.21289 1508.74146
1473.0 0.000679 1508.48389 1509.01819
1494.0 0.000669 1508.76782 1509.30896
1499.0 0.000667 1509.00061 1509.53198
1487.0 0.000672 1509.28040 1509.80884
1488.0 0.000672 1509.53809 1510.08167
1459.0 0.000685 1509.84265 1510.36816
1548.0 0.000646 1510.11633 1510.64868
1487.0 0.000672 1510.37927 1510.91663
1472.0 0.000679 1510.67432 1511.20251
1555.0 0.000643 1510.91760 1511.45227
1532.0 0.000653 1511.18042 1511.70483
1533.0 0.000652 1511.47876 1511.99451
1525.0 0.000656 1511.73218 1512.26794
1468.0 0.000681 1511.99512 1512.52124
1462.0 0.000684 1512.30042 1512.83301
1492.0 0.000670 1512.57690 1513.11548
1470.0 0.000680 1512.82312 1513.35156
1489.0 0.000672 1513.12012 1513.65466
1461.0 0.000684 1513.39709 1513.92920
1512.0 0.000661 1513.66504 1514.19495
1556.0 0.000643 1513.94153 1514.47742
1524.0 0.000656 1514.21204 1514.73730
1449.0 0.000690 1514.54382 1515.06799
1509.0 0.000663 1514.79028 1515.30383
1522.0 0.000657 1515.07788 1515.59753
1474.0 0.000678 1515.35803 1515.87598
1559.0 0.000641 1515.62207 1516.13782
1542.0 0.000649 1515.90002 1516.43701
1503.0 0.000665 1516.17822 1516.72144
1498.0 0.000668 1516.45593 1516.98804
1452.0 0.000689 1516.74121 1517.24805
1539.0 0.000650 1517.04541 1517.54333
1441.0 0.000694 1517.34619 1517.84875
1509.0 0.000663 1517.62000 1518.12830
1555.0 0.000643 1517.88184 1518.39478
1581.0 0.000633 1518.15027 1518.67090
1570.0 0.000637 1518.48718 1518.98083
1521.0 0.000657 1518.75659 1519.25659
1508.0 0.000663 1519.05725 1519.54565
1491.0 0.000671 1519.30090 1519.81165
1590.0 0.000629 1519.60852 1520.12500
1623.0 0.000616 1519.87378 1520.37939
1568.0 0.000638 1520.15771 1520.66956
1544.0 0.000648 1520.47302 1520.97498
1519.0 0.000658 1520.72522 1521.23206
1542.0 0.000649 1521.02625 1521.55347
1549.0 0.000646 1521.32947 1521.84680
1564.0 0.000639 1521.62634 1522.15784
1568.0 0.000638 1521.92627 1522.43140
1534.0 0.000652 1522.18176 1522.70081
1509.0 0.000663 1522.49878 1522.99109
1520.0 0.000658 1522.78491 1523.28296
1547.0 0.000646 1523.06897 1523.55579
1606.0 0.000623 1523.35144 1523.85974
1602.0 0.000624 1523.65149 1524.14954
1516.0 0.000660 1523.92712 1524.43054
1522.0 0.000657 1524.24597 1524.76257
1605.0 0.000623 1524.58411 1525.06653
1584.0 0.000631 1524.83716 1525.34900
1591.0 0.000629 1525.12695 1525.61255
1528.0 0.000654 1525.41870 1525.90857
1585.0 0.000631 1525.67700 1526.20398
1593.0 0.000628 1526.00793 1526.50867
1600.0 0.000625 1526.30347 1526.81787
1597.0 0.000626 1526.62952 1527.10986
1548.0 0.000646 1526.89636 1527.39685
1560.0 0.000641 1527.18164 1527.67102
1574.0 0.000635 1527.49902 1527.98657
1609.0 0.000622 1527.82373 1528.33228
1522.0 0.000657 1528.09058 1528.58020
1615.0 0.000619 1528.39417 1528.89673
1597.0 0.000626 1528.70215 1529.19458
1623.0 0.000616 1529.02454 1529.52185
1647.0 0.000607 1529.33118 1529.81787
1590.0 0.000629 1529.57495 1530.06677
1620.0 0.000617 1529.90027 1530.36584
1670.0 0.000599 1530.20166 1530.69519
1644.0 0.000608 1530.50061 1530.99927
1657.0 0.000604 1530.78406 1531.27209
1664.0 0.000601 1531.10791 1531.60107
1703.0 0.000587 1531.39636 1531.87903
1715.0 0.000583 1531.69177 1532.20288
1739.0 0.000575 1532.07117 1532.54785
1640.0 0.000610 1532.34155 1532.83118
1688.0 0.000592 1532.63147 1533.11792
1724.0 0.000580 1532.92175 1533.42151
1695.0 0.000590 1533.22656 1533.71582
1722.0 0.000581 1533.57166 1534.04956
1637.0 0.000611 1533.86633 1534.34937
1673.0 0.000598 1534.18567 1534.67346
1565.0 0.000639 1534.47095 1534.96716
1578.0 0.000634 1534.78125 1535.26599
1554.0 0.000644 1535.10889 1535.58423
1597.0 0.000626 1535.42078 1535.88855
1646.0 0.000608 1535.72205 1536.17847
1577.0 0.000634 1536.01086 1536.49207
1558.0 0.000642 1536.35022 1536.83594
1588.0 0.000630 1536.64746 1537.12268
1550.0 0.000645 1536.97375 1537.45288
1657.0 0.000604 1537.25903 1537.74622
1712.0 0.000584 1537.61694 1538.10974
1544.0 0.000648 1537.90430 1538.37122
1571.0 0.000637 1538.21594 1538.67542
1574.0 0.000635 1538.50391 1538.98669
1612.0 0.000620 1538.87854 1539.33569
1681.0 0.000595 1539.11682 1539.59338
1594.0 0.000627 1539.48523 1539.97095
1619.0 0.000618 1539.79309 1540.26709
1599.0 0.000625 1540.11926 1540.58289
1567.0 0.000638 1540.40247 1540.87024
1597.0 0.000626 1540.73840 1541.19983
1615.0 0.000619 1541.05347 1541.52209
1602.0 0.000624 1541.33081 1541.80469
1547.0 0.000646 1541.72290 1542.20508
1618.0 0.000618 1542.03638 1542.49255
1633.0 0.000612 1542.32471 1542.79980
1570.0 0.000637 1542.65308 1543.12122
1610.0 0.000621 1542.95361 1543.39844
1614.0 0.000620 1543.27051 1543.75195
1603.0 0.000624 1543.58289 1544.05188
1621.0 0.000617 1543.91638 1544.39368
1675.0 0.000597 1544.23828 1544.70532
1681.0 0.000595 1544.56067 1545.00134
1575.0 0.000635 1544.89539 1545.35950
1678.0 0.000596 1545.20728 1545.68005
1543.0 0.000648 1545.52527 1545.98694
1584.0 0.000631 1545.86499 1546.31873
1589.0 0.000629 1546.17615 1546.63477
1550.0 0.000645 1546.50684 1546.97241
1639.0 0.000610 1546.83789 1547.29663
1518.0 0.000659 1547.13611 1547.59485
1590.0 0.000629 1547.49524 1547.94702
1643.0 0.000609 1547.84192 1548.30212
1600.0 0.000625 1548.14783 1548.59534
1674.0 0.000597 1548.46643 1548.90710
1656.0 0.000604 1548.77661 1549.22668
1636.0 0.000611 1549.10425 1549.55774
1671.0 0.000598 1549.42456 1549.88647
1604.0 0.000623 1549.82593 1550.27673
1585.0 0.000631 1550.12756 1550.55054
1667.0 0.000600 1550.45532 1550.88660
1677.0 0.000596 1550.74585 1551.19958
1642.0 0.000609 1551.08374 1551.52698
1604.0 0.000623 1551.39966 1551.85120
1653.0 0.000605 1551.75769 1552.20105
1632.0 0.000613 1552.05457 1552.50330
1608.0 0.000622 1552.40393 1552.84399
1659.0 0.000603 1552.74609 1553.19006
1673.0 0.000598 1553.09033 1553.52722
1642.0 0.000609 1553.43152 1553.87598
1627.0 0.000615 1553.75757 1554.19470
1619.0 0.000618 1554.06787 1554.50903
1642.0 0.000609 1554.39868 1554.84741
1630.0 0.000613 1554.76062 1555.20227
1661.0 0.000602 1555.09338 1555.53772
1662.0 0.000602 1555.40686 1555.84131
1677.0 0.000596 1555.73413 1561.81689
1592.0 0.000628 1556.13403 1562.30469
1671.0 0.000598 1556.43286 1562.68140
1653.0 0.000605 1556.76404 1563.10278
1631.0 0.000613 1557.09485 1563.53015
1692.0 0.000591 1557.40857 1563.94202
1670.0 0.000599 1557.73950 1564.37036
1658.0 0.000603 1558.13342 1564.85107
1680.0 0.000595 1558.47424 1565.26196
1642.0 0.000609 1558.78784 1565.68616
1625.0 0.000615 1559.12646 1566.11584
1704.0 0.000587 1559.48669 1566.60437
1656.0 0.000604 1559.82690 1567.04346
1636.0 0.000611 1560.15417 1567.48755
1629.0 0.000614 1560.47949 1567.91284
1669.0 0.000599 1560.79443 1568.33350
1667.0 0.000600 1561.17859 1573.72107
1738.0 0.000575 1561.52197 1574.28760
1684.0 0.000594 1561.84521 1574.87634
1621.0 0.000617 1562.21265 1575.46289
1717.0 0.000582 1562.55737 1576.06750
1664.0 0.000601 1562.88062 1576.66650
1675.0 0.000597 1563.22644 1577.26624
1650.0 0.000606 1563.59229 1577.91321
1678.0 0.000596 1563.89905 1578.51355
1669.0 0.000599 1564.26477 1579.17419
1695.0 0.000590 1564.63220 1579.83447
1659.0 0.000603 1564.97400 1580.47437
1749.0 0.000572 1565.32898 1581.15527
1616.0 0.000619 1565.64868 1581.82593
1668.0 0.000600 1565.98962 1582.51038
1696.0 0.000590 1566.33423 1583.21167
1706.0 0.000586 1566.71997 1583.98853
1625.0 0.000615 1567.03577 1584.68982
1696.0 0.000590 1567.41467 1585.44043
1654.0 0.000605 1567.73328 1586.17664
1716.0 0.000583 1568.07251 1586.94507
1683.0 0.000594 1568.42896 1587.75867
1675.0 0.000597 1568.78992 1588.58093
1623.0 0.000616 1569.13684 1589.40820
1704.0 0.000587 1569.49365 1590.26282
1707.0 0.000586 1569.85486 1591.13611
1754.0 0.000570 1570.23328 1592.06116
1721.0 0.000581 1570.52197 1592.91614
1741.0 0.000574 1570.88574 1593.86401
1706.0 0.000586 1571.25952 1594.83228
1700.0 0.000588 1571.61523 1595.82825
1702.0 0.000588 1571.97388 1596.84668
1663.0 0.000601 1572.34033 1597.90686
1677.0 0.000596 1572.66711 1598.95032
1704.0 0.000587 1573.04846 1600.09875
1655.0 0.000604 1573.41614 1601.25317
1748.0 0.000572 1573.72388 1602.41748
1690.0 0.000592 1574.10242 1603.66089
1756.0 0.000569 1574.42957 1604.91711
1704.0 0.000587 1574.78503 1606.22339
1734.0 0.000577 1575.16687 1607.60376
1733.0 0.000577 1575.56531 1609.06580
1720.0 0.000581 1575.91528 1610.54797
1756.0 0.000569 1576.25671 1612.07605
1652.0 0.000605 1576.61230 1613.70239
1694.0 0.000590 1576.96326 1615.37988
1788.0 0.000559 1577.33459 1617.13354
1774.0 0.000564 1577.69312 1619.01147
1709.0 0.000585 1578.02222 1620.90491
1764.0 0.000567 1578.38501 1622.96106
1770.0 0.000565 1578.78809 1625.16931
1704.0 0.000587 1579.15479 1627.44641
1787.0 0.000560 1579.46423 1629.81592
1729.0 0.000578 1579.83374 1632.37817
1805.0 0.000554 1580.20874 1635.11755
1882.0 0.000531 1580.58118 1638.03882
1764.0 0.000567 1580.93848 1641.15662
1824.0 0.000548 1581.31055 1644.52539
1930.0 0.000518 1581.67188 1648.19312
1875.0 0.000533 1582.03369 1652.21106
1946.0 0.000514 1582.40820 1656.72461
2023.0 0.000494 1582.79565 1661.89551
1937.0 0.000516 1583.13806 1667.94543
1972.0 0.000507 1583.49585 1675.26709
2093.0 0.000478 1583.83765 1685.93030
2140.0 0.000467 1584.23645 1697.98853
2118.0 0.000472 1584.60742 1714.04419
2196.0 0.000455 1584.96790 1735.78088
2284.0 0.000438 1585.32642 1765.45154
2357.0 0.000424 1585.69397 1805.98059
2378.0 0.000421 1586.06384 1860.95251
2496.0 0.000401 1586.44067 1934.66895
2557.0 0.000391 1586.81885 2032.11511
2708.0 0.000369 1587.14307 2158.74390
2796.0 0.000358 1587.52063 2320.41577
2962.0 0.0003376 1587.92114 2522.92822
3080.0 0.0003247 1588.31470 2771.46582
3273.0 0.0003055 1588.63989 3070.17212
3514.0 0.0002846 1589.01892 3421.64526
3528.0 0.0002834 1589.38196 3825.76538
3913.0 0.0002556 1589.76270 4279.58936
4180.0 0.0002392 1590.16602 4776.86084
4566.0 0.0002190 1590.50977 5307.78467
4961.0 0.0002016 1590.87842 5858.99805
5516.0 0.0001813 1591.23987 6412.85938
6060.0 0.0001650 1591.65576 6947.40625
6773.0 0.0001476 1592.00891 7437.61963
7069.0 0.0001415 1592.38354 7858.13672
7898.0 0.0001266 1592.77380 8185.82959
8303.0 0.0001204 1593.11084 8401.65527
8623.0 0.0001160 1593.51440 8491.09473
8908.0 0.0001123 1593.90063 8444.37207
8753.0 0.0001142 1594.28540 8258.39648
8549.0 0.0001170 1594.64709 7938.95410
8172.0 0.0001224 1595.02234 7502.33838
7381.0 0.0001355 1595.39880 6975.01465
6685.0 0.0001496 1595.77881 6390.68115
5962.0 0.0001677 1596.16565 5785.66504
5270.0 0.0001898 1596.57300 5194.65381
4722.0 0.0002118 1596.88110 4647.60156
4254.0 0.0002351 1597.28467 4168.58057
3861.0 0.0002590 1597.67273 3774.46997
3574.0 0.0002798 1598.02600 3475.63208
3529.0 0.0002834 1598.41614 3276.60132
3387.0 0.0002952 1598.80542 3176.99609
3494.0 0.0002862 1599.16833 3173.09668
3509.0 0.0002850 1599.57898 3259.39331
3640.0 0.0002747 1599.97327 3429.37451
3890.0 0.0002571 1600.36365 3676.91797
4083.0 0.0002449 1600.72595 3996.52246
4426.0 0.0002259 1601.10779 4383.36035
4715.0 0.0002121 1601.50635 4832.95605
5028.0 0.0001989 1601.83484 5340.59375
5564.0 0.0001797 1602.25403 5901.65625
5949.0 0.0001681 1602.65393 6511.25977
6647.0 0.0001504 1603.03821 7163.80225
7469.0 0.0001339 1603.41321 7850.71338
8207.0 0.0001218 1603.79297 8556.89160
8815.0 0.0001134 1604.20081 9257.71387
9917.0 0.0001008 1604.56641 9917.58789
10618.0 0.0000942 1604.97021 10491.15625
11314.0 0.0000884 1605.32227 10927.10449
11692.0 0.0000855 1605.69702 11176.48340
11955.0 0.0000836 1606.12903 11203.38965
11654.0 0.0000858 1606.47314 10994.29395
11131.0 0.0000898 1606.91895 10561.64063
10370.0 0.0000964 1607.26245 9938.94434
9466.0 0.0001056 1607.67993 9173.70410
8206.0 0.0001219 1608.08167 8319.17285
7271.0 0.0001375 1608.46594 7427.93164
6103.0 0.0001639 1608.83167 6547.03418
5142.0 0.0001945 1609.19019 5714.49023
4205.0 0.0002378 1609.61011 4957.91211
3699.0 0.0002703 1609.98499 4294.15967
3061.0 0.0003267 1610.41162 3730.53223
2689.0 0.000372 1610.76648 3266.02222
2314.0 0.000432 1611.16272 2893.96680
2120.0 0.000472 1611.56018 2603.51172
1946.0 0.000514 1611.96973 2382.00269
1936.0 0.000517 1612.35083 2216.37500
1886.0 0.000530 1612.73047 2094.55396
1854.0 0.000539 1613.18005 2005.91382
1792.0 0.000558 1613.51404 1941.58826
1807.0 0.000553 1613.92358 1894.81775
1836.0 0.000545 1614.32056 1860.33679
1765.0 0.000567 1614.72021 1834.36377
1820.0 0.000549 1615.13550 1814.26855
1781.0 0.000561 1615.52222 1798.19910
1742.0 0.000574 1615.94336 1784.98315
1815.0 0.000551 1616.31836 1773.77478
1759.0 0.000569 1616.72620 1764.13586
1785.0 0.000560 1617.07532 1755.58423
1828.0 0.000547 1617.46521 1748.02161
1754.0 0.000570 1617.90527 1741.27783
1776.0 0.000563 1618.31030 1735.18127
1809.0 0.000553 1618.70032 1729.65967
1783.0 0.000561 1619.08960 1724.66357
1740.0 0.000575 1619.50171 1720.12256
1768.0 0.000566 1619.89392 1715.96790
1726.0 0.000579 1620.32568 1712.24902
1755.0 0.000570 1620.68030 1708.77502
1777.0 0.000563 1621.09460 1705.65198
1747.0 0.000572 1621.48645 1702.79785
1729.0 0.000578 1621.88159 1700.18774
1782.0 0.000561 1622.31750 1697.86597
1743.0 0.000574 1622.68140 1695.68115
1746.0 0.000573 1623.10913 1693.73657
1772.0 0.000564 1623.48340 1691.91785
1761.0 0.000568 1623.92407 1690.35010
1806.0 0.000554 1624.30798 1688.90332
1879.0 0.000532 1624.69482 1687.58862
1808.0 0.000553 1625.10791 1686.44214
1718.0 0.000582 1625.50647 1685.40979
1802.0 0.000555 1625.93481 1684.52844
1777.0 0.000563 1626.29602 1683.72253
1753.0 0.000570 1626.74438 1683.07410
1820.0 0.000549 1627.12866 1682.49963
1786.0 0.000560 1627.51904 1682.04797
1702.0 0.000588 1627.94495 1681.72485
1746.0 0.000573 1628.33618 1681.46362
1760.0 0.000568 1628.73071 1681.30286
1827.0 0.000547 1629.13489 1681.25427
1846.0 0.000542 1629.57678 1681.33899
1848.0 0.000541 1629.97095 1681.48706
1699.0 0.000589 1630.39551 1681.75012
1777.0 0.000563 1630.78943 1682.11438
1797.0 0.000556 1631.18359 1682.54871
1750.0 0.000571 1631.60425 1683.13135
1777.0 0.000563 1632.00806 1683.83435
1782.0 0.000561 1632.42834 1684.65076
1813.0 0.000552 1632.82227 1685.57532
1787.0 0.000560 1633.25940 1686.67078
1843.0 0.000543 1633.61597 1687.83936
1747.0 0.000572 1634.04077 1689.23486
1798.0 0.000556 1634.45862 1690.78430
1824.0 0.000548 1634.87866 1692.54089
1830.0 0.000546 1635.27393 1694.48792
1821.0 0.000549 1635.68811 1696.72852
1858.0 0.000538 1636.12769 1699.26245
1791.0 0.000558 1636.50732 1702.13428
1878.0 0.000532 1636.96851 1705.58118
1899.0 0.000527 1637.31885 1709.56995
1837.0 0.000544 1637.77869 1714.53210
1911.0 0.000523 1638.19214 1720.67163
1902.0 0.000526 1638.59314 1728.51135
1931.0 0.000518 1639.00806 1738.65784
1993.0 0.000502 1639.40027 1751.98962
2004.0 0.000499 1639.83704 1769.58789
2028.0 0.000493 1640.24475 1792.69177
2086.0 0.000479 1640.70532 1822.95227
2180.0 0.000459 1641.07605 1861.97522
2095.0 0.000477 1641.53149 1911.87805
2244.0 0.000446 1641.91382 1974.51965
2260.0 0.000442 1642.33789 2052.13623
2334.0 0.000428 1642.78040 2146.80566
2424.0 0.000413 1643.14111 2260.38916
2458.0 0.000407 1643.61365 2394.81763
2564.0 0.000390 1644.00317 2551.20752
2641.0 0.000379 1644.41174 2730.20264
2796.0 0.000358 1644.83679 2931.32275
3004.0 0.0003329 1645.24243 3152.69800
3194.0 0.0003131 1645.70190 3391.44238
3451.0 0.0002898 1646.11169 3643.35767
3685.0 0.0002714 1646.51233 3903.20435
3975.0 0.0002516 1646.89795 4163.84229
4251.0 0.0002352 1647.36377 4415.39404
4657.0 0.0002147 1647.73230 4644.30176
4926.0 0.0002030 1648.20105 4834.20264
5077.0 0.0001970 1648.59473 4967.01758
5208.0 0.0001920 1649.03967 5026.61670
5255.0 0.0001903 1649.44971 5002.69385
5122.0 0.0001952 1649.84717 4894.03613
4987.0 0.0002005 1650.34253 4708.74756
4786.0 0.0002089 1650.67969 4461.77148
4241.0 0.0002358 1651.18042 4172.36475
3775.0 0.0002649 1651.57629 3860.13135
3501.0 0.0002856 1652.00415 3543.69409
3028.0 0.0003303 1652.40979 3238.45264
2807.0 0.000356 1652.81494 2956.31372
2591.0 0.000386 1653.30029 2705.19897
2371.0 0.000422 1653.65930 2489.06177
2224.0 0.000450 1654.10803 2309.07495
2097.0 0.000477 1654.53320 2163.43799
1949.0 0.000513 1654.94250 2048.86011
1848.0 0.000541 1655.39465 1960.94299
1832.0 0.000546 1655.79968 1894.90771
1803.0 0.000555 1656.24646 1846.28674
1781.0 0.000561 1656.66992 1810.88831
1803.0 0.000555 1657.09717 1785.30750
1865.0 0.000536 1657.50269 1766.77820
1799.0 0.000556 1657.95923 1753.31946
1799.0 0.000556 1658.36682 1743.24097
1752.0 0.000571 1658.81934 1735.60522
1767.0 0.000566 1659.24695 1729.57153
1788.0 0.000559 1659.64075 1724.65051
1825.0 0.000548 1660.10095 1720.59485
1756.0 0.000569 1660.49500 1717.07141
1829.0 0.000547 1660.97375 1714.07813
1801.0 0.000555 1661.33862 1711.35913
1811.0 0.000552 1661.82397 1709.02832
1874.0 0.000534 1662.24268 1700.00989
1856.0 0.000539 1662.70313 1698.24194
1830.0 0.000546 1663.08582 1696.58984
1795.0 0.000557 1663.51111 1695.15491
1778.0 0.000562 1664.01233 1693.94885
1699.0 0.000589 1664.34998 1692.71448
1759.0 0.000569 1664.82385 1691.72656
1756.0 0.000569 1665.25732 1690.83325
1813.0 0.000552 1665.66675 1689.98059
1743.0 0.000574 1666.10291 1689.27026
1774.0 0.000564 1666.55896 1688.63562
1785.0 0.000560 1666.98315 1688.06519
1763.0 0.000567 1667.44092 1687.57141
1804.0 0.000554 1667.85938 1687.13318
1758.0 0.000569 1668.24951 1686.69849
1789.0 0.000559 1668.73657 1686.42053
1747.0 0.000572 1669.14404 1686.10828
1742.0 0.000574 1669.57080 1685.85974
1842.0 0.000543 1670.00537 1685.64368
1716.0 0.000583 1670.45081 1685.49146
1790.0 0.000559 1670.88391 1685.36646
1760.0 0.000568 1671.30188 1685.26038
1768.0 0.000566 1671.77148 1685.21704
1784.0 0.000561 1672.17078 1685.14050
1822.0 0.000549 1672.65002 1685.14575
1737.0 0.000576 1673.06909 1685.15198
1853.0 0.000540 1673.53320 1685.20288
1795.0 0.000557 1673.95068 1685.23596
1757.0 0.000569 1674.40125 1685.32080
1758.0 0.000569 1674.86670 1685.42896
1793.0 0.000558 1675.22974 1685.47656
1783.0 0.000561 1675.70496 1685.61292
1830.0 0.000546 1676.13428 1685.74768
1762.0 0.000568 1676.55872 1685.87952
1748.0 0.000572 1677.00183 1686.06238
1781.0 0.000561 1677.47180 1686.26270
1762.0 0.000568 1677.88354 1686.40869
1782.0 0.000561 1678.34180 1686.64917
1840.0 0.000543 1678.79517 1686.86584
1853.0 0.000540 1679.20642 1687.06580
1851.0 0.000540 1679.67139 1687.29773
1749.0 0.000572 1680.06079 1687.47681
1817.0 0.000550 1680.51831 1687.73914
1798.0 0.000556 1680.95764 1688.00842
1820.0 0.000549 1681.38440 1688.25708
1746.0 0.000573 1681.85413 1688.54517
1842.0 0.000543 1682.29126 1688.79675
1811.0 0.000552 1682.76477 1689.12500
1796.0 0.000557 1683.14246 1689.36548
1786.0 0.000560 1683.65942 1689.71228
1805.0 0.000554 1684.06812 1689.97778
1721.0 0.000581 1684.52954 1690.29419
1745.0 0.000573 1684.96411 1690.60498
1798.0 0.000556 1685.40601 1690.91223
1796.0 0.000557 1685.86694 1691.26672
1750.0 0.000571 1686.24280 1691.51636
1846.0 0.000542 1686.75037 1691.90271
1774.0 0.000564 1687.17310 1692.21191
1817.0 0.000550 1687.60095 1692.53613
1786.0 0.000560 1688.06018 1692.89990
1708.0 0.000585 1688.51428 1693.23657
1703.0 0.000587 1688.94751 1693.57373
1753.0 0.000570 1689.40674 1693.93115
1764.0 0.000567 1689.85205 1694.30005
1762.0 0.000568 1690.28125 1694.64319
1780.0 0.000562 1690.78918 1695.05872
1810.0 0.000552 1691.15576 1695.33545
1806.0 0.000554 1691.63782 1695.72192
1708.0 0.000585 1692.07031 1696.07520
1755.0 0.000570 1692.52930 1696.45361
1791.0 0.000558 1692.97266 1696.83032
1749.0 0.000572 1693.40259 1697.21265
1821.0 0.000549 1693.89465 1697.61365
1774.0 0.000564 1694.30261 1697.94666
1747.0 0.000572 1694.80835 1698.39575
1799.0 0.000556 1695.22900 1698.75159
1792.0 0.000558 1695.69714 1699.16028
1770.0 0.000565 1696.12402 1699.51990
1794.0 0.000557 1696.57971 1699.90894
1765.0 0.000567 1697.04553 1700.31995
1801.0 0.000555 1697.44275 1700.67871
1689.0 0.000592 1697.94226 1701.10962
1764.0 0.000567 1698.35327 1701.47485
1802.0 0.000555 1698.80823 1701.88013
1864.0 0.000536 1699.26135 1702.27625
1807.0 0.000553 1699.71350 1702.67383
1804.0 0.000554 1700.18054 1703.10181
1838.0 0.000544 1700.63818 1703.50549
1766.0 0.000566 1701.07373 1703.89807
1792.0 0.000558 1701.52368 1704.29175
1794.0 0.000557 1702.01147 1704.74231
1758.0 0.000569 1702.41284 1705.10193
1789.0 0.000559 1702.90735 1705.56226
1820.0 0.000549 1703.32751 1705.93201
1789.0 0.000559 1703.76392 1706.32947
1724.0 0.000580 1704.25732 1706.78662
1732.0 0.000577 1704.67847 1707.16760
1807.0 0.000553 1705.17969 1707.62830
1845.0 0.000542 1705.58948 1708.00427
1783.0 0.000561 1706.07300 1708.45386
1754.0 0.000570 1706.51978 1708.86377
1708.0 0.000585 1706.97339 1709.28125
1748.0 0.000572 1707.45752 1709.72595
1848.0 0.000541 1707.88489 1710.12341
1772.0 0.000564 1708.38025 1710.58960
1751.0 0.000571 1708.75781 1710.94116
1772.0 0.000564 1709.28430 1711.43555
1818.0 0.000550 1709.67065 1711.79810
1717.0 0.000582 1710.12988 1712.22546
1807.0 0.000553 1710.64526 1712.71545
1782.0 0.000561 1711.08069 1713.11560
1781.0 0.000561 1711.48633 1713.50439
1790.0 0.000559 1712.00830 1713.98938
1794.0 0.000557 1712.46240 1714.41028
1703.0 0.000587 1712.88574 1714.81812
1797.0 0.000556 1713.38574 1715.29956
1786.0 0.000560 1713.79309 1715.67236
1793.0 0.000558 1714.27087 1716.13171
1852.0 0.000540 1714.70117 1716.53271
1714.0 0.000583 1715.16211 1716.97095
1770.0 0.000565 1715.68250 1717.46619
1761.0 0.000568 1716.09924 1717.85046
1835.0 0.000545 1716.59412 1718.32556
1770.0 0.000565 1717.00647 1718.72656
1769.0 0.000565 1717.48657 1719.18030
1811.0 0.000552 1717.91895 1719.59644
1747.0 0.000572 1718.41589 1720.07971
1791.0 0.000558 1718.90796 1720.54895
1850.0 0.000541 1719.31921 1720.93909
1736.0 0.000576 1719.81079 1721.40942
1829.0 0.000547 1720.22388 1721.79700
1804.0 0.000554 1720.74365 1722.29358
1848.0 0.000541 1721.16162 1722.69800
1765.0 0.000567 1721.62036 1723.14099
1747.0 0.000572 1722.11218 1723.61646
1792.0 0.000558 1722.56580 1722.66565
1810.0 0.000552 1722.97607 1723.07996
1787.0 0.000560 1723.48340 1723.58948
1736.0 0.000576 1723.95825 1724.06152
1815.0 0.000551 1724.39392 1724.49731
1858.0 0.000538 1724.89465 1725.00073
1773.0 0.000564 1725.31775 1725.42114
1811.0 0.000552 1725.78650 1725.89063
1777.0 0.000563 1726.22888 1726.32776
1746.0 0.000573 1726.70398 1726.80640
1762.0 0.000568 1727.23022 1727.32275
1773.0 0.000564 1727.62610 1727.73206
1782.0 0.000561 1728.15137 1728.25452
1807.0 0.000553 1728.52698 1728.61975
1768.0 0.000566 1729.05530 1729.15320
1779.0 0.000562 1729.46179 1729.55652
1829.0 0.000547 1729.97742 1730.07336
1793.0 0.000558 1730.45654 1730.54700
1812.0 0.000552 1730.90356 1730.99097
1820.0 0.000549 1731.38562 1731.47864
1737.0 0.000576 1731.79395 1731.88928
1821.0 0.000549 1732.31116 1732.40198
1851.0 0.000540 1732.75671 1732.84583
1827.0 0.000547 1733.20325 1733.28979
1891.0 0.000529 1733.72693 1733.80212
1816.0 0.000551 1734.15308 1734.24133
1784.0 0.000561 1734.59351 1734.66895
1825.0 0.000548 1735.09692 1735.17712
1753.0 0.000570 1735.57751 1735.66638
1830.0 0.000546 1735.99402 1736.07996
1809.0 0.000553 1736.51721 1736.58887
1805.0 0.000554 1736.92322 1737.01245
1858.0 0.000538 1737.42188 1737.50122
1829.0 0.000547 1737.87122 1737.94714
1893.0 0.000528 1738.32898 1738.40283
1758.0 0.000569 1738.85803 1738.94556
1785.0 0.000560 1739.28967 1739.36584
1760.0 0.000568 1739.78687 1739.86072
1789.0 0.000559 1740.20496 1740.27637
1831.0 0.000546 1740.72693 1740.80371
1799.0 0.000556 1741.13892 1741.21326
1751.0 0.000571 1741.65601 1741.72839
1717.0 0.000582 1742.15454 1742.23145
1773.0 0.000564 1742.57813 1742.65210
1805.0 0.000554 1743.08997 1743.16248
1750.0 0.000571 1743.50281 1743.56470
1826.0 0.000548 1744.01306 1744.07996
1813.0 0.000552 1744.42908 1744.49353
1735.0 0.000576 1744.93616 1744.99878
1805.0 0.000554 1745.42798 1745.48828
1725.0 0.000580 1745.88464 1745.95776
1762.0 0.000568 1746.33569 1746.39087
1804.0 0.000554 1746.80920 1746.87720
1803.0 0.000555 1747.29370 1747.36719
1776.0 0.000563 1747.74731 1747.81018
1879.0 0.000532 1748.27356 1748.32678
1825.0 0.000548 1748.67078 1748.72522
1808.0 0.000553 1749.16187 1749.21399
1758.0 0.000569 1749.61426 1749.66809
1847.0 0.000541 1750.09741 1750.15637
1782.0 0.000561 1750.61304 1750.66528
1848.0 0.000541 1751.02917 1751.08704
1888.0 0.000530 1751.57361 1751.62439
1801.0 0.000555 1751.97046 1752.02832
1759.0 0.000569 1752.48621 1752.53308
1818.0 0.000550 1752.91846 1752.95825
1867.0 0.000536 1753.44348 1753.50061
1790.0 0.000559 1753.92102 1753.96436
1805.0 0.000554 1754.35962 1754.40076
1791.0 0.000558 1754.87988 1754.93005
1886.0 0.000530 1755.28052 1755.32080
1852.0 0.000540 1755.79504 1755.84448
1776.0 0.000563 1756.24475 1756.28857
1767.0 0.000566 1756.73389 1756.77808
1839.0 0.000544 1757.24121 1757.27551
1813.0 0.000552 1757.67297 1757.71301
1828.0 0.000547 1758.13196 1758.16931
1844.0 0.000542 1758.64868 1758.68457
1824.0 0.000548 1759.10938 1759.15051
1816.0 0.000551 1759.54688 1759.58398
1830.0 0.000546 1760.07837 1760.11792
1791.0 0.000558 1760.48694 1760.52051
1795.0 0.000557 1761.02979 1761.05359
1805.0 0.000554 1761.44360 1761.47168
1775.0 0.000563 1761.96448 1761.99109
1750.0 0.000571 1762.48401 1762.50720
1852.0 0.000540 1762.88013 1762.90906
1797.0 0.000556 1763.42480 1763.45276
1798.0 0.000556 1763.83740 1763.86975
1747.0 0.000572 1764.34229 1764.36438
1791.0 0.000558 1764.78040 1764.80835
1764.0 0.000567 1765.30310 1765.33606
1839.0 0.000544 1765.80652 1765.83118
1760.0 0.000568 1766.23730 1766.25757
1818.0 0.000550 1766.77393 1766.79724
1775.0 0.000563 1767.15759 1767.17798
1814.0 0.000551 1767.70081 1767.73352
1859.0 0.000538 1768.14111 1768.16467
1787.0 0.000560 1768.62695 1768.63989
1804.0 0.000554 1769.15686 1769.17957
1833.0 0.000546 1769.56958 1769.59448
1803.0 0.000555 1770.03760 1770.05676
1786.0 0.000560 1770.55994 1770.58398
1794.0 0.000557 1771.02905 1771.04602
1825.0 0.000548 1771.48889 1771.50452
1822.0 0.000549 1772.01331 1772.02576
1831.0 0.000546 1772.42017 1772.43860
1803.0 0.000555 1772.93774 1772.94666
1875.0 0.000533 1773.37634 1773.39075
1858.0 0.000538 1773.88684 1773.88928
1778.0 0.000562 1774.39038 1774.40674
1793.0 0.000558 1774.83484 1774.84753
1865.0 0.000536 1775.37512 1775.37830
1870.0 0.000535 1775.75928 1775.76953
1902.0 0.000526 1776.30457 1776.30811
1749.0 0.000572 1776.73047 1776.74268
1793.0 0.000558 1777.24780 1777.25696
1873.0 0.000534 1777.74927 1777.75427
1856.0 0.000539 1778.19141 1778.19580
1785.0 0.000560 1778.70239 1778.70361
1834.0 0.000545 1779.12756 1779.12671
1763.0 0.000567 1779.63477 1779.63074
1836.0 0.000545 1780.10229 1780.11230
1850.0 0.000541 1780.57520 1780.58130
1831.0 0.000546 1781.13660 1781.13318
1775.0 0.000563 1781.57239 1781.57568
1817.0 0.000550 1781.99097 1781.99475
1784.0 0.000561 1782.53552 1782.53235
1761.0 0.000568 1783.03430 1783.02710
1812.0 0.000552 1783.47339 1783.48022
1795.0 0.000557 1783.99731 1783.98560
1847.0 0.000541 1784.41882 1784.40515
1832.0 0.000546 1784.93103 1784.92310
1772.0 0.000564 1785.38696 1785.37366
1725.0 0.000580 1785.86499 1785.85950
1813.0 0.000552 1786.41174 1786.40283
1790.0 0.000559 1786.83337 1786.82007
1795.0 0.000557 1787.36536 1787.35059
1742.0 0.000574 1787.78552 1787.77759
1827.0 0.000547 1788.31934 1788.30811
1814.0 0.000551 1788.73389 1788.72070
1795.0 0.000557 1789.28613 1789.27014
1833.0 0.000546 1789.76160 1789.81689
1765.0 0.000567 1790.21167 1790.25635
1831.0 0.000546 1790.73828 1790.78394
1845.0 0.000542 1791.16479 1791.21619
1820.0 0.000549 1791.69275 1791.74280
1800.0 0.000556 1792.13464 1792.18408
1880.0 0.000532 1792.62378 1792.67493
1817.0 0.000550 1793.15356 1793.20935
1847.0 0.000541 1793.62695 1793.68103
1829.0 0.000547 1794.07593 1794.13745
1841.0 0.000543 1794.59546 1794.65723
1832.0 0.000546 1795.06860 1795.12244
1799.0 0.000556 1795.51196 1795.56628
1875.0 0.000533 1796.04785 1796.10010
1828.0 0.000547 1796.48120 1796.54248
1875.0 0.000533 1796.98425 1797.05212
1828.0 0.000547 1797.43054 1797.49316
1857.0 0.000539 1797.93103 1797.99255
1822.0 0.000549 1798.47766 1798.54761
1856.0 0.000539 1798.91931 1798.98804
1840.0 0.000543 1799.43750 1799.51477
1826.0 0.000548 1799.85242 1799.92102
1790.0 0.000559 1800.39148 1800.47839
1764.0 0.000567 1800.82922 1800.91504
1819.0 0.000550 1801.36108 1801.44885
1820.0 0.000549 1801.86169 1801.95154
1752.0 0.000571 1802.31433 1802.39880
1800.0 0.000556 1802.83557 1802.92957
1737.0 0.000576 1803.22986 1803.33228
1733.0 0.000577 1803.77246 1803.87695
1851.0 0.000540 1804.24561 1804.35339
1835.0 0.000545 1804.72253 1804.83167
1810.0 0.000552 1805.26819 1805.37732
1774.0 0.000564 1805.69849 1805.81372
1842.0 0.000543 1806.16138 1806.27893
1784.0 0.000561 1806.69165 1806.81274
1828.0 0.000547 1807.16064 1807.30151
1817.0 0.000550 1807.62610 1807.76355
1792.0 0.000558 1808.16870 1808.31787
1835.0 0.000545 1808.59436 1808.75085
1856.0 0.000539 1809.10779 1809.26111
1774.0 0.000564 1809.56055 1809.72913
1810.0 0.000552 1810.08020 1810.25464
1779.0 0.000562 1810.61230 1810.79419
1766.0 0.000566 1811.03455 1811.22937
1852.0 0.000540 1811.56848 1811.77405
1852.0 0.000540 1811.97180 1812.19287
1803.0 0.000555 1812.47620 1812.71057
1836.0 0.000545 1812.96533 1813.20703
1741.0 0.000574 1813.47485 1813.72986
1818.0 0.000550 1813.99048 1814.26685
1836.0 0.000545 1814.43774 1814.72021
1746.0 0.000573 1814.94104 1815.25415
1805.0 0.000554 1815.37341 1815.70496
1871.0 0.000534 1815.88867 1816.23267
1761.0 0.000568 1816.38074 1816.75159
1843.0 0.000543 1816.88757 1817.28247
1835.0 0.000545 1817.37903 1817.79822
1812.0 0.000552 1817.84167 1818.28857
1907.0 0.000524 1818.30164 1818.78064
1840.0 0.000543 1818.81128 1819.33130
1771.0 0.000565 1819.28284 1819.84009
1847.0 0.000541 1819.77905 1820.37939
1810.0 0.000552 1820.32410 1820.96423
1854.0 0.000539 1820.72937 1821.43164
1880.0 0.000532 1821.24976 1822.00940
1822.0 0.000549 1821.68811 1822.54492
1848.0 0.000541 1822.21204 1823.17810
1822.0 0.000549 1822.73315 1823.82190
1848.0 0.000541 1823.19507 1824.46326
1872.0 0.000534 1823.72180 1825.24695
1856.0 0.000539 1824.11023 1825.99390
1852.0 0.000540 1824.64551 1827.01831
1864.0 0.000536 1825.10657 1828.19580
1893.0 0.000528 1825.61780 1829.69055
1821.0 0.000549 1826.15088 1831.59900
1853.0 0.000540 1826.58325 1833.89026
1823.0 0.000549 1827.13525 1836.88599
1888.0 0.000530 1827.54053 1840.47266
1878.0 0.000532 1828.04297 1844.98267
1875.0 0.000533 1828.55273 1850.42041
1818.0 0.000550 1829.03992 1856.79663
1829.0 0.000547 1829.55273 1864.12207
1799.0 0.000556 1830.01392 1872.18579
1874.0 0.000534 1830.45789 1880.81604
1850.0 0.000541 1830.96912 1889.71814
1897.0 0.000527 1831.47449 1898.38867
1827.0 0.000547 1831.94470 1906.29993
1903.0 0.000525 1832.49390 1913.04407
1861.0 0.000537 1832.90723 1917.80359
1846.0 0.000542 1833.43188 1920.35205
1857.0 0.000539 1833.87488 1920.15942
1871.0 0.000534 1834.38367 1917.34534
1912.0 0.000523 1834.91650 1912.15271
1857.0 0.000539 1835.39795 1905.07788
1894.0 0.000528 1835.88916 1896.84753
1849.0 0.000541 1836.31128 1888.07898
1860.0 0.000538 1836.83020 1879.52332
1855.0 0.000539 1837.27063 1871.52393
1882.0 0.000531 1837.80408 1864.56970
1840.0 0.000543 1838.32861 1858.72937
1804.0 0.000554 1838.78491 1853.99731
1885.0 0.000531 1839.29492 1850.45068
1860.0 0.000538 1839.72766 1847.79968
1867.0 0.000536 1840.23364 1846.06177
1811.0 0.000552 1840.73865 1844.95740
1836.0 0.000545 1841.22998 1844.33777
1818.0 0.000550 1841.73694 1844.08630
1849.0 0.000541 1842.19165 1844.03528
1882.0 0.000531 1842.63013 1844.12524
1809.0 0.000553 1843.16443 1844.41663
1845.0 0.000542 1843.65430 1844.73865
1854.0 0.000539 1844.14221 1845.09546
1820.0 0.000549 1844.66431 1845.51416
1820.0 0.000549 1845.08191 1845.85571
1882.0 0.000531 1845.59924 1846.30261
1872.0 0.000534 1846.04663 1846.68591
1843.0 0.000543 1846.58191 1847.16431
1835.0 0.000545 1847.10168 1847.64075
1850.0 0.000541 1847.56885 1848.05359
1813.0 0.000552 1848.06714 1848.52527
1870.0 0.000535 1848.49377 1848.91516
1841.0 0.000543 1849.00342 1849.39880
1870.0 0.000535 1849.46045 1849.81445
1851.0 0.000540 1849.98145 1850.29919
1845.0 0.000542 1850.52051 1850.82104
1800.0 0.000556 1850.97571 1851.24915
1808.0 0.000553 1851.48535 1851.73523
1862.0 0.000537 1851.91711 1852.15222
1850.0 0.000541 1852.42529 1852.64185
1863.0 0.000537 1852.92566 1853.13013
1831.0 0.000546 1853.40039 1853.58606
1914.0 0.000522 1853.93469 1854.10156
1834.0 0.000545 1854.36902 1854.52991
1881.0 0.000532 1854.83704 1854.97339
1923.0 0.000520 1855.33105 1855.45911
1895.0 0.000528 1855.83167 1855.94238
1926.0 0.000519 1856.32935 1856.43140
1848.0 0.000541 1856.83899 1856.92334
1902.0 0.000526 1857.26257 1857.34314
1911.0 0.000523 1857.78369 1857.85938
1868.0 0.000535 1858.24194 1858.31506
1816.0 0.000551 1858.73389 1858.79028
1865.0 0.000536 1859.28223 1859.32813
1870.0 0.000535 1859.73059 1859.77454
1840.0 0.000543 1860.26111 1860.28650
1900.0 0.000526 1860.66675 1860.69263
1838.0 0.000544 1861.17322 1861.19690
1876.0 0.000533 1861.63855 1861.65564
1906.0 0.000525 1862.16638 1862.17590
1859.0 0.000538 1862.68591 1862.68848
1892.0 0.000529 1863.14331 1863.13806
1883.0 0.000531 1863.66052 1863.64758
1828.0 0.000547 1864.08459 1864.06531
1822.0 0.000549 1864.60156 1864.57507
1847.0 0.000541 1865.08667 1865.06287
1887.0 0.000530 1865.57739 1865.54468
1895.0 0.000528 1866.10925 1866.07019
1894.0 0.000528 1866.56714 1866.52344
1866.0 0.000536 1867.00427 1866.96399
1836.0 0.000545 1867.52075 1867.47449
1874.0 0.000534 1867.98877 1867.94409
1863.0 0.000537 1868.50317 1868.44312
1904.0 0.000525 1869.01599 1868.95581
1866.0 0.000536 1869.44604 1869.37732
1844.0 0.000542 1869.95959 1869.90002
1902.0 0.000526 1870.39453 1870.33069
1846.0 0.000542 1870.92761 1870.85535
1889.0 0.000529 1871.45593 1871.37366
1900.0 0.000526 1871.90466 1871.82605
1854.0 0.000539 1872.41370 1872.34668
1890.0 0.000529 1872.83362 1872.74695
1893.0 0.000528 1873.32959 1873.25073
1842.0 0.000543 1873.81616 1873.72778
1853.0 0.000540 1874.31421 1874.22021
1798.0 0.000556 1874.83447 1890.32214
1816.0 0.000551 1875.27856 1891.03796
1870.0 0.000535 1875.82275 1891.86475
1904.0 0.000525 1876.23572 1892.56616
1910.0 0.000524 1876.75415 1893.39282
1844.0 0.000542 1877.24548 1894.19006
1788.0 0.000559 1877.72168 1894.90930
1891.0 0.000529 1878.23645 1895.76379
1832.0 0.000546 1878.71875 1896.57202
1855.0 0.000539 1879.14746 1897.34204
1807.0 0.000553 1879.66223 1898.22510
1860.0 0.000538 1880.12976 1899.05847
1821.0 0.000549 1880.64746 1899.95898
1853.0 0.000540 1881.15979 1900.85974
1863.0 0.000537 1881.55811 1901.65137
1825.0 0.000548 1882.08606 1902.59448
1826.0 0.000548 1882.54541 1903.48608
1881.0 0.000532 1883.07703 1904.45129
1869.0 0.000535 1883.57251 1905.40125
1858.0 0.000538 1884.05017 1906.34692
1906.0 0.000525 1884.54858 1907.32935
1899.0 0.000527 1884.97803 1908.26074
1966.0 0.000509 1885.45850 1909.25159
1917.0 0.000522 1885.93274 1910.26318
1888.0 0.000530 1886.44446 1911.32068
1817.0 0.000550 1886.96716 1912.41467
1821.0 0.000549 1887.41211 1921.22717
1900.0 0.000526 1887.93152 1922.48523
1913.0 0.000523 1888.36121 1923.65381
1926.0 0.000519 1888.85315 1924.92383
1896.0 0.000527 1889.35840 1926.22607
1825.0 0.000548 1889.84814 1927.53894
1902.0 0.000526 1890.34875 1928.89307
1933.0 0.000517 1890.80969 1930.23645
1845.0 0.000542 1891.26855 1931.61267
1825.0 0.000548 1891.77429 1933.06543
1902.0 0.000526 1892.25232 1934.53931
1888.0 0.000530 1892.73743 1936.04297
1883.0 0.000531 1893.24316 1937.61975
1947.0 0.000514 1893.66528 1939.13086
1909.0 0.000524 1894.18225 1940.80505
1979.0 0.000505 1894.64160 1942.44885
1989.0 0.000503 1895.14343 1944.18384
1882.0 0.000531 1895.66223 1945.98767
1894.0 0.000528 1896.11157 1947.78845
1934.0 0.000517 1896.62878 1949.70007
1895.0 0.000528 1897.05530 1951.57153
1922.0 0.000520 1897.56775 1953.60107
1921.0 0.000521 1898.00037 1955.61597
1938.0 0.000516 1898.52051 1957.79358
1938.0 0.000516 1899.03198 1960.02234
1889.0 0.000529 1899.47009 1962.28394
1959.0 0.000510 1900.00000 1964.69031
1907.0 0.000524 1900.42053 1967.08289
1950.0 0.000513 1900.93726 1969.68030
1900.0 0.000526 1901.42053 1972.34692
1956.0 0.000511 1901.89136 1975.10229
1971.0 0.000507 1902.40845 1978.02173
1890.0 0.000529 1902.85315 1981.00598
1875.0 0.000533 1903.32129 1984.12268
1856.0 0.000539 1903.79248 1987.39575
1829.0 0.000547 1904.28418 1990.84839
1978.0 0.000506 1904.77673 1994.45703
1964.0 0.000509 1905.28467 1998.26489
1988.0 0.000503 1905.69482 2002.16064
1947.0 0.000514 1906.21069 2006.36316
1943.0 0.000515 1906.63745 2010.72778
2056.0 0.000486 1907.18604 2015.43347
1954.0 0.000512 1907.66101 2020.34485
1924.0 0.000520 1908.12781 2025.53149
1915.0 0.000522 1908.65002 2031.07312
1995.0 0.000501 1909.05640 2036.85449
1992.0 0.000502 1909.56152 2043.09509
1948.0 0.000513 1910.03027 2049.72021
2072.0 0.000483 1910.51782 2056.82007
1993.0 0.000502 1911.05396 2064.45874
1982.0 0.000505 1911.48303 2072.54004
2004.0 0.000499 1912.00903 2081.32397
2068.0 0.000484 1912.40515 2090.65063
1993.0 0.000502 1912.92664 2100.86255
2050.0 0.000488 1913.41211 2111.86328
2008.0 0.000498 1913.88525 2123.79883
2085.0 0.000480 1914.38892 2136.81641
2037.0 0.000491 1914.83948 2150.97437
2028.0 0.000493 1915.27209 2166.50317
2132.0 0.000469 1915.79956 2183.71094
2051.0 0.000488 1916.25574 2202.74219
2138.0 0.000468 1916.73462 2224.07715
2188.0 0.000457 1917.25476 2248.35913
2245.0 0.000445 1917.65515 2276.36768
2319.0 0.000431 1918.16309 2309.76489
2422.0 0.000413 1918.61340 2364.19629
2428.0 0.000412 1919.14771 2416.59424
2632.0 0.000380 1919.63745 2485.46826
2779.0 0.000360 1920.08325 2578.80444
3004.0 0.0003329 1920.59265 2708.22510
3246.0 0.0003081 1921.02295 2889.51392
3709.0 0.0002696 1921.48730 3144.10059
3965.0 0.0002522 1921.95117 3499.15845
4532.0 0.0002207 1922.44983 3987.94800
5248.0 0.0001905 1922.97742 4648.82275
5943.0 0.0001683 1923.41711 5523.07275
6785.0 0.0001474 1923.91492 6651.68701
8261.0 0.0001211 1924.32629 8069.29980
9604.0 0.0001041 1924.83679 9797.69922
11275.0 0.0000887 1925.32617 11836.61133
13102.0 0.0000763 1925.78418 14155.35254
15367.0 0.0000651 1926.29480 16686.05859
18217.0 0.0000549 1926.74536 19321.69727
20860.0 0.0000479 1927.16748 21921.97070
23628.0 0.0000423 1927.66467 24323.48633
26135.0 0.0000383 1928.14038 26349.32617
27895.0 0.0000358 1928.63647 27819.10156
29016.0 0.00003446 1929.13696 28568.62109
29180.0 0.00003427 1929.53809 28486.47266
28481.0 0.0000351 1930.04468 27554.21875
26709.0 0.0000374 1930.49927 25860.73242
23879.0 0.0000419 1930.98450 23580.62109
21190.0 0.0000472 1931.49072 20930.34961
18176.0 0.0000550 1931.95349 18127.15039
15387.0 0.0000650 1932.44617 15361.42285
12488.0 0.0000801 1932.85681 12781.82129
10214.0 0.0000979 1933.33899 10490.25391
7999.0 0.0001250 1933.79224 8542.03516
6173.0 0.0001620 1934.28296 6951.77783
4966.0 0.0002014 1934.80615 5702.20068
3992.0 0.0002505 1935.24390 4754.45117
3339.0 0.0002995 1935.73083 4058.91235
2953.0 0.0003386 1936.13489 3563.11084
2652.0 0.000377 1936.64478 3218.59741
2451.0 0.000408 1937.13354 2983.75146
2373.0 0.000421 1937.59009 2825.68726
2221.0 0.000450 1938.08887 2720.69800
2278.0 0.000439 1938.53821 2649.61597
2242.0 0.000446 1938.97400 2601.53931
2296.0 0.000436 1939.45679 2568.92407
2230.0 0.000448 1939.92188 2547.01685
2268.0 0.000441 1940.40686 2533.08643
2326.0 0.000430 1940.92419 2525.66455
2281.0 0.000438 1941.30945 2523.95947
2319.0 0.000431 1941.80420 2528.28174
2320.0 0.000431 1942.24792 2539.18872
2412.0 0.000415 1942.74634 2558.21753
2522.0 0.000397 1943.24780 2587.79419
2604.0 0.000384 1943.67126 2631.67358
2690.0 0.000372 1944.18079 2695.59082
2833.0 0.000353 1944.58362 2787.29370
3106.0 0.0003220 1945.07007 2917.73560
3352.0 0.0002983 1945.52380 3100.77246
3711.0 0.0002695 1946.01257 3353.83618
4031.0 0.0002481 1946.52991 3697.48242
4492.0 0.0002226 1946.94922 4154.37891
4963.0 0.0002015 1947.45337 4748.14258
5852.0 0.0001709 1947.84399 5500.01807
6689.0 0.0001495 1948.33557 6426.09180
7566.0 0.0001322 1948.81067 7532.23730
8608.0 0.0001162 1949.29065 8809.63184
9559.0 0.0001046 1949.75708 10230.32031
11112.0 0.0000900 1950.20874 11744.86719
12586.0 0.0000795 1950.63379 13283.54395
13905.0 0.0000719 1951.13269 14761.63770
14977.0 0.0000668 1951.58521 16085.61035
16248.0 0.0000615 1952.08923 17158.83594
16826.0 0.0000594 1952.57324 17888.85742
17500.0 0.0000571 1952.94934 18203.83594
17475.0 0.0000572 1953.45276 18077.89648
16861.0 0.0000593 1953.89185 17549.65820
16177.0 0.0000618 1954.38281 16721.38086
15325.0 0.0000653 1954.86731 15736.54980
14782.0 0.0000676 1955.31921 14751.79980
13639.0 0.0000733 1955.81262 13913.87891
13141.0 0.0000761 1956.19006 13343.91309
12853.0 0.0000778 1956.66638 13127.97266
12725.0 0.0000786 1957.10962 13309.20703
13360.0 0.0000749 1957.60547 13883.87109
14358.0 0.0000696 1958.11963 14799.85547
15340.0 0.0000652 1958.53564 15960.88965
16643.0 0.0000601 1959.03088 17236.87305
18199.0 0.0000549 1959.40918 18476.77930
19302.0 0.0000518 1959.90002 19522.28906
20198.0 0.0000495 1960.37134 20219.91602
20470.0 0.0000489 1960.85706 20440.76367
20287.0 0.0000493 1961.33496 20107.87109
19472.0 0.0000514 1961.74841 19219.73438
17945.0 0.0000557 1962.18274 17851.99609
16034.0 0.0000624 1962.66785 16134.69727
13976.0 0.0000716 1963.15710 14220.06836
11878.0 0.0000842 1963.58081 12255.33496
9855.0 0.0001015 1964.06055 10365.56445
8151.0 0.0001227 1964.53247 8644.08301
6653.0 0.0001503 1964.97424 7149.72070
5384.0 0.0001857 1965.38428 5908.48730
4422.0 0.0002261 1965.87292 4918.90088
3654.0 0.0002737 1966.36047 4159.27539
3192.0 0.0003133 1966.78162 3595.97925
2844.0 0.000352 1967.20935 3190.88721
2490.0 0.000402 1967.73071 2906.92798
2368.0 0.000422 1968.15381 2711.21899
2298.0 0.000435 1968.57971 2577.40259
2308.0 0.000433 1969.05103 2485.44067
2332.0 0.000429 1969.55408 2420.94946
2103.0 0.000476 1969.96094 2374.04248
2113.0 0.000473 1970.39307 2338.44580
2127.0 0.000470 1970.88354 2310.22510
2162.0 0.000463 1971.33032 2286.83765
2136.0 0.000468 1971.75208 2266.82910
2102.0 0.000476 1972.23560 2249.39966
2085.0 0.000480 1972.73608 2233.96729
2061.0 0.000485 1973.13757 2220.06616
2017.0 0.000496 1973.58105 2207.57373
1963.0 0.000509 1974.05334 2196.32837
2074.0 0.000482 1974.54700 2186.15869
2054.0 0.000487 1974.96631 2176.85913
2042.0 0.000490 1975.39990 2168.42651
1990.0 0.000503 1975.89978 2160.83545
1983.0 0.000504 1976.32019 2153.87305
1982.0 0.000505 1976.72620 2147.54980
2029.0 0.000493 1977.22021 2141.91333
2096.0 0.000477 1977.69104 2136.83179
2038.0 0.000491 1978.10437 2132.22656
1999.0 0.000500 1978.52698 2128.17139
2045.0 0.000489 1979.03882 2124.73584
1975.0 0.000506 1979.46155 2121.78979
2018.0 0.000496 1979.88257 2119.45117
2018.0 0.000496 1980.34167 2117.94067
2046.0 0.000489 1980.82446 2117.38770
2049.0 0.000488 1981.24622 2118.06201
2047.0 0.000489 1981.66821 2105.08740
2007.0 0.000498 1982.15845 2110.26929
2035.0 0.000491 1982.58191 2118.71802
2082.0 0.000480 1983.01965 2131.73486
2169.0 0.000461 1983.49524 2150.87476
2213.0 0.000452 1983.97070 2177.86060
2202.0 0.000454 1984.36267 2214.61328
2276.0 0.000439 1984.79517 2263.19458
2306.0 0.000434 1985.27319 2325.38965
2399.0 0.000417 1985.74841 2402.32397
2529.0 0.000395 1986.15051 2494.14331
2694.0 0.000371 1986.59070 2599.73218
2855.0 0.0003503 1987.07715 2716.15039
2968.0 0.0003369 1987.48193 2838.40283
3003.0 0.0003330 1987.89917 2959.97437
3129.0 0.0003196 1988.37366 3073.04321
3294.0 0.0003036 1988.85779 3169.05762
3416.0 0.0002927 1989.25684 3239.30542
3392.0 0.0002948 1989.66858 3275.99902
3370.0 0.0002967 1990.17444 3273.74976
3394.0 0.0002946 1990.58276 3231.29590
3243.0 0.0003084 1990.99414 3152.82617
3070.0 0.0003257 1991.46899 3046.64917
2972.0 0.0003365 1991.96021 2923.03979
2849.0 0.000351 1992.35229 2792.07666
2659.0 0.000376 1992.75464 2662.76172
2491.0 0.000401 1993.23828 2542.04639
2414.0 0.000414 1993.68018 2434.52710
2307.0 0.000433 1994.07117 2342.72217
2147.0 0.000466 1994.54810 2267.46948
2168.0 0.000461 1995.01428 2207.92896
2063.0 0.000485 1995.40991 2162.31030
2039.0 0.000490 1995.83252 2128.42188
2052.0 0.000487 1996.27649 2103.89648
2007.0 0.000498 1996.77649 2086.51855
1924.0 0.000520 1997.15942 2074.21753
1990.0 0.000503 1997.60046 2065.60205
1994.0 0.000502 1998.08521 2059.53418
2054.0 0.000487 1998.48816 2055.05615
2091.0 0.000478 1998.86560 2051.65527
1939.0 0.000516 1999.37097 2049.09155
1917.0 0.000522 1999.83423 2046.99854
2012.0 0.000497 2000.22791 2045.18433
1972.0 0.000507 2000.61182 2043.60803
1947.0 0.000514 2001.13623 2042.35217
1929.0 0.000518 2001.51501 2041.11951
1949.0 0.000513 2001.93457 2040.05688
2004.0 0.000499 2002.37756 2039.12183
1958.0 0.000511 2002.86072 2038.32788
1954.0 0.000512 2003.26465 2037.54846
1930.0 0.000518 2003.66040 2036.84448
1943.0 0.000515 2004.12671 2036.25488
1902.0 0.000526 2004.54333 2035.70691
1904.0 0.000525 2004.93933 2035.17981
1952.0 0.000512 2005.42065 2034.79456
1915.0 0.000522 2005.88147 2034.43713
1923.0 0.000520 2006.26770 2034.02942
1942.0 0.000515 2006.66785 2033.71228
1916.0 0.000522 2007.12000 2033.44775
1923.0 0.000520 2007.57690 2033.23755
1969.0 0.000508 2007.97876 2033.00574
1960.0 0.000510 2008.38586 2032.80627
1977.0 0.000506 2008.87048 2032.71484
1905.0 0.000525 2009.25464 2032.53125
1931.0 0.000518 2009.66406 2032.41638
1939.0 0.000516 2010.10364 2032.34326
1882.0 0.000531 2010.58118 2032.32056
1918.0 0.000521 2010.96033 2032.22571
1955.0 0.000512 2011.36389 2032.16663
2054.0 0.000487 2011.85608 2032.24048
1947.0 0.000514 2012.24487 2032.19324
1996.0 0.000501 2012.65259 2032.19580
2060.0 0.000485 2013.08191 2032.24463
1923.0 0.000520 2013.55823 2032.33728
2043.0 0.000489 2013.95288 2032.36621
1910.0 0.000524 2014.31726 2017.20178
1942.0 0.000515 2014.79712 2017.56677
1991.0 0.000502 2015.20642 2017.87085
2034.0 0.000492 2015.59009 2018.14563
2000.0 0.000500 2016.05066 2018.51709
1860.0 0.000538 2016.48840 2018.86902
1913.0 0.000523 2016.89990 2019.18115
1910.0 0.000524 2017.28674 2019.48560
1938.0 0.000516 2017.71423 2019.83533
1952.0 0.000512 2018.18103 2020.23145
1958.0 0.000511 2018.56323 2020.53735
1976.0 0.000506 2018.98022 2020.88220
1977.0 0.000506 2019.45776 2021.29846
1900.0 0.000526 2019.81482 2021.59473
1933.0 0.000517 2020.22192 2021.93237
1969.0 0.000508 2020.66418 2022.31262
1952.0 0.000512 2021.12427 2022.72192
2028.0 0.000493 2021.48755 2023.02698
1957.0 0.000511 2021.88049 2023.38062
1956.0 0.000511 2022.34851 2023.78809
1964.0 0.000509 2022.72607 2024.11560
1960.0 0.000510 2023.12927 2024.46960
1955.0 0.000512 2023.55566 2024.85754
1973.0 0.000507 2024.01697 2025.28003
1958.0 0.000511 2024.41174 2025.63220
2061.0 0.000485 2024.77222 2025.95557
2023.0 0.000494 2025.23425 2026.37537
1918.0 0.000521 2025.62012 2026.72229
1978.0 0.000506 2026.02148 2027.08472
1995.0 0.000501 2026.48608 2027.50562
1961.0 0.000510 2026.87756 2027.87708
1953.0 0.000512 2027.29407 2028.27173
2012.0 0.000497 2027.63843 2028.58411
1989.0 0.000503 2028.08691 2028.99951
1967.0 0.000508 2028.54858 2029.41272
1981.0 0.000505 2028.91711 2029.76782
1980.0 0.000505 2029.33142 2030.15845
1932.0 0.000518 2029.76416 2030.56055
1948.0 0.000513 2030.14270 2030.91040
1988.0 0.000503 2030.51721 2031.25830
1964.0 0.000509 2030.97803 2031.68591
2044.0 0.000489 2031.40515 2032.09570
1976.0 0.000506 2031.77625 2032.44800
1941.0 0.000515 2032.15125 2032.80469
1888.0 0.000530 2032.62476 2033.24622
1971.0 0.000507 2032.99438 2035.18567
1935.0 0.000517 2033.36328 2035.57727
1946.0 0.000514 2033.80469 2036.01819
2014.0 0.000497 2034.22363 2036.45422
1984.0 0.000504 2034.59839 2036.84570
1987.0 0.000503 2034.99829 2037.25574
1952.0 0.000512 2035.42761 2037.69751
1979.0 0.000505 2035.81860 2038.11206
1874.0 0.000534 2036.17590 2038.48303
1977.0 0.000506 2036.61292 2038.93738
2017.0 0.000496 2037.04211 2039.39087
1942.0 0.000515 2037.41638 2039.77783
1980.0 0.000505 2037.79419 2039.37170
1985.0 0.000504 2038.20020 2039.80774
1941.0 0.000515 2038.66833 2040.31311
1958.0 0.000511 2039.02295 2040.71594
1970.0 0.000508 2039.39526 2041.12219
1983.0 0.000504 2039.84180 2041.62610
2026.0 0.000494 2040.21204 2042.04016
1968.0 0.000508 2040.56738 2042.43994
1919.0 0.000521 2041.01306 2042.93250
1918.0 0.000521 2041.43835 2043.40515
1958.0 0.000511 2041.79407 2043.81824
1963.0 0.000509 2042.14795 2044.21948
1907.0 0.000524 2042.61304 2044.73608
1945.0 0.000514 2042.98450 2045.16907
2003.0 0.000499 2043.33545 2045.57983
1962.0 0.000510 2043.75977 2046.06311
1941.0 0.000515 2044.18164 2046.55627
2027.0 0.000493 2044.54004 2046.97668
1925.0 0.000519 2044.90820 2047.41174
1947.0 0.000514 2045.33923 2047.91943
2010.0 0.000498 2045.73425 2048.38672
2138.0 0.000468 2046.08923 2048.82373
1941.0 0.000515 2046.51270 2049.33252
1992.0 0.000502 2046.93188 2049.82568
1981.0 0.000505 2047.27466 2050.26929
1992.0 0.000502 2047.66199 2050.73389
1924.0 0.000520 2048.06079 2051.20923
1924.0 0.000520 2048.46460 2051.73730
1942.0 0.000515 2048.81860 2052.17480
1909.0 0.000524 2049.22290 2052.69849
1946.0 0.000514 2049.65283 2053.21973
1953.0 0.000512 2049.98975 2053.68457
1913.0 0.000523 2050.35913 2054.17310
1959.0 0.000510 2050.77954 2054.72144
2075.0 0.000482 2051.17456 2055.23901
2016.0 0.000496 2051.53638 2055.73364
2054.0 0.000487 2051.89404 2056.22925
2088.0 0.000479 2052.34204 2056.82764
2002.0 0.000500 2052.67041 2057.31372
2018.0 0.000496 2053.03809 2057.85425
2085.0 0.000480 2053.43799 2058.40601
2105.0 0.000475 2053.86719 2059.02100
2169.0 0.000461 2054.20825 2059.55176
2232.0 0.000448 2054.53711 2060.09106
2250.0 0.000444 2054.98657 2060.74170
2128.0 0.000470 2055.34375 2061.32544
2188.0 0.000457 2055.70508 2061.91528
2215.0 0.000451 2056.13330 2062.58057
2238.0 0.000447 2056.52466 2063.23633
2186.0 0.000457 2056.86304 2063.84888
2201.0 0.000454 2057.19434 2064.47437
2209.0 0.000453 2057.61279 2065.19873
2143.0 0.000467 2058.02637 2065.93774
2154.0 0.000464 2058.41113 2066.65869
2038.0 0.000491 2058.73779 2067.36938
2046.0 0.000489 2059.13770 2068.16650
2022.0 0.000495 2059.51660 2068.94580
2025.0 0.000494 2059.83228 2069.71094
2062.0 0.000485 2060.24512 2070.60645
2070.0 0.000483 2060.66309 2071.53296
2036.0 0.000491 2060.96606 2072.38159
2040.0 0.000490 2061.28735 2073.28882
1967.0 0.000508 2061.77637 2074.40747
1985.0 0.000504 2062.09399 2075.41553
1977.0 0.000506 2062.38721 2076.43945
1971.0 0.000507 2062.80396 2077.65649
1947.0 0.000514 2063.25415 2078.95020
1999.0 0.000500 2063.51099 2080.16748
1966.0 0.000509 2063.91016 2081.56958
1976.0 0.000506 2064.32007 2083.09619
2016.0 0.000496 2064.63794 2084.62939
2010.0 0.000498 2064.99902 2086.32617
1986.0 0.000504 2065.42261 2088.21167
1977.0 0.000506 2065.80469 2090.23291
2046.0 0.000489 2066.15405 2092.37598
2005.0 0.000499 2066.43408 2094.67920
2002.0 0.000500 2066.83569 2097.34131
2048.0 0.000488 2067.24976 2100.36694
2036.0 0.000491 2067.61230 2103.74268
2035.0 0.000491 2067.93359 2107.66504
2019.0 0.000495 2068.35327 2112.53540
2112.0 0.000473 2068.70557 2118.61475
2026.0 0.000494 2068.99121 2126.46582
2003.0 0.000499 2069.39551 2137.29932
2178.0 0.000459 2069.80518 2152.36304
2239.0 0.000447 2070.12231 2173.54468
2150.0 0.000465 2070.40747 2203.57446
2156.0 0.000464 2070.88281 2246.07153
2218.0 0.000451 2071.16479 2304.84985
2424.0 0.000413 2071.46924 2384.78076
2570.0 0.000389 2071.88232 2490.90625
2705.0 0.000370 2072.26855 2627.50171
2825.0 0.000354 2072.58301 2797.76489
2988.0 0.0003347 2072.92822 3002.72583
3352.0 0.0002983 2073.31494 3239.96533
3524.0 0.0002838 2073.63525 3502.73779
3685.0 0.0002714 2073.97974 3779.71411
3919.0 0.0002552 2074.38281 4055.02930
4200.0 0.0002381 2074.80322 4309.48096
4407.0 0.0002269 2075.06274 4522.14697
4436.0 0.0002254 2075.35815 4672.77051
4810.0 0.0002079 2075.76685 4743.91992
4566.0 0.0002190 2076.15161 4724.75928
4556.0 0.0002195 2076.49292 4615.48877
4446.0 0.0002249 2076.81665 4428.25537
4182.0 0.0002391 2077.22412 4183.82910
3959.0 0.0002526 2077.53638 3906.09741
3541.0 0.0002824 2077.84448 3618.08325
3407.0 0.0002935 2078.22388 3339.13428
3096.0 0.0003230 2078.62451 3083.49512
2810.0 0.000356 2078.89844 2860.18506
2715.0 0.000368 2079.16577 2673.56006
2547.0 0.000393 2079.63232 2524.00269
2341.0 0.000427 2079.93066 2408.30078
2262.0 0.000442 2080.21851 2321.92285
2188.0 0.000457 2080.59839 2259.47754
2196.0 0.000455 2080.98120 2215.47485
2175.0 0.000460 2081.28027 2184.96265
2147.0 0.000466 2081.58496 2164.08862
2096.0 0.000477 2081.98413 2149.87720
2069.0 0.000483 2082.26563 2139.91919
2046.0 0.000489 2082.61499 2132.85938
2105.0 0.000475 2083.02051 2127.68823
2099.0 0.000476 2083.37158 2123.66333
2135.0 0.000468 2083.67578 2120.36377
2031.0 0.000492 2083.93945 2117.60303
2023.0 0.000494 2084.32788 2115.36499
2097.0 0.000477 2084.71729 2113.45044
2046.0 0.000489 2085.03589 2111.70435
2011.0 0.000497 2085.35010 2110.17212
2037.0 0.000491 2085.71582 2108.88574
2085.0 0.000480 2086.04272 2107.69897
2050.0 0.000488 2086.32349 2106.62085
2086.0 0.000479 2086.67725 2105.73608
2060.0 0.000485 2087.06714 2104.97192
2004.0 0.000499 2087.32251 2104.19507
2038.0 0.000491 2087.59570 2103.51831
2007.0 0.000498 2088.07495 2103.09814
2083.0 0.000480 2088.32861 2102.55493
2031.0 0.000492 2088.60791 2102.07642
2044.0 0.000489 2088.96875 2101.74902
2022.0 0.000495 2089.35571 2101.48291
2017.0 0.000496 2089.61377 2101.14063
1958.0 0.000511 2089.91626 2100.89185
2080.0 0.000481 2090.29565 2100.74438
2061.0 0.000485 2090.58252 2100.54712
2104.0 0.000475 2090.89600 2100.40332
2050.0 0.000488 2091.26025 2100.34912
2068.0 0.000484 2091.63818 2100.32056
2065.0 0.000484 2091.92163 2100.23560
1943.0 0.000515 2092.18555 2100.13281
2037.0 0.000491 2092.52832 2100.15796
2060.0 0.000485 2092.90869 2100.21680
1978.0 0.000506 2093.20166 2100.21265
1955.0 0.000512 2093.49268 2100.23462
2024.0 0.000494 2093.88501 2100.35376
2011.0 0.000497 2094.16309 2100.37573
1961.0 0.000510 2094.41943 2100.40991
2005.0 0.000499 2094.78247 2100.54907
1987.0 0.000503 2095.15112 2100.69653
2017.0 0.000496 2095.40918 2100.75122
1966.0 0.000509 2095.66748 2100.81836
2079.0 0.000481 2096.10303 2101.07715
2179.0 0.000459 2096.35498 2101.14697
2046.0 0.000489 2096.60522 2101.23096
1998.0 0.000501 2096.96289 2101.44507
2058.0 0.000486 2097.33765 2101.65283
1966.0 0.000509 2097.56250 2101.74951
2035.0 0.000491 2097.88232 2101.92163
1965.0 0.000509 2098.22363 2102.14014
2034.0 0.000492 2098.50513 2102.29248
2165.0 0.000462 2098.79199 2102.45874
2119.0 0.000472 2099.17017 2102.71362
2088.0 0.000479 2099.53442 2102.96509
2067.0 0.000484 2099.77393 2104.37842
2130.0 0.000469 2100.02686 2104.55713
2061.0 0.000485 2100.34961 2104.80957
2027.0 0.000493 2100.72144 2105.12646
2045.0 0.000489 2101.01831 2105.35693
1973.0 0.000507 2101.26807 2105.55249
1986.0 0.000504 2101.62183 2105.86108
1991.0 0.000502 2101.90552 2106.09937
2093.0 0.000478 2102.16284 2106.30737
2085.0 0.000480 2102.52441 2106.63135
2072.0 0.000483 2102.85938 2106.93408
2074.0 0.000482 2103.09399 2107.14673
2067.0 0.000484 2103.33936 2107.34326
2070.0 0.000483 2103.75293 2107.75244
2063.0 0.000485 2103.97681 2107.95898
2076.0 0.000482 2104.24731 2108.21777
2011.0 0.000497 2104.56396 2110.02856
2062.0 0.000485 2104.91455 2110.40161
2121.0 0.000471 2105.15259 2110.66553
2114.0 0.000473 2105.44141 2110.99316
2070.0 0.000483 2105.76367 2111.33667
2089.0 0.000479 2106.02661 2111.65625
2116.0 0.000473 2106.32715 2111.98486
2038.0 0.000491 2106.66235 2112.38159
2022.0 0.000495 2106.99707 2112.75635
2060.0 0.000485 2107.21265 2113.04248
2135.0 0.000468 2107.45435 2113.35840
2130.0 0.000469 2107.79468 2113.78198
2012.0 0.000497 2108.13232 2114.18994
2082.0 0.000480 2108.40259 2114.55518
2109.0 0.000474 2108.65747 2114.89600
2051.0 0.000488 2108.99609 2115.33569
2087.0 0.000479 2109.26367 2115.70044
2072.0 0.000483 2109.51196 2116.06226
2080.0 0.000481 2109.82666 2116.50903
2035.0 0.000491 2110.15112 2116.93896
2086.0 0.000479 2110.38208 2117.31812
2075.0 0.000482 2110.57788 2117.66309
2115.0 0.000473 2110.97876 2118.22388
2044.0 0.000489 2111.21899 2118.63306
2079.0 0.000481 2111.44360 2119.03223
2024.0 0.000494 2111.76123 2117.97583
2039.0 0.000490 2112.09766 2118.53735
2093.0 0.000478 2112.31641 2118.99365
2061.0 0.000485 2112.59863 2119.55762
2074.0 0.000482 2112.91650 2120.14258
2116.0 0.000473 2113.15894 2120.68530
2093.0 0.000478 2113.42212 2121.23413
2121.0 0.000471 2113.72534 2121.87354
2100.0 0.000476 2114.05786 2122.56421
2117.0 0.000472 2114.27148 2123.15674
2182.0 0.000458 2114.50342 2123.76465
2109.0 0.000474 2114.81006 2124.51050
2049.0 0.000488 2115.12769 2125.26855
2097.0 0.000477 2115.38184 2126.01880
2175.0 0.000460 2115.62744 2126.78223
2064.0 0.000484 2115.91284 2127.64063
2112.0 0.000473 2116.18799 2128.52075
2086.0 0.000479 2116.41455 2129.39966
2100.0 0.000476 2116.72876 2130.42285
2052.0 0.000487 2117.02246 2131.52197
2158.0 0.000463 2117.21997 2132.54932
2114.0 0.000473 2117.44287 2133.71899
2040.0 0.000490 2117.81860 2135.12134
2029.0 0.000493 2118.03174 2136.47266
2053.0 0.000487 2118.24854 2137.93994
2051.0 0.000488 2118.53516 2139.64819
2112.0 0.000473 2118.85059 2141.54883
2043.0 0.000489 2119.05493 2143.62134
2121.0 0.000471 2119.29761 2146.11572
2125.0 0.000471 2119.59888 2149.17871
2140.0 0.000467 2119.84644 2152.98462
2213.0 0.000452 2120.09766 2158.05469
2099.0 0.000476 2120.37378 2165.03882
2171.0 0.000461 2120.68945 2174.89648
2298.0 0.000435 2120.86133 2188.84229
2294.0 0.000436 2121.08252 2208.87256
2330.0 0.000429 2121.38184 2237.34424
2351.0 0.000425 2121.69116 2277.01123
2404.0 0.000416 2121.94141 2330.87817
2490.0 0.000402 2122.15601 2402.01587
2595.0 0.000385 2122.42456 2493.18091
2656.0 0.000377 2122.66064 2605.65747
2799.0 0.000357 2122.87915 2739.19653
2973.0 0.0003364 2123.18555 2891.12207
3195.0 0.0003130 2123.44946 3055.60498
3326.0 0.0003007 2123.66455 3223.83643
3512.0 0.0002847 2123.85938 3384.52759
3587.0 0.0002788 2124.21851 3524.96948
3759.0 0.0002660 2124.39966 3631.68359
3862.0 0.0002589 2124.58569 3693.06104
3813.0 0.0002623 2124.87573 3701.06152
3802.0 0.0002630 2125.15527 3653.51343
3618.0 0.0002764 2125.35791 3555.63770
3508.0 0.0002851 2125.58618 3418.97803
3374.0 0.0002964 2125.85400 3258.00342
3139.0 0.0003186 2126.07520 3087.12500
2965.0 0.0003373 2126.28906 2918.97852
2786.0 0.000359 2126.59302 2763.38989
2638.0 0.000379 2126.86182 2626.69263
2540.0 0.000394 2127.03247 2512.11938
2465.0 0.000406 2127.24072 2420.37207
2348.0 0.000426 2127.48169 2350.02197
2269.0 0.000441 2127.78418 2298.29346
2194.0 0.000456 2128.03271 2261.79126
2107.0 0.000475 2128.20435 2237.12646
2134.0 0.000469 2128.50122 2221.50708
2194.0 0.000456 2128.67944 2212.34155
2181.0 0.000459 2128.87646 2208.01953
2105.0 0.000475 2129.17529 2207.63843
2186.0 0.000457 2129.44849 2210.62671
2279.0 0.000439 2129.63257 2217.21509
2205.0 0.000454 2129.79468 2228.36523
2325.0 0.000430 2130.12109 2245.84863
2351.0 0.000425 2130.29419 2271.78589
2319.0 0.000431 2130.45288 2309.51978
2410.0 0.000415 2130.73462 2363.13647
2503.0 0.000400 2130.96631 2437.08789
2603.0 0.000384 2131.18823 2536.13794
2749.0 0.000364 2131.41040 2664.71021
2921.0 0.0003423 2131.66309 2825.92090
3014.0 0.0003318 2131.86523 3020.55054
3247.0 0.0003080 2132.04761 3246.15820
3601.0 0.0002777 2132.33105 3496.18408
3639.0 0.0002748 2132.57910 3759.17603
3987.0 0.0002508 2132.76099 4019.31348
4169.0 0.0002399 2132.92114 4257.52100
4494.0 0.0002225 2133.19043 4453.37598
4432.0 0.0002256 2133.44043 4586.84473
4476.0 0.0002234 2133.63818 4641.72314
4470.0 0.0002237 2133.77686 4609.40137
4252.0 0.0002352 2134.06299 4492.51025
4121.0 0.0002427 2134.28174 4304.48096
4028.0 0.0002483 2134.44775 4066.25171
3645.0 0.0002743 2134.68701 3801.01196
3495.0 0.0002861 2134.96045 3530.11157
3291.0 0.0003039 2135.08398 3270.75049
3003.0 0.0003330 2135.24121 3035.65820
2873.0 0.0003481 2135.55762 2832.64673
2643.0 0.000378 2135.71899 2664.50122
2560.0 0.000391 2135.90820 2530.79517
2432.0 0.000411 2136.14160 2428.40771
2329.0 0.000429 2136.37012 2352.52393
2311.0 0.000433 2136.54492 2297.88794
2252.0 0.000444 2136.73315 2259.53906
2239.0 0.000447 2136.99414 2233.09863
2177.0 0.000459 2137.15405 2214.89282
2234.0 0.000448 2137.31860 2202.29077
2152.0 0.000465 2137.56909 2193.50537
2208.0 0.000453 2137.78247 2187.09009
2128.0 0.000470 2137.96118 2182.19116
2180.0 0.000459 2138.13550 2178.30371
2183.0 0.000458 2138.34692 2175.16602
2079.0 0.000481 2138.57788 2172.53809
2120.0 0.000472 2138.77539 2170.22656
2105.0 0.000475 2138.92676 2168.14697
2111.0 0.000474 2139.16406 2166.42065
2201.0 0.000454 2139.35474 2164.81396
2179.0 0.000459 2139.50586 2163.35181
2193.0 0.000456 2139.72363 2162.10156
2159.0 0.000463 2139.97876 2161.02319
2112.0 0.000473 2140.07788 2159.90601
2164.0 0.000462 2140.22900 2158.94238
2034.0 0.000492 2140.53418 2158.21582
2157.0 0.000464 2140.65356 2157.40088
2186.0 0.000457 2140.79956 2156.67627
2233.0 0.000448 2141.04272 2156.10791
2135.0 0.000468 2141.26855 2155.58179
2013.0 0.000497 2141.38599 2155.00732
2142.0 0.000467 2141.57153 2154.53442
2137.0 0.000468 2141.79541 2154.17578
2128.0 0.000470 2141.93384 2153.74097
2126.0 0.000470 2142.11792 2153.40063
2213.0 0.000452 2142.34277 2153.14404
2256.0 0.000443 2142.53491 2152.87134
2160.0 0.000463 2142.69043 2152.59009
2142.0 0.000467 2142.80396 2152.29810
2167.0 0.000461 2143.01758 2152.12378
2156.0 0.000464 2143.25781 2151.99756
2063.0 0.000485 2143.41089 2151.83032
2165.0 0.000462 2143.54883 2151.63916
2112.0 0.000473 2143.77759 2150.26367
2111.0 0.000474 2143.91553 2150.13599
2144.0 0.000466 2144.06396 2150.04150
2122.0 0.000471 2144.34326 2150.08081
2194.0 0.000456 2144.45483 2149.98413
2187.0 0.000457 2144.59351 2149.92310
2162.0 0.000463 2144.72095 2149.83228
2177.0 0.000459 2145.00488 2149.92236
2209.0 0.000453 2145.10645 2149.85327
2143.0 0.000467 2145.21997 2149.79785
2095.0 0.000477 2145.35889 2149.77075
2130.0 0.000469 2145.62402 2149.86646
2191.0 0.000456 2145.72192 2149.82861
2169.0 0.000461 2145.89209 2149.86694
2182.0 0.000458 2146.14600 2149.97241
2221.0 0.000450 2146.21582 2149.92505
2265.0 0.000442 2146.38403 2149.96411
2227.0 0.000449 2146.61304 2150.07739
2156.0 0.000464 2146.76807 2150.11475
2155.0 0.000464 2146.88403 2150.53589
2194.0 0.000456 2146.96948 2150.53491
2205.0 0.000454 2147.13745 2150.59961
2202.0 0.000454 2147.38330 2150.75879
2163.0 0.000462 2147.50171 2150.82764
2151.0 0.000465 2147.60474 2150.82300
2191.0 0.000456 2147.83252 2150.97827
2163.0 0.000462 2147.97876 2151.04761
2124.0 0.000471 2148.09375 2151.08765
2172.0 0.000460 2148.33301 2151.26538
2116.0 0.000473 2148.46191 2151.33887
2171.0 0.000461 2148.54395 2151.36694
2230.0 0.000448 2148.66626 2151.41821
2223.0 0.000450 2148.91553 2151.60889
2197.0 0.000455 2149.03198 2151.67578
2110.0 0.000474 2149.09082 2151.68115
2126.0 0.000470 2149.20679 2151.76099
2113.0 0.000473 2149.47510 2151.97339
2185.0 0.000458 2149.57349 2152.03076
2128.0 0.000470 2149.68481 2152.11328
2124.0 0.000471 2149.93726 2152.30786
2201.0 0.000454 2149.99707 2152.34302
2164.0 0.000462 2150.10425 2152.41968
2096.0 0.000477 2150.32495 2152.60986
2237.0 0.000447 2150.47241 2152.71631
2134.0 0.000469 2150.56104 2152.76367
2217.0 0.000451 2150.63354 2152.82202
2116.0 0.000473 2150.76489 2152.91675
2090.0 0.000478 2151.00586 2153.14673
2125.0 0.000471 2151.10815 2153.23218
2163.0 0.000462 2151.18140 2153.27222
2193.0 0.000456 2151.37671 2153.47241
2218.0 0.000451 2151.50928 2153.58496
2149.0 0.000465 2151.58154 2153.63696
2240.0 0.000446 2151.82422 2153.85547
2142.0 0.000467 2151.93237 2153.96729
2097.0 0.000477 2151.99976 2156.80615
2127.0 0.000470 2152.07031 2156.91309
2116.0 0.000473 2152.31006 2157.18774
2166.0 0.000462 2152.36768 2157.25244
2142.0 0.000467 2152.42920 2157.35474
2191.0 0.000456 2152.55762 2157.50195
2159.0 0.000463 2152.76172 2156.24438
2101.0 0.000476 2152.83765 2156.38062
2136.0 0.000468 2152.95190 2156.54565
2130.0 0.000469 2153.15942 2156.82471
2103.0 0.000476 2153.20874 2156.95386
2159.0 0.000463 2153.28076 2157.09961
2171.0 0.000461 2153.49683 2157.37598
2156.0 0.000464 2153.63257 2157.58423
2192.0 0.000456 2153.66968 2157.70288
2161.0 0.000463 2153.73340 2157.84106
2188.0 0.000457 2153.86304 2158.05078
2124.0 0.000471 2154.06982 2158.33862
2231.0 0.000448 2154.12939 2158.49829
2145.0 0.000466 2154.15894 2158.62305
2088.0 0.000479 2154.38623 2158.93384
2180.0 0.000459 2154.46436 2159.10767
2099.0 0.000476 2154.55249 2159.28809
2171.0 0.000461 2154.71680 2159.57959
2204.0 0.000454 2154.81494 2159.78442
2172.0 0.000460 2154.88208 2159.95532
2145.0 0.000466 2154.93018 2160.13013
2169.0 0.000461 2155.13037 2160.45190
2167.0 0.000461 2155.20313 2160.66211
2214.0 0.000452 2155.26343 2160.86426
2216.0 0.000451 2155.33936 2161.08276
2161.0 0.000463 2155.51563 2161.40015
2209.0 0.000453 2155.55884 2161.62158
2170.0 0.000461 2155.65210 2161.86523
2282.0 0.000438 2155.83960 2162.22583
2182.0 0.000458 2155.86279 2162.44971
2216.0 0.000451 2155.94922 2162.73828
2162.0 0.000463 2156.13745 2163.13208
2200.0 0.000455 2156.19507 2163.41772
2203.0 0.000454 2156.23804 2163.70337
2080.0 0.000481 2156.27124 2163.98462
2070.0 0.000483 2156.38452 2164.35620
2146.0 0.000466 2156.55786 2171.14624
2260.0 0.000442 2156.62378 2171.58813
2144.0 0.000466 2156.64624 2172.03491
2219.0 0.000451 2156.79688 2172.64355
2249.0 0.000445 2156.89551 2173.18311
2225.0 0.000449 2156.93433 2173.72925
2147.0 0.000466 2157.12427 2174.45776
2121.0 0.000471 2157.14063 2175.06494
2215.0 0.000451 2157.20264 2175.74927
2225.0 0.000449 2157.20190 2176.46167
2201.0 0.000454 2157.45630 2177.43726
2239.0 0.000447 2157.46191 2179.99976
2178.0 0.000459 2157.48120 2180.99365
2235.0 0.000447 2157.54175 2182.17993
2259.0 0.000443 2157.68433 2184.10474
2174.0 0.000460 2157.73511 2185.78735
2236.0 0.000447 2157.79395 2187.94946
2210.0 0.000452 2157.95679 2190.89819
2250.0 0.000444 2157.94067 2194.74121
2261.0 0.000442 2157.98975 2200.23633
2102.0 0.000476 2158.19946 2208.16748
2247.0 0.000445 2158.24854 2219.20410
2253.0 0.000444 2158.26123 2234.61182
2218.0 0.000451 2158.25757 2255.80859
2264.0 0.000442 2158.32617 2284.28125
2379.0 0.000420 2158.50391 2321.39917
2465.0 0.000406 2158.53394 2367.94629
2600.0 0.000385 2158.53638 2424.30591
2531.0 0.000395 2158.67334 2490.06104
2659.0 0.000376 2158.75317 2563.14063
2735.0 0.000366 2158.76123 2640.27344
2826.0 0.000354 2158.89551 2717.12158
2914.0 0.0003432 2158.96533 2787.76587
3026.0 0.0003305 2158.95093 2846.08057
3038.0 0.0003292 2158.95776 2886.18066
3068.0 0.0003259 2159.12036 2903.43506
3037.0 0.0003293 2159.12231 2894.95435
3183.0 0.0003142 2159.15015 2861.71240
2959.0 0.0003380 2159.17188 2807.68750
2922.0 0.0003422 2159.32153 2739.06982
2829.0 0.000353 2159.31665 2662.42456
2674.0 0.000374 2159.36621 2584.12280
2598.0 0.000385 2159.49707 2509.31689
2442.0 0.000410 2159.46973 2441.42285
2435.0 0.000411 2159.49121 2382.89014
2381.0 0.000420 2159.64893 2334.69946
2414.0 0.000414 2159.66748 2296.42578
2310.0 0.000433 2159.67261 2267.23730
2299.0 0.000435 2159.68506 2245.76074
2244.0 0.000446 2159.69238 2230.48291
2217.0 0.000451 2159.82813 2220.05273
2175.0 0.000460 2159.83276 2212.92041
2204.0 0.000454 2159.81592 2208.17578
2281.0 0.000438 2159.96338 2205.22241
2190.0 0.000457 2159.96240 2203.22290
2234.0 0.000448 2159.97778 2201.90601
2243.0 0.000446 2160.12524 2201.22095
2207.0 0.000453 2160.11353 2200.67920
2246.0 0.000445 2160.12183 2200.34985
2227.0 0.000449 2160.10034 2200.14404
2217.0 0.000451 2160.21216 2200.19458
2160.0 0.000463 2160.20288 2200.25317
2294.0 0.000436 2160.18018 2200.35449
2218.0 0.000451 2160.18750 2200.57715
2248.0 0.000445 2160.34448 2201.02002
2268.0 0.000441 2160.29736 2201.31348
2248.0 0.000445 2160.31250 2201.73804
2223.0 0.000450 2160.46631 2203.18286
2177.0 0.000459 2160.38721 2203.64819
2170.0 0.000461 2160.41260 2204.25586
2226.0 0.000449 2160.51904 2205.00049
2186.0 0.000457 2160.53369 2205.69946
2311.0 0.000433 2160.50781 2206.40039
2232.0 0.000448 2160.47363 2207.15601
2319.0 0.000431 2160.49438 2208.00000
2364.0 0.000423 2160.58301 2208.97974
2319.0 0.000431 2160.59180 2209.90796
2313.0 0.000432 2160.53979 2210.85474
2261.0 0.000442 2160.64941 2211.99512
2320.0 0.000431 2160.64380 2213.54175
2230.0 0.000448 2160.63916 2214.67651
2312.0 0.000433 2160.71045 2215.96851
2174.0 0.000460 2160.67920 2217.22827
2318.0 0.000431 2160.67969 2218.54834
2338.0 0.000428 2160.63062 2219.90942
2283.0 0.000438 2160.75366 2221.49512
2281.0 0.000438 2160.69434 2222.99829
2250.0 0.000444 2160.65552 2224.57007
2240.0 0.000446 2160.63892 2226.23950
2259.0 0.000443 2160.74585 2228.14893
2231.0 0.000448 2160.72266 2229.97266
2290.0 0.000437 2160.68115 2231.89917
2245.0 0.000445 2160.80249 2234.10156
2296.0 0.000436 2160.69385 2236.17139
2259.0 0.000443 2160.69897 2238.43286
2317.0 0.000432 2160.82153 2240.96436
2269.0 0.000441 2160.76416 2243.43652
2228.0 0.000449 2160.70068 2246.05981
2256.0 0.000443 2160.68579 2248.84082
2270.0 0.000441 2160.62866 2251.79053
2337.0 0.000428 2160.73267 2255.03296
2265.0 0.000442 2160.73755 2258.38135
2320.0 0.000431 2160.61597 2261.84155
2318.0 0.000431 2160.69263 2265.73755
2308.0 0.000433 2160.66406 2269.78076
2328.0 0.000430 2160.60742 2274.13989
2276.0 0.000439 2160.68604 2278.98584
2331.0 0.000429 2160.67432 2284.26489
2283.0 0.000438 2160.64331 2290.17480
2359.0 0.000424 2160.54150 2297.63525
2321.0 0.000431 2160.61938 2305.71606
2297.0 0.000435 2160.53271 2315.35669
2287.0 0.000437 2160.50903 2327.29810
2358.0 0.000424 2160.47388 2342.35376
2403.0 0.000416 2160.54150 2361.53979
2424.0 0.000413 2160.46997 2385.77979
2421.0 0.000413 2160.43799 2416.37720
2508.0 0.000399 2160.46680 2454.41772
2603.0 0.000384 2160.39868 2500.52954
2644.0 0.000378 2160.35620 2555.08740
2749.0 0.000364 2160.43481 2617.77661
2767.0 0.000361 2160.37329 2686.91797
2787.0 0.000359 2160.30908 2760.26733
2850.0 0.000351 2160.23877 2834.27661
2882.0 0.0003470 2160.19653 2904.63428
2936.0 0.0003406 2160.26807 2966.60815
2931.0 0.0003412 2160.16797 3015.30908
3052.0 0.0003277 2160.08667 3046.94287
3003.0 0.0003330 2160.16113 3059.72632
2990.0 0.0003344 2160.10010 3054.07324
3019.0 0.0003312 2160.05249 3033.59106
2975.0 0.0003361 2160.07324 3003.87109
2974.0 0.0003362 2160.01221 2970.97729
2989.0 0.0003346 2159.94531 2941.13550
2835.0 0.000353 2159.85474 2919.81396
2898.0 0.0003451 2159.88306 2911.91968
2987.0 0.0003348 2159.82275 2921.15356
3118.0 0.0003207 2159.74146 2950.86035
3149.0 0.0003176 2159.68091 3003.76050
3064.0 0.0003264 2159.70874 3082.16431
3319.0 0.0003013 2159.63745 3189.28320
3513.0 0.0002847 2159.56860 3324.08789
3588.0 0.0002787 2159.57642 3489.55835
3721.0 0.0002687 2159.45776 3686.47925
3990.0 0.0002506 2159.40332 3915.45850
4174.0 0.0002396 2159.45605 4185.95508
4551.0 0.0002197 2159.36597 4476.51270
4829.0 0.0002071 2159.27100 4793.75928
5078.0 0.0001969 2159.18579 5132.02441
5535.0 0.0001807 2159.11108 5484.80957
5884.0 0.0001700 2159.16455 5842.17236
6150.0 0.0001626 2159.07593 6192.64355
6458.0 0.0001548 2158.94580 6524.70996
6632.0 0.0001508 2158.97217 6828.68604
6854.0 0.0001459 2158.88916 7098.87842
7370.0 0.0001357 2158.79126 7336.81689
7415.0 0.0001349 2158.80298 7551.31641
7625.0 0.0001311 2158.73145 7755.94873
7899.0 0.0001266 2158.63403 7965.28076
8120.0 0.0001232 2158.52222 8190.16748
8354.0 0.0001197 2158.54492 8434.75098
8465.0 0.0001181 2158.41797 8694.21777
8807.0 0.0001135 2158.32690 8955.72168
9027.0 0.0001108 2158.23682 9198.84082
9146.0 0.0001093 2158.23535 9398.59961
9142.0 0.0001094 2158.14868 9530.43457
9333.0 0.0001071 2158.05664 9571.70215
9139.0 0.0001094 2158.07056 9514.98730
9178.0 0.0001090 2157.93848 9366.79395
9036.0 0.0001107 2157.82544 9148.21973
8935.0 0.0001119 2157.83301 8894.16113
8746.0 0.0001143 2157.74365 8621.51563
8676.0 0.0001153 2157.63403 8358.76855
8534.0 0.0001172 2157.51514 8118.68311
8340.0 0.0001199 2157.41968 7903.87012
7932.0 0.0001261 2157.46021 7707.95215
7790.0 0.0001284 2157.33496 7517.66357
7564.0 0.0001322 2157.13037 7317.29199
7256.0 0.0001378 2157.14893 7092.54248
6917.0 0.0001446 2157.06958 6833.36621
6766.0 0.0001478 2156.89600 6537.02100
6444.0 0.0001552 2156.90430 6208.49219
6198.0 0.0001613 2156.81323 5859.01953
5683.0 0.0001760 2156.69458 5504.32031
5312.0 0.0001883 2156.57080 5160.89014
4852.0 0.0002061 2156.52051 4843.02881
4605.0 0.0002172 2156.40332 4560.82275
4229.0 0.0002365 2156.28027 4319.86035
3897.0 0.0002566 2156.19946 4120.62842
3777.0 0.0002648 2156.16919 3959.22314
3694.0 0.0002707 2156.02490 3827.97925
3523.0 0.0002838 2155.89795 3717.39160
3341.0 0.0002993 2155.90454 3617.45435
3354.0 0.0002982 2155.72607 3519.24316
3202.0 0.0003123 2155.58179 3417.42310
3053.0 0.0003275 2155.60864 3310.35913
3025.0 0.0003306 2155.44336 3199.31079
2941.0 0.0003400 2155.32617 3087.77173
2801.0 0.000357 2155.17627 2979.59521
2739.0 0.000365 2155.07104 2878.35767
2758.0 0.000363 2155.04712 2786.88916
2681.0 0.000373 2154.91040 2706.70117
2582.0 0.000387 2154.72241 2638.54175
2424.0 0.000413 2154.68384 2582.38501
2481.0 0.000403 2154.58154 2536.97607
2425.0 0.000412 2154.39966 2500.91650
2489.0 0.000402 2154.39990 2472.82178
2386.0 0.000419 2154.24390 2450.78003
2436.0 0.000411 2154.10132 2434.06177
2379.0 0.000420 2153.95117 2420.34497
2399.0 0.000417 2153.89722 2409.38110
2388.0 0.000419 2153.76855 2400.25513
2368.0 0.000422 2153.56982 2392.58911
2353.0 0.000425 2153.44946 2386.08057
2352.0 0.000425 2153.43579 2380.59985
2358.0 0.000424 2153.24316 2375.71826
2284.0 0.000438 2153.13281 2371.56494
2439.0 0.000410 2153.05444 2368.08276
2362.0 0.000423 2152.90894 2365.19287
2381.0 0.000420 2152.72290 2362.71509
2378.0 0.000421 2152.66040 2360.86963
2368.0 0.000422 2152.55518 2359.50464
2346.0 0.000426 2152.36157 2358.63013
2336.0 0.000428 2152.22534 2358.34058
2340.0 0.000427 2152.04980 2358.66162
2370.0 0.000422 2151.99976 2359.78955
2321.0 0.000431 2151.88672 2361.76270
2445.0 0.000409 2151.64624 2364.71094
2356.0 0.000424 2151.60083 2369.45654
2486.0 0.000402 2151.45776 2376.20410
2439.0 0.000410 2151.28735 2386.01050
2491.0 0.000401 2151.21899 2400.25903
2517.0 0.000397 2151.07129 2420.51270
2519.0 0.000397 2150.88159 2449.01294
2582.0 0.000387 2150.67700 2488.41846
2635.0 0.000380 2150.61646 2541.83057
2724.0 0.000367 2150.44287 2612.00854
2793.0 0.000358 2150.23682 2701.59570
2923.0 0.0003421 2150.06860 2812.29517
3028.0 0.0003303 2150.01318 2944.35791
3194.0 0.0003131 2149.85400 3095.48022
3257.0 0.0003070 2149.65869 3261.12012
3437.0 0.0002910 2149.57568 3433.85864
3547.0 0.0002819 2149.40161 3603.21729
3604.0 0.0002775 2149.20557 3756.91162
3849.0 0.0002598 2149.13916 3881.81592
3895.0 0.0002567 2148.96338 3965.18970
3712.0 0.0002694 2148.76733 3997.66382
3822.0 0.0002616 2148.59326 3975.45825
3720.0 0.0002688 2148.40234 3901.89526
3662.0 0.0002731 2148.32251 3786.99121
3513.0 0.0002847 2148.12036 3644.17627
3462.0 0.0002889 2147.91675 3487.95923
3312.0 0.0003019 2147.83643 3331.32593
3228.0 0.0003098 2147.64868 3184.41431
3159.0 0.0003166 2147.45532 3054.84985
2998.0 0.0003336 2147.37378 2947.43970
2938.0 0.0003404 2147.17651 2864.21655
2864.0 0.0003492 2146.97412 2805.70386
2831.0 0.000353 2146.76978 2771.15527
2857.0 0.0003500 2146.67065 2759.59131
2911.0 0.0003435 2146.47314 2770.16821
2974.0 0.0003362 2146.24902 2803.33374
3043.0 0.0003286 2146.06079 2861.10181
3156.0 0.0003169 2145.94116 2947.28931
3142.0 0.0003183 2145.75928 3067.52612
3462.0 0.0002889 2145.54810 3229.51782
3669.0 0.0002726 2145.44995 3442.41357
3976.0 0.0002515 2145.26489 3715.92749
4240.0 0.0002358 2145.02686 4059.82690
4647.0 0.0002152 2144.93506 4482.52734
5089.0 0.0001965 2144.73218 4994.87158
5690.0 0.0001757 2144.48560 5586.83691
6263.0 0.0001597 2144.28589 6259.38525
7105.0 0.0001407 2144.06641 7000.91162
7864.0 0.0001272 2143.99707 7792.57031
8498.0 0.0001177 2143.75781 8607.59961
9321.0 0.0001073 2143.53271 9412.84570
10020.0 0.0000998 2143.41235 10169.98633
10848.0 0.0000922 2143.21509 10837.63184
11060.0 0.0000904 2142.99536 11374.11523
11699.0 0.0000855 2142.88818 11739.45117
11713.0 0.0000854 2142.67554 11898.23340
11801.0 0.0000847 2142.43213 11826.97070
11503.0 0.0000869 2142.21802 11522.66211
11317.0 0.0000884 2142.07520 11008.03027
10737.0 0.0000931 2141.82813 10328.21777
10112.0 0.0000989 2141.58179 9540.58496
9287.0 0.0001077 2141.36304 8702.17480
8588.0 0.0001164 2141.26465 7861.65332
7579.0 0.0001319 2141.01855 7055.92285
6898.0 0.0001450 2140.79907 6311.05225
5969.0 0.0001675 2140.66821 5643.17383
5352.0 0.0001868 2140.39893 5060.16309
4890.0 0.0002045 2140.17065 4563.89990
4374.0 0.0002286 2140.04565 4151.12012
4009.0 0.0002494 2139.80981 3814.93530
3620.0 0.0002762 2139.59546 3546.56567
3374.0 0.0002964 2139.36768 3336.03589
3225.0 0.0003101 2139.10596 3173.42993
3045.0 0.0003284 2138.97485 3049.50073
2893.0 0.0003457 2138.75220 2955.87378
2886.0 0.0003465 2138.48096 2885.69458
2774.0 0.000360 2138.33228 2833.58423
2678.0 0.000373 2138.09058 2795.04980
2623.0 0.000381 2137.84253 2766.98926
2653.0 0.000377 2137.72437 2747.27344
2710.0 0.000369 2137.46973 2734.04272
2717.0 0.000368 2137.20117 2726.48877
2669.0 0.000375 2136.95947 2724.08203
2808.0 0.000356 2136.82544 2726.73120
2760.0 0.000362 2136.53345 2758.83618
2638.0 0.000379 2136.29736 2772.49243
2870.0 0.0003484 2136.02246 2792.70313
2875.0 0.0003478 2135.89502 2820.98755
2944.0 0.0003397 2135.64917 2859.01611
2986.0 0.0003349 2135.34766 2909.48901
3114.0 0.0003211 2135.24219 2975.95996
3206.0 0.0003119 2134.92725 3062.26050
3431.0 0.0002915 2134.67578 3169.80347
3578.0 0.0002795 2134.51221 3312.32202
3763.0 0.0002657 2134.25488 3492.14233
4020.0 0.0002488 2134.00415 3716.08594
4336.0 0.0002306 2133.74243 3990.69604
4680.0 0.0002137 2133.50586 4321.67920
5023.0 0.0001991 2133.34351 4713.09229
5532.0 0.0001808 2133.05322 5166.23438
6068.0 0.0001648 2132.74976 5679.20313
6535.0 0.0001530 2132.60620 6245.66406
7143.0 0.0001400 2132.33618 6853.21436
7649.0 0.0001307 2132.03589 7483.28662
8275.0 0.0001208 2131.87793 8110.07031
8776.0 0.0001139 2131.62231 8693.60254
9092.0 0.0001100 2131.38062 9207.43262
9425.0 0.0001061 2131.03564 9603.09277
9557.0 0.0001046 2130.89331 9842.19531
9586.0 0.0001043 2130.57397 9897.07422
9591.0 0.0001043 2130.27783 9759.52832
9509.0 0.0001052 2130.02075 9443.53516
9086.0 0.0001101 2129.81494 8982.04297
8521.0 0.0001174 2129.62427 8418.07520
7830.0 0.0001277 2129.33447 7795.63818
7292.0 0.0001371 2129.13843 7156.14893
6787.0 0.0001473 2128.84277 6522.70215
6175.0 0.0001619 2128.55396 5925.43506
5680.0 0.0001761 2128.34082 5376.75146
5159.0 0.0001938 2128.02954 4885.67139
4712.0 0.0002122 2127.76172 4456.32080
4325.0 0.0002312 2127.47192 4088.63037
3984.0 0.0002510 2127.19727 3779.68750
3711.0 0.0002695 2126.94604 3524.41870
3466.0 0.0002885 2126.66553 3316.45508
3274.0 0.0003054 2126.37085 3149.00513
3110.0 0.0003215 2126.13647 3015.35498
3025.0 0.0003306 2125.82935 2909.07593
2941.0 0.0003400 2125.62036 2824.69946
2795.0 0.000358 2125.41284 2757.41919
2765.0 0.000362 2125.09570 2703.26831
2634.0 0.000380 2124.82007 2659.24219
2709.0 0.000369 2124.48779 2622.91992
2642.0 0.000379 2124.30859 2591.59180
2646.0 0.000378 2123.97241 2565.82202
2608.0 0.000383 2123.66992 2543.74097
2607.0 0.000384 2123.40381 2524.57886
2559.0 0.000391 2123.10156 2507.78418
2610.0 0.000383 2122.91650 2493.08252
2566.0 0.000390 2122.59180 2479.98169
2478.0 0.000404 2122.33789 2468.44849
2597.0 0.000385 2122.03418 2458.17798
2524.0 0.000396 2121.73755 2449.15869
2578.0 0.000388 2121.49365 2441.24561
2575.0 0.000388 2121.14844 2467.39404
2501.0 0.000400 2120.85669 2461.77686
2544.0 0.000393 2120.56421 2457.07129
2492.0 0.000401 2120.21411 2453.13843
2453.0 0.000408 2119.96997 2450.14673
2542.0 0.000393 2119.62988 2447.84546
2529.0 0.000395 2119.37769 2446.42114
2549.0 0.000392 2119.08398 2445.81226
2614.0 0.000383 2118.78564 2446.03931
2572.0 0.000389 2118.53345 2447.28955
2573.0 0.000389 2118.24487 2449.49072
2593.0 0.000386 2117.91992 2452.91235
2612.0 0.000383 2117.62280 2457.75122
2587.0 0.000387 2117.27295 2464.20410
2649.0 0.000378 2117.05566 2472.78125
2516.0 0.000397 2116.69995 2483.63477
2563.0 0.000390 2116.36816 2497.39551
2609.0 0.000383 2116.02344 2514.54199
2538.0 0.000394 2115.73608 2535.70654
2616.0 0.000382 2115.55347 2561.48291
2641.0 0.000379 2115.18726 2592.09375
2718.0 0.000368 2114.90283 2628.23706
2775.0 0.000360 2114.58569 2670.01050
2756.0 0.000363 2114.24976 2717.55054
2784.0 0.000359 2113.96460 2770.51880
2867.0 0.0003488 2113.65308 2828.25220
2846.0 0.000351 2113.26416 2889.58838
2866.0 0.0003489 2112.94751 2952.87720
2899.0 0.0003449 2112.59937 3015.76831
2955.0 0.0003384 2112.34082 3075.50171
3045.0 0.0003284 2111.94482 3128.51050
3100.0 0.0003226 2111.64111 3171.66943
3035.0 0.0003295 2111.36475 3202.07593
3197.0 0.0003128 2110.99585 3217.89917
3186.0 0.0003139 2110.72729 3219.42212
3105.0 0.0003221 2110.44189 3208.31543
3203.0 0.0003122 2110.12915 3187.61279
3058.0 0.0003270 2109.74951 3160.89941
3082.0 0.0003245 2109.38721 3131.55396
3092.0 0.0003234 2109.10352 3102.45850
3056.0 0.0003272 2108.73633 3075.44385
3078.0 0.0003249 2108.41016 3052.11108
3089.0 0.0003237 2108.06030 3033.49951
3136.0 0.0003189 2107.74634 3020.67017
3156.0 0.0003169 2107.47852 3014.87085
3129.0 0.0003196 2107.09351 3017.52148
3114.0 0.0003211 2106.80664 3030.98535
3210.0 0.0003115 2106.49341 3057.95483
3318.0 0.0003014 2106.11572 3101.75049
3339.0 0.0002995 2105.81079 3166.67505
3483.0 0.0002871 2105.45898 3257.37402
3563.0 0.0002807 2105.05249 3379.32690
3732.0 0.0002680 2104.74756 3538.51392
4084.0 0.0002449 2104.34619 3740.80786
4287.0 0.0002333 2104.02637 3991.90552
4619.0 0.0002165 2103.63281 4296.28906
4908.0 0.0002037 2103.27563 4656.69873
5377.0 0.0001860 2102.96118 5073.12402
5835.0 0.0001714 2102.58203 5541.68213
6346.0 0.0001576 2102.31616 6054.26514
6843.0 0.0001461 2101.95947 6596.91260
7312.0 0.0001368 2101.61206 7149.62402
7795.0 0.0001283 2101.22729 7685.83252
8249.0 0.0001212 2100.85327 8173.02100
8427.0 0.0001187 2100.58325 8574.98047
8732.0 0.0001145 2100.15869 8855.74219
8673.0 0.0001153 2099.76538 8986.84766
8789.0 0.0001138 2099.40552 8954.06445
8592.0 0.0001164 2099.07202 8762.56152
8608.0 0.0001162 2098.80884 8436.14258
7888.0 0.0001268 2098.40039 8010.46387
7559.0 0.0001323 2098.07129 7525.19434
7165.0 0.0001396 2097.73853 7016.63818
6723.0 0.0001487 2097.30737 6514.64063
6251.0 0.0001600 2096.97803 6042.18018
5867.0 0.0001704 2096.59106 5615.18604
5200.0 0.0001923 2096.19482 5244.06201
4894.0 0.0002043 2095.84009 4934.27979
4640.0 0.0002155 2095.42114 4687.22168
4390.0 0.0002278 2095.08008 4501.37402
4209.0 0.0002376 2094.65576 4372.80762
4032.0 0.0002480 2094.28052 4296.79688
3921.0 0.0002550 2093.95337 4268.27051
3897.0 0.0002566 2093.56616 4283.15332
3892.0 0.0002569 2093.24512 4339.52197
4013.0 0.0002492 2092.86255 4438.34375
4210.0 0.0002375 2092.48267 4585.25244
4354.0 0.0002297 2092.08423 4791.23047
4810.0 0.0002079 2091.67944 5073.66455
5231.0 0.0001912 2091.36450 5456.73486
5782.0 0.0001730 2090.93359 5970.75439
6576.0 0.0001521 2090.54419 6652.00684
7510.0 0.0001332 2090.14233 7540.34033
8689.0 0.0001151 2089.78320 8676.92871
10252.0 0.0000975 2089.45630 10100.18262
11809.0 0.0000847 2089.04956 11840.73145
14020.0 0.0000713 2088.68237 13915.90332
16509.0 0.0000606 2088.29272 16323.10449
18955.0 0.0000528 2087.90405 19033.55664
22169.0 0.0000451 2087.53613 21987.57422
25184.0 0.0000397 2087.10840 25085.33984
28471.0 0.0000351 2086.66309 28190.07617
31391.0 0.00003186 2086.27881 31124.76367
33861.0 0.00002953 2085.83374 33680.85938
35300.0 0.00002833 2085.48096 35637.52734
36587.0 0.00002733 2085.02808 36793.07422
37390.0 0.00002675 2084.65234 37008.87500
36776.0 0.00002719 2084.28149 36250.00000
35365.0 0.00002828 2083.85229 34601.61328
33240.0 0.00003008 2083.53662 32246.06836
30761.0 0.00003251 2083.14331 29412.86328
27220.0 0.0000367 2082.73730 26330.54883
24406.0 0.0000410 2082.27490 23196.48633
20923.0 0.0000478 2081.85449 20165.78125
17971.0 0.0000556 2081.47998 17350.79297
15047.0 0.0000665 2081.07007 14824.84473
12715.0 0.0000786 2080.64282 12627.67871
10944.0 0.0000914 2080.19556 10780.68164
9045.0 0.0001106 2079.81543 9254.30469
7803.0 0.0001282 2079.44678 8032.34863
6749.0 0.0001482 2079.02197 7080.97412
5871.0 0.0001703 2078.64624 6358.25439
5509.0 0.0001815 2078.26392 5826.59814
5167.0 0.0001935 2077.77832 5450.24951
4959.0 0.0002017 2077.38916 5198.60596
4781.0 0.0002092 2076.96191 5046.22803
4569.0 0.0002189 2076.51636 4973.10645
4669.0 0.0002142 2076.10229 4963.68359
4793.0 0.0002086 2075.66553 5005.73975
4909.0 0.0002037 2075.25610 5089.36816
5089.0 0.0001965 2074.77368 5205.67871
5325.0 0.0001878 2074.34985 5346.17822
5486.0 0.0001823 2073.96265 5501.54834
5483.0 0.0001824 2073.53320 5661.21436
5874.0 0.0001702 2073.14624 5813.57764
5873.0 0.0001703 2072.72144 5946.05273
6025.0 0.0001660 2072.29248 6046.77002
6117.0 0.0001635 2071.84692 6106.63379
6139.0 0.0001629 2071.41406 6121.61963
6058.0 0.0001651 2070.99829 6094.26953
6098.0 0.0001640 2070.58105 6033.59375
6045.0 0.0001654 2070.10864 5953.20508
5991.0 0.0001669 2069.63550 5869.16846
5893.0 0.0001697 2069.26221 5798.18848
5737.0 0.0001743 2068.87549 5756.76758
5903.0 0.0001694 2068.39014 5783.56201
5967.0 0.0001676 2068.00317 5854.52783
6199.0 0.0001613 2067.56250 6012.13721
6485.0 0.0001542 2067.07080 6281.49854
7010.0 0.0001427 2066.67407 6692.62549
7601.0 0.0001316 2066.21338 7280.19873
8631.0 0.0001159 2065.74170 8083.80127
9751.0 0.0001026 2065.27393 9146.08105
11164.0 0.0000896 2064.82617 10512.47754
12744.0 0.0000785 2064.39624 12217.99023
15191.0 0.0000658 2063.90747 14295.67871
17618.0 0.0000568 2063.45850 16762.74805
20402.0 0.0000490 2063.03564 19611.62305
23536.0 0.0000425 2062.55859 22809.43555
26985.0 0.0000371 2062.14746 26287.63281
30366.0 0.00003293 2061.73340 29936.85156
34495.0 0.00002899 2061.25098 33594.01172
37773.0 0.00002647 2060.75537 37077.52734
40231.0 0.00002486 2060.30322 40141.05859
42776.0 0.00002338 2059.90063 42528.89844
43886.0 0.00002279 2059.40601 44002.53906
44032.0 0.00002271 2058.95313 44390.00781
43684.0 0.00002289 2058.47754 43634.22266
41777.0 0.00002394 2058.01221 41815.60547
39698.0 0.00002519 2057.61963 39131.37109
36973.0 0.00002705 2057.13501 35841.39844
33204.0 0.00003012 2056.68262 32211.64063
29396.0 0.00003402 2056.24341 28476.08398
25931.0 0.0000386 2055.76196 24821.03711
22421.0 0.0000446 2055.33203 21385.91406
18843.0 0.0000531 2054.81152 18259.21289
16139.0 0.0000620 2054.32349 15496.66699
13598.0 0.0000735 2053.84473 13119.17773
11444.0 0.0000874 2053.36230 11121.66895
9587.0 0.0001043 2052.89478 9479.62695
8190.0 0.0001221 2052.40405 8155.60596
6769.0 0.0001477 2051.94092 7106.30518
6067.0 0.0001648 2051.49487 6284.25684
5280.0 0.0001894 2050.96851 5646.21582
4704.0 0.0002126 2050.55981 5152.98535
4350.0 0.0002299 2050.09937 4770.85498
4022.0 0.0002486 2049.59985 4472.58057
3809.0 0.0002625 2049.14331 4236.74219
3605.0 0.0002774 2048.62354 4047.07373
3514.0 0.0002846 2048.19385 3891.72070
3416.0 0.0002927 2047.66125 3762.00171
3250.0 0.0003077 2047.19214 3652.01221
3150.0 0.0003175 2046.65222 3557.62402
3186.0 0.0003139 2046.19531 3476.34229
3103.0 0.0003223 2045.79651 3406.62524
3187.0 0.0003138 2045.28625 3347.67798
3133.0 0.0003192 2044.80981 3299.81763
3083.0 0.0003244 2044.33850 3263.78149
3104.0 0.0003222 2043.82166 3240.95776
3083.0 0.0003244 2043.34741 3233.28613
3034.0 0.0003296 2042.84241 3242.92041
3210.0 0.0003115 2042.29626 3271.99951
3270.0 0.0003058 2041.79395 3322.28101
3351.0 0.0002984 2041.27368 3394.52368
3481.0 0.0002873 2040.83179 3487.97681
3536.0 0.0002828 2040.28540 3599.78857
3697.0 0.0002705 2039.82092 3725.08228
3833.0 0.0002609 2039.30786 3856.18652
4072.0 0.0002456 2038.78381 3983.39429
4050.0 0.0002469 2038.36536 4095.49414
4089.0 0.0002446 2037.87769 4180.43262
4271.0 0.0002341 2037.37720 4227.72998
4256.0 0.0002350 2036.84998 4230.14893
4222.0 0.0002369 2036.30786 4185.95605
4237.0 0.0002360 2035.85425 4099.92236
4112.0 0.0002432 2035.30334 3981.84595
3964.0 0.0002523 2034.83044 3844.80469
3812.0 0.0002623 2034.30505 3702.33545
3663.0 0.0002730 2033.78479 3567.28809
3608.0 0.0002772 2033.33142 3451.02686
3559.0 0.0002810 2032.78857 3362.79541
3499.0 0.0002858 2032.34277 3310.33545
3445.0 0.0002903 2031.81055 3298.97412
3344.0 0.0002990 2031.24438 3332.35229
3431.0 0.0002915 2030.79858 3411.95874
3556.0 0.0002812 2030.21619 3536.60205
3654.0 0.0002737 2029.73071 3702.80420
3781.0 0.0002645 2029.16101 3903.60742
4017.0 0.0002489 2028.62561 4128.47510
4165.0 0.0002401 2028.14343 4365.14404
4278.0 0.0002338 2027.60168 4596.71875
4354.0 0.0002297 2027.07385 4805.24609
4547.0 0.0002199 2026.56787 4972.82080
4715.0 0.0002121 2026.03027 5084.35938
4796.0 0.0002085 2025.58069 5131.13428
4768.0 0.0002097 2025.07483 5113.55078
4763.0 0.0002100 2024.49792 5042.57617
4799.0 0.0002084 2024.00208 4938.09766
4703.0 0.0002126 2023.43298 4819.21680
4756.0 0.0002103 2022.93530 4723.11670
4885.0 0.0002047 2022.39856 4669.64355
5089.0 0.0001965 2021.85107 4682.08398
5231.0 0.0001912 2021.31213 4780.56396
5504.0 0.0001817 2020.78186 4981.32764
5760.0 0.0001736 2020.33801 5295.83203
6285.0 0.0001591 2019.74365 5729.73145
6778.0 0.0001475 2019.24951 6282.74170
7307.0 0.0001369 2018.71021 6946.85205
8059.0 0.0001241 2018.11377 7705.99902
9021.0 0.0001109 2017.66711 8535.05859
9624.0 0.0001039 2017.05396 9398.45605
10365.0 0.0000965 2016.53857 10250.93555
11239.0 0.0000890 2016.01208 11037.44531
11617.0 0.0000861 2015.38196 11696.83789
11990.0 0.0000834 2014.87122 12168.81543
12216.0 0.0000819 2014.29443 12403.66602
12208.0 0.0000819 2013.75806 12375.77344
11923.0 0.0000839 2013.25952 12088.95508
11419.0 0.0000876 2012.68750 11580.63672
11089.0 0.0000902 2012.18213 10909.10059
10461.0 0.0000956 2011.64417 10139.87695
9614.0 0.0001040 2011.08447 9335.42383
8963.0 0.0001116 2010.51794 8549.43750
8192.0 0.0001221 2009.97119 7826.00293
7681.0 0.0001302 2009.42810 7200.23242
7059.0 0.0001417 2008.90833 6700.36084
6729.0 0.0001486 2008.32727 6349.45215
6505.0 0.0001537 2007.73914 6167.60205
6373.0 0.0001569 2007.17859 6173.66455
6666.0 0.0001500 2006.71558 6386.51514
7062.0 0.0001416 2006.11340 6825.25732
7948.0 0.0001258 2005.61792 7484.62695
8716.0 0.0001147 2005.09668 8430.90137
9988.0 0.0001001 2004.43188 9650.90039
11279.0 0.0000887 2003.92688 11147.34277
12852.0 0.0000778 2003.31799 12908.54590
15014.0 0.0000666 2002.76172 14904.50586
17047.0 0.0000587 2002.20117 17081.84570
19179.0 0.0000521 2001.59778 19360.39844
21432.0 0.0000467 2001.05469 21631.27539
23544.0 0.0000425 2000.46558 23758.05664
25253.0 0.0000396 1999.86755 25584.49609
26629.0 0.0000376 1999.35156 26950.96094
27006.0 0.0000370 1998.75122 27719.96680
27239.0 0.0000367 1998.24524 27807.64648
26965.0 0.0000371 1997.72083 27206.50977
25795.0 0.0000388 1997.10938 25986.08984
24299.0 0.0000412 1996.52490 24271.81836
22240.0 0.0000450 1995.95471 22212.79883
20264.0 0.0000493 1995.38123 19957.55859
17661.0 0.0000566 1994.81396 17640.99414
15490.0 0.0000646 1994.22607 15374.13281
13166.0 0.0000760 1993.60913 13245.26172
11391.0 0.0000878 1993.07874 11315.73340
9491.0 0.0001054 1992.56360 9621.53125
8027.0 0.0001246 1991.95203 8176.50342
6982.0 0.0001432 1991.39294 6976.68311
5875.0 0.0001702 1990.84338 6004.58398
5205.0 0.0001921 1990.20593 5234.14111
4643.0 0.0002154 1989.66772 4635.15967
4199.0 0.0002382 1989.03625 4176.44775
3799.0 0.0002632 1988.45642 3828.88232
3474.0 0.0002879 1987.84424 3566.73828
3278.0 0.0003051 1987.24927 3366.09009
3164.0 0.0003161 1986.68018 3214.98901
2976.0 0.0003360 1986.03992 3097.77905
2996.0 0.0003338 1985.48730 3005.03394
2886.0 0.0003465 1984.95374 2929.83716
2739.0 0.000365 1984.29468 2867.29443
2748.0 0.000364 1983.79297 2814.44629
2679.0 0.000373 1983.21033 2768.81323
2575.0 0.000388 1982.56091 2728.92310
2604.0 0.000384 1981.95898 2693.89453
2572.0 0.000389 1981.39954 2663.01001
2631.0 0.000380 1980.80994 2635.65405
2648.0 0.000378 1980.21716 2611.53394
2636.0 0.000379 1979.61792 2590.32520
2517.0 0.000397 1978.96033 2571.72192
2510.0 0.000398 1978.41687 2555.79199
2566.0 0.000390 1977.88013 2542.30664
2560.0 0.000391 1977.23975 2531.06982
2591.0 0.000386 1976.64807 2522.26367
2554.0 0.000392 1976.08081 2515.85718
2616.0 0.000382 1975.42297 2511.99658
2578.0 0.000388 1974.85205 2511.00879
2626.0 0.000381 1974.22778 2514.94751
2650.0 0.000377 1973.61816 2520.95850
2682.0 0.000373 1973.00549 2531.59888
2683.0 0.000373 1972.36926 2547.94214
2682.0 0.000373 1971.77954 2571.54639
2718.0 0.000368 1971.15161 2604.24292
2750.0 0.000364 1970.55444 2648.36743
2829.0 0.000353 1969.97729 2675.54492
2900.0 0.0003448 1969.30457 2751.79834
3066.0 0.0003262 1968.77710 2849.15894
3110.0 0.0003215 1968.18628 2971.06689
3304.0 0.0003027 1967.53784 3121.01489
3531.0 0.0002832 1966.90247 3302.10645
3542.0 0.0002823 1966.31348 3516.44775
3828.0 0.0002612 1965.70410 3764.85474
4135.0 0.0002418 1965.10437 4046.27905
4465.0 0.0002240 1964.48535 4357.37549
4642.0 0.0002154 1963.81665 4691.95654
4892.0 0.0002044 1963.21228 5040.70752
5024.0 0.0001990 1962.65491 5390.45215
5520.0 0.0001812 1962.00806 5724.23486
5588.0 0.0001790 1961.41382 6022.23486
5888.0 0.0001698 1960.80542 6263.07764
6081.0 0.0001644 1960.13196 6426.85059
6125.0 0.0001633 1959.55627 6499.06348
6042.0 0.0001655 1958.89404 6473.30371
5977.0 0.0001673 1958.27319 6353.10840
5943.0 0.0001683 1957.66211 6150.42188
5859.0 0.0001707 1956.97595 5882.61035
5552.0 0.0001801 1956.36902 5569.79443
5277.0 0.0001895 1955.71594 5232.16504
4900.0 0.0002041 1955.07837 4887.00977
4614.0 0.0002167 1954.51086 4549.82275
4381.0 0.0002283 1953.82739 4232.05811
4167.0 0.0002400 1953.28210 3942.23682
3913.0 0.0002556 1952.66553 3685.40161
3705.0 0.0002699 1951.99707 3464.24048
3426.0 0.0002919 1951.35352 3279.48169
3411.0 0.0002932 1950.73132 3130.26050
3222.0 0.0003104 1950.08252 3014.45752
3213.0 0.0003112 1949.45874 2929.32861
3231.0 0.0003095 1948.80786 2871.60718
3036.0 0.0003294 1948.17017 2837.79639
3099.0 0.0003227 1947.53955 2824.90869
3082.0 0.0003245 1946.95361 2827.89893
3182.0 0.0003143 1946.27490 2843.50952
3190.0 0.0003135 1945.70117 2867.90381
3245.0 0.0003082 1945.01733 2896.64990
3209.0 0.0003116 1944.35059 2925.42358
3272.0 0.0003056 1943.75586 2949.63135
3230.0 0.0003096 1943.06824 2964.72485
3287.0 0.0003042 1942.44421 2967.03809
3294.0 0.0003036 1941.79749 2954.18726
3252.0 0.0003075 1941.09058 2925.81763
3236.0 0.0003090 1940.52368 2883.06128
3174.0 0.0003151 1939.78992 2828.70679
3121.0 0.0003204 1939.13538 2766.56177
2985.0 0.0003350 1938.54785 2700.15820
2821.0 0.000354 1937.87439 2632.49097
2834.0 0.000353 1937.27478 2566.19971
2809.0 0.000356 1936.64990 2503.06323
2745.0 0.000364 1935.93359 2444.25684
2584.0 0.000387 1935.29565 2390.75024
2477.0 0.000404 1934.67114 2342.91553
2457.0 0.000407 1933.96594 2300.74927
2545.0 0.000393 1933.36292 2264.22705
2412.0 0.000415 1932.72656 2232.91626
2372.0 0.000422 1932.02039 2206.31226
2381.0 0.000420 1931.36829 2173.39624
2287.0 0.000437 1930.79028 2154.92969
2279.0 0.000439 1930.10266 2139.48853
2262.0 0.000442 1929.45520 2126.66260
2273.0 0.000440 1928.80823 2115.97827
2286.0 0.000437 1928.07678 2106.94678
2217.0 0.000451 1927.49121 2099.46899
2270.0 0.000441 1926.77649 2093.02783
2254.0 0.000444 1926.12561 2087.57056
2246.0 0.000445 1925.45068 2082.86084
2211.0 0.000452 1924.74878 2078.75684
2280.0 0.000439 1924.13574 2075.30811
2246.0 0.000445 1923.42798 2072.27856
2324.0 0.000430 1922.76135 2069.70703
2126.0 0.000470 1922.14319 2067.59790
2277.0 0.000439 1921.40759 2065.76318
2220.0 0.000450 1920.82849 2064.42725
2150.0 0.000465 1920.16077 2063.37646
2185.0 0.000458 1919.47522 2062.67725
2171.0 0.000461 1918.79968 2062.36084
2245.0 0.000445 1918.12891 2062.42676
2216.0 0.000451 1917.45740 2062.83325
2160.0 0.000463 1916.78833 2063.69653
2154.0 0.000464 1916.09778 2064.97046
2231.0 0.000448 1915.40417 2066.69360
2171.0 0.000461 1914.77454 2068.98706
2243.0 0.000446 1914.15601 2071.86133
2150.0 0.000465 1913.40100 2075.26660
2152.0 0.000465 1912.76587 2057.87329
2270.0 0.000441 1912.12292 2063.47241
2267.0 0.000441 1911.42065 2070.26440
2296.0 0.000436 1910.76306 2078.85181
2238.0 0.000447 1910.04297 2089.77710
2266.0 0.000441 1909.37366 2104.21216
2266.0 0.000441 1908.67029 2123.62915
2257.0 0.000443 1907.95142 2150.19922
2260.0 0.000442 1907.31616 2187.09546
2344.0 0.000427 1906.60791 2238.06592
2362.0 0.000423 1905.92810 2308.22314
2437.0 0.000410 1905.28101 2403.39380
2682.0 0.000373 1904.55725 2530.01221
2840.0 0.000352 1903.92444 2694.81470
3052.0 0.0003277 1903.26636 2903.48682
3284.0 0.0003045 1902.53162 3160.10791
3528.0 0.0002834 1901.82520 3465.92993
4011.0 0.0002493 1901.17920 3819.08618
4696.0 0.0002129 1900.47168 4209.71680
4953.0 0.0002019 1899.80457 4625.50342
5467.0 0.0001829 1899.13196 5047.52344
6067.0 0.0001648 1898.40063 5451.86426
6408.0 0.0001561 1897.70300 5811.55615
6792.0 0.0001472 1897.10254 6099.20557
7156.0 0.0001397 1896.34949 6290.76025
7160.0 0.0001397 1895.69373 6371.16260
7028.0 0.0001423 1895.00562 6337.13330
7069.0 0.0001415 1894.28528 6197.68457
6735.0 0.0001485 1893.65076 5970.79395
6240.0 0.0001603 1892.88074 5677.84961
5808.0 0.0001722 1892.17798 5340.92578
5566.0 0.0001797 1891.51111 4980.36768
4991.0 0.0002004 1890.76660 4614.33057
4494.0 0.0002225 1890.10461 4258.69189
4148.0 0.0002411 1889.35364 3925.72681
3741.0 0.0002673 1888.70288 3624.21167
3470.0 0.0002882 1887.99805 3359.18262
3313.0 0.0003018 1887.24609 3130.63892
3135.0 0.0003190 1886.61475 2937.83228
2998.0 0.0003336 1885.92920 2777.48755
2773.0 0.000361 1885.19226 2645.82104
2613.0 0.000383 1884.49988 2539.02246
2512.0 0.000398 1883.81274 2453.41675
2475.0 0.000404 1883.09424 2385.88452
2460.0 0.000407 1882.40808 2333.94434
2308.0 0.000433 1881.71008 2295.55371
2359.0 0.000424 1880.96643 2269.21167
2366.0 0.000423 1880.27991 2253.92285
2307.0 0.000433 1879.61353 2249.05249
2336.0 0.000428 1878.87744 2254.11182
2241.0 0.000446 1878.19775 2269.14722
2355.0 0.000425 1877.50586 2294.19189
2327.0 0.000430 1876.72473 2329.29736
2402.0 0.000416 1876.05884 2374.83936
2468.0 0.000405 1875.31750 2430.62646
2518.0 0.000397 1874.57837 2496.57642
2617.0 0.000382 1873.89929 2572.10156
2712.0 0.000369 1873.14160 2655.99194
2815.0 0.000355 1872.46057 2746.66113
2818.0 0.000355 1871.74744 2841.34717
2955.0 0.0003384 1870.98511 2936.61499
3103.0 0.0003223 1870.33643 3027.99341
3112.0 0.0003213 1869.56714 3109.95142
3154.0 0.0003171 1868.90210 3177.13794
3265.0 0.0003063 1868.24109 3224.40723
3263.0 0.0003065 1867.44836 3248.28394
3222.0 0.0003104 1866.75464 3247.72754
3189.0 0.0003136 1866.07446 3223.83643
3210.0 0.0003115 1865.31409 3179.25171
3165.0 0.0003160 1864.59644 3117.71729
3130.0 0.0003195 1863.89600 3042.84546
3114.0 0.0003211 1863.14258 2958.36841
3013.0 0.0003319 1862.43152 2868.16089
2848.0 0.000351 1861.78455 2776.14307
2769.0 0.000361 1860.98926 2686.00049
2768.0 0.000361 1860.33264 2601.36670
2605.0 0.000384 1859.58557 2524.95215
2606.0 0.000384 1858.83911 2459.08472
2542.0 0.000393 1858.16602 2405.42676
2443.0 0.000409 1857.36926 2364.92285
2496.0 0.000401 1856.67566 2338.53809
2368.0 0.000422 1855.93542 2326.63599
2398.0 0.000417 1855.16956 2329.60400
2360.0 0.000424 1854.48596 2348.02466
2439.0 0.000410 1853.72205 2382.19971
2464.0 0.000406 1852.99695 2432.94189
2614.0 0.000383 1852.34741 2500.92456
2637.0 0.000379 1851.50598 2586.62915
2779.0 0.000360 1850.84412 2690.83984
2900.0 0.0003448 1850.14221 2813.45386
3092.0 0.0003234 1849.36060 2953.99951
3335.0 0.0002999 1848.65588 3111.29224
3410.0 0.0002933 1847.92615 3282.90820
3532.0 0.0002831 1847.15015 3465.19019
3755.0 0.0002663 1846.47876 3653.08594
3930.0 0.0002545 1845.73010 3839.54321
4103.0 0.0002437 1844.98352 4016.06665
4379.0 0.0002284 1844.22534 4172.48730
4369.0 0.0002289 1843.57825 4298.52002
4485.0 0.0002230 1842.81836 4384.82031
4632.0 0.0002159 1842.09143 4425.65430
4639.0 0.0002156 1841.37708 4419.91895
4523.0 0.0002211 1840.59973 4372.05029
4446.0 0.0002249 1839.88977 4290.88330
4242.0 0.0002357 1839.11841 4187.15430
4164.0 0.0002402 1838.39551 4071.65820
4121.0 0.0002427 1837.62476 3953.19604
3988.0 0.0002508 1836.85693 3838.08032
3850.0 0.0002597 1836.15125 3729.85791
3680.0 0.0002717 1835.39355 3629.28271
3548.0 0.0002818 1834.63062 3535.08838
3343.0 0.0002991 1833.94507 3444.35352
3190.0 0.0003135 1833.13989 3353.16357
3195.0 0.0003130 1832.48352 3258.37500
3064.0 0.0003264 1831.73303 3157.78760
2982.0 0.0003353 1830.96716 3051.42480
2953.0 0.0003386 1830.22778 2941.19458
2789.0 0.000359 1829.47986 2829.88647
2684.0 0.000373 1828.68323 2720.56616
2586.0 0.000387 1827.96643 2616.12183
2549.0 0.000392 1827.26306 2518.62256
2482.0 0.000403 1826.46216 2429.42578
2374.0 0.000421 1825.73132 2349.62354
2201.0 0.000454 1825.04016 2277.18262
2234.0 0.000448 1824.24280 2216.61523
2226.0 0.000449 1823.53149 2165.32422
2131.0 0.000469 1822.80725 2121.11523
2079.0 0.000481 1821.98767 2085.84692
2082.0 0.000480 1821.31799 2057.34473
2035.0 0.000491 1820.51794 2034.38196
2107.0 0.000475 1819.80115 2016.20740
2057.0 0.000486 1818.99805 2001.88574
1995.0 0.000501 1818.22522 1990.88257
2055.0 0.000487 1817.49512 1982.68054
2001.0 0.000500 1816.67102 1976.90308
2010.0 0.000498 1815.97925 1973.65820
2160.0 0.000463 1815.24780 1973.01282
2104.0 0.000475 1814.44714 1975.41309
2100.0 0.000476 1813.74158 1981.81250
2052.0 0.000487 1813.00720 1993.23059
2074.0 0.000482 1812.19995 2011.25513
2101.0 0.000476 1811.45850 2037.91406
2193.0 0.000456 1810.73999 2075.40967
2255.0 0.000443 1809.96582 2126.05664
2227.0 0.000449 1809.21729 2192.24780
2332.0 0.000429 1808.46606 2275.79419
2489.0 0.000402 1807.68176 2377.75732
2510.0 0.000398 1806.91150 2497.96948
2667.0 0.000375 1806.21326 2634.75635
2756.0 0.000363 1805.43359 2784.17480
2906.0 0.0003441 1804.71326 2940.56909
2987.0 0.0003348 1803.93567 3095.21460
3084.0 0.0003243 1803.14441 3239.87720
3210.0 0.0003115 1802.41882 3363.07715
3196.0 0.0003129 1801.60876 3453.88013
3298.0 0.0003032 1800.85657 3503.41016
3234.0 0.0003092 1800.10327 3506.46606
3244.0 0.0003083 1799.28674 3463.48560
3221.0 0.0003105 1798.56995 3380.75146
3137.0 0.0003188 1797.75964 3268.66040
3078.0 0.0003249 1797.02539 3139.87671
3016.0 0.0003316 1796.25940 3006.87305
2868.0 0.0003487 1795.47388 2880.87451
2825.0 0.000354 1794.76855 2771.21289
2719.0 0.000368 1794.01147 2684.50854
2726.0 0.000367 1793.23047 2624.88892
2670.0 0.000375 1792.46082 2593.74561
2687.0 0.000372 1791.72888 2589.82983
2706.0 0.000370 1790.91895 2609.36890
2616.0 0.000382 1790.14648 2646.68677
2597.0 0.000385 1789.44019 2694.51392
2603.0 0.000384 1788.58521 2744.32471
2577.0 0.000388 1787.87231 2787.57813
2654.0 0.000377 1787.14368 2815.97803
2585.0 0.000387 1786.32410 2822.95264
2543.0 0.000393 1785.58423 2804.98926
2599.0 0.000385 1784.80481 2761.92480
2544.0 0.000393 1784.04187 2697.03784
2415.0 0.000414 1783.26038 2615.80469
2504.0 0.000399 1782.45349 2524.50098
2423.0 0.000413 1781.70361 2429.44946
2291.0 0.000436 1780.97949 2335.84302
2260.0 0.000442 1780.11694 2247.72900
2220.0 0.000450 1779.39795 2168.26758
2104.0 0.000475 1778.56433 2098.99268
2096.0 0.000477 1777.81689 2040.66309
2077.0 0.000481 1777.07410 1993.37280
2060.0 0.000485 1776.22949 1955.28516
2000.0 0.000500 1775.51880 1925.69043
1902.0 0.000526 1774.78174 1902.96021
1940.0 0.000515 1773.91711 1885.52124
2037.0 0.000491 1773.21399 1872.41968
1984.0 0.000504 1772.43689 1862.43311
1896.0 0.000527 1771.65088 1854.98621
1898.0 0.000527 1770.88464 1849.63586
1845.0 0.000542 1770.15393 1846.23242
1917.0 0.000522 1769.31506 1844.56519
1905.0 0.000525 1768.52319 1844.91431
1956.0 0.000511 1767.82751 1847.41638
1911.0 0.000523 1767.00513 1852.05139
1908.0 0.000524 1766.24414 1859.29309
1853.0 0.000540 1765.46655 1868.54395
1947.0 0.000514 1764.65491 1879.82898
1859.0 0.000538 1763.89600 1892.82080
1885.0 0.000531 1763.08484 1906.91052
1878.0 0.000532 1762.30542 1921.06396
1854.0 0.000539 1761.58203 1934.37109
1891.0 0.000529 1760.73376 1945.51331
1831.0 0.000546 1759.96765 1953.49060
1895.0 0.000528 1759.15149 1957.13501
1923.0 0.000520 1758.37817 1956.08313
1950.0 0.000513 1757.63513 1949.90308
1855.0 0.000539 1756.80981 1939.09802
1886.0 0.000530 1756.07434 1924.82813
1866.0 0.000536 1755.29919 1908.11401
1836.0 0.000545 1754.45923 1890.12512
1866.0 0.000536 1753.72681 1872.07764
1804.0 0.000554 1752.96130 1854.65991
1873.0 0.000534 1752.14294 1838.57239
1782.0 0.000561 1751.39954 1824.47485
1840.0 0.000543 1750.63196 1812.13525
1845.0 0.000542 1749.77490 1801.65417
1790.0 0.000559 1749.02136 1793.17737
1726.0 0.000579 1748.28650 1786.37976
1756.0 0.000569 1747.44495 1780.85913
1787.0 0.000560 1746.67578 1776.59497
1844.0 0.000542 1745.91614 1772.30371
1799.0 0.000556 1745.07336 1769.56250
1783.0 0.000561 1744.34888 1767.45959
1773.0 0.000564 1743.47815 1765.61841
1767.0 0.000566 1742.74561 1764.19214
1765.0 0.000567 1741.96338 1762.93713
1806.0 0.000554 1741.11792 1761.82727
1756.0 0.000569 1740.34753 1760.87927
1698.0 0.000589 1739.53210 1760.02039
1768.0 0.000566 1738.76831 1759.31165
1726.0 0.000579 1738.01355 1758.66077
1829.0 0.000547 1737.17395 1757.95996
1811.0 0.000552 1736.42810 1757.37317
1764.0 0.000567 1735.68030 1756.73669
1742.0 0.000574 1734.80188 1755.90137
1738.0 0.000575 1734.07483 1755.11609
1738.0 0.000575 1733.28662 1754.15723
1762.0 0.000568 1732.44934 1753.57678
1720.0 0.000581 1731.67834 1752.35034
1735.0 0.000576 1730.96655 1751.06543
1813.0 0.000552 1730.08582 1749.54919
1772.0 0.000564 1729.32117 1748.08545
1793.0 0.000558 1728.55933 1746.60852
1737.0 0.000576 1727.72766 1745.07727
1758.0 0.000569 1726.97351 1743.67200
1756.0 0.000569 1726.20715 1742.30371
1761.0 0.000568 1725.39355 1740.92859
1706.0 0.000586 1724.58655 1739.62793
1776.0 0.000563 1723.73669 1738.34680
1757.0 0.000569 1722.96619 1737.26624
1735.0 0.000576 1722.21741 1736.22070
1802.0 0.000555 1721.35742 1735.08777
1741.0 0.000574 1720.61108 1734.13635
1768.0 0.000566 1719.76233 1733.10498
1682.0 0.000595 1718.97046 1731.33765
1745.0 0.000573 1718.22961 1730.47205
1691.0 0.000591 1717.38293 1729.52222
1764.0 0.000567 1716.63879 1728.69189
1697.0 0.000589 1715.81836 1727.79773
1727.0 0.000579 1714.99719 1726.93286
1659.0 0.000603 1714.22522 1726.10974
1746.0 0.000573 1713.48083 1725.31934
1774.0 0.000564 1712.63611 1724.45886
1821.0 0.000549 1711.86230 1723.67676
1782.0 0.000561 1711.07825 1722.89331
1782.0 0.000561 1710.22607 1722.01599
1725.0 0.000580 1709.44531 1721.23267
1799.0 0.000556 1708.73572 1720.93787
1779.0 0.000562 1707.86938 1720.07520
1717.0 0.000582 1707.09924 1719.61914
1663.0 0.000601 1706.33508 1718.89270
1723.0 0.000580 1705.48352 1718.08704
1718.0 0.000582 1704.72302 1717.39746
1740.0 0.000575 1703.84631 1716.60339
1694.0 0.000590 1703.08423 1715.91370
1785.0 0.000560 1702.31506 1715.22986
1715.0 0.000583 1701.44080 1714.45129
1704.0 0.000587 1700.69153 1713.82202
1661.0 0.000602 1699.84180 1713.08643
1676.0 0.000597 1699.08081 1712.47009
1690.0 0.000592 1698.31311 1711.83057
1673.0 0.000598 1697.47815 1711.16711
1700.0 0.000588 1696.70593 1710.56531
1700.0 0.000588 1695.92639 1709.95959
1666.0 0.000600 1695.05688 1709.33008
1640.0 0.000610 1694.28223 1708.80054
1695.0 0.000590 1693.52576 1708.28711
1720.0 0.000581 1692.70813 1707.77234
1715.0 0.000583 1691.90796 1707.34363
1625.0 0.000615 1691.14001 1703.84473
1666.0 0.000600 1690.30151 1703.44080
1675.0 0.000597 1689.48474 1703.11060
1687.0 0.000593 1688.74902 1702.91333
1697.0 0.000589 1687.86169 1702.64063
1669.0 0.000599 1687.10828 1702.54797
1669.0 0.000599 1686.33289 1702.51953
1677.0 0.000596 1685.50623 1702.47253
1672.0 0.000598 1684.70947 1702.54419
1700.0 0.000588 1683.88489 1702.65991
1720.0 0.000581 1683.08630 1702.86072
1729.0 0.000578 1682.29675 1703.10071
1653.0 0.000605 1681.47546 1703.33960
1702.0 0.000588 1680.69739 1703.65271
1712.0 0.000584 1679.84863 1703.87292
1644.0 0.000608 1679.07495 1704.14758
1675.0 0.000597 1678.31555 1704.39795
1745.0 0.000573 1677.44763 1704.52539
1744.0 0.000573 1676.67358 1704.71033
1679.0 0.000596 1675.88464 1704.90649
1763.0 0.000567 1675.04480 1705.10815
1750.0 0.000571 1674.22522 1705.48438
1677.0 0.000596 1673.49280 1706.16370
1703.0 0.000587 1672.62012 1707.07996
1714.0 0.000583 1671.85315 1708.59851
1649.0 0.000606 1671.10754 1710.92688
1643.0 0.000609 1670.26282 1714.18591
1696.0 0.000590 1669.46594 1718.98474
1688.0 0.000592 1668.72107 1725.87061
1685.0 0.000593 1667.84155 1735.24292
1724.0 0.000580 1667.05713 1748.15527
1789.0 0.000559 1666.25598 1765.32764
1752.0 0.000571 1665.43896 1787.69739
1752.0 0.000571 1664.64429 1816.15723
1855.0 0.000539 1663.80835 1851.33191
1921.0 0.000521 1663.03540 1893.84216
2011.0 0.000497 1662.24414 1943.67236
2086.0 0.000479 1661.38257 2000.38708
2130.0 0.000469 1660.62988 2063.11963
2123.0 0.000471 1659.77844 2130.43799
2214.0 0.000452 1658.97412 2199.59839
2287.0 0.000437 1658.20703 2268.20654
2359.0 0.000424 1657.35486 2333.36963
2381.0 0.000420 1656.61975 2391.84253
2428.0 0.000412 1655.79102 2441.29053
2440.0 0.000410 1654.93188 2480.26538
2546.0 0.000393 1654.19116 2508.63599
2532.0 0.000395 1653.41882 2527.08887
2459.0 0.000407 1652.56152 2537.01978
2567.0 0.000390 1651.78271 2540.32104
2508.0 0.000399 1650.99902 2538.44702
2527.0 0.000396 1650.16370 2532.36963
2529.0 0.000395 1649.33752 2522.43359
2510.0 0.000398 1648.59961 2508.12964
2489.0 0.000402 1647.76563 2488.16895
2524.0 0.000396 1646.98120 2461.38428
2509.0 0.000399 1646.18726 2426.63965
2439.0 0.000410 1645.30347 2383.65894
2416.0 0.000414 1644.57458 2333.40649
2345.0 0.000426 1643.67834 2277.33179
2272.0 0.000440 1642.94995 2217.63599
2236.0 0.000447 1642.13184 2157.38672
2165.0 0.000462 1641.29004 2098.48438
2079.0 0.000481 1640.50000 2042.89417
2074.0 0.000482 1639.66345 1991.86572
2072.0 0.000483 1638.88403 1946.42188
1919.0 0.000521 1638.10059 1906.90649
1879.0 0.000532 1637.26038 1873.30652
1886.0 0.000530 1636.49854 1845.42761
1791.0 0.000558 1635.69714 1822.55188
1826.0 0.000548 1634.82190 1803.81348
1731.0 0.000578 1634.07129 1788.45313
1807.0 0.000553 1633.26208 1775.41882
1737.0 0.000576 1632.45117 1763.91614
1720.0 0.000581 1631.67517 1753.32922
1728.0 0.000579 1630.91919 1743.31641
1728.0 0.000579 1630.03760 1733.52002
1733.0 0.000577 1629.21631 1724.14795
1644.0 0.000608 1628.46985 1715.27563
1607.0 0.000622 1627.63367 1706.82288
1712.0 0.000584 1626.85620 1699.11865
1635.0 0.000612 1626.07153 1692.15198
1659.0 0.000603 1625.21790 1685.97681
1622.0 0.000617 1624.41394 1680.66992
1605.0 0.000623 1623.62488 1676.25317
1621.0 0.000617 1622.83032 1672.67236
1634.0 0.000612 1622.02991 1669.85144
1612.0 0.000620 1621.19666 1667.72278
1629.0 0.000614 1620.40784 1666.25732
1660.0 0.000602 1619.55811 1665.35913
1616.0 0.000619 1618.75623 1665.00684
1649.0 0.000606 1617.99915 1665.20496
1583.0 0.000632 1617.13342 1665.73755
1583.0 0.000632 1616.37830 1666.82532
1548.0 0.000646 1615.57727 1668.30811
1581.0 0.000633 1614.73608 1670.21265
1638.0 0.000611 1613.94763 1672.68567
1587.0 0.000630 1613.14856 1675.72656
1667.0 0.000600 1612.35510 1679.45557
1660.0 0.000602 1611.55688 1684.06677
1741.0 0.000574 1610.78101 1689.81555
1740.0 0.000575 1609.91919 1696.95496
1771.0 0.000565 1609.12463 1706.10291
1726.0 0.000579 1608.38782 1717.69446
1743.0 0.000574 1607.52441 1732.17639
1748.0 0.000572 1606.75452 1750.33472
1737.0 0.000576 1605.98145 1772.54004
1721.0 0.000581 1605.12805 1799.16931
1793.0 0.000558 1604.33386 1830.46973
1799.0 0.000556 1603.50757 1866.30212
1953.0 0.000512 1602.71448 1906.34070
1974.0 0.000507 1601.92200 1949.73572
1943.0 0.000515 1601.08398 1995.28577
2041.0 0.000490 1600.31348 2041.40784
2040.0 0.000490 1599.45593 2085.91235
2100.0 0.000476 1598.67102 2126.52148
2085.0 0.000480 1597.90210 2160.53345
2133.0 0.000469 1597.05688 2185.32715
2204.0 0.000454 1596.30273 2198.95288
2168.0 0.000461 1595.50537 2200.23901
2064.0 0.000484 1594.63806 2189.35889
2091.0 0.000478 1593.89246 2167.92188
2121.0 0.000471 1593.09155 2138.22510
2114.0 0.000473 1592.29565 2103.20605
1979.0 0.000505 1591.49341 2065.87061
2083.0 0.000480 1590.74146 2029.07935
1986.0 0.000504 1589.87598 1995.06824
1977.0 0.000506 1589.08167 1965.98352
1984.0 0.000504 1588.30444 1943.33850
1912.0 0.000523 1587.49170 1928.15710
1833.0 0.000546 1586.68469 1921.21655
1850.0 0.000541 1585.90356 1922.87830
1837.0 0.000544 1585.07373 1933.06470
1975.0 0.000506 1584.27979 1951.56616
1954.0 0.000512 1583.44067 1977.61646
1970.0 0.000508 1582.65930 2010.35022
2073.0 0.000482 1581.89478 2048.49854
2060.0 0.000485 1581.08118 2090.38208
2213.0 0.000452 1580.29822 2134.06567
2160.0 0.000463 1579.44238 2177.03271
2234.0 0.000448 1578.66821 2216.70654
2260.0 0.000442 1577.87952 2249.95728
2210.0 0.000452 1577.05286 2273.83545
2296.0 0.000436 1576.26550 2285.97583
2355.0 0.000425 1575.49634 2284.87476
2315.0 0.000432 1574.64954 2270.26392
2240.0 0.000446 1573.88757 2243.57983
2167.0 0.000461 1573.11401 2206.99121
2089.0 0.000479 1572.27808 2163.26221
2074.0 0.000482 1571.50989 2115.32520
2085.0 0.000480 1570.72632 2065.77002
2047.0 0.000489 1569.87341 2016.67920
1913.0 0.000523 1569.10901 1969.99133
1831.0 0.000546 1568.34265 1926.93311
1809.0 0.000553 1567.50110 1888.53564
1769.0 0.000565 1566.70996 1855.60632
1744.0 0.000573 1565.94849 1828.68958
1702.0 0.000588 1565.14368 1808.05701
1713.0 0.000584 1564.33533 1794.04980
1771.0 0.000565 1563.50537 1786.65002
1700.0 0.000588 1562.73267 1786.00061
1750.0 0.000571 1561.94324 1792.86804
1728.0 0.000579 1561.15259 1805.36047
1727.0 0.000579 1560.33960 1823.94946
1883.0 0.000531 1559.51440 1848.25195
1912.0 0.000523 1558.71082 1877.69775
1909.0 0.000524 1557.94861 1911.46912
2028.0 0.000493 1557.12634 1948.38733
1989.0 0.000503 1556.40356 1987.11426
2049.0 0.000488 1555.59192 2025.76196
2067.0 0.000484 1554.73499 2062.24683
2168.0 0.000461 1553.99976 2094.27344
2148.0 0.000466 1553.17871 2119.13989
2174.0 0.000460 1552.39844 2134.65137
2185.0 0.000458 1551.62292 2139.09521
2199.0 0.000455 1550.85278 2131.85400
2076.0 0.000482 1549.99866 2113.40674
2116.0 0.000473 1549.21912 2085.59595
2077.0 0.000481 1548.48486 2050.75635
2043.0 0.000489 1547.65625 2011.32996
1939.0 0.000516 1546.86584 1969.83984
1890.0 0.000529 1546.11206 1928.38489
1918.0 0.000521 1545.26782 1888.46912
1875.0 0.000533 1544.48145 1851.52112
1828.0 0.000547 1543.66455 1818.33044
1802.0 0.000555 1542.86804 1789.44568
1690.0 0.000592 1542.09216 1765.10327
1710.0 0.000585 1541.31067 1745.20276
1787.0 0.000560 1540.52661 1729.52917
1687.0 0.000593 1539.70544 1717.54749
1648.0 0.000607 1538.93994 1708.72839
1640.0 0.000610 1538.15784 1702.34509
1664.0 0.000601 1537.34106 1697.56152
1683.0 0.000594 1536.59192 1693.75293
1672.0 0.000598 1535.79395 1690.09509
1638.0 0.000611 1534.99036 1686.06836
1724.0 0.000580 1534.19312 1681.38208
1669.0 0.000599 1533.45972 1675.92236
1662.0 0.000602 1532.64685 1669.67029
1681.0 0.000595 1531.87817 1662.93701
1560.0 0.000641 1531.08850 1655.96094
1643.0 0.000609 1530.28052 1649.02356
1575.0 0.000635 1529.48108 1642.42432
1589.0 0.000629 1528.75073 1636.39270
1567.0 0.000638 1527.91895 1630.99817
1558.0 0.000642 1527.11890 1626.45972
1570.0 0.000637 1526.38708 1622.93555
1578.0 0.000634 1525.56689 1620.38281
1498.0 0.000668 1524.78979 1618.99390
1446.0 0.000692 1523.97375 1618.79077
1439.0 0.000695 1523.20825 1619.91028
1456.0 0.000687 1522.42700 1622.49597
1532.0 0.000653 1521.64746 1626.73083
1554.0 0.000644 1520.87830 1632.87769
1544.0 0.000648 1520.04956 1641.27075
1533.0 0.000652 1519.27563 1652.42932
1561.0 0.000641 1518.49854 1666.85864
1667.0 0.000600 1517.69470 1685.19983
1543.0 0.000648 1516.98425 1708.27869
1604.0 0.000623 1516.19348 1736.72607
1597.0 0.000626 1515.35925 1771.36328
1683.0 0.000594 1514.59705 1813.08655
1691.0 0.000591 1513.82947 1862.00208
1867.0 0.000536 1513.03491 1919.72656
1886.0 0.000530 1512.29211 1985.55676
1981.0 0.000505 1511.54053 2059.54932
2113.0 0.000473 1510.70471 2141.03638
2319.0 0.000431 1509.93579 2228.99561
2479.0 0.000403 1509.18164 2321.61792
2660.0 0.000376 1508.38379 2416.37769
2628.0 0.000381 1507.57300 2511.10864
2814.0 0.000355 1506.85034 2599.60010
2906.0 0.0003441 1506.02332 2678.01978
3026.0 0.0003305 1505.27551 2741.45605
3094.0 0.0003232 1504.47583 2784.98657
3068.0 0.0003259 1503.73145 2805.04004
3046.0 0.0003283 1502.93787 2799.68872
3082.0 0.0003245 1502.15869 2769.50098
2888.0 0.0003463 1501.39319 2717.00903
2823.0 0.000354 1500.59790 2646.32104
2698.0 0.000371 1499.84644 2562.47534
2530.0 0.000395 1499.07043 2470.31567
2427.0 0.000412 1498.26782 2374.35669
2312.0 0.000433 1497.54810 2278.50464
2157.0 0.000464 1496.75549 2185.60107
2085.0 0.000480 1495.92456 2097.93115
1954.0 0.000512 1495.19360 2017.18359
1842.0 0.000543 1494.42493 1944.16553
1755.0 0.000570 1493.65356 1879.30566
1649.0 0.000606 1492.90271 1822.73523
1623.0 0.000616 1492.13965 1774.04077
1559.0 0.000641 1491.33362 1732.72571
1467.0 0.000682 1490.56543 1698.10498
1471.0 0.000680 1489.85742 1669.42639
1504.0 0.000665 1489.03516 1645.74768
1508.0 0.000663 1488.27197 1626.39099
1442.0 0.000693 1487.51868 1610.60046
1446.0 0.000692 1486.72083 1597.66931
1435.0 0.000697 1485.97046 1587.11914
1445.0 0.000692 1485.18262 1578.39917
1435.0 0.000697 1484.41248 1571.15894
1373.0 0.000728 1483.67102 1565.12549
1456.0 0.000687 1482.86743 1559.95300
1398.0 0.000715 1482.13428 1555.59387
1422.0 0.000703 1481.32129 1551.76221
1402.0 0.000713 1480.57849 1548.48157
1393.0 0.000718 1479.80798 1545.62646
1388.0 0.000720 1479.02771 1543.09497
1390.0 0.000719 1478.29590 1540.95203
1414.0 0.000707 1477.51965 1539.08179
1389.0 0.000720 1476.73096 1537.49878
1433.0 0.000698 1475.99255 1536.26917
1412.0 0.000708 1475.24683 1535.34473
1399.0 0.000715 1474.48022 1534.71472
1382.0 0.000724 1473.72546 1535.06299
1414.0 0.000707 1473.00745 1535.38611
1391.0 0.000719 1472.21021 1536.28491
1477.0 0.000677 1471.42041 1538.07727
1372.0 0.000729 1470.70972 1541.10645
1374.0 0.000728 1469.91785 1545.76770
1426.0 0.000701 1469.17273 1552.77856
1450.0 0.000690 1468.42896 1562.97937
1403.0 0.000713 1467.61877 1577.43640
1389.0 0.000720 1466.88684 1597.66296
1487.0 0.000672 1466.10974 1625.14978
1501.0 0.000666 1465.36731 1661.76758
1627.0 0.000615 1464.59387 1709.34265
1634.0 0.000612 1463.88049 1769.62036
1685.0 0.000593 1463.10376 1843.86121
1739.0 0.000575 1462.31665 1932.90649
1962.0 0.000510 1461.58020 2036.61414
2042.0 0.000490 1460.84998 2153.58203
2191.0 0.000456 1460.05334 2281.08740
2384.0 0.000419 1459.31799 2415.08813
2572.0 0.000389 1458.56299 2549.79932
2735.0 0.000366 1457.80103 2678.28760
2897.0 0.0003452 1457.04785 2792.55493
2946.0 0.0003394 1456.31958 2884.14673
3088.0 0.0003238 1455.57080 2945.22485
3147.0 0.0003178 1454.82678 2969.85376
3130.0 0.0003195 1454.09814 2955.40283
2937.0 0.0003405 1453.30566 2903.08252
2879.0 0.0003473 1452.54016 2817.95483
2727.0 0.000367 1451.85083 2707.52271
2558.0 0.000391 1451.06274 2580.09277
2419.0 0.000413 1450.32422 2444.10986
2190.0 0.000457 1449.59436 2306.92993
2117.0 0.000472 1448.83264 2174.59937
2055.0 0.000487 1448.06238 2051.78467
1926.0 0.000519 1447.33118 1941.67029
1775.0 0.000563 1446.61169 1845.96326
1665.0 0.000601 1445.81714 1765.05627
1590.0 0.000629 1445.10400 1698.56067
1542.0 0.000649 1444.34607 1645.22083
1565.0 0.000639 1443.57068 1603.33618
1472.0 0.000679 1442.87573 1570.97681
1435.0 0.000697 1442.11279 1546.56531
1425.0 0.000702 1441.32568 1528.26489
1413.0 0.000708 1440.64709 1514.70056
1444.0 0.000693 1439.86890 1504.47864
1464.0 0.000683 1439.11023 1496.80737
1402.0 0.000713 1438.41541 1490.94226
1469.0 0.000681 1437.68518 1486.27942
1412.0 0.000708 1436.92505 1482.49670
1370.0 0.000730 1436.20728 1479.34546
1422.0 0.000703 1435.47498 1476.65198
1400.0 0.000714 1434.71484 1474.24500
1349.0 0.000741 1433.98535 1472.12122
1389.0 0.000720 1433.26709 1470.22449
1405.0 0.000712 1432.47729 1468.40442
1374.0 0.000728 1431.78735 1466.84863
1371.0 0.000729 1431.07715 1465.40710
1373.0 0.000728 1430.30591 1464.03442
1405.0 0.000712 1429.57642 1462.81616
1326.0 0.000754 1428.83435 1461.74158
1335.0 0.000749 1428.10681 1460.78455
1353.0 0.000739 1427.34875 1459.97058
1333.0 0.000750 1426.62805 1459.45667
1381.0 0.000724 1425.87769 1458.97375
1446.0 0.000692 1425.11560 1458.08691
1302.0 0.000768 1424.42981 1458.12854
1379.0 0.000725 1423.69421 1458.41187
1296.0 0.000772 1422.94214 1458.97266
1382.0 0.000724 1422.18799 1459.91479
1330.0 0.000752 1421.50989 1461.35242
1357.0 0.000737 1420.75586 1463.18250
1412.0 0.000708 1420.12842 1465.72046
1432.0 0.000698 1419.29602 1468.42029
1397.0 0.000716 1418.60120 1471.75378
1433.0 0.000698 1417.79480 1475.45703
1386.0 0.000722 1417.17383 1479.70618
1405.0 0.000712 1416.44385 1484.13489
1458.0 0.000686 1415.76782 1488.78943
1383.0 0.000723 1415.02295 1493.31116
1440.0 0.000694 1414.23682 1497.56738
1432.0 0.000698 1413.44714 1501.28040
1459.0 0.000685 1412.84570 1504.36719
1371.0 0.000729 1412.08447 1506.25574
1407.0 0.000711 1411.30054 1506.82092
1492.0 0.000670 1410.71411 1506.22607
1467.0 0.000682 1409.91260 1504.06787
1441.0 0.000694 1409.12354 1500.73584
1416.0 0.000706 1408.55090 1496.69043
1405.0 0.000712 1407.75085 1491.76917
1382.0 0.000724 1407.02576 1486.54529
1390.0 0.000719 1406.38696 1481.29114
1339.0 0.000747 1405.59424 1475.97192
1385.0 0.000722 1404.85510 1470.94861
1424.0 0.000702 1404.08789 1466.25500
1361.0 0.000735 1403.44934 1461.66638
1414.0 0.000707 1402.71692 1457.98059
1360.0 0.000735 1402.10962 1454.93677
1361.0 0.000735 1401.31384 1452.23621
1336.0 0.000749 1400.61951 1450.14478
1272.0 0.000786 1399.82019 1448.44043
1314.0 0.000761 1399.21350 1447.36230
1295.0 0.000772 1398.47937 1446.57556
1383.0 0.000723 1397.81958 1446.22827
1353.0 0.000739 1397.07483 1447.44055
1388.0 0.000720 1396.34082 1447.66333
1374.0 0.000728 1395.52698 1448.12122
1376.0 0.000727 1394.96936 1449.05847
1353.0 0.000739 1394.24292 1450.10034
1310.0 0.000763 1393.42810 1451.32068
1336.0 0.000749 1392.86877 1453.06641
1336.0 0.000749 1392.08557 1454.85132
1365.0 0.000733 1391.29651 1456.95068
1394.0 0.000717 1390.75464 1459.69971
1341.0 0.000746 1389.99988 1462.66040
1346.0 0.000743 1389.24927 1466.22913
1381.0 0.000724 1388.65796 1470.63757
1384.0 0.000723 1387.86877 1475.86987
1406.0 0.000711 1387.15027 1482.51160
1350.0 0.000741 1386.39380 1490.83130
1351.0 0.000740 1385.75916 1501.64563
1447.0 0.000691 1385.03955 1515.39294
1433.0 0.000698 1384.45947 1533.25623
1435.0 0.000697 1383.66687 1555.94995
1364.0 0.000733 1382.97192 1584.97388
1528.0 0.000654 1382.19177 1621.49109
1566.0 0.000639 1381.61182 1667.09985
1599.0 0.000625 1380.87683 1722.72449
1611.0 0.000621 1380.25842 1789.69312
1675.0 0.000597 1379.52417 1868.94556
1792.0 0.000558 1378.78882 1959.92847
1837.0 0.000544 1377.99915 2063.41650
1989.0 0.000503 1377.42456 2177.19385
1931.0 0.000518 1376.70435 2299.75122
2156.0 0.000464 1375.92432 2428.58325
2291.0 0.000436 1375.40442 2560.64600
2372.0 0.000422 1374.64258 2691.48755
2508.0 0.000399 1373.86633 2817.14404
2580.0 0.000388 1373.33716 2933.92407
2776.0 0.000360 1372.56677 3038.21313
2814.0 0.000355 1371.83398 3128.30273
2909.0 0.0003438 1371.24841 3203.48486
3066.0 0.0003262 1370.47400 3263.41943
3044.0 0.0003285 1369.78882 3308.76807
3288.0 0.0003041 1369.06775 3339.94507
3211.0 0.0003114 1368.43274 3357.71167
3299.0 0.0003031 1367.73120 3362.77319
3371.0 0.0002966 1367.14307 3356.07690
3319.0 0.0003013 1366.39941 3337.83521
3329.0 0.0003004 1365.73804 3308.00684
3344.0 0.0002990 1364.93140 3265.34033
3329.0 0.0003004 1364.39636 3208.72192
3159.0 0.0003166 1363.65698 3136.52979
3093.0 0.0003233 1363.04907 3048.87646
3139.0 0.0003186 1362.30920 2946.84106
2885.0 0.0003466 1361.62354 2833.38135
2838.0 0.000352 1360.86230 2711.21558
2606.0 0.000384 1360.27808 2586.59082
2407.0 0.000415 1359.61792 2462.06787
2268.0 0.000441 1358.82605 2340.64258
2200.0 0.000455 1358.35059 2225.70679
2007.0 0.000498 1357.57507 2118.18018
1865.0 0.000536 1356.78857 2019.54688
1699.0 0.000589 1356.29358 1929.85547
1687.0 0.000593 1355.55310 1850.61328
1590.0 0.000629 1354.84302 1781.06506
1606.0 0.000623 1354.29517 1720.91614
1546.0 0.000647 1353.52966 1669.19714
1496.0 0.000668 1352.85229 1625.42944
1438.0 0.000695 1352.14014 1588.64160
1404.0 0.000712 1351.51465 1558.08838
1427.0 0.000701 1350.82288 1532.72034
1394.0 0.000717 1350.26624 1511.95447
1454.0 0.000688 1349.52136 1494.66858
1379.0 0.000725 1348.87317 1480.50037
1391.0 0.000719 1348.10938 1468.70251
1405.0 0.000712 1347.54370 1459.04041
1354.0 0.000739 1346.85779 1450.86108
1348.0 0.000742 1346.26221 1444.06702
1398.0 0.000715 1345.56104 1438.24927
1294.0 0.000773 1344.89380 1433.35876
1402.0 0.000713 1344.12195 1429.18115
1342.0 0.000745 1343.59045 1426.00732
1324.0 0.000755 1342.91479 1423.44897
1352.0 0.000740 1342.15405 1421.59180
1329.0 0.000752 1341.67029 1420.84717
1410.0 0.000709 1340.91821 1420.75439
1364.0 0.000733 1340.16187 1421.65759
1386.0 0.000722 1339.68298 1423.91760
1410.0 0.000709 1338.96130 1427.10571
1318.0 0.000759 1338.27905 1431.50464
1394.0 0.000717 1337.72717 1437.19946
1425.0 0.000702 1336.98096 1443.83484
1398.0 0.000715 1336.30261 1451.49329
1407.0 0.000711 1335.61548 1459.87854
1488.0 0.000672 1335.00195 1468.77710
1461.0 0.000684 1334.35498 1477.63782
1436.0 0.000696 1333.78772 1486.09680
1444.0 0.000693 1333.05872 1493.33667
1497.0 0.000668 1332.41138 1499.02747
1514.0 0.000661 1331.71399 1502.49316
1490.0 0.000671 1331.14941 1503.52136
1531.0 0.000653 1330.49548 1501.67761
1496.0 0.000668 1329.91541 1497.26062
1530.0 0.000654 1329.22400 1490.43042
1512.0 0.000661 1328.57483 1481.86890
1404.0 0.000712 1327.83057 1472.01135
1460.0 0.000685 1327.27563 1461.74353
1398.0 0.000715 1326.59473 1451.24841
1373.0 0.000728 1325.90234 1441.11951
1410.0 0.000709 1325.43188 1431.91602
1408.0 0.000710 1324.69983 1423.43933
1317.0 0.000759 1323.98474 1416.15051
1332.0 0.000751 1323.51770 1410.40906
1346.0 0.000743 1322.77747 1405.77710
1403.0 0.000713 1322.11462 1402.64001
1375.0 0.000727 1321.58948 1401.13281
1373.0 0.000728 1320.83557 1400.96875
1290.0 0.000775 1320.20410 1402.66724
1390.0 0.000719 1319.52429 1406.31641
1326.0 0.000754 1318.96448 1412.51196
1365.0 0.000733 1318.30237 1421.65759
1341.0 0.000746 1317.76172 1434.83801
1278.0 0.000782 1317.06909 1452.86401
1330.0 0.000752 1316.45129 1477.41821
1391.0 0.000719 1315.75366 1510.04053
1337.0 0.000748 1315.19983 1552.91187
1475.0 0.000678 1314.57275 1607.93799
1525.0 0.000656 1313.99414 1677.38293
1540.0 0.000649 1313.31482 1763.05652
1699.0 0.000589 1312.65906 1866.66467
1749.0 0.000572 1311.94971 1988.87000
1940.0 0.000515 1311.45166 2129.76709
2244.0 0.000446 1310.79712 2287.42676
2351.0 0.000425 1310.08728 2458.76904
2607.0 0.000384 1309.64514 2639.34277
2893.0 0.0003457 1308.91846 2822.05029
3224.0 0.0003102 1308.24292 2999.21069
3624.0 0.0002759 1307.79114 3161.82764
3871.0 0.0002583 1307.07629 3299.63818
4024.0 0.0002485 1306.43420 3403.39478
4199.0 0.0002382 1305.91052 3464.79980
4317.0 0.0002316 1305.21973 3478.02881
4228.0 0.0002365 1304.59570 3441.69092
4175.0 0.0002395 1303.91345 3358.67456
4035.0 0.0002478 1303.35864 3236.13745
3755.0 0.0002663 1302.74243 3083.52002
3539.0 0.0002826 1302.19812 2911.67749
3218.0 0.0003108 1301.54114 2730.84521
2971.0 0.0003366 1300.94214 2550.73999
2749.0 0.000364 1300.22827 2379.20044
2436.0 0.000411 1299.69507 2222.94995
2149.0 0.000465 1299.10742 2086.49536
2078.0 0.000481 1298.55188 1973.00513
1948.0 0.000513 1297.90283 1883.91895
1806.0 0.000554 1297.28845 1819.57922
1822.0 0.000549 1296.57178 1778.93506
1803.0 0.000555 1296.07971 1760.54480
1851.0 0.000540 1295.44812 1761.46155
1852.0 0.000540 1294.76135 1778.76355
1945.0 0.000514 1294.33850 1809.18079
1881.0 0.000532 1293.65247 1848.40186
1945.0 0.000514 1292.94910 1892.54504
2040.0 0.000490 1292.52734 1937.59875
2160.0 0.000463 1291.82910 1978.65955
2231.0 0.000448 1291.21313 2011.85999
2222.0 0.000450 1290.72363 2033.48975
2322.0 0.000431 1290.03223 2040.45386
2350.0 0.000426 1289.42029 2031.61243
2185.0 0.000458 1288.76526 2007.10156
2091.0 0.000478 1288.21399 1968.78662
2084.0 0.000480 1287.63000 1919.32715
1928.0 0.000519 1287.13660 1862.19971
1964.0 0.000509 1286.42627 1800.45593
1801.0 0.000555 1285.90479 1737.58118
1739.0 0.000575 1285.20239 1675.81567
1642.0 0.000609 1284.70459 1617.70044
1612.0 0.000620 1284.10400 1564.60974
1540.0 0.000649 1283.54736 1517.23413
1405.0 0.000712 1282.93030 1476.14868
1460.0 0.000685 1282.35376 1441.40137
1424.0 0.000702 1281.68530 1412.62805
1354.0 0.000739 1281.19055 1389.48926
1277.0 0.000783 1280.58716 1370.97974
1302.0 0.000768 1279.90991 1356.38293
1372.0 0.000729 1279.49670 1345.29663
1322.0 0.000756 1278.80176 1336.49487
1268.0 0.000789 1278.13293 1329.70728
1278.0 0.000782 1277.74951 1324.69128
1272.0 0.000786 1277.06335 1320.48352
1240.0 0.000806 1276.48743 1317.20435
1253.0 0.000798 1276.00305 1314.59106
1338.0 0.000747 1275.33704 1312.23230
1262.0 0.000792 1274.73975 1310.24707
1244.0 0.000804 1274.11047 1308.46362
1270.0 0.000787 1273.58667 1306.98328
1313.0 0.000762 1273.03149 1305.57788
1206.0 0.000829 1272.52539 1304.36963
1280.0 0.000781 1271.85767 1304.87695
1286.0 0.000778 1271.35376 1303.85425
1235.0 0.000810 1270.67175 1303.50061
1268.0 0.000789 1270.19397 1302.66516
1262.0 0.000792 1269.63660 1301.82825
1271.0 0.000787 1269.10205 1301.07788
1325.0 0.000755 1268.46875 1300.29895
1204.0 0.000831 1267.93359 1299.65100
1320.0 0.000758 1267.24255 1298.92139
1238.0 0.000808 1266.77930 1298.47778
1182.0 0.000846 1266.21289 1297.98425
1263.0 0.000792 1265.52026 1297.41565
1287.0 0.000777 1265.14502 1297.22986
1233.0 0.000811 1264.53210 1296.85889
1203.0 0.000831 1263.83276 1296.48303
1262.0 0.000792 1263.48743 1296.48914
1274.0 0.000785 1262.83826 1296.26489
1345.0 0.000743 1262.24390 1296.17712
1248.0 0.000801 1261.80872 1296.29871
1292.0 0.000774 1261.13904 1296.24780
1277.0 0.000783 1260.57898 1296.39685
1243.0 0.000805 1259.97461 1296.59412
1285.0 0.000778 1259.45215 1296.93469
1292.0 0.000774 1258.90698 1297.38184
1303.0 0.000767 1258.47449 1298.00305
1217.0 0.000822 1257.81445 1298.53320
1280.0 0.000781 1257.28796 1299.33521
1222.0 0.000818 1256.61743 1300.12305
1223.0 0.000818 1256.17017 1301.29480
1261.0 0.000793 1255.62769 1302.53772
1275.0 0.000784 1255.15991 1304.09375
1283.0 0.000779 1254.52722 1305.77075
1264.0 0.000791 1253.99573 1307.83655
1275.0 0.000784 1253.31226 1310.19092
1258.0 0.000795 1252.87317 1313.26221
1262.0 0.000792 1252.34045 1316.90332
1226.0 0.000816 1251.67322 1321.24902
1315.0 0.000760 1251.35242 1326.95215
1308.0 0.000765 1250.71057 1333.68091
1315.0 0.000760 1250.04285 1342.07227
1341.0 0.000746 1249.72839 1352.87646
1332.0 0.000751 1249.09082 1365.67773
1306.0 0.000766 1248.53015 1381.62476
1341.0 0.000746 1248.12585 1401.76685
1329.0 0.000752 1247.47473 1425.93384
1474.0 0.000678 1246.90564 1455.09558
1527.0 0.000655 1246.32996 1489.76123
1496.0 0.000668 1245.83374 1530.69495
1541.0 0.000649 1245.30334 1577.79333
1551.0 0.000645 1244.88354 1631.49292
1726.0 0.000579 1244.26526 1691.55774
1782.0 0.000561 1243.72974 1757.55359
1847.0 0.000541 1243.12659 1828.67383
1971.0 0.000507 1242.66992 1903.93298
2201.0 0.000454 1242.15576 1981.35681
2270.0 0.000441 1241.69666 2058.84985
2286.0 0.000437 1241.13745 2133.50635
2387.0 0.000419 1240.57861 2202.07837
2534.0 0.000395 1239.93799 2260.80542
2626.0 0.000381 1239.53625 2306.22900
2556.0 0.000391 1238.97632 2334.60742
2553.0 0.000392 1238.35864 2343.66260
2602.0 0.000384 1238.04077 2332.96460
2514.0 0.000398 1237.44690 2302.74585
2493.0 0.000401 1236.80615 2255.66675
2396.0 0.000417 1236.50085 2195.51978
2279.0 0.000439 1235.86511 2125.39648
2144.0 0.000466 1235.34985 2049.49902
2044.0 0.000489 1234.93933 1971.12451
1932.0 0.000518 1234.30420 1892.67627
1922.0 0.000520 1233.76331 1816.69141
1743.0 0.000574 1233.23340 1744.77209
1741.0 0.000574 1232.76135 1678.15881
1635.0 0.000612 1232.26538 1617.53613
1541.0 0.000649 1231.82886 1563.41589
1501.0 0.000666 1231.19946 1515.63660
1435.0 0.000697 1230.75781 1474.40991
1376.0 0.000727 1230.14917 1438.99219
1356.0 0.000737 1229.70740 1409.26819
1401.0 0.000714 1229.22070 1384.40125
1355.0 0.000738 1228.77148 1363.85193
1350.0 0.000741 1228.18665 1346.85229
1343.0 0.000745 1227.71680 1332.74255
1273.0 0.000786 1227.10059 1321.35364
1238.0 0.000808 1226.70740 1312.25574
1300.0 0.000769 1226.17664 1304.70813
1304.0 0.000767 1225.56055 1298.15393
1291.0 0.000775 1225.28284 1293.21948
1247.0 0.000802 1224.68689 1288.83215
1242.0 0.000805 1224.06470 1285.12793
1221.0 0.000819 1223.80579 1282.32166
1235.0 0.000810 1223.17590 1279.62915
1280.0 0.000781 1222.65662 1277.49280
1298.0 0.000770 1222.29480 1275.91003
1304.0 0.000767 1221.67651 1274.43762
1253.0 0.000798 1221.16003 1273.46326
1240.0 0.000806 1220.65173 1272.84668
1238.0 0.000808 1220.18127 1272.66211
1266.0 0.000790 1219.68909 1272.82910
1289.0 0.000776 1219.31934 1273.45776
1315.0 0.000760 1218.73706 1274.22412
1240.0 0.000806 1218.28247 1275.42773
1277.0 0.000783 1217.68762 1276.70398
1290.0 0.000775 1217.31970 1278.37219
1298.0 0.000770 1216.81152 1279.96216
1315.0 0.000760 1216.38757 1281.49243
1275.0 0.000784 1215.82629 1282.83496
1339.0 0.000747 1215.36169 1283.98889
1360.0 0.000735 1214.77002 1284.61182
1313.0 0.000762 1214.38623 1285.02124
1303.0 0.000767 1213.91345 1284.84375
1298.0 0.000770 1213.29663 1284.11719
1373.0 0.000728 1213.08923 1283.48755
1261.0 0.000793 1212.45569 1282.29492
1308.0 0.000765 1211.87073 1281.15405
1359.0 0.000736 1211.62024 1280.57800
1384.0 0.000723 1211.05334 1280.20886
1401.0 0.000714 1210.55957 1280.71436
1355.0 0.000738 1210.17664 1282.46350
1326.0 0.000754 1209.58276 1285.57385
1308.0 0.000765 1209.13586 1290.88013
1310.0 0.000763 1208.58057 1298.69702
1368.0 0.000731 1208.18335 1310.04358
1398.0 0.000715 1207.71838 1326.17932
1368.0 0.000731 1207.36462 1346.68799
1411.0 0.000709 1206.78357 1372.87183
1471.0 0.000680 1206.35754 1405.96545
1501.0 0.000666 1205.80725 1446.38318
1510.0 0.000662 1205.39990 1494.96484
1542.0 0.000649 1204.97815 1551.72009
1648.0 0.000607 1204.55249 1616.37622
1642.0 0.000609 1204.03113 1688.02856
1716.0 0.000583 1203.55933 1765.39233
1782.0 0.000561 1202.96777 1846.14636
1866.0 0.000536 1202.64441 1927.93909
1876.0 0.000533 1202.18750 2006.93823
1942.0 0.000515 1201.59595 2079.24512
1950.0 0.000513 1201.35681 2141.10986
1994.0 0.000502 1200.78113 2187.69580
2026.0 0.000494 1200.24426 2215.80005
2019.0 0.000495 1200.01526 2223.36548
1999.0 0.000500 1199.42407 2209.07617
1964.0 0.000509 1198.97681 2174.74805
1938.0 0.000516 1198.63574 2123.16846
1901.0 0.000526 1198.04578 2057.89746
1851.0 0.000540 1197.64612 1983.62390
1766.0 0.000566 1197.09912 1904.17407
1773.0 0.000564 1196.69873 1823.58789
1669.0 0.000599 1196.25391 1744.81934
1707.0 0.000586 1195.90161 1670.50024
1576.0 0.000635 1195.36987 1602.25537
1565.0 0.000639 1194.99243 1541.80847
1497.0 0.000668 1194.44263 1488.94885
1473.0 0.000679 1194.07629 1444.36011
1461.0 0.000684 1193.64514 1407.46533
1427.0 0.000701 1193.25903 1377.75183
1373.0 0.000728 1192.73511 1354.26538
1386.0 0.000722 1192.31519 1336.36523
1318.0 0.000759 1191.74548 1322.93799
1301.0 0.000769 1191.43323 1313.59277
1359.0 0.000736 1190.98389 1307.25793
1334.0 0.000750 1190.44080 1303.34570
1345.0 0.000743 1190.22864 1301.89978
1328.0 0.000753 1189.67297 1301.90637
1270.0 0.000787 1189.14478 1303.56409
1312.0 0.000762 1188.92102 1307.07837
1287.0 0.000777 1188.36267 1311.82837
1279.0 0.000782 1187.92188 1318.39844
1363.0 0.000734 1187.61560 1326.99451
1290.0 0.000775 1187.05103 1337.51733
1328.0 0.000753 1186.65454 1350.76428
1332.0 0.000751 1186.16614 1366.89929
1363.0 0.000734 1185.78589 1386.65979
1359.0 0.000736 1185.36365 1409.79810
1339.0 0.000747 1185.01001 1438.47791
1426.0 0.000701 1184.50757 1472.55090
1452.0 0.000689 1184.14404 1513.14172
1495.0 0.000669 1183.61487 1560.79150
1518.0 0.000659 1183.26672 1616.79749
1597.0 0.000626 1182.86548 1681.77441
1620.0 0.000617 1182.48059 1756.62024
1821.0 0.000549 1182.03284 1842.06458
1831.0 0.000546 1181.59863 1938.75891
1995.0 0.000501 1181.07190 2047.05627
2155.0 0.000464 1180.76208 2167.34302
2321.0 0.000431 1180.34265 2298.93115
2558.0 0.000391 1179.80676 2441.29126
2701.0 0.000370 1179.63611 2592.50708
2851.0 0.000351 1179.09436 2749.84326
3136.0 0.0003189 1178.57605 2910.48340
3503.0 0.0002855 1178.38977 3070.74438
3597.0 0.0002780 1177.85486 3225.06812
3857.0 0.0002593 1177.44800 3368.19751
4112.0 0.0002432 1177.14758 3493.60864
4376.0 0.0002285 1176.62061 3594.11621
4316.0 0.0002317 1176.22998 3663.71851
4381.0 0.0002283 1175.75488 3697.38208
4506.0 0.0002219 1175.38782 3693.14258
4516.0 0.0002214 1175.01367 3651.86841
4224.0 0.0002367 1174.68677 3577.74951
4196.0 0.0002383 1174.18127 3476.83154
3910.0 0.0002558 1173.84570 3356.79272
3668.0 0.0002726 1173.36084 3224.71802
3442.0 0.0002905 1173.01770 3087.50708
3272.0 0.0003056 1172.66675 2950.56763
3172.0 0.0003153 1172.28809 2818.45654
2833.0 0.000353 1171.82556 2696.80054
2707.0 0.000369 1171.47095 2583.98926
2539.0 0.000394 1170.94775 2483.94482
2394.0 0.000418 1170.64087 2398.44043
2242.0 0.000446 1170.25671 2327.95337
2179.0 0.000459 1169.74341 2272.56738
2062.0 0.000485 1169.58386 2232.43042
2069.0 0.000483 1169.05249 2204.82715
1945.0 0.000514 1168.59033 2188.25830
1942.0 0.000515 1168.39648 2180.12891
1990.0 0.000503 1167.91919 2176.46484
1935.0 0.000517 1167.51721 2173.92163
1880.0 0.000532 1167.23486 2168.75049
1830.0 0.000546 1166.71960 2157.17847
1903.0 0.000525 1166.34692 2136.82690
1918.0 0.000521 1165.91833 2106.04175
1776.0 0.000563 1165.58533 2064.80859
1760.0 0.000568 1165.23779 2014.19385
1713.0 0.000584 1164.92065 1956.36865
1740.0 0.000575 1164.46008 1893.80176
1679.0 0.000596 1164.10022 1829.51843
1648.0 0.000607 1163.65308 1765.93677
1557.0 0.000642 1163.34949 1705.66638
1571.0 0.000637 1163.00525 1650.43481
1580.0 0.000633 1162.64539 1601.75024
1518.0 0.000659 1162.20581 1560.52136
1467.0 0.000682 1161.85168 1527.44324
1448.0 0.000691 1161.35535 1502.33130
1465.0 0.000683 1161.07849 1485.19263
1414.0 0.000707 1160.71875 1475.04016
1418.0 0.000705 1160.21228 1470.84937
1495.0 0.000669 1160.07336 1471.92529
1500.0 0.000667 1159.58704 1476.26318
1568.0 0.000638 1159.12146 1482.73376
1589.0 0.000629 1158.97351 1490.19238
1465.0 0.000683 1158.51257 1496.56848
1582.0 0.000632 1158.12610 1500.97339
1435.0 0.000697 1157.91174 1502.41736
1544.0 0.000648 1157.37024 1499.80762
1562.0 0.000640 1157.05615 1493.35864
1542.0 0.000649 1156.62964 1482.97754
1539.0 0.000650 1156.29285 1469.30103
1462.0 0.000684 1155.95264 1452.89465
1398.0 0.000715 1155.66846 1434.57361
1461.0 0.000684 1155.20557 1414.87305
1411.0 0.000709 1154.93457 1394.85278
1386.0 0.000722 1154.43835 1374.80920
1414.0 0.000707 1154.18774 1355.69580
1383.0 0.000723 1153.84973 1337.69482
1362.0 0.000734 1153.53430 1321.16187
1382.0 0.000724 1153.15247 1306.23486
1350.0 0.000741 1152.79663 1293.06335
1354.0 0.000739 1152.28394 1281.45532
1317.0 0.000759 1152.08398 1271.70483
1270.0 0.000787 1151.69897 1263.18347
1310.0 0.000763 1151.24036 1255.73840
1278.0 0.000782 1151.10706 1249.55933
1228.0 0.000814 1150.66882 1243.80212
1261.0 0.000793 1150.19946 1238.53284
1232.0 0.000812 1150.10107 1233.97083
1218.0 0.000821 1149.64050 1229.34778
1230.0 0.000813 1149.26978 1225.06482
1228.0 0.000814 1149.04077 1221.10608
1215.0 0.000823 1148.58118 1217.15637
1249.0 0.000801 1148.22729 1213.57104
1284.0 0.000779 1147.85059 1210.21411
1222.0 0.000818 1147.53955 1207.20618
1235.0 0.000810 1147.22803 1204.49988
1241.0 0.000806 1146.97375 1202.16614
1262.0 0.000792 1146.55981 1199.99402
1229.0 0.000814 1146.26025 1198.24194
1242.0 0.000805 1145.82312 1196.64880
1232.0 0.000812 1145.57153 1195.51038
1216.0 0.000822 1145.24695 1194.56470
1213.0 0.000824 1144.97278 1193.87756
1203.0 0.000831 1144.57312 1193.30798
1223.0 0.000818 1144.28003 1193.00037
1198.0 0.000835 1143.78943 1192.65088
1256.0 0.000796 1143.58691 1192.71155
1240.0 0.000806 1143.26855 1192.75232
1231.0 0.000812 1142.80725 1192.76038
1189.0 0.000841 1142.72522 1193.17041
1265.0 0.000791 1142.27185 1193.29126
1206.0 0.000829 1141.83948 1192.71875
1249.0 0.000801 1141.73987 1193.22302
1251.0 0.000799 1141.28857 1193.38940
1186.0 0.000843 1140.97888 1193.68152
1218.0 0.000821 1140.75659 1194.10852
1212.0 0.000825 1140.29529 1194.32043
1235.0 0.000810 1140.00745 1194.73999
1232.0 0.000812 1139.62158 1195.14087
1297.0 0.000771 1139.34290 1195.70239
1246.0 0.000803 1139.04626 1196.35938
1286.0 0.000778 1138.81799 1197.19604
1259.0 0.000794 1138.38025 1197.94153
1250.0 0.000800 1138.14624 1199.00439
1202.0 0.000832 1137.73828 1200.04712
1246.0 0.000803 1137.48608 1201.41211
1227.0 0.000815 1137.22070 1202.93677
1238.0 0.000808 1136.95117 1204.62952
1221.0 0.000819 1136.54956 1206.39771
1262.0 0.000792 1136.29041 1208.51599
1269.0 0.000788 1135.83728 1210.72229
1263.0 0.000792 1135.64221 1213.37842
1246.0 0.000803 1135.32556 1216.19751
1245.0 0.000803 1134.91272 1219.20959
1276.0 0.000784 1134.81042 1222.87915
1272.0 0.000786 1134.41748 1226.64685
1289.0 0.000776 1133.98743 1230.84497
1239.0 0.000807 1133.89771 1235.94641
1195.0 0.000837 1133.51343 1241.43933
1230.0 0.000813 1133.20618 1247.90332
1258.0 0.000795 1133.02429 1255.64978
1262.0 0.000792 1132.56860 1264.64685
1325.0 0.000755 1132.29041 1275.84973
1295.0 0.000772 1131.93201 1289.69543
1300.0 0.000769 1131.65710 1307.25159
1334.0 0.000750 1131.41772 1329.68176
1383.0 0.000723 1131.17407 1358.41577
1379.0 0.000725 1130.77917 1395.12744
1426.0 0.000701 1130.58105 1442.35767
1514.0 0.000661 1130.16931 1502.26013
1508.0 0.000663 1129.94543 1578.00073
1535.0 0.000651 1129.68945 1672.32556
1730.0 0.000578 1129.43823 1788.29919
1912.0 0.000523 1129.06921 1928.50415
1962.0 0.000510 1128.81580 2095.51660
2156.0 0.000464 1128.38574 2290.58350
2314.0 0.000432 1128.20740 2514.59937
2538.0 0.000394 1127.94299 2766.37231
2747.0 0.000364 1127.51501 3043.33594
3115.0 0.0003210 1127.46130 3341.74707
3200.0 0.0003125 1127.09521 3654.74487
3511.0 0.0002848 1126.68835 3975.85718
3904.0 0.0002561 1126.61621 4292.80518
4192.0 0.0002385 1126.22632 4594.74512
4237.0 0.0002360 1125.93420 4869.63086
4538.0 0.0002204 1125.78552 5105.01563
4806.0 0.0002081 1125.33264 5289.40381
4971.0 0.0002012 1125.10608 5415.05176
5122.0 0.0001952 1124.74609 5477.05664
5128.0 0.0001950 1124.51343 5475.03320
5074.0 0.0001971 1124.26538 5411.41406
4897.0 0.0002042 1124.05847 5291.13428
4868.0 0.0002054 1123.70178 5120.32764
4750.0 0.0002105 1123.49036 4906.70215
4498.0 0.0002223 1123.12415 4658.34619
4104.0 0.0002437 1122.91553 4384.89063
3823.0 0.0002616 1122.67603 4095.85889
3535.0 0.0002829 1122.44275 3800.99829
3379.0 0.0002959 1122.10803 3508.97559
2974.0 0.0003362 1121.88171 3227.47168
2731.0 0.000366 1121.42932 2961.84448
2484.0 0.000403 1121.29199 2716.63501
2217.0 0.000451 1121.01233 2493.85010
2117.0 0.000472 1120.65039 2294.66064
1990.0 0.000503 1120.62146 2119.47437
1788.0 0.000559 1120.23572 1966.86487
1740.0 0.000575 1119.85657 1835.80615
1641.0 0.000609 1119.82959 1724.87866
1499.0 0.000667 1119.46033 1631.61023
1477.0 0.000677 1119.21277 1553.93274
1451.0 0.000689 1119.06812 1490.01794
1410.0 0.000709 1118.63977 1437.36206
1406.0 0.000711 1118.42114 1394.81946
1360.0 0.000735 1118.08740 1360.09033
1380.0 0.000725 1117.86145 1332.08569
1322.0 0.000756 1117.64819 1309.45325
1240.0 0.000806 1117.46484 1291.13196
1305.0 0.000766 1117.10034 1276.06458
1274.0 0.000785 1116.92480 1263.90039
1238.0 0.000808 1116.56860 1253.73926
1275.0 0.000784 1116.38708 1245.46985
1270.0 0.000787 1116.18152 1238.59106
1307.0 0.000765 1115.96045 1232.86902
1201.0 0.000833 1115.55750 1228.00977
1252.0 0.000799 1115.42468 1224.31287
1227.0 0.000815 1115.02344 1221.24243
1246.0 0.000803 1114.77917 1219.20972
1287.0 0.000777 1114.65771 1218.24658
1260.0 0.000794 1114.29822 1218.10278
1237.0 0.000808 1114.28479 1219.44678
1296.0 0.000772 1113.91589 1221.82520
1272.0 0.000786 1113.56006 1225.80334
1346.0 0.000743 1113.57642 1231.95825
1308.0 0.000765 1113.17590 1239.80872
1305.0 0.000766 1113.05835 1250.25439
1392.0 0.000718 1112.82410 1263.57349
1407.0 0.000711 1112.42139 1279.17432
1425.0 0.000702 1112.32788 1298.01721
1444.0 0.000693 1111.94250 1319.56787
1490.0 0.000671 1111.71875 1344.23657
1500.0 0.000667 1111.62231 1371.88892
1589.0 0.000629 1111.37122 1401.56152
1543.0 0.000648 1111.00720 1432.86389
1666.0 0.000600 1110.87231 1465.35779
1655.0 0.000604 1110.53381 1497.61194
1728.0 0.000579 1110.26282 1528.72412
1796.0 0.000557 1110.15991 1557.37988
1755.0 0.000570 1109.96570 1581.83301
1724.0 0.000580 1109.55835 1600.48022
1890.0 0.000529 1109.47766 1612.44885
1892.0 0.000529 1109.11255 1616.23730
1849.0 0.000541 1108.87463 1611.80408
1816.0 0.000551 1108.77112 1599.38000
1796.0 0.000557 1108.43054 1579.52319
1708.0 0.000585 1108.43408 1554.00378
1743.0 0.000574 1108.08081 1523.68079
1688.0 0.000592 1107.74536 1490.43286
1594.0 0.000627 1107.75269 1456.00366
1474.0 0.000678 1107.41260 1420.94141
1436.0 0.000696 1107.28320 1386.86194
1353.0 0.000739 1107.07617 1354.29578
1400.0 0.000714 1106.71851 1323.78723
1364.0 0.000733 1106.63770 1296.21960
1354.0 0.000739 1106.22876 1271.28467
1361.0 0.000735 1106.04041 1249.56787
1258.0 0.000795 1105.97107 1230.98938
1305.0 0.000766 1105.73730 1215.11584
1219.0 0.000820 1105.39172 1201.83081
1202.0 0.000832 1105.26343 1191.27856
1233.0 0.000811 1104.96191 1182.69348
1256.0 0.000796 1104.71118 1176.13049
1261.0 0.000793 1104.61279 1171.44348
1249.0 0.000801 1104.44727 1168.21521
1204.0 0.000831 1104.07092 1166.13489
1195.0 0.000837 1104.01306 1165.55530
1211.0 0.000826 1103.65356 1165.94592
1167.0 0.000857 1103.44128 1167.33130
1202.0 0.000832 1103.33716 1168.05652
1261.0 0.000793 1102.99292 1171.00476
1276.0 0.000784 1103.03125 1174.96606
1243.0 0.000805 1102.70520 1179.13794
1247.0 0.000802 1102.39941 1183.52747
1231.0 0.000812 1102.41089 1188.64453
1241.0 0.000806 1102.11890 1193.46887
1255.0 0.000797 1101.98840 1198.27527
1292.0 0.000774 1101.81189 1202.62012
1287.0 0.000777 1101.43762 1206.08630
1333.0 0.000750 1101.40015 1209.13660
1302.0 0.000768 1101.03198 1210.94958
1285.0 0.000778 1100.84924 1212.04126
1314.0 0.000761 1100.79456 1212.39929
1269.0 0.000788 1100.54700 1211.88672
1298.0 0.000770 1100.24622 1210.87329
1233.0 0.000811 1100.14319 1209.86768
1260.0 0.000794 1099.87036 1208.72522
1266.0 0.000790 1099.62061 1207.86804
1240.0 0.000806 1099.57837 1207.63904
1221.0 0.000819 1099.40100 1207.78967
1305.0 0.000766 1099.01099 1208.30884
1224.0 0.000817 1099.00684 1209.73315
1287.0 0.000777 1098.64490 1211.32739
1257.0 0.000796 1098.46289 1213.39001
1250.0 0.000800 1098.37976 1215.71790
1308.0 0.000765 1098.09070 1217.80554
1327.0 0.000754 1098.11548 1219.95947
1302.0 0.000768 1097.80078 1221.32336
1267.0 0.000789 1097.51953 1222.04639
1326.0 0.000754 1097.54663 1222.25562
1252.0 0.000799 1097.25684 1221.20032
1280.0 0.000781 1097.16309 1219.41309
1322.0 0.000756 1097.00183 1216.70422
1256.0 0.000796 1096.65796 1213.10840
1305.0 0.000766 1096.61633 1209.29517
1268.0 0.000789 1096.26953 1204.90942
1256.0 0.000796 1096.11340 1200.65039
1264.0 0.000791 1096.09460 1196.72742
1265.0 0.000791 1095.86145 1192.95361
1257.0 0.000796 1095.56738 1189.70471
1310.0 0.000763 1095.45154 1187.41345
1236.0 0.000809 1095.18835 1185.90540
1243.0 0.000805 1094.96863 1185.68066
1256.0 0.000796 1094.95532 1187.13611
1216.0 0.000822 1094.77258 1190.28149
1216.0 0.000822 1094.44592 1195.59229
1341.0 0.000746 1094.43298 1204.18555
1330.0 0.000752 1094.11267 1216.49377
1371.0 0.000729 1093.94141 1233.45947
1396.0 0.000716 1093.85645 1256.51904
1392.0 0.000718 1093.56763 1286.86157
1456.0 0.000687 1093.60229 1326.67273
1481.0 0.000675 1093.35364 1377.20093
1511.0 0.000662 1093.05212 1440.59314
1601.0 0.000625 1093.11121 1519.10217
1674.0 0.000597 1092.82507 1613.63342
1832.0 0.000546 1092.77124 1725.97351
1929.0 0.000518 1092.61768 1856.34119
2076.0 0.000482 1092.28345 2004.41272
2231.0 0.000448 1092.28955 2169.43018
2337.0 0.000428 1091.96460 2348.03296
2552.0 0.000392 1091.81824 2537.05981
2720.0 0.000368 1091.77417 2731.31982
2920.0 0.0003425 1091.57910 2924.17847
3001.0 0.0003332 1091.31494 3108.24219
3189.0 0.0003136 1091.21631 3275.47363
3340.0 0.0002994 1090.97827 3416.83984
3334.0 0.0002999 1090.77136 3524.18457
3413.0 0.0002930 1090.77771 3590.59473
3458.0 0.0002892 1090.62500 3610.98853
3436.0 0.0002910 1090.29480 3583.93213
3361.0 0.0002975 1090.28223 3512.04614
3262.0 0.0003066 1089.96509 3399.98975
3189.0 0.0003136 1089.82410 3255.85767
3032.0 0.0003298 1089.77319 3088.17114
2920.0 0.0003425 1089.49866 2905.48511
2753.0 0.000363 1089.59375 2716.81128
2469.0 0.000405 1089.32727 2528.86694
2396.0 0.000417 1089.04346 2348.43164
2252.0 0.000444 1089.12305 2180.98340
2103.0 0.000476 1088.84058 2029.61646
2002.0 0.000500 1088.79138 1897.49622
1927.0 0.000519 1088.67322 1785.46826
1810.0 0.000552 1088.35645 1693.99768
1758.0 0.000569 1088.36340 1622.84143
1758.0 0.000569 1088.04370 1570.10913
1757.0 0.000569 1087.87988 1534.41968
1586.0 0.000631 1087.91577 1513.72607
1692.0 0.000591 1087.70996 1505.25415
1710.0 0.000585 1087.46545 1506.78589
1724.0 0.000580 1087.40698 1516.11938
1708.0 0.000585 1087.15833 1530.47729
1765.0 0.000567 1086.96729 1547.79651
1750.0 0.000571 1086.99341 1566.02539
1790.0 0.000559 1086.85083 1582.77356
1769.0 0.000565 1086.54871 1596.35010
1724.0 0.000580 1086.54785 1605.80103
1739.0 0.000575 1086.25269 1609.62036
1821.0 0.000549 1086.11902 1607.83862
1791.0 0.000558 1086.07202 1600.33423
1757.0 0.000569 1085.82190 1587.25745
1714.0 0.000583 1085.92944 1570.03088
1601.0 0.000625 1085.68164 1549.06116
1648.0 0.000607 1085.41956 1526.14246
1571.0 0.000637 1085.50098 1503.21240
1579.0 0.000633 1085.25891 1481.18518
1505.0 0.000664 1085.24170 1462.16797
1521.0 0.000657 1085.10889 1447.21680
1493.0 0.000670 1084.77686 1437.47400
1486.0 0.000673 1084.82397 1434.51526
1519.0 0.000658 1084.54236 1438.38037
1499.0 0.000667 1084.41431 1449.87903
1485.0 0.000673 1084.42212 1469.11475
1538.0 0.000650 1084.24390 1495.47668
1573.0 0.000636 1083.99524 1528.36243
1643.0 0.000609 1083.98938 1567.02588
1732.0 0.000577 1083.74109 1609.59058
1760.0 0.000568 1083.55872 1654.52393
1869.0 0.000535 1083.58545 1699.91382
1856.0 0.000539 1083.45447 1743.11682
1952.0 0.000512 1083.16577 1781.68921
2002.0 0.000500 1083.18884 1813.68103
2013.0 0.000497 1082.91211 1836.40955
2032.0 0.000492 1082.79614 1848.75781
2086.0 0.000479 1082.77686 1849.78394
1973.0 0.000507 1082.54419 1839.18970
1977.0 0.000506 1082.64087 1818.24634
1845.0 0.000542 1082.41797 1787.70117
1806.0 0.000554 1082.15344 1749.45703
1687.0 0.000593 1082.28528 1705.90771
1685.0 0.000593 1082.04565 1658.15784
1646.0 0.000608 1082.02979 1608.68677
1521.0 0.000657 1081.90491 1558.83459
1523.0 0.000657 1081.63184 1510.01746
1412.0 0.000708 1081.67737 1463.93066
1336.0 0.000749 1081.38147 1420.80786
1349.0 0.000741 1081.28943 1381.92566
1323.0 0.000756 1081.33398 1347.70813
1317.0 0.000759 1081.13281 1318.00989
1295.0 0.000772 1080.94250 1293.25708
1241.0 0.000806 1080.91187 1273.57581
1281.0 0.000781 1080.68872 1258.55847
1264.0 0.000791 1080.53894 1248.24463
1225.0 0.000816 1080.59131 1241.69373
1290.0 0.000775 1080.46521 1240.09875
1202.0 0.000832 1080.16711 1242.22864
1243.0 0.000805 1080.22205 1248.26270
1312.0 0.000762 1079.93506 1257.37927
1277.0 0.000783 1079.82129 1269.24048
1254.0 0.000797 1079.82117 1283.50952
1294.0 0.000773 1079.61914 1299.29114
1328.0 0.000753 1079.72681 1316.43848
1315.0 0.000760 1079.51355 1333.62952
1336.0 0.000749 1079.31006 1350.35095
1359.0 0.000736 1079.41052 1366.03308
1359.0 0.000736 1079.19446 1379.12134
1359.0 0.000736 1079.20349 1389.28967
1380.0 0.000725 1079.07349 1395.44495
1401.0 0.000714 1078.81726 1397.02698
1432.0 0.000698 1078.89331 1394.34363
1361.0 0.000735 1078.60864 1386.83691
1326.0 0.000754 1078.50037 1375.54785
1308.0 0.000765 1078.57312 1361.15820
1330.0 0.000752 1078.42273 1344.13831
1365.0 0.000733 1078.19397 1325.45654
1346.0 0.000743 1078.19421 1306.24829
1293.0 0.000773 1078.00403 1286.74756
1325.0 0.000755 1077.84460 1267.82239
1311.0 0.000763 1077.91980 1250.11755
1295.0 0.000772 1077.80139 1233.52795
1240.0 0.000806 1077.52478 1218.33826
1257.0 0.000796 1077.61877 1205.17126
1284.0 0.000779 1077.33716 1193.27014
1228.0 0.000814 1077.25818 1183.14539
1215.0 0.000823 1077.23877 1174.47644
1168.0 0.000856 1077.04321 1166.86523
1255.0 0.000797 1077.17029 1160.73132
1224.0 0.000817 1076.95190 1154.88318
1211.0 0.000826 1076.74060 1149.69849
1196.0 0.000836 1076.89526 1145.33252
1219.0 0.000820 1076.67529 1141.02026
1186.0 0.000843 1076.70068 1137.23975
1226.0 0.000816 1076.61719 1133.66577
1190.0 0.000840 1076.33813 1130.16589
1160.0 0.000862 1076.41931 1127.29626
1188.0 0.000842 1076.17700 1124.38147
1141.0 0.000876 1076.09204 1121.92346
1148.0 0.000871 1076.15210 1118.97437
1165.0 0.000858 1076.00330 1117.11267
1131.0 0.000884 1075.81641 1115.50000
1141.0 0.000876 1075.81531 1114.47449
1116.0 0.000896 1075.63562 1113.60583
1201.0 0.000833 1075.45935 1113.14807
1130.0 0.000885 1075.53784 1113.33191
1111.0 0.000900 1075.46033 1113.80847
1201.0 0.000833 1075.19690 1114.58423
1123.0 0.000890 1075.28455 1116.23865
1102.0 0.000907 1075.04199 1118.16382
1127.0 0.000887 1074.95142 1120.91528
1228.0 0.000814 1074.97168 1124.55652
1173.0 0.000853 1074.76318 1128.86011
1127.0 0.000887 1074.93994 1134.56140
1183.0 0.000845 1074.73364 1141.01038
1195.0 0.000837 1074.51880 1148.72668
1201.0 0.000833 1074.70276 1158.23376
1261.0 0.000793 1074.48328 1168.86658
1241.0 0.000806 1074.51404 1181.36194
1255.0 0.000797 1074.42639 1195.41406
1279.0 0.000782 1074.15637 1211.11804
1312.0 0.000762 1074.25732 1228.73730
1357.0 0.000737 1074.02551 1247.59973
1344.0 0.000744 1073.94238 1268.05164
1363.0 0.000734 1074.02881 1289.86108
1388.0 0.000720 1073.88391 1312.29187
1485.0 0.000673 1073.71179 1335.14441
1587.0 0.000630 1073.74207 1358.16309
1625.0 0.000615 1073.56494 1380.92761
1644.0 0.000608 1073.41785 1402.01880
1667.0 0.000600 1073.50684 1421.70715
1735.0 0.000576 1073.42969 1439.10681
1661.0 0.000602 1073.17920 1453.87390
1658.0 0.000603 1073.24927 1466.24475
1772.0 0.000564 1073.03418 1475.61011
1769.0 0.000565 1072.95679 1482.05762
1787.0 0.000560 1072.97961 1485.73511
1744.0 0.000573 1072.78259 1486.56677
1699.0 0.000589 1072.96350 1485.19312
1686.0 0.000593 1072.77307 1481.47876
1658.0 0.000603 1072.58069 1476.48389
1658.0 0.000603 1072.74194 1471.27356
1556.0 0.000643 1072.57104 1465.95557
1614.0 0.000620 1072.60571 1461.86182
1545.0 0.000647 1072.54004 1459.21375
1563.0 0.000640 1072.30200 1458.52307
1496.0 0.000668 1072.40796 1460.36340
1508.0 0.000663 1072.14429 1464.16821
1608.0 0.000622 1072.08240 1470.32581
1588.0 0.000630 1072.20923 1478.50537
1669.0 0.000599 1072.06433 1487.68909
1646.0 0.000608 1071.90186 1497.42468
1607.0 0.000622 1071.90930 1507.05017
1689.0 0.000592 1071.75952 1515.35229
1659.0 0.000603 1071.63074 1521.62915
1598.0 0.000626 1071.73560 1525.35437
1660.0 0.000602 1071.65771 1525.63879
1666.0 0.000600 1071.42664 1522.33667
1641.0 0.000609 1071.52722 1516.07434
1661.0 0.000602 1071.29797 1506.52051
1575.0 0.000635 1071.23914 1494.59521
1528.0 0.000654 1071.28308 1480.75793
1543.0 0.000648 1071.09680 1465.03345
1426.0 0.000701 1071.28662 1448.34180
1396.0 0.000716 1071.08228 1430.16846
1377.0 0.000726 1070.93640 1411.08557
1365.0 0.000733 1071.09375 1391.53003
1319.0 0.000758 1070.92395 1370.97595
1333.0 0.000750 1070.97217 1350.22961
1296.0 0.000772 1070.91833 1329.26245
1240.0 0.000806 1070.69495 1307.22314
1283.0 0.000779 1070.80737 1287.19910
1279.0 0.000782 1070.56226 1267.70300
1262.0 0.000792 1070.49670 1249.54651
1269.0 0.000788 1070.60754 1232.99585
1192.0 0.000839 1070.49609 1217.77405
1198.0 0.000835 1070.32581 1204.12988
1254.0 0.000797 1070.38477 1192.43884
1218.0 0.000821 1070.22473 1182.19861
1201.0 0.000833 1070.07922 1173.57983
1193.0 0.000838 1070.20496 1166.90393
1240.0 0.000806 1070.16626 1161.15991
1176.0 0.000850 1069.92065 1156.35657
1189.0 0.000841 1070.03711 1152.80261
1221.0 0.000819 1069.82312 1149.57336
1199.0 0.000834 1069.77625 1146.93408
1236.0 0.000809 1069.82776 1144.62561
1175.0 0.000851 1069.64490 1142.11450
1214.0 0.000824 1069.82227 1139.80042
1180.0 0.000847 1069.66333 1136.98535
1156.0 0.000865 1069.50720 1133.88208
1185.0 0.000844 1069.68799 1130.94873
1164.0 0.000859 1069.52124 1127.49573
1185.0 0.000844 1069.58521 1124.19458
1135.0 0.000881 1069.51721 1120.77051
1142.0 0.000876 1069.29797 1117.26538
1153.0 0.000867 1069.43066 1114.28088
1134.0 0.000882 1069.22632 1111.18713
1174.0 0.000852 1069.14417 1108.48621
1161.0 0.000861 1069.27881 1106.30957
1158.0 0.000864 1069.15991 1104.37317
1149.0 0.000870 1069.02466 1102.63257
1117.0 0.000895 1069.04761 1101.34790
1149.0 0.000870 1068.89795 1100.21069
1090.0 0.000917 1068.78369 1099.35620
1085.0 0.000922 1068.91626 1098.94189
1147.0 0.000872 1068.86743 1098.51733
1144.0 0.000874 1068.64490 1098.01379
1129.0 0.000886 1068.78601 1097.95239
1137.0 0.000880 1068.56873 1097.52661
1120.0 0.000893 1068.52332 1097.23511
1127.0 0.000887 1068.57947 1096.98169
1095.0 0.000913 1068.43958 1096.43616
1161.0 0.000861 1068.61145 1096.15076
1118.0 0.000894 1068.44580 1095.43506
1114.0 0.000898 1068.31824 1094.72693
1132.0 0.000883 1068.48010 1094.27795
1173.0 0.000853 1068.31665 1093.51318
1174.0 0.000852 1068.41223 1093.47095
1147.0 0.000872 1068.32910 1092.86609
1137.0 0.000880 1068.12732 1092.20154
1138.0 0.000879 1068.27466 1092.02258
1125.0 0.000889 1068.04504 1091.55786
1184.0 0.000845 1068.01038 1091.39465
1139.0 0.000878 1068.15662 1091.58533
1095.0 0.000913 1068.03601 1091.67712
1118.0 0.000894 1067.88611 1091.93420
1132.0 0.000883 1067.96619 1092.75598
1097.0 0.000912 1067.80322 1093.45691
1073.0 0.000932 1067.69641 1094.55737
1107.0 0.000903 1067.85315 1096.27515
1162.0 0.000861 1067.78235 1098.25720
1122.0 0.000891 1067.56042 1100.58362
1132.0 0.000883 1067.72009 1103.97498
1123.0 0.000890 1067.51111 1107.76208
1150.0 0.000870 1067.48242 1112.62610
1111.0 0.000900 1067.55066 1118.78162
1115.0 0.000897 1067.38000 1125.73718
1127.0 0.000887 1067.57031 1134.34351
1134.0 0.000882 1067.44397 1144.06921
1164.0 0.000859 1067.30042 1155.26099
1260.0 0.000794 1067.46936 1168.30396
1228.0 0.000814 1067.33984 1182.75598
1251.0 0.000799 1067.40173 1198.62524
1184.0 0.000845 1067.37891 1215.67395
1226.0 0.000816 1067.13208 1233.52136
1195.0 0.000837 1067.28845 1252.46423
1243.0 0.000805 1067.08618 1271.28015
1231.0 0.000812 1067.04260 1290.03137
1244.0 0.000804 1067.21350 1308.13647
1330.0 0.000752 1067.08191 1324.82849
1281.0 0.000781 1066.95569 1338.93274
1295.0 0.000772 1067.04651 1350.37000
1323.0 0.000756 1066.91858 1358.04626
1346.0 0.000743 1066.80005 1361.78113
1364.0 0.000733 1066.92480 1361.63062
1305.0 0.000766 1066.89648 1357.22778
1355.0 0.000738 1066.69836 1348.94885
1311.0 0.000763 1066.84595 1337.87585
1310.0 0.000763 1066.62036 1323.98804
1258.0 0.000795 1066.56982 1308.59607
1253.0 0.000798 1066.65381 1292.39014
1289.0 0.000776 1066.52502 1275.72510
1229.0 0.000814 1066.73303 1259.82715
1222.0 0.000818 1066.59473 1244.68201
1226.0 0.000816 1066.44031 1230.93665
1212.0 0.000825 1066.64209 1219.53198
1214.0 0.000824 1066.51001 1210.14722
1229.0 0.000814 1066.57666 1203.71985
1170.0 0.000855 1066.54321 1200.19861
1238.0 0.000808 1066.33777 1199.86511
1172.0 0.000853 1066.48828 1203.44971
1218.0 0.000821 1066.31299 1210.49402
1246.0 0.000803 1066.26135 1221.69666
1292.0 0.000774 1066.43506 1237.35657
1249.0 0.000801 1066.28235 1256.47791
1307.0 0.000765 1066.16821 1280.75977
1400.0 0.000714 1066.28381 1309.75928
1410.0 0.000709 1066.12488 1343.07446
1514.0 0.000661 1066.03540 1380.90161
1502.0 0.000666 1066.18262 1423.20569
1548.0 0.000646 1066.14783 1469.22986
1624.0 0.000616 1065.96106 1518.46338
1701.0 0.000588 1066.12170 1570.77502
1658.0 0.000603 1065.90601 1624.58008
1847.0 0.000541 1065.86707 1679.54492
1888.0 0.000530 1065.96436 1734.52539
1885.0 0.000531 1065.84778 1788.16296
1950.0 0.000513 1066.01184 1839.74023
2015.0 0.000496 1065.87573 1887.46582
2054.0 0.000487 1065.74231 1930.24402
2086.0 0.000479 1065.94800 1966.99707
2196.0 0.000455 1065.82556 1995.66272
2176.0 0.000460 1065.91406 2015.51807
2188.0 0.000457 1065.87073 2025.29004
2210.0 0.000452 1065.67468 2024.52393
2153.0 0.000464 1065.81641 2013.79712
2190.0 0.000457 1065.63696 1993.10645
2045.0 0.000489 1065.61023 1964.03723
2068.0 0.000484 1065.79614 1927.88867
2021.0 0.000495 1065.64087 1885.50342
1954.0 0.000512 1065.51758 1838.97888
1906.0 0.000525 1065.63806 1790.04321
1838.0 0.000544 1065.51526 1739.97217
1747.0 0.000572 1065.38574 1690.46692
1739.0 0.000575 1065.55151 1643.16650
1699.0 0.000589 1065.52881 1598.65356
1578.0 0.000634 1065.35364 1557.79358
1421.0 0.000704 1065.49536 1521.60779
1418.0 0.000705 1065.29565 1489.58667
1455.0 0.000687 1065.26111 1462.24414
1464.0 0.000683 1065.35742 1439.20239
1347.0 0.000742 1065.24512 1419.64612
1341.0 0.000746 1065.46863 1403.42017
1321.0 0.000757 1065.32410 1389.04797
1328.0 0.000753 1065.17896 1376.07544
1325.0 0.000755 1065.36572 1364.05481
1359.0 0.000736 1065.25476 1351.72424
1248.0 0.000801 1065.35022 1339.10999
1267.0 0.000789 1065.32117 1325.65674
1227.0 0.000815 1065.11328 1311.24341
1226.0 0.000816 1065.28882 1296.54285
1233.0 0.000811 1065.10132 1280.97742
1248.0 0.000801 1065.05054 1265.29675
1238.0 0.000808 1065.23621 1249.90491
1158.0 0.000864 1065.12927 1234.43579
1199.0 0.000834 1064.98828 1219.41089
1195.0 0.000837 1065.09521 1205.32861
1118.0 0.000894 1064.96838 1191.84448
1104.0 0.000906 1064.88135 1179.30493
1107.0 0.000903 1065.06152 1168.04749
1146.0 0.000873 1065.00818 1157.66760
1160.0 0.000862 1064.82056 1148.23865
1086.0 0.000921 1064.98828 1140.21631
1139.0 0.000878 1064.79834 1132.88330
1122.0 0.000891 1064.74512 1126.72083
1055.0 0.000948 1064.85449 1121.52087
1082.0 0.000924 1064.73877 1116.91382
1137.0 0.000880 1064.92627 1113.34326
1090.0 0.000917 1064.82532 1110.12317
1089.0 0.000918 1064.69373 1107.42151
1098.0 0.000911 1064.88391 1105.51807
1094.0 0.000914 1064.78137 1103.73035
1118.0 0.000894 1064.88599 1102.48877
1090.0 0.000917 1064.87109 1101.38708
1132.0 0.000883 1064.65283 1100.32813
1115.0 0.000897 1064.83191 1099.88831
1101.0 0.000908 1064.62976 1099.20813
1141.0 0.000876 1064.58215 1098.81543
1038.0 0.000963 1064.78943 1098.82068
1084.0 0.000923 1064.68982 1098.62402
1080.0 0.000926 1064.53552 1098.45264
1080.0 0.000926 1064.67297 1098.70923
1130.0 0.000885 1064.52820 1098.69458
1128.0 0.000887 1064.43530 1098.88000
1024.0 0.000977 1064.61401 1099.33252
1152.0 0.000868 1064.57532 1099.62451
1103.0 0.000907 1064.38684 1099.83606
1136.0 0.000880 1064.56226 1100.45337
1079.0 0.000927 1064.35278 1100.73779
1091.0 0.000917 1064.34900 1101.31567
1059.0 0.000944 1064.44470 1102.13855
1095.0 0.000913 1064.33423 1102.88708
1162.0 0.000861 1064.50146 1104.03723
1107.0 0.000903 1064.43494 1105.06262
1108.0 0.000903 1064.26086 1106.01563
1139.0 0.000878 1064.48267 1107.77942
1088.0 0.000919 1064.40100 1109.67297
1097.0 0.000912 1064.48730 1111.91711
1067.0 0.000937 1064.45105 1114.40039
1132.0 0.000883 1064.23279 1117.16528
1148.0 0.000871 1064.43555 1120.85254
1133.0 0.000883 1064.24084 1124.70166
1111.0 0.000900 1064.20007 1129.38916
1097.0 0.000912 1064.37463 1135.05249
1113.0 0.000898 1064.26135 1141.25269
1156.0 0.000865 1064.14819 1148.36853
1144.0 0.000874 1064.27295 1156.78027
1166.0 0.000858 1064.15955 1166.13940
1194.0 0.000838 1064.06824 1176.79065
1168.0 0.000856 1064.24512 1189.24219
1245.0 0.000803 1064.18347 1203.10303
1220.0 0.000820 1064.01025 1218.71008
1127.0 0.000887 1064.18970 1236.66479
1134.0 0.000882 1064.01428 1256.54541
1194.0 0.000838 1063.98499 1279.13379
1267.0 0.000789 1064.07251 1304.69202
1265.0 0.000791 1063.97449 1333.21960
1218.0 0.000821 1064.15979 1365.46484
1295.0 0.000772 1064.05945 1401.17871
1317.0 0.000759 1063.91675 1440.80847
1337.0 0.000748 1064.11584 1484.87195
1360.0 0.000735 1064.00720 1532.73413
1398.0 0.000715 1064.12085 1584.68884
1435.0 0.000697 1064.08740 1639.91650
1495.0 0.000669 1063.89014 1697.71899
1543.0 0.000648 1064.07520 1757.67554
1534.0 0.000652 1063.90332 1817.59680
1621.0 0.000617 1063.86682 1876.97290
1629.0 0.000614 1064.03369 1934.10352
1694.0 0.000590 1063.92871 1986.91125
1811.0 0.000552 1063.81396 2033.58191
1864.0 0.000536 1063.94336 2073.07153
1870.0 0.000535 1063.81580 2103.57300
1913.0 0.000523 1063.69690 2124.29468
1908.0 0.000524 1063.88867 2134.84595
1882.0 0.000531 1063.85205 2134.09961
1902.0 0.000526 1063.65735 2122.22852
1899.0 0.000527 1063.86096 2100.10791
1890.0 0.000529 1063.66858 2067.84741
1851.0 0.000540 1063.63770 2027.29749
1789.0 0.000559 1063.73193 1980.12537
1768.0 0.000566 1063.63391 1927.98218
1760.0 0.000568 1063.79932 1873.26929
1681.0 0.000595 1063.71338 1817.47302
1598.0 0.000626 1063.61243 1762.60559
1526.0 0.000655 1063.80139 1710.49084
1576.0 0.000635 1063.67188 1661.82043
1523.0 0.000657 1063.79700 1618.06531
1536.0 0.000651 1063.74390 1579.44226
1555.0 0.000643 1063.55457 1546.46594
1479.0 0.000676 1063.76501 1519.74744
1496.0 0.000668 1063.57849 1498.48853
1405.0 0.000712 1063.51428 1482.98303
1492.0 0.000670 1063.70544 1472.95923
1484.0 0.000674 1063.60303 1467.45532
1463.0 0.000684 1063.49377 1466.14465
1473.0 0.000679 1063.60950 1468.78650
1546.0 0.000647 1063.49524 1474.34351
1544.0 0.000648 1063.36084 1482.68250
1558.0 0.000642 1063.55310 1493.69263
1570.0 0.000637 1063.52197 1506.65405
1544.0 0.000648 1063.32764 1521.62036
1572.0 0.000636 1063.53931 1539.13245
1579.0 0.000633 1063.32178 1558.43396
1606.0 0.000623 1063.29785 1580.07129
1628.0 0.000614 1063.41150 1603.93909
1659.0 0.000603 1063.28723 1629.41028
1715.0 0.000583 1063.51477 1656.63745
1676.0 0.000597 1063.36169 1684.36230
1747.0 0.000572 1063.25684 1712.17542
1793.0 0.000558 1063.46252 1739.37329
1823.0 0.000549 1063.33386 1764.21960
1892.0 0.000529 1063.44434 1785.99060
1899.0 0.000527 1063.41467 1803.09888
1916.0 0.000522 1063.24097 1814.36792
1902.0 0.000526 1063.40515 1819.45154
1897.0 0.000527 1063.21924 1817.17554
1886.0 0.000530 1063.18677 1808.02722
1811.0 0.000552 1063.36353 1792.61877
1865.0 0.000536 1063.24792 1771.09546
1796.0 0.000557 1063.14917 1745.33105
1671.0 0.000598 1063.25549 1716.51208
1668.0 0.000600 1063.15735 1685.46069
1549.0 0.000646 1063.04236 1653.41150
1620.0 0.000617 1063.23401 1621.66077
1541.0 0.000649 1063.17273 1590.38647
1505.0 0.000664 1062.97522 1560.22058
1441.0 0.000694 1063.18506 1532.10706
1377.0 0.000726 1063.00159 1505.45142
1369.0 0.000730 1062.94519 1480.82324
1339.0 0.000747 1063.04309 1458.14624
1373.0 0.000728 1062.96802 1436.91296
1266.0 0.000790 1063.13733 1417.36755
1357.0 0.000737 1063.01477 1398.74963
1347.0 0.000742 1062.91528 1381.24414
1307.0 0.000765 1063.07788 1365.04651
1270.0 0.000787 1062.98218 1349.58228
1292.0 0.000774 1063.11035 1335.41284
1307.0 0.000765 1063.04028 1322.22363
1255.0 0.000797 1062.86987 1310.21704
1309.0 0.000764 1063.06714 1299.96265
1218.0 0.000821 1062.87073 1290.83594
1258.0 0.000795 1062.82678 1283.45801
1255.0 0.000797 1062.99097 1277.94360
1260.0 0.000794 1062.89050 1273.88452
1320.0 0.000758 1062.78662 1271.60779
1261.0 0.000793 1062.89539 1271.26514
1259.0 0.000794 1062.79028 1272.46240
1317.0 0.000759 1062.66943 1275.37817
1291.0 0.000775 1062.84473 1280.14917
1300.0 0.000769 1062.78418 1286.14636
1257.0 0.000796 1062.62427 1293.38562
1318.0 0.000759 1062.79675 1302.10803
1395.0 0.000717 1062.61328 1311.43164
1325.0 0.000755 1062.55103 1321.50195
1409.0 0.000710 1062.68811 1332.18274
1373.0 0.000728 1062.57813 1342.71948
1393.0 0.000718 1062.74023 1353.39063
1412.0 0.000708 1062.64014 1363.41553
1428.0 0.000700 1062.52271 1372.95862
1390.0 0.000719 1062.71021 1382.26013
1407.0 0.000711 1062.59558 1390.88208
1444.0 0.000693 1062.70227 1399.56250
1389.0 0.000720 1062.65320 1408.27100
1453.0 0.000688 1062.47461 1417.44446
1449.0 0.000690 1062.65454 1427.97729
1418.0 0.000705 1062.46960 1439.69629
1451.0 0.000689 1062.42456 1453.31226
1389.0 0.000720 1062.61670 1469.32373
1419.0 0.000705 1062.48535 1487.51721
1454.0 0.000688 1062.36584 1508.42969
1446.0 0.000692 1062.45508 1532.41040
1424.0 0.000702 1062.35681 1559.04419
1456.0 0.000687 1062.24084 1588.45947
1548.0 0.000646 1062.42749 1620.74988
1560.0 0.000641 1062.38245 1654.89075
1520.0 0.000658 1062.20093 1690.41333
1530.0 0.000654 1062.38770 1727.05530
1653.0 0.000605 1062.20264 1763.13757
1606.0 0.000623 1062.12793 1798.09082
1669.0 0.000599 1062.23242 1830.81030
1737.0 0.000576 1062.13916 1860.04150
1741.0 0.000574 1062.30347 1884.73401
1768.0 0.000566 1062.20251 1903.82385
1807.0 0.000553 1062.10486 1917.13928
1888.0 0.000530 1062.25696 1924.89014
1888.0 0.000530 1062.15820 1926.60901
1874.0 0.000534 1062.24524 1923.25635
2030.0 0.000493 1062.17065 1914.87000
1972.0 0.000507 1062.02283 1902.16028
1957.0 0.000511 1062.19702 1886.09900
1964.0 0.000509 1062.01904 1866.53613
1959.0 0.000510 1061.94958 1844.38745
1879.0 0.000532 1062.16248 1820.26807
1949.0 0.000513 1062.02258 1793.92981
1849.0 0.000541 1061.89001 1766.12305
1810.0 0.000552 1062.00818 1737.53406
1803.0 0.000555 1061.89111 1707.95947
1714.0 0.000583 1061.76953 1678.27893
1729.0 0.000578 1061.93970 1649.35205
1598.0 0.000626 1061.88794 1621.24170
1566.0 0.000639 1061.70911 1594.57080
1563.0 0.000640 1061.87756 1570.35229
1464.0 0.000683 1061.67188 1548.11597
1472.0 0.000679 1061.61877 1528.65369
1469.0 0.000681 1061.75977 1511.91663
1392.0 0.000718 1061.61353 1497.47766
1414.0 0.000707 1061.77661 1485.66260
1343.0 0.000745 1061.69666 1475.71423
1369.0 0.000730 1061.57214 1467.56714
1284.0 0.000779 1061.73193 1461.20581
1357.0 0.000737 1061.62268 1455.80237
1334.0 0.000750 1061.75415 1451.55176
1421.0 0.000704 1061.66907 1447.72400
1271.0 0.000787 1061.50232 1443.77832
1391.0 0.000719 1061.64136 1440.75903
1344.0 0.000744 1061.45288 1437.46204
1409.0 0.000710 1061.38916 1434.29041
1331.0 0.000751 1061.59106 1431.57178
1329.0 0.000752 1061.45898 1428.81299
1395.0 0.000717 1061.32227 1426.69922
1367.0 0.000732 1061.42932 1425.75769
1403.0 0.000713 1061.33911 1425.87244
1387.0 0.000721 1061.18335 1427.32092
1376.0 0.000727 1061.37598 1430.69519
1343.0 0.000745 1061.29590 1435.39172
1407.0 0.000711 1061.08911 1442.22424
1387.0 0.000721 1061.30542 1449.86731
1373.0 0.000728 1061.10315 1457.99561
1446.0 0.000692 1061.03284 1466.48535
1480.0 0.000676 1061.13806 1474.75854
1539.0 0.000650 1061.03247 1481.80554
1486.0 0.000673 1061.18848 1487.31213
1528.0 0.000654 1061.06604 1490.03076
1562.0 0.000640 1060.95374 1489.99878
1483.0 0.000674 1061.08765 1486.46399
1510.0 0.000662 1060.99060 1479.04834
1471.0 0.000680 1061.09607 1468.37549
1490.0 0.000671 1061.03748 1454.41724
1397.0 0.000716 1060.83423 1437.70520
1434.0 0.000697 1061.02039 1419.60583
1344.0 0.000744 1060.82483 1399.78845
1396.0 0.000716 1060.74951 1379.68835
1381.0 0.000724 1060.92993 1359.89319
1293.0 0.000773 1060.79468 1340.58521
1383.0 0.000723 1060.66956 1322.60168
1304.0 0.000767 1060.77637 1306.64307
1306.0 0.000766 1060.65295 1292.64343
1269.0 0.000788 1060.50439 1281.09143
1263.0 0.000792 1060.71472 1272.52441
1348.0 0.000742 1060.62268 1266.53040
1350.0 0.000741 1060.42371 1263.27039
1329.0 0.000752 1060.59070 1263.16211
1207.0 0.000829 1060.41089 1265.47107
1316.0 0.000760 1060.32471 1270.32043
1319.0 0.000758 1060.44275 1277.73474
1339.0 0.000747 1060.32739 1286.96594
1382.0 0.000724 1060.48462 1298.18262
1375.0 0.000727 1060.33643 1310.47412
1352.0 0.000740 1060.24707 1323.80872
1388.0 0.000720 1060.38782 1338.00366
1389.0 0.000720 1060.26489 1352.17749
1411.0 0.000709 1060.36279 1366.39624
1472.0 0.000679 1060.30176 1379.86108
1372.0 0.000729 1060.08948 1392.22314
1444.0 0.000693 1060.24805 1403.51831
1440.0 0.000694 1060.08923 1412.69495
1383.0 0.000723 1059.99854 1420.33044
1424.0 0.000702 1060.18091 1425.30090
1377.0 0.000726 1060.02075 1427.30383
1374.0 0.000728 1059.90002 1426.67163
1346.0 0.000743 1059.98718 1423.62732
1384.0 0.000723 1059.87866 1417.91785
1384.0 0.000723 1059.71716 1409.95837
1362.0 0.000734 1059.91821 1400.45361
1341.0 0.000746 1059.82092 1389.07703
1312.0 0.000762 1059.62292 1376.36609
1336.0 0.000749 1059.78076 1363.01074
1300.0 0.000769 1059.58667 1348.66589
1282.0 0.000780 1059.51453 1334.04456
1252.0 0.000799 1059.60095 1319.38904
1322.0 0.000756 1059.49585 1304.55554
1256.0 0.000796 1059.64551 1290.18640
1231.0 0.000812 1059.50720 1275.77673
1208.0 0.000828 1059.39807 1261.79797
1252.0 0.000799 1059.54541 1248.45190
1215.0 0.000823 1059.39099 1235.32837
1183.0 0.000845 1059.48035 1222.96326
1197.0 0.000835 1059.38123 1211.01721
1166.0 0.000858 1059.21240 1199.66418
1157.0 0.000864 1059.39270 1189.43237
1147.0 0.000872 1059.20203 1179.50146
1170.0 0.000855 1059.12512 1170.44067
1123.0 0.000890 1059.27686 1162.35242
1177.0 0.000850 1059.15051 1154.77234
1161.0 0.000861 1059.01147 1147.94104
1190.0 0.000840 1059.08484 1142.03809
1113.0 0.000898 1058.94666 1136.67969
1084.0 0.000923 1058.79321 1131.91626
1108.0 0.000903 1058.98828 1128.14063
1157.0 0.000864 1058.88818 1124.72351
1133.0 0.000883 1058.67627 1121.84460
1115.0 0.000897 1058.83423 1119.92627
1174.0 0.000852 1058.67883 1118.25732
1048.0 0.000954 1058.54602 1117.26917
1068.0 0.000936 1058.66345 1117.11340
1133.0 0.000883 1058.54089 1117.35864
1158.0 0.000864 1058.67773 1118.49792
1177.0 0.000850 1058.55017 1120.10571
1135.0 0.000881 1058.41882 1122.41602
1119.0 0.000894 1058.53406 1125.77100
1203.0 0.000831 1058.42163 1129.69531
1138.0 0.000879 1058.51636 1134.77319
1139.0 0.000878 1058.38062 1140.55493
1230.0 0.000813 1058.22168 1147.29163
1206.0 0.000829 1058.38171 1155.43738
1221.0 0.000819 1058.19678 1164.36682
1186.0 0.000843 1058.08350 1174.49756
1222.0 0.000818 1058.26306 1186.10242
1291.0 0.000775 1058.08789 1198.55322
1302.0 0.000768 1057.95288 1212.19739
1246.0 0.000803 1058.03833 1227.20630
1256.0 0.000796 1057.89368 1243.01221
1293.0 0.000773 1057.73596 1259.73486
1335.0 0.000749 1057.91541 1277.61316
1371.0 0.000729 1057.82410 1295.82800
1326.0 0.000754 1057.60925 1314.36597
1384.0 0.000723 1057.74646 1333.44653
1468.0 0.000681 1057.56372 1352.15686
1366.0 0.000732 1057.45984 1370.68591
1405.0 0.000712 1057.56287 1388.78088
1396.0 0.000716 1057.43628 1405.73462
1479.0 0.000676 1057.55811 1421.47327
1444.0 0.000693 1057.42676 1435.32239
1391.0 0.000719 1057.27832 1446.90479
1413.0 0.000708 1057.44812 1456.12085
1486.0 0.000673 1057.26978 1461.88257
1467.0 0.000682 1057.33936 1464.45740
1469.0 0.000681 1057.26050 1463.23132
1434.0 0.000697 1057.04480 1458.19263
1437.0 0.000696 1057.19202 1449.94299
1423.0 0.000703 1057.00098 1437.88757
1405.0 0.000712 1056.90906 1423.33667
1343.0 0.000745 1057.04333 1406.66077
1361.0 0.000735 1056.89185 1387.90149
1368.0 0.000731 1056.75488 1367.88245
1322.0 0.000756 1056.83569 1347.32080
1343.0 0.000745 1056.68994 1326.24902
1245.0 0.000803 1056.51050 1305.36218
1233.0 0.000811 1056.70996 1285.20825
1241.0 0.000806 1056.56531 1265.52588
1239.0 0.000807 1056.37366 1246.80945
1194.0 0.000838 1056.52441 1229.62280
1207.0 0.000829 1056.35144 1213.41602
1234.0 0.000810 1056.19739 1198.65479
1182.0 0.000846 1056.29272 1185.56433
1181.0 0.000847 1056.17358 1173.65527
1196.0 0.000836 1056.25330 1163.38086
1148.0 0.000871 1056.13110 1154.19702
1112.0 0.000899 1055.99414 1146.27820
1108.0 0.000903 1056.11646 1139.78735
1118.0 0.000894 1055.97046 1134.11487
1124.0 0.000890 1056.04419 1129.65527
1105.0 0.000905 1055.93005 1125.94556
1135.0 0.000881 1055.74573 1123.01245
1125.0 0.000889 1055.90674 1121.18970
1123.0 0.000890 1055.68445 1119.72693
1124.0 0.000890 1055.53723 1119.05322
1138.0 0.000879 1055.72571 1119.37402
1085.0 0.000922 1055.51416 1119.95776
1144.0 0.000874 1055.39111 1121.30005
1135.0 0.000881 1055.47974 1123.52405
1110.0 0.000901 1055.33105 1126.23853
1165.0 0.000858 1055.14319 1129.61987
1151.0 0.000869 1055.28821 1134.06946
1139.0 0.000878 1055.17456 1139.01465
1217.0 0.000822 1054.96619 1144.65930
1136.0 0.000880 1055.12183 1151.52600
1185.0 0.000844 1054.91589 1158.86267
1098.0 0.000911 1054.80371 1167.08594
1102.0 0.000907 1054.87915 1176.34045
1202.0 0.000832 1054.73865 1186.15552
1187.0 0.000842 1054.80762 1196.94446
1188.0 0.000842 1054.70483 1208.19995
1208.0 0.000828 1054.53845 1220.00635
1207.0 0.000829 1054.64917 1232.48645
1255.0 0.000797 1054.49390 1244.99878
1216.0 0.000822 1054.58728 1257.86108
1210.0 0.000826 1054.44617 1270.34143
1248.0 0.000801 1054.35767 1282.52991
1238.0 0.000808 1054.37622 1294.26318
1233.0 0.000811 1054.27612 1305.09045
1295.0 0.000772 1054.15198 1314.94092
1241.0 0.000806 1054.20227 1323.86816
1272.0 0.000786 1053.91626 1331.37036
1226.0 0.000816 1053.95752 1337.61462
1241.0 0.000806 1053.84424 1343.05615
1225.0 0.000816 1053.90088 1347.58826
1277.0 0.000783 1053.59863 1350.83398
1249.0 0.000801 1053.64880 1353.52478
1230.0 0.000813 1053.51318 1355.31348
1244.0 0.000804 1053.40161 1356.55981
1284.0 0.000779 1053.42957 1357.61926
1282.0 0.000780 1053.35901 1358.53967
1281.0 0.000781 1053.20715 1359.59924
1309.0 0.000764 1053.25378 1361.36987
1299.0 0.000770 1053.12622 1363.72388
1284.0 0.000779 1053.18115 1367.29370
1369.0 0.000730 1053.04517 1371.88965
1415.0 0.000707 1052.92480 1377.94202
1360.0 0.000735 1052.99951 1385.74744
1304.0 0.000767 1052.84961 1395.08972
1336.0 0.000749 1052.95300 1406.62183
1359.0 0.000736 1052.82300 1419.99475
1338.0 0.000747 1052.66296 1435.68127
1401.0 0.000714 1052.74048 1454.00598
1472.0 0.000679 1052.61218 1474.74902
1443.0 0.000693 1052.47546 1498.12891
1536.0 0.000651 1052.51929 1524.29993
1623.0 0.000616 1052.18921 1552.61768
1670.0 0.000599 1052.25354 1583.50549
1699.0 0.000589 1052.10681 1615.99487
1706.0 0.000586 1052.18750 1649.72620
1823.0 0.000549 1051.86475 1683.86328
1804.0 0.000554 1051.92053 1718.08752
1890.0 0.000529 1051.77112 1750.96484
1968.0 0.000508 1051.64905 1781.76843
1946.0 0.000514 1051.66919 1809.60254
1956.0 0.000511 1051.56787 1833.39856
1991.0 0.000502 1051.42529 1852.51062
1996.0 0.000501 1051.48962 1866.82031
2009.0 0.000498 1051.32568 1875.79456
1943.0 0.000515 1051.38855 1880.09180
1977.0 0.000506 1051.25574 1879.76941
1975.0 0.000506 1051.10229 1875.63025
1966.0 0.000509 1051.19519 1868.56311
1939.0 0.000516 1051.05493 1858.71497
1908.0 0.000524 1051.09644 1847.10400
1807.0 0.000553 1050.96130 1833.55798
1801.0 0.000555 1050.85974 1818.59338
1831.0 0.000546 1050.86829 1802.39026
1750.0 0.000571 1050.77502 1784.66992
1745.0 0.000573 1050.61292 1765.47583
1638.0 0.000611 1050.63574 1744.78760
1613.0 0.000620 1050.31799 1722.11743
1674.0 0.000597 1050.39075 1698.11462
1574.0 0.000635 1050.20166 1671.87952
1573.0 0.000636 1050.26465 1644.92053
1588.0 0.000630 1049.96191 1616.55042
1579.0 0.000633 1049.98206 1587.89648
1545.0 0.000647 1049.85718 1558.86682
1514.0 0.000661 1049.71191 1530.09131
1486.0 0.000673 1049.70789 1502.19922
1493.0 0.000670 1049.61804 1475.36987
1419.0 0.000705 1049.47644 1450.02600
1404.0 0.000712 1049.52039 1426.79932
1488.0 0.000672 1049.36499 1405.59290
1362.0 0.000734 1049.41809 1387.06897
1375.0 0.000727 1049.29358 1371.15649
1380.0 0.000725 1049.14380 1358.19897
1307.0 0.000765 1049.20447 1348.65027
1314.0 0.000761 1049.04309 1342.24036
1340.0 0.000746 1049.07239 1339.60205
1322.0 0.000756 1048.91821 1340.46216
1380.0 0.000725 1048.79492 1345.23962
1389.0 0.000720 1048.81067 1354.12695
1378.0 0.000726 1048.71899 1367.33447
1389.0 0.000720 1048.53137 1384.47632
1469.0 0.000681 1048.55420 1406.20557
1427.0 0.000701 1048.24243 1432.21802
1474.0 0.000678 1048.30249 1463.05066
1447.0 0.000691 1048.14648 1498.29529
1502.0 0.000666 1048.21387 1538.47815
1538.0 0.000650 1047.87195 1582.96814
1546.0 0.000647 1047.87354 1632.41040
1579.0 0.000633 1047.73694 1686.25293
1553.0 0.000644 1047.57031 1744.28821
1633.0 0.000612 1047.61780 1806.42725
1809.0 0.000553 1047.47180 1871.72485
1856.0 0.000539 1047.35840 1939.65613
1866.0 0.000536 1047.36731 2009.38721
1898.0 0.000527 1047.21924 2079.51074
1912.0 0.000523 1047.25293 2149.02490
1996.0 0.000501 1047.11328 2215.99951
2048.0 0.000488 1046.94385 2278.91797
2128.0 0.000470 1046.99121 2336.14233
2072.0 0.000483 1046.80713 2385.34473
2191.0 0.000456 1046.87415 2425.30054
2271.0 0.000440 1046.72400 2454.03955
2303.0 0.000434 1046.60339 2470.68140
2323.0 0.000430 1046.60767 2475.06128
2285.0 0.000438 1046.46790 2466.95068
2279.0 0.000439 1046.32324 2447.18262
2185.0 0.000458 1046.29749 2417.17236
2211.0 0.000452 1045.98657 2377.97925
2232.0 0.000448 1046.01990 2331.99438
2162.0 0.000463 1045.85681 2280.27734
2120.0 0.000472 1045.91016 2225.08252
2062.0 0.000485 1045.56665 2167.15845
2003.0 0.000499 1045.60071 2108.55200
1959.0 0.000510 1045.39063 2049.75391
1917.0 0.000522 1045.28186 1991.90356
1921.0 0.000521 1045.27942 1935.87903
1840.0 0.000543 1045.16260 1882.01929
1717.0 0.000582 1045.00293 1831.05066
1714.0 0.000583 1045.04590 1783.76978
1646.0 0.000608 1044.85645 1740.24365
1619.0 0.000618 1044.91638 1701.48608
1593.0 0.000628 1044.71863 1667.35693
1553.0 0.000644 1044.58521 1638.56458
1446.0 0.000692 1044.63159 1615.51294
1494.0 0.000669 1044.44470 1597.95569
1534.0 0.000652 1044.47693 1586.45569
1518.0 0.000659 1044.32690 1580.62354
1476.0 0.000678 1044.16821 1580.61804
1490.0 0.000671 1044.19092 1586.39148
1582.0 0.000632 1044.05432 1597.43982
1556.0 0.000643 1043.87988 1613.58875
1561.0 0.000641 1043.88135 1634.52307
1596.0 0.000627 1043.53259 1659.23889
1555.0 0.000643 1043.58240 1687.86377
1628.0 0.000614 1043.40039 1718.96765
1623.0 0.000616 1043.42566 1752.15442
1771.0 0.000565 1043.11511 1785.89941
1766.0 0.000566 1043.08179 1819.72388
1838.0 0.000544 1042.91577 1852.21619
1882.0 0.000531 1042.80664 1882.00537
1850.0 0.000541 1042.77295 1908.13831
1819.0 0.000550 1042.64905 1929.21155
1806.0 0.000554 1042.49902 1944.33679
1859.0 0.000538 1042.52063 1952.97375
1871.0 0.000534 1042.33765 1954.28223
1874.0 0.000534 1042.37134 1948.74402
1844.0 0.000542 1042.19312 1936.18457
1886.0 0.000530 1042.00989 1917.45813
1768.0 0.000566 1042.06152 1893.60608
1773.0 0.000564 1041.85352 1865.08679
1678.0 0.000596 1041.92346 1833.40491
1720.0 0.000581 1041.71252 1798.92871
1623.0 0.000616 1041.59497 1762.81824
1615.0 0.000619 1041.58606 1725.83801
1657.0 0.000604 1041.45898 1688.36926
1582.0 0.000632 1041.27576 1651.02283
1542.0 0.000649 1041.26331 1614.47449
1440.0 0.000694 1040.90503 1578.65466
1431.0 0.000699 1040.95374 1544.69287
1446.0 0.000692 1040.74207 1512.24792
1436.0 0.000696 1040.79590 1482.20935
1418.0 0.000705 1040.45251 1454.01404
1365.0 0.000733 1040.42749 1428.79346
1355.0 0.000738 1040.23572 1406.05237
1369.0 0.000730 1040.10449 1386.00598
1327.0 0.000754 1040.08557 1368.70361
1298.0 0.000770 1039.96753 1353.81323
1316.0 0.000760 1039.77856 1341.18115
1304.0 0.000767 1039.78967 1330.83398
1257.0 0.000796 1039.61096 1322.11340
1336.0 0.000749 1039.63477 1315.12891
1332.0 0.000751 1039.43103 1309.09607
1327.0 0.000754 1039.29492 1304.01001
1275.0 0.000784 1039.29980 1299.65356
1223.0 0.000818 1039.10120 1295.35730
1309.0 0.000764 1039.14587 1291.34473
1263.0 0.000792 1038.94385 1286.88513
1241.0 0.000806 1038.81116 1282.14966
1350.0 0.000741 1038.79480 1277.04736
1375.0 0.000727 1038.63818 1271.36340
1259.0 0.000794 1038.46667 1265.07043
1255.0 0.000797 1038.43884 1258.51062
1204.0 0.000831 1038.08496 1251.27954
1274.0 0.000785 1038.12048 1244.27893
1232.0 0.000812 1037.93225 1237.92908
1241.0 0.000806 1037.95398 1231.17908
1220.0 0.000820 1037.57385 1224.40845
1160.0 0.000862 1037.54858 1218.55713
1207.0 0.000829 1037.39966 1213.25098
1187.0 0.000842 1037.21045 1208.71265
1242.0 0.000805 1037.20032 1205.18567
1211.0 0.000826 1037.07788 1202.46826
1150.0 0.000870 1036.87964 1200.55640
1152.0 0.000868 1036.89209 1199.71912
1205.0 0.000830 1036.69250 1199.47229
1209.0 0.000827 1036.70190 1200.10461
1210.0 0.000826 1036.53564 1201.10193
1211.0 0.000826 1036.37427 1202.49548
1229.0 0.000814 1036.37524 1204.21094
1226.0 0.000816 1036.15369 1205.68909
1222.0 0.000818 1036.15710 1207.11096
1176.0 0.000850 1035.98022 1207.89893
1215.0 0.000823 1035.84607 1208.03284
1221.0 0.000819 1035.82397 1207.45081
1241.0 0.000806 1035.66638 1205.79419
1211.0 0.000826 1035.46326 1203.10632
1261.0 0.000793 1035.43274 1199.70190
1231.0 0.000812 1035.09399 1195.02795
1161.0 0.000861 1035.10034 1189.94604
1242.0 0.000805 1034.89734 1183.98389
1181.0 0.000847 1034.94226 1177.80017
1150.0 0.000870 1034.55725 1170.89014
1159.0 0.000863 1034.53308 1164.10376
1139.0 0.000878 1034.32825 1157.09729
1200.0 0.000833 1034.16248 1150.19751
1207.0 0.000829 1034.12524 1143.60071
1135.0 0.000881 1034.01038 1137.13635
1087.0 0.000920 1033.81519 1130.91418
1152.0 0.000868 1033.82068 1125.27612
1115.0 0.000897 1033.62988 1119.88330
1108.0 0.000903 1033.60376 1115.16907
1058.0 0.000945 1033.44128 1110.83740
1123.0 0.000890 1033.26038 1107.08997
1121.0 0.000892 1033.25061 1104.12830
1207.0 0.000829 1033.03699 1101.63684
1167.0 0.000857 1033.06250 1100.03564
1085.0 0.000922 1032.81689 1098.90076
1179.0 0.000848 1032.68909 1098.62097
1124.0 0.000890 1032.67041 1099.16321
1076.0 0.000929 1032.52234 1100.35779
1134.0 0.000882 1032.30969 1102.22266
1163.0 0.000860 1032.27307 1105.01001
1108.0 0.000903 1031.90051 1108.21191
1134.0 0.000882 1031.92578 1112.44836
1167.0 0.000857 1031.69421 1117.10327
1116.0 0.000896 1031.71423 1122.58777
1169.0 0.000855 1031.35522 1128.17004
1196.0 0.000836 1031.32910 1134.64795
1128.0 0.000887 1031.12231 1141.10303
1196.0 0.000836 1030.95483 1147.82764
1131.0 0.000884 1030.88940 1154.67529
1149.0 0.000870 1030.75818 1161.37622
1148.0 0.000871 1030.53845 1167.76746
1207.0 0.000829 1030.55713 1174.04871
1211.0 0.000826 1030.35364 1179.64148
1234.0 0.000810 1030.33167 1184.79321
1240.0 0.000806 1030.13928 1189.13440
1162.0 0.000861 1029.95178 1192.89832
1194.0 0.000838 1029.93481 1196.08984
1182.0 0.000846 1029.72400 1198.52954
1225.0 0.000816 1029.71826 1200.50684
1229.0 0.000814 1029.51172 1202.05103
1220.0 0.000820 1029.36450 1203.35596
1226.0 0.000816 1029.32971 1204.55847
1183.0 0.000845 1029.16931 1205.49182
1265.0 0.000791 1028.94153 1206.20044
1216.0 0.000822 1028.90833 1207.01355
1164.0 0.000859 1028.53064 1207.22742
1276.0 0.000784 1028.56836 1207.76904
1210.0 0.000826 1028.31995 1207.76660
1202.0 0.000832 1028.33289 1207.71472
1178.0 0.000849 1027.96130 1206.87329
1197.0 0.000835 1027.93518 1205.93896
1218.0 0.000821 1027.71411 1204.36462
1197.0 0.000835 1027.54089 1202.43860
1170.0 0.000855 1027.50623 1200.26733
1208.0 0.000828 1027.33130 1197.71216
1211.0 0.000826 1027.13440 1194.94495
1180.0 0.000847 1027.13562 1192.35352
1150.0 0.000870 1026.91760 1189.57788
1237.0 0.000808 1026.86975 1187.12549
1210.0 0.000826 1026.70276 1184.72900
1203.0 0.000831 1026.51221 1182.55005
1182.0 0.000846 1026.48181 1180.77795
1175.0 0.000851 1026.26794 1179.08044
1161.0 0.000861 1026.25439 1177.78540
1210.0 0.000826 1026.03491 1176.43860
1178.0 0.000849 1025.88867 1175.26392
1219.0 0.000820 1025.85901 1174.26331
1201.0 0.000833 1025.67102 1173.18970
1228.0 0.000814 1025.44104 1171.94629
1185.0 0.000844 1025.38477 1170.75964
1157.0 0.000864 1025.00317 1169.18152
1163.0 0.000860 1025.01306 1167.89185
1116.0 0.000896 1024.82007 1166.35315
1106.0 0.000904 1024.80615 1164.93713
1139.0 0.000878 1024.42664 1163.24048
1157.0 0.000864 1024.37292 1161.90222
1104.0 0.000906 1024.14490 1160.70044
1146.0 0.000873 1023.96698 1159.87451
1149.0 0.000870 1023.92017 1159.64258
1142.0 0.000876 1023.78503 1159.93628
1165.0 0.000858 1023.55396 1160.81274
1209.0 0.000827 1023.54816 1162.69019
1147.0 0.000872 1023.33063 1165.28210
1136.0 0.000880 1023.29199 1168.98901
1158.0 0.000864 1023.08630 1173.59851
1219.0 0.000820 1022.89868 1179.12891
1174.0 0.000852 1022.84546 1185.76965
1226.0 0.000816 1022.63696 1193.10962
1250.0 0.000800 1022.60773 1201.56201
1326.0 0.000754 1022.40112 1210.39465
1359.0 0.000736 1022.22925 1219.79492
1344.0 0.000744 1022.18756 1229.66760
1447.0 0.000691 1022.02728 1239.52527
1389.0 0.000720 1021.78876 1249.05774
1484.0 0.000674 1021.72491 1258.53162
1399.0 0.000715 1021.34601 1267.07275
1446.0 0.000692 1021.36078 1275.22144
1490.0 0.000671 1021.11780 1282.12024
1498.0 0.000668 1021.14392 1288.19788
1393.0 0.000718 1020.72864 1292.67297
1454.0 0.000688 1020.65826 1296.40344
1469.0 0.000681 1020.43793 1298.99390
1432.0 0.000698 1020.25977 1300.84009
1503.0 0.000665 1020.21344 1302.22241
1427.0 0.000701 1020.07294 1303.15466
1440.0 0.000694 1019.82111 1304.21191
1400.0 0.000714 1019.80481 1305.28918
1452.0 0.000689 1019.57721 1306.43408
1385.0 0.000722 1019.52533 1307.80896
1393.0 0.000718 1019.33466 1309.93738
1498.0 0.000668 1019.13672 1312.72034
1374.0 0.000728 1019.07410 1316.39563
1419.0 0.000705 1018.87799 1320.69690
1492.0 0.000670 1018.84052 1326.07153
1437.0 0.000696 1018.59973 1332.07446
1401.0 0.000714 1018.47516 1339.09607
1397.0 0.000716 1018.39349 1347.13757
1398.0 0.000715 1018.22992 1356.02625
1391.0 0.000719 1018.00079 1365.81189
1354.0 0.000739 1017.89911 1376.60107
1429.0 0.000700 1017.53607 1387.92395
1349.0 0.000741 1017.51178 1400.19873
1419.0 0.000705 1017.29309 1412.68164
1436.0 0.000696 1017.27014 1425.48792
1397.0 0.000716 1016.87750 1437.66455
1411.0 0.000709 1016.82751 1449.51965
1404.0 0.000712 1016.57312 1460.07446
1409.0 0.000710 1016.42255 1469.08923
1394.0 0.000717 1016.31866 1476.14392
1382.0 0.000724 1016.19031 1480.65027
1368.0 0.000731 1015.91803 1482.52551
1398.0 0.000715 1015.93140 1481.46448
1391.0 0.000719 1015.70111 1477.25708
1421.0 0.000704 1015.64142 1470.38892
1433.0 0.000698 1015.42041 1460.89990
1440.0 0.000694 1015.25281 1449.34265
1402.0 0.000713 1015.16260 1436.23145
1453.0 0.000688 1014.97998 1421.75232
1422.0 0.000703 1014.92603 1406.67883
1387.0 0.000721 1014.65784 1391.01599
1366.0 0.000732 1014.55194 1375.47852
1371.0 0.000729 1014.44159 1360.28467
1324.0 0.000755 1014.28796 1345.62683
1232.0 0.000812 1014.05548 1331.70398
1255.0 0.000797 1013.97668 1319.01367
1230.0 0.000813 1013.55402 1307.21313
1263.0 0.000792 1013.57056 1297.14990
1269.0 0.000788 1013.30115 1288.32422
1265.0 0.000791 1013.30835 1281.25427
1174.0 0.000852 1012.91614 1275.24963
1224.0 0.000817 1012.82770 1271.07141
1191.0 0.000840 1012.58807 1268.11279
1187.0 0.000842 1012.39948 1266.42932
1190.0 0.000840 1012.34698 1265.87341
1165.0 0.000858 1012.17499 1265.97363
1180.0 0.000847 1011.92871 1266.52600
1235.0 0.000810 1011.91083 1267.51160
1205.0 0.000830 1011.68048 1268.26404
1194.0 0.000838 1011.58301 1268.88342
1221.0 0.000819 1011.39581 1268.86169
1227.0 0.000815 1011.20813 1268.16199
1184.0 0.000845 1011.13000 1266.77234
1170.0 0.000855 1010.88275 1264.39221
1230.0 0.000813 1010.88934 1261.39636
1201.0 0.000833 1010.62775 1257.38208
1182.0 0.000846 1010.45898 1252.88184
1183.0 0.000845 1010.40930 1248.12354
1181.0 0.000847 1010.21368 1243.09888
1171.0 0.000854 1009.95959 1238.14771
1246.0 0.000803 1009.91058 1233.73389
1184.0 0.000845 1009.49390 1229.60205
1207.0 0.000829 1009.47424 1226.73767
1246.0 0.000803 1009.19525 1224.65942
1216.0 0.000822 1009.20905 1224.10828
1212.0 0.000825 1008.84161 1224.48608
1202.0 0.000832 1008.72955 1226.59546
1229.0 0.000814 1008.47461 1229.96521
1211.0 0.000826 1008.33063 1234.89832
1252.0 0.000799 1008.20288 1241.16504
1284.0 0.000779 1008.06232 1248.60486
1249.0 0.000801 1007.80731 1256.91479
1326.0 0.000754 1007.78326 1266.18530
1335.0 0.000749 1007.55469 1275.68555
1363.0 0.000734 1007.47662 1285.41565
1357.0 0.000737 1007.26105 1294.64612
1382.0 0.000724 1007.05609 1303.19446
1442.0 0.000693 1006.96246 1310.69226
1411.0 0.000709 1006.73718 1316.50732
1438.0 0.000695 1006.72491 1320.64319
1470.0 0.000680 1006.44867 1322.37415
1384.0 0.000723 1006.32764 1321.90210
1375.0 0.000727 1006.22546 1319.11316
1379.0 0.000725 1006.04669 1314.00647
1411.0 0.000709 1005.76318 1306.75964
1310.0 0.000763 1005.70612 1297.92004
1274.0 0.000785 1005.27728 1287.36426
1292.0 0.000774 1005.28461 1276.23413
1264.0 0.000791 1005.01489 1264.22375
1316.0 0.000760 1005.01013 1252.25671
1246.0 0.000803 1004.59167 1240.03210
1227.0 0.000815 1004.51526 1228.69653
1145.0 0.000873 1004.26312 1218.06628
1208.0 0.000828 1004.10669 1208.73438
1185.0 0.000844 1003.99048 1200.96423
1209.0 0.000827 1003.84125 1194.95862
1187.0 0.000842 1003.56531 1190.91907
1238.0 0.000808 1003.54407 1189.46021
1186.0 0.000843 1003.32184 1190.44287
1146.0 0.000873 1003.17352 1194.36523
1175.0 0.000851 1002.99261 1201.32849
1212.0 0.000825 1002.81000 1211.66687
1188.0 0.000842 1002.67419 1225.59534
1232.0 0.000812 1002.49384 1243.25110
1216.0 0.000822 1002.40747 1264.97302
1248.0 0.000801 1002.15839 1290.62488
1295.0 0.000772 1002.04474 1320.62622
1298.0 0.000770 1001.93408 1354.93225
1351.0 0.000740 1001.75610 1393.48340
1384.0 0.000723 1001.50165 1436.16052
1405.0 0.000712 1001.39758 1483.06079
1466.0 0.000682 1000.99756 1533.47937
1577.0 0.000634 1000.97278 1587.71716
1573.0 0.000636 1000.73779 1644.74463
1576.0 0.000635 1000.72858 1704.31812
1684.0 0.000594 1000.30328 1765.14868
1722.0 0.000581 1000.20825 1827.01465
1790.0 0.000559 999.93567 1888.46191
1865.0 0.000536 999.75818 1948.18298
1918.0 0.000521 999.69818 2005.56421
2000.0 0.000500 999.48608 2059.11011
1928.0 0.000519 999.24292 2107.20703
1940.0 0.000515 999.21851 2148.73315
2001.0 0.000500 998.97284 2181.79297
2093.0 0.000478 998.88818 2205.59644
2122.0 0.000471 998.66937 2218.89282
2096.0 0.000477 998.46350 2221.25732
2035.0 0.000491 998.36108 2212.49854
2070.0 0.000483 998.12280 2192.76367
1988.0 0.000503 998.08759 2163.12085
1905.0 0.000525 997.82111 2124.23047
1853.0 0.000540 997.65460 2077.79663
1862.0 0.000537 997.57629 2025.25525
1785.0 0.000560 997.36353 1967.90063
1748.0 0.000572 997.11328 1907.29895
1643.0 0.000609 997.02698 1844.54700
1595.0 0.000627 996.60535 1781.33594
1519.0 0.000658 996.58142 1718.94531
1496.0 0.000668 996.34436 1657.65869
1430.0 0.000699 996.32611 1598.76709
1390.0 0.000719 995.91974 1542.22852
1351.0 0.000740 995.79138 1489.26709
1269.0 0.000788 995.54010 1439.77881
1238.0 0.000808 995.36267 1394.28613
1249.0 0.000801 995.29504 1352.87427
1258.0 0.000795 995.11664 1315.47290
1248.0 0.000801 994.87341 1282.00696
1220.0 0.000820 994.82190 1252.68811
1162.0 0.000861 994.56390 1227.00049
1164.0 0.000859 994.45972 1204.99292
1151.0 0.000869 994.26312 1186.30957
1166.0 0.000858 994.06989 1170.77209
1151.0 0.000869 993.94342 1158.20532
1111.0 0.000900 993.68213 1148.25842
1122.0 0.000891 993.67456 1141.01013
1208.0 0.000828 993.38019 1135.82764
1163.0 0.000860 993.21399 1132.84656
1123.0 0.000890 993.13458 1131.97119
1106.0 0.000904 992.94019 1132.87915
1117.0 0.000895 992.69049 1135.46411
1162.0 0.000861 992.59381 1139.86646
1161.0 0.000861 992.14954 1145.57263
1084.0 0.000923 992.15082 1153.25977
1089.0 0.000918 991.87152 1162.20642
1149.0 0.000870 991.87024 1172.84119
1185.0 0.000844 991.46234 1184.54395
1216.0 0.000822 991.36694 1197.86255
1160.0 0.000862 991.08331 1212.30005
1231.0 0.000812 990.89685 1228.08057
1219.0 0.000820 990.80414 1245.00183
1225.0 0.000816 990.65082 1262.88574
1278.0 0.000782 990.36285 1281.51453
1263.0 0.000792 990.33179 1300.94250
1259.0 0.000794 990.09894 1320.46729
1266.0 0.000790 989.93341 1340.14856
1285.0 0.000778 989.77899 1359.53723
1318.0 0.000759 989.56647 1378.26892
1365.0 0.000733 989.43817 1396.08008
1372.0 0.000729 989.20490 1412.46741
1337.0 0.000748 989.14026 1427.32605
1409.0 0.000710 988.90906 1440.04504
1397.0 0.000716 988.72058 1450.65955
1411.0 0.000709 988.64178 1459.05640
1473.0 0.000679 988.43231 1464.80554
1398.0 0.000715 988.20166 1468.08899
1466.0 0.000682 988.06140 1469.02844
1475.0 0.000678 987.63824 1467.27173
1452.0 0.000689 987.64447 1463.72839
1468.0 0.000681 987.36517 1457.84143
1412.0 0.000708 987.35687 1450.39600
1458.0 0.000686 986.93488 1441.09253
1434.0 0.000697 986.83795 1430.98804
1377.0 0.000726 986.57214 1420.07239
1329.0 0.000752 986.40167 1409.06519
1343.0 0.000745 986.28345 1398.49719
1295.0 0.000772 986.12067 1388.58545
1339.0 0.000747 985.86237 1379.82581
1303.0 0.000767 985.80756 1372.99316
1322.0 0.000756 985.57245 1368.01453
1262.0 0.000792 985.41791 1365.51013
1261.0 0.000793 985.22217 1365.54968
1245.0 0.000803 985.00684 1368.25000
1289.0 0.000776 984.90509 1373.82349
1301.0 0.000769 984.66992 1381.91089
1301.0 0.000769 984.61670 1392.72595
1308.0 0.000765 984.34204 1405.48621
1407.0 0.000711 984.15656 1420.20703
1300.0 0.000769 984.06989 1436.38306
1397.0 0.000716 983.89355 1453.29236
1313.0 0.000762 983.63208 1470.31592
1358.0 0.000736 983.49658 1486.99329
1325.0 0.000755 983.10706 1502.24475
1338.0 0.000747 983.09399 1515.97034
1367.0 0.000732 982.78619 1526.87683
1349.0 0.000741 982.80658 1534.91760
1347.0 0.000742 982.39392 1538.88855
1359.0 0.000736 982.27966 1539.24841
1355.0 0.000738 981.97937 1535.42151
1283.0 0.000779 981.83099 1527.81653
1334.0 0.000750 981.71277 1516.68176
1288.0 0.000776 981.55804 1502.33521
1315.0 0.000760 981.30505 1485.37695
1304.0 0.000767 981.22626 1466.71826
1265.0 0.000791 981.01410 1446.74451
1272.0 0.000786 980.84436 1426.32080
1262.0 0.000792 980.64453 1405.99792
1302.0 0.000768 980.44751 1386.42065
1212.0 0.000825 980.30811 1368.17639
1271.0 0.000787 980.08093 1351.58154
1251.0 0.000799 980.03320 1337.29529
1315.0 0.000760 979.76807 1325.22742
1266.0 0.000790 979.60272 1315.91211
1289.0 0.000776 979.52972 1309.52869
1281.0 0.000781 979.30029 1305.91711
1289.0 0.000776 979.05298 1305.14880
1294.0 0.000773 978.92871 1307.35791
1369.0 0.000730 978.51672 1312.04468
1335.0 0.000749 978.51904 1319.69470
1347.0 0.000742 978.23706 1329.43579
1346.0 0.000743 978.22833 1341.55188
1329.0 0.000752 977.83362 1355.12903
1425.0 0.000702 977.70386 1370.59802
1418.0 0.000705 977.38818 1387.20496
1484.0 0.000674 977.23309 1405.16064
1501.0 0.000666 977.14331 1424.16187
1514.0 0.000661 976.98553 1443.96118
1540.0 0.000649 976.67603 1464.25244
1535.0 0.000651 976.64697 1485.33887
1580.0 0.000633 976.41162 1506.57849
1548.0 0.000646 976.26636 1528.07507
1665.0 0.000601 976.07025 1549.44189
1636.0 0.000611 975.87433 1570.32507
1670.0 0.000599 975.73035 1590.45068
1717.0 0.000582 975.50671 1609.23987
1634.0 0.000612 975.46448 1626.40393
1802.0 0.000555 975.16724 1641.02539
1678.0 0.000596 975.00922 1653.05139
1788.0 0.000559 974.90247 1661.71936
1829.0 0.000547 974.73010 1666.63562
1726.0 0.000579 974.46112 1667.47034
1711.0 0.000584 974.36017 1664.40002
1765.0 0.000567 973.93182 1657.06152
1757.0 0.000569 973.89545 1646.37207
1721.0 0.000581 973.66180 1632.19788
1685.0 0.000593 973.61664 1615.40259
1633.0 0.000612 973.19562 1595.87585
1582.0 0.000632 973.10736 1574.91479
1574.0 0.000635 972.81079 1552.48779
1593.0 0.000628 972.63898 1529.36536
1508.0 0.000663 972.52460 1505.81433
1452.0 0.000689 972.38519 1482.12195
1445.0 0.000692 972.10321 1458.35144
1401.0 0.000714 972.06128 1435.08105
1393.0 0.000718 971.80908 1412.00208
1360.0 0.000735 971.65448 1389.47302
1399.0 0.000715 971.46191 1367.42163
1363.0 0.000734 971.32709 1346.01770
1309.0 0.000764 971.12189 1325.13403
1330.0 0.000752 970.91571 1304.85168
1272.0 0.000786 970.86163 1285.35034
1228.0 0.000814 970.56848 1266.24353
1251.0 0.000799 970.44104 1247.98572
1225.0 0.000816 970.30762 1230.38525
1234.0 0.000810 970.13593 1213.38464
1150.0 0.000870 969.85730 1196.97021
1176.0 0.000850 969.75916 1181.40002
1192.0 0.000839 969.31567 1166.23938
1136.0 0.000880 969.28882 1152.15088
1115.0 0.000897 969.06726 1138.56079
1101.0 0.000908 969.04877 1125.53320
1084.0 0.000923 968.61627 1113.20056
1054.0 0.000949 968.52429 1101.93347
1143.0 0.000875 968.25165 1091.21802
1071.0 0.000934 968.06476 1081.30835
1027.0 0.000974 967.92792 1072.17322
1061.0 0.000943 967.79346 1063.71863
1052.0 0.000951 967.52551 1055.79248
1049.0 0.000953 967.45898 1048.68982
1075.0 0.000930 967.25427 1042.12085
1035.0 0.000966 967.09900 1036.25781
1066.0 0.000938 966.91034 1030.87122
1057.0 0.000946 966.72388 1026.02795
1035.0 0.000966 966.51288 1021.67816
1023.0 0.000978 966.32483 1017.79706
1091.0 0.000917 966.26483 1014.41803
1070.0 0.000935 965.99786 1011.26947
1042.0 0.000960 965.85022 1008.57690
1046.0 0.000956 965.70923 1006.20709
1053.0 0.000950 965.57031 1004.12433
1013.0 0.000987 965.27271 1002.15057
1066.0 0.000938 965.16345 1000.53760
1016.0 0.000984 964.76782 998.86517
997.0 0.001003 964.71753 997.67682
993.0 0.001007 964.48468 996.48206
983.0 0.001017 964.48059 995.61768
1066.0 0.000938 964.05670 994.50006
1032.0 0.000969 963.92963 993.74603
972.0 0.001029 963.66449 992.95447
1004.0 0.000996 963.51190 992.31921
1026.0 0.000975 963.37402 991.76587
994.0 0.001006 963.26398 991.33838
966.0 0.001035 962.94702 990.75330
1014.0 0.000986 962.90814 990.51001
1040.0 0.000962 962.68915 990.15515
1075.0 0.000930 962.49744 989.88568
1011.0 0.000989 962.34900 989.72498
963.0 0.001038 962.14844 989.61066
992.0 0.001008 961.99615 989.59973
1075.0 0.000930 961.76355 989.63470
1053.0 0.000950 961.71570 989.85974
1004.0 0.000996 961.40912 989.97699
1021.0 0.000979 961.32800 990.38104
1049.0 0.000953 961.17847 990.88257
990.0 0.001010 961.03387 991.36591
993.0 0.001007 960.75104 991.82825
999.0 0.001001 960.64911 992.50214
1024.0 0.000977 960.22174 992.96759
1011.0 0.000989 960.19971 993.92029
1044.0 0.000958 959.93689 994.72345
1003.0 0.000997 959.94818 995.81616
1017.0 0.000983 959.51379 996.59814
1052.0 0.000951 959.40796 997.75385
1043.0 0.000959 959.10876 998.84198
1020.0 0.000980 958.96057 999.96991
1017.0 0.000983 958.86914 1001.46863
966.0 0.001035 958.73163 1003.07849
1007.0 0.000993 958.42291 1004.65155
1009.0 0.000991 958.37500 1006.66754
992.0 0.001008 958.16406 1008.68835
994.0 0.001006 957.98816 1010.92249
1003.0 0.000997 957.81592 1013.38629
1002.0 0.000998 957.65106 1016.00482
1030.0 0.000971 957.45874 1018.77838
1093.0 0.000915 957.26752 1021.79004
1011.0 0.000989 957.18683 1025.09753
1012.0 0.000988 956.89178 1028.32666
1050.0 0.000952 956.79480 1031.92896
1022.0 0.000978 956.66302 1035.61560
1020.0 0.000980 956.53320 1039.44482
1051.0 0.000951 956.23431 1043.22375
1015.0 0.000985 956.10999 1047.25464
1026.0 0.000975 955.70502 1051.18677
1050.0 0.000952 955.72681 1055.54163
1086.0 0.000921 955.42328 1059.66479
1105.0 0.000905 955.43732 1064.22913
1138.0 0.000879 955.04602 1068.45679
1108.0 0.000903 954.90619 1073.06226
1112.0 0.000899 954.63684 1077.65723
1140.0 0.000877 954.47992 1082.42188
1110.0 0.000901 954.37134 1087.31348
1139.0 0.000878 954.24640 1092.21924
1111.0 0.000900 953.96149 1096.92847
1104.0 0.000906 953.89185 1101.88574
1172.0 0.000853 953.70697 1106.51563
1182.0 0.000846 953.53271 1110.96045
1199.0 0.000834 953.32104 1115.18274
1167.0 0.000857 953.18988 1119.16919
1265.0 0.000791 952.98138 1122.82568
1266.0 0.000790 952.79993 1126.16187
1205.0 0.000830 952.74695 1129.29260
1141.0 0.000876 952.41742 1131.85071
1225.0 0.000816 952.32813 1134.35925
1225.0 0.000816 952.23901 1136.59644
1200.0 0.000833 952.03992 1138.48108
1251.0 0.000799 951.79340 1140.07434
1221.0 0.000819 951.64313 1141.58484
1227.0 0.000815 951.24451 1142.62561
1235.0 0.000810 951.26318 1143.86792
1232.0 0.000812 951.00397 1144.65564
1293.0 0.000773 951.01727 1144.63428
1277.0 0.000783 950.57349 1144.80811
1303.0 0.000767 950.45679 1145.08252
1286.0 0.000778 950.21826 1145.02771
1276.0 0.000784 950.06866 1144.84692
1276.0 0.000784 949.96448 1144.53894
1333.0 0.000750 949.83264 1144.02454
1310.0 0.000763 949.53876 1143.16821
1266.0 0.000790 949.46661 1142.36096
1294.0 0.000773 949.27710 1141.33313
1328.0 0.000753 949.08392 1140.07983
1293.0 0.000773 948.91980 1138.68005
1337.0 0.000748 948.76385 1137.16089
1267.0 0.000789 948.58710 1135.55750
1288.0 0.000776 948.38312 1133.87439
1251.0 0.000799 948.33246 1132.34583
1245.0 0.000803 948.03369 1130.60181
1222.0 0.000818 947.96460 1129.15894
1254.0 0.000797 947.80835 1127.71765
1199.0 0.000834 947.70129 1126.41003
1226.0 0.000816 947.40607 1125.05164
1271.0 0.000787 947.28772 1123.94775
1244.0 0.000804 946.86603 1122.61597
1180.0 0.000847 946.91895 1121.79761
1194.0 0.000838 946.61426 1120.67261
1183.0 0.000845 946.63336 1119.79614
1196.0 0.000836 946.23572 1118.46448
1158.0 0.000864 946.11145 1117.28882
1217.0 0.000822 945.84186 1115.74963
1161.0 0.000861 945.70270 1114.12305
1163.0 0.000860 945.58545 1112.24890
1128.0 0.000887 945.46790 1110.04626
1196.0 0.000836 945.19794 1107.34412
1186.0 0.000843 945.14471 1104.54382
1147.0 0.000872 944.93274 1101.26685
1172.0 0.000853 944.77112 1097.75305
1167.0 0.000857 944.61066 1094.00012
1134.0 0.000882 944.45892 1090.02905
1124.0 0.000890 944.26672 1085.87305
1115.0 0.000897 944.05707 1081.66919
1147.0 0.000872 944.01190 1077.57385
1073.0 0.000932 943.74194 1073.32239
1062.0 0.000942 943.62061 1069.35645
1106.0 0.000904 943.51617 1065.56287
1097.0 0.000912 943.35577 1061.97021
1088.0 0.000919 943.09802 1058.58325
1072.0 0.000933 942.99408 1055.69055
1062.0 0.000942 942.59222 1052.92175
1141.0 0.000876 942.60242 1051.04712
1096.0 0.000912 942.35742 1049.45068
1110.0 0.000901 942.33557 1048.74866
1096.0 0.000912 941.95709 1048.22852
1104.0 0.000906 941.83972 1048.68420
1071.0 0.000934 941.56866 1049.68042
1093.0 0.000915 941.42999 1051.59363
1051.0 0.000951 941.31262 1054.27136
1061.0 0.000943 941.23297 1057.76221
1116.0 0.000896 940.96771 1061.84204
1060.0 0.000943 940.89813 1066.89575
1112.0 0.000899 940.68878 1072.52869
1057.0 0.000946 940.50488 1078.80933
1099.0 0.000910 940.33875 1085.77368
1074.0 0.000931 940.19977 1093.26709
1093.0 0.000915 939.99103 1101.13379
1130.0 0.000885 939.83563 1109.39819
1170.0 0.000855 939.77667 1118.01477
1177.0 0.000850 939.50763 1126.53320
1138.0 0.000879 939.41064 1135.29504
1214.0 0.000824 939.27716 1143.94641
1195.0 0.000837 939.14886 1152.44348
1211.0 0.000826 938.86450 1160.58740
1216.0 0.000822 938.77795 1168.66138
1196.0 0.000836 938.38599 1176.10583
1261.0 0.000793 938.40216 1183.64270
1193.0 0.000838 938.10992 1190.49561
1169.0 0.000855 938.14337 1197.23132
1256.0 0.000796 937.76440 1203.11841
1178.0 0.000849 937.65735 1208.75500
1256.0 0.000796 937.36182 1213.66394
1220.0 0.000820 937.28699 1218.11279
1215.0 0.000823 937.16077 1221.84607
1144.0 0.000874 937.06775 1224.81372
1272.0 0.000786 936.78772 1226.74890
1240.0 0.000806 936.70184 1227.99329
1247.0 0.000802 936.55573 1228.24048
1240.0 0.000806 936.32214 1227.51050
1264.0 0.000791 936.20215 1225.94763
1227.0 0.000815 936.07361 1223.50024
1261.0 0.000793 935.87323 1220.11377
1243.0 0.000805 935.70325 1215.90234
1233.0 0.000811 935.65173 1210.99316
1244.0 0.000804 935.36902 1205.10559
1230.0 0.000813 935.26910 1198.58167
1192.0 0.000839 935.16351 1191.30396
1253.0 0.000798 935.01410 1183.32349
1229.0 0.000814 934.75891 1174.57703
1203.0 0.000831 934.64197 1165.47815
1148.0 0.000871 934.28400 1155.62708
1215.0 0.000823 934.28888 1145.92395
1170.0 0.000855 934.04279 1135.82251
1190.0 0.000840 934.05750 1126.01624
1156.0 0.000865 933.70166 1116.08435
1151.0 0.000869 933.54498 1106.67236
1112.0 0.000899 933.33661 1097.69812
1103.0 0.000907 933.21698 1089.44861
1144.0 0.000874 933.06799 1081.96387
1149.0 0.000870 933.01025 1075.42224
1111.0 0.000900 932.70099 1069.57397
1072.0 0.000933 932.65472 1065.06018
1084.0 0.000923 932.47986 1061.53162
1087.0 0.000920 932.30200 1059.17114
1114.0 0.000898 932.17859 1058.05371
1060.0 0.000943 932.01691 1058.19226
1063.0 0.000941 931.80908 1059.52954
1108.0 0.000903 931.67523 1062.21008
1113.0 0.000898 931.58362 1066.18115
1063.0 0.000941 931.33105 1071.20996
1102.0 0.000907 931.26520 1077.58472
1137.0 0.000880 931.16339 1085.03320
1114.0 0.000898 931.03729 1093.50061
1128.0 0.000887 930.78143 1102.74023
1098.0 0.000911 930.65320 1112.95007
1132.0 0.000883 930.28076 1123.52087
1194.0 0.000838 930.33429 1134.99255
1172.0 0.000853 930.05530 1146.47461
1244.0 0.000804 930.08588 1158.15222
1242.0 0.000805 929.69220 1169.44690
1240.0 0.000806 929.58362 1180.69043
1254.0 0.000797 929.35791 1191.21851
1279.0 0.000782 929.23895 1201.05640
1332.0 0.000751 929.12976 1209.88000
1330.0 0.000752 929.01697 1217.49500
1355.0 0.000738 928.80310 1223.59094
1338.0 0.000747 928.73505 1228.30542
1268.0 0.000789 928.55750 1231.30737
1307.0 0.000765 928.35822 1232.55212
1322.0 0.000756 928.21301 1232.13013
1242.0 0.000805 928.09198 1229.94104
1273.0 0.000786 927.91064 1225.98511
1221.0 0.000819 927.75696 1220.39661
1242.0 0.000805 927.69525 1213.35876
1233.0 0.000811 927.41980 1204.72461
1245.0 0.000803 927.37653 1195.07043
1181.0 0.000847 927.25586 1184.26074
1139.0 0.000878 927.12439 1172.64099
1195.0 0.000837 926.90289 1160.29260
1154.0 0.000867 926.78937 1147.60059
1149.0 0.000870 926.42340 1134.43701
1136.0 0.000880 926.42969 1121.56677
1071.0 0.000934 926.18988 1108.50647
1119.0 0.000894 926.22742 1095.93518
1114.0 0.000898 925.87970 1083.34314
1030.0 0.000971 925.74414 1071.41504
1018.0 0.000982 925.49921 1059.92395
1055.0 0.000948 925.39496 1049.18811
1054.0 0.000949 925.27325 1039.12183
1048.0 0.000954 925.21924 1029.83167
1035.0 0.000966 924.97369 1021.12378
1091.0 0.000917 924.90430 1013.35809
1008.0 0.000992 924.77087 1006.33661
1028.0 0.000973 924.55316 1000.00067
1042.0 0.000960 924.41302 994.48260
1000.0 0.001000 924.29395 989.74933
956.0 0.001046 924.12366 985.66083
1059.0 0.000944 923.95935 982.24353
1014.0 0.000986 923.89227 979.56909
1043.0 0.000959 923.64978 977.36438
1012.0 0.000988 923.54279 975.87006
977.0 0.001024 923.46527 974.95569
967.0 0.001034 923.36017 974.54852
995.0 0.001005 923.11841 974.42847
1034.0 0.000967 923.01154 974.99579
1004.0 0.000996 922.64508 975.83917
993.0 0.001007 922.71173 977.49554
975.0 0.001026 922.43945 979.30847
1009.0 0.000991 922.46600 981.82617
1045.0 0.000957 922.13995 984.43176
993.0 0.001007 922.00751 987.69037
1025.0 0.000976 921.75732 991.23462
995.0 0.001005 921.68799 995.37109
1000.0 0.001000 921.55798 999.88788
1036.0 0.000965 921.49603 1004.85028
1032.0 0.000969 921.26489 1010.06183
1079.0 0.000927 921.17676 1015.79865
1032.0 0.000969 921.04926 1021.88452
1050.0 0.000952 920.84729 1028.28430
1038.0 0.000963 920.72437 1035.09741
1014.0 0.000986 920.63861 1042.09436
1066.0 0.000938 920.42499 1049.38330
1057.0 0.000946 920.31201 1056.95288
1076.0 0.000929 920.22620 1064.66455
1018.0 0.000982 919.96912 1072.19922
1060.0 0.000943 919.91620 1079.81604
1029.0 0.000972 919.81805 1087.11011
1118.0 0.000894 919.72766 1093.99878
1193.0 0.000838 919.47058 1099.88416
1070.0 0.000935 919.33441 1105.43140
1110.0 0.000901 919.04126 1109.93750
1104.0 0.000906 919.06732 1113.74658
1078.0 0.000928 918.83411 1116.12659
1030.0 0.000971 918.88995 1117.57837
1115.0 0.000897 918.52222 1117.32617
1076.0 0.000929 918.40063 1116.02551
1049.0 0.000953 918.14374 1113.39771
1066.0 0.000938 918.11072 1109.80286
1055.0 0.000948 917.96088 1105.05054
1057.0 0.000946 917.87823 1099.50073
1079.0 0.000927 917.69788 1093.05383
1115.0 0.000897 917.62463 1086.21692
1067.0 0.000937 917.48529 1078.85120
1071.0 0.000934 917.30475 1071.19617
1039.0 0.000962 917.19183 1063.54370
1045.0 0.000957 917.08783 1055.92371
1027.0 0.000974 916.86731 1048.38770
1014.0 0.000986 916.76843 1041.27551
1009.0 0.000991 916.67297 1034.58069
999.0 0.001001 916.43878 1028.22937
998.0 0.001002 916.38629 1022.62970
994.0 0.001006 916.31805 1017.65863
1018.0 0.000982 916.21869 1013.31348
1099.0 0.000910 915.97180 1009.50769
975.0 0.001026 915.85925 1006.55347
1012.0 0.000988 915.52551 1004.01831
966.0 0.001035 915.53784 1002.57172
986.0 0.001014 915.31909 1001.49066
947.0 0.001056 915.37933 1001.29059
1039.0 0.000962 915.03540 1001.27875
945.0 0.001058 914.92743 1001.95282
1012.0 0.000988 914.68976 1003.00793
992.0 0.001008 914.60052 1004.51160
1028.0 0.000973 914.54346 1006.32550
951.0 0.001052 914.45856 1008.29089
1075.0 0.000930 914.25366 1010.26208
1019.0 0.000981 914.17981 1012.37781
970.0 0.001031 914.06323 1014.41003
1046.0 0.000956 913.84900 1016.26013
1063.0 0.000941 913.73309 1018.02484
1030.0 0.000971 913.63995 1019.61310
998.0 0.001002 913.43408 1020.84961
1001.0 0.000999 913.33014 1021.98706
1019.0 0.000981 913.28339 1022.95850
1057.0 0.000946 913.09131 1023.58691
992.0 0.001008 912.99493 1024.19727
1014.0 0.000986 912.90015 1024.64392
981.0 0.001019 912.83594 1025.11353
1078.0 0.000928 912.60291 1025.39990
1015.0 0.000985 912.47870 1025.81799
1049.0 0.000953 912.16400 1026.07703
975.0 0.001026 912.20538 1026.80066
1048.0 0.000954 911.97424 1027.37500
1071.0 0.000934 912.02612 1028.30774
1051.0 0.000951 911.71014 1028.92554
1050.0 0.000952 911.59778 1029.86035
1078.0 0.000928 911.38690 1030.76563
1001.0 0.000999 911.32043 1031.86292
1061.0 0.000943 911.19684 1032.93457
1061.0 0.000943 911.16284 1034.05347
1094.0 0.000914 910.92242 1034.94336
1059.0 0.000944 910.84351 1035.92920
1121.0 0.000892 910.78168 1036.82727
1130.0 0.000885 910.53802 1037.52014
1059.0 0.000944 910.44775 1038.23291
1061.0 0.000943 910.38348 1038.96533
1069.0 0.000935 910.15741 1039.51367
1044.0 0.000958 910.06506 1040.18420
1017.0 0.000983 910.03546 1040.94250
1056.0 0.000947 909.80011 1041.73706
1059.0 0.000944 909.74390 1042.81409
1058.0 0.000945 909.62982 1044.05664
1080.0 0.000926 909.56384 1045.55212
1114.0 0.000898 909.36310 1047.18091
1112.0 0.000899 909.25092 1049.13525
1135.0 0.000881 908.89648 1051.17053
1158.0 0.000864 909.00348 1053.82153
1124.0 0.000890 908.77301 1056.38733
1066.0 0.000938 908.83704 1059.36938
1169.0 0.000855 908.51556 1062.08289
1136.0 0.000880 908.40527 1065.04041
1141.0 0.000876 908.15063 1067.80054
1154.0 0.000867 908.13446 1070.55066
1122.0 0.000891 907.98901 1073.00635
1125.0 0.000889 907.98810 1075.15686
1094.0 0.000914 907.79297 1076.70789
1168.0 0.000856 907.69379 1077.83276
1202.0 0.000832 907.57288 1078.38013
1131.0 0.000884 907.40216 1078.16418
1166.0 0.000858 907.30908 1077.46533
1100.0 0.000909 907.25397 1076.16895
1152.0 0.000868 907.03632 1074.12695
1101.0 0.000908 906.96924 1071.67468
1137.0 0.000880 906.87280 1068.78650
1172.0 0.000853 906.68750 1065.37244
1066.0 0.000938 906.65112 1061.83606
1074.0 0.000931 906.50879 1057.95715
1118.0 0.000894 906.44470 1054.04370
1105.0 0.000905 906.24438 1049.93262
1095.0 0.000913 906.14709 1045.95117
1107.0 0.000903 905.82025 1041.81616
1097.0 0.000912 905.92517 1038.21753
1001.0 0.000999 905.69086 1034.51331
1024.0 0.000977 905.75830 1031.36780
1064.0 0.000940 905.40845 1028.13135
1056.0 0.000947 905.32642 1025.45044
979.0 0.001021 905.09161 1023.04865
1011.0 0.000989 905.04688 1021.27228
999.0 0.001001 904.95111 1019.88287
1087.0 0.000920 904.90436 1019.08960
1080.0 0.000926 904.71710 1018.63989
1060.0 0.000943 904.65326 1018.86017
1002.0 0.000998 904.57336 1019.58490
1014.0 0.000986 904.35449 1020.67413
1023.0 0.000978 904.25848 1022.43646
1050.0 0.000952 904.22144 1024.60132
1007.0 0.000993 903.99402 1027.06763
979.0 0.001021 903.92230 1029.87793
989.0 0.001011 903.89703 1033.01648
1041.0 0.000961 903.68066 1036.06360
1028.0 0.000973 903.62646 1039.37439
1053.0 0.000950 903.53613 1042.51489
1005.0 0.000995 903.52911 1045.58911
990.0 0.001010 903.30859 1048.23608
1049.0 0.000953 903.14154 1050.52686
983.0 0.001017 902.86853 1052.13538
1030.0 0.000971 902.94476 1053.55652
1021.0 0.000979 902.71381 1054.02209
1041.0 0.000961 902.77472 1054.07385
1038.0 0.000963 902.48938 1053.11877
1046.0 0.000956 902.36725 1051.65320
1052.0 0.000951 902.16632 1049.53357
1051.0 0.000951 902.15875 1047.04456
1029.0 0.000972 902.06036 1043.99146
1040.0 0.000962 902.00415 1040.68738
1086.0 0.000921 901.78021 1036.96533
1036.0 0.000965 901.76886 1033.28564
1010.0 0.000990 901.68915 1029.49524
982.0 0.001018 901.43921 1025.54395
1030.0 0.000971 901.37524 1021.91217
1037.0 0.000964 901.29541 1018.39386
994.0 0.001006 901.13477 1014.94238
1042.0 0.000960 901.06592 1011.79016
1042.0 0.000960 900.98773 1008.96167
1027.0 0.000974 900.80249 1006.25769
993.0 0.001007 900.76147 1003.95538
1000.0 0.001000 900.68036 1001.83862
983.0 0.001017 900.62573 1000.04425
1031.0 0.000970 900.44159 998.27655
1003.0 0.000997 900.28912 996.75262
967.0 0.001034 900.00903 995.24872
1025.0 0.000976 900.08704 994.25061
1009.0 0.000991 899.87189 992.97662
1008.0 0.000992 900.00574 992.17078
1043.0 0.000959 899.67871 990.96313
976.0 0.001025 899.59839 990.01160
1042.0 0.000960 899.35248 989.03149
1078.0 0.000928 899.36334 988.32959
1065.0 0.000939 899.25952 987.62115
1074.0 0.000931 899.22131 987.10864
956.0 0.001046 899.03284 986.47876
1016.0 0.000984 898.95630 986.20099
1021.0 0.000979 898.90289 986.05078
985.0 0.001015 898.70551 985.95703
1037.0 0.000964 898.62744 986.12695
1014.0 0.000986 898.55219 986.49323
1015.0 0.000985 898.36243 986.90155
1041.0 0.000961 898.29297 987.63867
1053.0 0.000950 898.23340 988.55707
1098.0 0.000911 898.04028 989.53259
1047.0 0.000955 898.05273 990.89276
1076.0 0.000929 897.95569 992.28772
1060.0 0.000943 897.90649 993.94116
1068.0 0.000936 897.66901 995.62994
1033.0 0.000968 897.60059 997.66553
1036.0 0.000965 897.33331 999.66632
1068.0 0.000936 897.40155 1002.25562
1042.0 0.000960 897.16968 1004.76752
1016.0 0.000984 897.28741 1007.84204
1002.0 0.000998 896.97345 1010.78815
1020.0 0.000980 896.85242 1014.12531
1015.0 0.000985 896.66730 1017.60547
1064.0 0.000940 896.64893 1021.41016
1054.0 0.000949 896.55957 1025.25732
1106.0 0.000904 896.56519 1029.29199
1067.0 0.000937 896.36737 1033.15076
1046.0 0.000956 896.29333 1037.04797
1047.0 0.000955 896.23828 1040.84155
1043.0 0.000959 896.06146 1044.18152
1077.0 0.000929 896.00012 1047.29102
1034.0 0.000967 895.90137 1049.89087
1048.0 0.000954 895.73657 1051.77344
1064.0 0.000940 895.67267 1053.15625
1048.0 0.000954 895.61151 1053.75476
1030.0 0.000971 895.39813 1053.40820
1036.0 0.000965 895.42670 1052.39600
1062.0 0.000942 895.27765 1050.45239
999.0 0.001001 895.31836 1047.80383
1008.0 0.000992 895.11365 1044.19226
1059.0 0.000944 894.98712 1040.01904
973.0 0.001028 894.73102 1035.05383
945.0 0.001058 894.82013 1029.97437
1002.0 0.000998 894.60297 1024.21130
1028.0 0.000973 894.66882 1018.45160
1018.0 0.000982 894.44977 1012.20062
1034.0 0.000967 894.31055 1005.94733
978.0 0.001022 894.09369 999.62933
928.0 0.001078 894.09735 993.57306
1033.0 0.000968 893.99158 987.55042
999.0 0.001001 894.02655 981.94556
987.0 0.001013 893.82111 976.28210
981.0 0.001019 893.74084 971.01501
1008.0 0.000992 893.70624 966.05682
988.0 0.001012 893.46820 961.24762
969.0 0.001032 893.46204 957.01636
959.0 0.001043 893.41718 953.09253
894.0 0.001119 893.18597 949.34534
947.0 0.001056 893.14941 946.13843
957.0 0.001045 893.08606 943.22028
894.0 0.001119 892.92603 940.56616
932.0 0.001073 892.93256 938.41583
1002.0 0.000998 892.80426 936.21613
973.0 0.001028 892.80426 934.67389
945.0 0.001058 892.61835 933.26880
950.0 0.001053 892.49255 932.21710
898.0 0.001114 892.25372 931.32239
986.0 0.001014 892.33270 931.01654
932.0 0.001073 892.15204 930.77368
913.0 0.001095 892.24194 931.10199
964.0 0.001037 891.97302 931.37744
956.0 0.001046 891.84961 932.04419
943.0 0.001060 891.67639 932.99286
958.0 0.001044 891.65649 934.41858
959.0 0.001043 891.54413 935.92944
966.0 0.001035 891.57013 938.11829
939.0 0.001065 891.36456 940.30316
971.0 0.001030 891.29803 942.97089
960.0 0.001042 891.25861 945.97949
933.0 0.001072 891.06238 949.20282
982.0 0.001018 891.03821 952.84802
959.0 0.001043 890.95374 956.79877
984.0 0.001016 890.80481 960.95435
963.0 0.001038 890.72760 965.47229
917.0 0.001091 890.66901 970.23975
1023.0 0.000978 890.51361 975.12714
954.0 0.001048 890.52582 980.35748
1002.0 0.000998 890.42542 985.59717
1004.0 0.000996 890.37616 991.04700
1043.0 0.000959 890.23590 996.39398
1001.0 0.000999 890.15137 1001.80536
1034.0 0.000967 889.85876 1007.02356
1029.0 0.000972 889.93365 1012.45099
1025.0 0.000976 889.76703 1017.41687
1096.0 0.000912 889.86627 1022.45691
1058.0 0.000945 889.61127 1026.84875
1050.0 0.000952 889.51617 1030.95020
1077.0 0.000929 889.30762 1034.52063
1048.0 0.000954 889.32568 1037.80212
1069.0 0.000935 889.20892 1040.40845
1055.0 0.000948 889.22083 1042.56140
1025.0 0.000976 889.05170 1043.94775
1087.0 0.000920 888.99585 1044.83643
1004.0 0.000996 888.94678 1045.22681
1057.0 0.000946 888.74225 1044.97974
1065.0 0.000939 888.70984 1044.45105
993.0 0.001007 888.67297 1043.54517
1020.0 0.000980 888.46747 1042.10486
997.0 0.001003 888.46045 1040.64075
1035.0 0.000966 888.38928 1038.93506
996.0 0.001004 888.17682 1036.96533
977.0 0.001024 888.22894 1035.16248
987.0 0.001013 888.10419 1033.20947
1049.0 0.000953 888.11987 1031.37085
1034.0 0.000967 887.91119 1029.35193
1002.0 0.000998 887.81366 1027.45251
1024.0 0.000977 887.57849 1025.49304
1034.0 0.000967 887.69092 1023.95905
1060.0 0.000943 887.48676 1022.17267
1032.0 0.000969 887.60449 1020.79492
1025.0 0.000976 887.33588 1019.11255
1016.0 0.000984 887.21796 1017.65088
1038.0 0.000963 887.02277 1016.26715
1054.0 0.000949 887.05396 1015.12915
1033.0 0.000968 886.95911 1013.99811
993.0 0.001007 886.96326 1013.06732
1022.0 0.000978 886.80853 1012.02185
1090.0 0.000917 886.72510 1011.15778
1059.0 0.000944 886.70270 1010.42780
969.0 0.001032 886.49963 1009.52692
992.0 0.001008 886.47607 1008.89929
1062.0 0.000942 886.44513 1008.21198
1037.0 0.000964 886.21289 1007.33539
990.0 0.001010 886.20074 1006.51703
1007.0 0.000993 886.11029 1005.52466
1048.0 0.000954 885.97296 1004.32050
969.0 0.001032 885.96887 1003.02917
1042.0 0.000960 885.89923 1001.40277
976.0 0.001025 885.91064 999.57373
1019.0 0.000981 885.71124 997.21344
1019.0 0.000981 885.59833 994.62207
986.0 0.001014 885.32996 991.56232
1006.0 0.000994 885.48816 988.62097
1028.0 0.000973 885.29712 985.03381
992.0 0.001008 885.39008 981.48474
970.0 0.001031 885.18317 977.47632
1008.0 0.000992 885.01154 973.36908
1018.0 0.000982 884.86761 969.12836
972.0 0.001029 884.86066 965.01746
995.0 0.001005 884.77075 960.73108
1014.0 0.000986 884.75879 956.58105
984.0 0.001016 884.61743 952.34064
966.0 0.001035 884.56799 948.27118
936.0 0.001068 884.54315 944.38879
937.0 0.001067 884.35193 940.49835
944.0 0.001059 884.32300 936.92065
954.0 0.001048 884.26929 933.59869
933.0 0.001072 884.04254 930.31866
944.0 0.001059 884.04565 927.48871
968.0 0.001033 883.97473 924.94128
929.0 0.001076 883.81104 922.50214
929.0 0.001076 883.87048 920.61395
924.0 0.001082 883.72229 918.80756
969.0 0.001032 883.76752 917.45837
939.0 0.001065 883.61884 916.25903
949.0 0.001054 883.46844 915.31287
883.0 0.001133 883.20758 914.52374
885.0 0.001130 883.33405 914.36688
909.0 0.001100 883.12274 914.11932
846.0 0.001182 883.28003 914.48022
892.0 0.001121 883.00470 914.57794
881.0 0.001135 882.88519 915.02185
943.0 0.001060 882.72784 915.55487
935.0 0.001070 882.76141 916.38092
909.0 0.001100 882.63470 917.22650
900.0 0.001111 882.65192 918.21747
977.0 0.001024 882.52148 919.15765
943.0 0.001060 882.42725 920.14172
943.0 0.001060 882.43750 921.19141
894.0 0.001119 882.23425 922.04156
889.0 0.001125 882.19678 923.01880
930.0 0.001075 882.18146 923.95386
869.0 0.001151 881.94843 924.62207
844.0 0.001185 881.96887 925.44165
834.0 0.001199 881.87109 926.17126
880.0 0.001136 881.73468 926.75391
877.0 0.001140 881.75098 927.52905
891.0 0.001122 881.68054 928.22662
936.0 0.001068 881.68036 929.08130
957.0 0.001045 881.49078 929.86993
896.0 0.001116 881.41028 930.92163
924.0 0.001082 881.19012 932.04724
933.0 0.001072 881.30054 933.81769
931.0 0.001074 881.08331 935.62189
934.0 0.001071 881.21515 938.11163
914.0 0.001094 880.95288 940.70081
865.0 0.001156 880.83826 943.86298
945.0 0.001058 880.69727 947.56207
915.0 0.001093 880.70618 951.92828
982.0 0.001018 880.57117 956.80200
932.0 0.001073 880.61243 962.40570
1031.0 0.000970 880.45837 968.41803
948.0 0.001055 880.39557 975.07196
961.0 0.001041 880.37335 982.36414
956.0 0.001046 880.16772 989.99884
930.0 0.001075 880.16626 998.30945
996.0 0.001004 880.08325 1006.95001
1051.0 0.000951 879.98138 1015.90607
1048.0 0.000954 879.90771 1025.13574
1055.0 0.000948 879.82318 1034.45337
1055.0 0.000948 879.60938 1043.71667
1063.0 0.000941 879.69543 1053.07336
1177.0 0.000850 879.59515 1062.01672
1073.0 0.000932 879.62720 1070.66345
1161.0 0.000861 879.42163 1078.47424
1140.0 0.000877 879.34906 1085.67468
1147.0 0.000872 879.14606 1091.84644
1166.0 0.000858 879.17224 1097.18469
1221.0 0.000819 879.12885 1101.28955
1188.0 0.000842 879.15948 1104.18994
1221.0 0.000819 878.93439 1105.57178
1188.0 0.000842 878.88025 1105.79968
1235.0 0.000810 878.63440 1104.57275
1121.0 0.000892 878.64728 1102.36633
1157.0 0.000864 878.61761 1098.96143
1168.0 0.000856 878.64807 1094.66614
1089.0 0.000918 878.44116 1089.31140
1091.0 0.000917 878.38843 1083.39014
1060.0 0.000943 878.28375 1076.95642
1039.0 0.000962 878.19092 1070.16602
1032.0 0.000969 878.13324 1063.19421
1014.0 0.000986 878.07227 1056.21143
1072.0 0.000933 877.99023 1049.29663
1109.0 0.000902 877.89832 1042.59851
1017.0 0.000983 877.85480 1036.23486
1059.0 0.000944 877.60229 1030.13843
1038.0 0.000963 877.65698 1024.77820
1007.0 0.000993 877.59204 1019.85114
988.0 0.001012 877.64807 1015.62927
955.0 0.001047 877.40161 1011.72314
978.0 0.001022 877.33807 1008.51154
984.0 0.001016 877.10516 1005.76862
1003.0 0.000997 877.17969 1003.78003
998.0 0.001002 877.10736 1002.24438
994.0 0.001006 877.15118 1001.21564
1010.0 0.000990 876.94507 1000.30188
975.0 0.001026 876.86102 999.90375
985.0 0.001015 876.64557 999.58075
989.0 0.001011 876.67590 999.70911
939.0 0.001065 876.63562 999.87604
1033.0 0.000968 876.65790 1000.14447
1018.0 0.000982 876.43793 1000.14972
1016.0 0.000984 876.36945 1000.18097
1011.0 0.000989 876.32733 1000.03809
995.0 0.001005 876.23413 999.66364
949.0 0.001054 876.16290 999.01923
945.0 0.001058 876.09515 998.12164
978.0 0.001022 875.98065 996.79376
980.0 0.001020 875.90082 995.27325
988.0 0.001012 875.82111 993.32336
919.0 0.001088 875.61066 990.97729
950.0 0.001053 875.68921 988.59192
969.0 0.001032 875.60217 985.86932
945.0 0.001058 875.66370 983.07117
968.0 0.001033 875.45294 979.83038
974.0 0.001027 875.32770 976.60907
1006.0 0.000994 875.15143 973.18518
972.0 0.001029 875.17474 969.99481
949.0 0.001054 875.11700 966.60364
937.0 0.001067 875.13672 963.50098
984.0 0.001016 874.95898 960.29340
980.0 0.001020 874.88922 957.32324
968.0 0.001033 874.65546 954.35626
976.0 0.001025 874.68622 951.79877
978.0 0.001022 874.63904 949.31329
957.0 0.001045 874.70795 947.13312
936.0 0.001068 874.48883 944.82770
925.0 0.001081 874.41260 942.78510
990.0 0.001010 874.30249 940.89886
924.0 0.001082 874.21698 939.10468
953.0 0.001049 874.16840 937.39868
964.0 0.001037 874.10266 935.77502
972.0 0.001029 874.00745 934.17523
940.0 0.001064 873.93585 932.60101
1010.0 0.000990 873.87775 931.05328
904.0 0.001106 873.64850 929.33148
926.0 0.001080 873.69659 927.92780
953.0 0.001049 873.60620 926.32941
891.0 0.001122 873.63971 924.86072
942.0 0.001062 873.44800 923.15460
946.0 0.001057 873.39008 921.55566
958.0 0.001044 873.13257 919.83374
934.0 0.001071 873.18304 918.42926
902.0 0.001109 873.13477 916.92432
932.0 0.001073 873.15942 915.57806
891.0 0.001122 872.98944 914.09174
926.0 0.001080 872.87769 912.74298
920.0 0.001087 872.68835 911.42151
887.0 0.001127 872.71954 910.38605
920.0 0.001087 872.63202 909.39539
875.0 0.001143 872.68066 908.67639
880.0 0.001136 872.49658 907.87775
913.0 0.001095 872.40942 907.37347
935.0 0.001070 872.32117 907.02209
946.0 0.001057 872.21582 906.93781
942.0 0.001062 872.15417 907.10754
892.0 0.001121 872.07697 907.54620
906.0 0.001104 871.99957 908.25226
919.0 0.001088 871.92139 909.27057
885.0 0.001130 871.82758 910.59619
906.0 0.001104 871.66461 912.25562
970.0 0.001031 871.72614 914.56213
965.0 0.001036 871.59021 917.19055
893.0 0.001120 871.65936 920.44360
899.0 0.001112 871.45398 924.00922
874.0 0.001144 871.38257 928.21857
965.0 0.001036 871.17310 932.91144
981.0 0.001019 871.21490 938.45636
884.0 0.001131 871.13837 944.56464
914.0 0.001094 871.17493 951.43561
907.0 0.001103 871.00061 958.76514
954.0 0.001048 870.89948 966.91748
904.0 0.001106 870.67511 975.61487
936.0 0.001068 870.71570 985.24573
925.0 0.001081 870.64886 995.43262
901.0 0.001110 870.67999 1006.34528
926.0 0.001080 870.49036 1017.62238
979.0 0.001021 870.41821 1029.49146
957.0 0.001045 870.32672 1041.83154
932.0 0.001073 870.27423 1054.56079
968.0 0.001033 870.15503 1067.48804
962.0 0.001040 870.13110 1080.61023
974.0 0.001027 870.05200 1093.72644
996.0 0.001004 869.92816 1106.67151
999.0 0.001001 869.81409 1119.32910
1024.0 0.000977 869.62469 1131.54150
1091.0 0.000917 869.68018 1143.47705
1082.0 0.000924 869.59827 1154.55225
1118.0 0.000894 869.66290 1164.99585
1118.0 0.000894 869.42883 1174.22339
1126.0 0.000888 869.34009 1182.63892
1145.0 0.000873 869.14630 1189.94897
1141.0 0.000876 869.19543 1196.40344
1196.0 0.000836 869.10742 1201.55969
1124.0 0.000890 869.15826 1205.65771
1226.0 0.000816 868.96759 1208.35352
1204.0 0.000831 868.86938 1209.92603
1147.0 0.000872 868.66730 1210.17310
1187.0 0.000842 868.70911 1209.42029
1183.0 0.000845 868.61090 1207.30017
1200.0 0.000833 868.64374 1204.09900
1264.0 0.000791 868.45319 1199.51892
1128.0 0.000887 868.38202 1193.90955
1143.0 0.000875 868.25092 1187.26611
1137.0 0.000880 868.20703 1179.81299
1120.0 0.000893 868.09302 1171.44617
1142.0 0.000876 868.02222 1162.40527
1112.0 0.000899 867.97705 1152.84241
1119.0 0.000894 867.87787 1142.77576
1116.0 0.000896 867.75458 1132.35339
1050.0 0.000952 867.58374 1121.67090
1066.0 0.000938 867.59869 1111.09387
1108.0 0.000903 867.50055 1100.37463
1027.0 0.000974 867.57990 1089.90881
1076.0 0.000929 867.35400 1079.35889
1014.0 0.000986 867.28418 1069.24536
1030.0 0.000971 867.08368 1059.38879
1004.0 0.000996 867.13550 1050.22620
1013.0 0.000987 867.03931 1041.41089
1000.0 0.001000 867.07507 1033.34717
1012.0 0.000988 866.90369 1025.73291
982.0 0.001018 866.77814 1018.85522
978.0 0.001022 866.59833 1012.66449
958.0 0.001044 866.60132 1007.44049
989.0 0.001011 866.52405 1002.92761
960.0 0.001042 866.58270 999.29523
953.0 0.001049 866.39392 996.27960
966.0 0.001035 866.27301 994.20355
936.0 0.001068 866.15729 992.92401
924.0 0.001082 866.08887 992.44171
984.0 0.001016 866.01941 992.72906
964.0 0.001037 865.93134 993.63348
1010.0 0.000990 865.86816 995.21802
938.0 0.001066 865.78973 997.37659
932.0 0.001073 865.64386 999.96783
1005.0 0.000995 865.47241 1002.91754
974.0 0.001027 865.52979 1006.46356
942.0 0.001062 865.41846 1010.14697
1004.0 0.000996 865.44476 1014.09576
1015.0 0.000985 865.22430 1017.89557
953.0 0.001049 865.17194 1021.84894
1033.0 0.000968 864.95697 1025.54358
951.0 0.001052 865.01306 1029.33020
1005.0 0.000995 864.89575 1032.68152
996.0 0.001004 864.97583 1035.83435
1051.0 0.000951 864.75513 1038.34998
1046.0 0.000956 864.67126 1040.45508
1020.0 0.000980 864.43152 1041.91089
1025.0 0.000976 864.47955 1043.10168
1061.0 0.000943 864.38861 1043.59253
1099.0 0.000910 864.41583 1043.64368
1084.0 0.000923 864.23120 1042.87415
1063.0 0.000941 864.10730 1041.62903
1116.0 0.000896 864.02008 1039.91895
1039.0 0.000962 863.96313 1037.73999
1052.0 0.000951 863.88019 1035.08228
1040.0 0.000962 863.74170 1031.92603
1054.0 0.000949 863.71094 1028.54150
1057.0 0.000946 863.62402 1024.79028
1021.0 0.000979 863.50415 1020.74854
1028.0 0.000973 863.31146 1016.41888
1028.0 0.000973 863.33533 1012.10602
1037.0 0.000964 863.19690 1007.60205
1014.0 0.000986 863.28674 1003.21698
985.0 0.001015 863.05762 998.44879
992.0 0.001008 862.95844 993.83319
976.0 0.001025 862.78217 989.17480
935.0 0.001070 862.84412 984.78284
958.0 0.001044 862.68256 980.21777
955.0 0.001047 862.73578 975.92853
923.0 0.001083 862.59668 971.49213
1021.0 0.000979 862.42578 967.15039
942.0 0.001062 862.22955 962.82098
961.0 0.001041 862.26575 958.86230
915.0 0.001093 862.17834 954.90924
937.0 0.001067 862.22705 951.16528
906.0 0.001104 862.00433 947.26685
951.0 0.001052 861.89294 943.65839
926.0 0.001080 861.77802 940.18835
964.0 0.001037 861.73511 936.93732
881.0 0.001135 861.62683 933.73834
905.0 0.001105 861.53119 930.73053
864.0 0.001157 861.46252 927.93066
891.0 0.001122 861.37982 925.18054
928.0 0.001078 861.22638 922.53882
922.0 0.001085 861.05432 920.01251
954.0 0.001048 861.07953 917.82605
906.0 0.001104 861.01471 915.63489
919.0 0.001088 861.01178 913.72095
922.0 0.001085 860.78473 911.64569
868.0 0.001152 860.67200 909.88556
902.0 0.001109 860.48816 908.12457
938.0 0.001066 860.55811 906.80627
889.0 0.001125 860.41522 905.41321
853.0 0.001172 860.46960 904.39716
919.0 0.001088 860.24493 903.17725
947.0 0.001056 860.14941 902.28296
887.0 0.001127 859.91730 901.38727
904.0 0.001106 859.97815 900.92194
891.0 0.001122 859.86688 900.38544
886.0 0.001129 859.88580 900.18237
893.0 0.001120 859.70599 899.86749
912.0 0.001096 859.58679 899.70807
927.0 0.001079 859.46277 899.67902
931.0 0.001074 859.40717 899.80988
890.0 0.001124 859.29077 899.97784
942.0 0.001062 859.19409 900.22736
900.0 0.001111 859.17322 900.59320
913.0 0.001095 859.02570 900.91577
884.0 0.001131 858.89734 901.29773
937.0 0.001067 858.67230 901.67828
896.0 0.001116 858.73364 902.31720
877.0 0.001140 858.59778 902.86902
913.0 0.001095 858.65253 903.59174
904.0 0.001106 858.42682 904.13660
899.0 0.001112 858.33417 904.86548
923.0 0.001083 858.12671 905.58710
905.0 0.001105 858.14752 906.67157
886.0 0.001129 858.04346 907.68561
907.0 0.001103 858.07941 908.99860
867.0 0.001153 857.88257 910.26147
930.0 0.001075 857.80072 911.75189
891.0 0.001122 857.53546 913.21533
890.0 0.001124 857.61499 915.18439
904.0 0.001106 857.46100 917.06769
896.0 0.001116 857.50061 919.30341
894.0 0.001119 857.31824 921.43030
971.0 0.001030 857.15131 923.71265
973.0 0.001028 857.08154 926.19434
907.0 0.001103 857.00238 928.78595
913.0 0.001095 856.86993 931.35187
1002.0 0.000998 856.78644 933.99103
957.0 0.001045 856.70587 936.62891
961.0 0.001041 856.58325 939.15234
998.0 0.001002 856.44263 941.65454
983.0 0.001017 856.27228 943.95807
1050.0 0.000952 856.27673 946.32935
984.0 0.001016 856.17822 948.42303
1009.0 0.000991 856.22437 950.46143
1018.0 0.000982 855.98938 951.97662
1028.0 0.000973 855.84375 953.33258
948.0 0.001055 855.68671 954.40375
1002.0 0.000998 855.68878 955.34198
1004.0 0.000996 855.55389 955.75043
974.0 0.001027 855.62762 956.17767
993.0 0.001007 855.42712 956.03931
992.0 0.001008 855.31805 955.70886
996.0 0.001004 855.06335 954.99390
964.0 0.001037 855.08752 954.27631
925.0 0.001081 854.95282 953.25159
950.0 0.001053 854.98926 952.16565
952.0 0.001050 854.83105 950.69293
911.0 0.001098 854.63995 949.08112
905.0 0.001105 854.52386 947.41461
908.0 0.001101 854.49152 945.72504
935.0 0.001070 854.35693 943.85992
981.0 0.001019 854.20996 941.92163
880.0 0.001136 854.16846 940.03876
923.0 0.001083 854.04993 938.03064
883.0 0.001133 853.87183 935.93341
873.0 0.001145 853.71552 933.79980
912.0 0.001096 853.71069 931.83368
894.0 0.001119 853.57611 929.67969
902.0 0.001109 853.64081 927.64282
873.0 0.001145 853.39258 925.29968
891.0 0.001122 853.26611 922.99347
917.0 0.001091 853.09479 920.65558
893.0 0.001120 853.12030 918.45715
916.0 0.001092 852.94965 916.04773
891.0 0.001122 852.98041 913.81641
852.0 0.001174 852.79395 911.38708
908.0 0.001101 852.68225 909.06897
876.0 0.001142 852.44336 906.65387
832.0 0.001202 852.48322 904.63446
889.0 0.001125 852.33807 902.53876
868.0 0.001152 852.38025 900.75226
852.0 0.001174 852.16296 898.96967
944.0 0.001059 852.00159 897.34711
845.0 0.001183 851.85980 895.99188
820.0 0.001220 851.84973 894.99377
909.0 0.001100 851.68982 894.14893
858.0 0.001166 851.56573 893.63519
900.0 0.001111 851.53033 893.51318
825.0 0.001212 851.38281 893.62274
861.0 0.001161 851.20801 894.02869
849.0 0.001178 851.06622 894.82703
836.0 0.001196 851.04852 896.07288
869.0 0.001151 850.91119 897.58838
911.0 0.001098 850.93774 899.62378
855.0 0.001170 850.71136 901.75226
884.0 0.001131 850.56274 904.25195
880.0 0.001136 850.36029 907.08588
977.0 0.001024 850.40424 910.42682
920.0 0.001087 850.24481 913.83282
902.0 0.001109 850.25732 917.63306
940.0 0.001064 850.07043 921.44397
867.0 0.001153 849.93634 925.45087
925.0 0.001081 849.71539 929.47327
941.0 0.001063 849.74725 933.75641
944.0 0.001059 849.59930 937.89307
1014.0 0.000986 849.61578 942.12439
964.0 0.001037 849.41895 946.00751
994.0 0.001006 849.24707 949.72052
1040.0 0.000962 849.10992 953.20166
1016.0 0.000984 849.04730 956.43781
998.0 0.001002 848.91620 959.16962
1029.0 0.000972 848.74896 961.49561
1017.0 0.000983 848.75787 963.44403
1053.0 0.000950 848.60114 964.76978
964.0 0.001037 848.41479 965.46094
975.0 0.001026 848.24396 965.62024
1023.0 0.000978 848.24969 965.44586
970.0 0.001031 848.08582 964.60950
964.0 0.001037 848.10370 963.44598
968.0 0.001033 847.89746 961.57306
975.0 0.001026 847.73120 959.38397
954.0 0.001048 847.57098 956.85657
961.0 0.001041 847.57758 954.20258
990.0 0.001010 847.36963 951.08368
1010.0 0.000990 847.43054 948.02002
963.0 0.001038 847.21423 944.48413
936.0 0.001068 847.12341 941.04486
918.0 0.001089 846.83502 937.35284
856.0 0.001168 846.87091 933.95795
901.0 0.001110 846.73773 930.36261
956.0 0.001046 846.71820 926.96564
866.0 0.001155 846.52454 923.44305
888.0 0.001126 846.35254 920.03052
889.0 0.001125 846.18195 916.73346
888.0 0.001126 846.19128 913.71063
847.0 0.001181 846.01233 910.70221
881.0 0.001135 845.85004 907.80109
846.0 0.001182 845.81104 905.20593
866.0 0.001155 845.68732 902.70349
850.0 0.001176 845.50464 900.33844
888.0 0.001126 845.32904 898.06726
909.0 0.001100 845.31445 896.22333
850.0 0.001176 845.18127 894.38477
900.0 0.001111 845.18298 892.92401
908.0 0.001101 844.92975 891.31451
900.0 0.001111 844.77740 890.04773
887.0 0.001127 844.57764 888.82898
883.0 0.001133 844.59961 888.03717
894.0 0.001119 844.43182 887.20270
887.0 0.001127 844.43701 886.69592
883.0 0.001133 844.25421 886.14240
837.0 0.001195 844.09534 885.73492
872.0 0.001147 843.86731 885.38544
944.0 0.001059 843.90381 885.38470
913.0 0.001095 843.72925 885.29401
941.0 0.001063 843.69482 885.43573
881.0 0.001135 843.54895 885.56287
893.0 0.001120 843.32458 885.70734
895.0 0.001117 843.17242 885.92462
876.0 0.001142 843.15619 886.34021
888.0 0.001126 843.00574 886.75482
852.0 0.001174 842.83093 887.17780
956.0 0.001046 842.78271 887.76196
862.0 0.001160 842.64929 888.34583
858.0 0.001166 842.42065 888.95245
941.0 0.001063 842.24103 889.62518
931.0 0.001074 842.22498 890.57050
921.0 0.001086 842.06030 891.44812
908.0 0.001101 842.10382 892.62689
892.0 0.001121 841.85760 893.60059
837.0 0.001195 841.70209 894.72412
876.0 0.001142 841.50720 895.91595
931.0 0.001074 841.52765 897.38544
866.0 0.001155 841.29993 898.68921
891.0 0.001122 841.35199 900.27966
886.0 0.001129 841.13477 901.74597
890.0 0.001124 840.97626 903.21045
866.0 0.001155 840.73676 904.63416
891.0 0.001122 840.76917 906.30249
909.0 0.001100 840.58105 907.81165
919.0 0.001088 840.58588 909.43030
928.0 0.001078 840.38770 910.87280
897.0 0.001115 840.18005 912.20593
936.0 0.001068 840.03076 913.59393
919.0 0.001088 839.97748 915.02527
870.0 0.001149 839.78992 916.29767
863.0 0.001159 839.63342 917.43982
853.0 0.001172 839.61108 918.74188
902.0 0.001109 839.46570 919.82483
919.0 0.001088 839.24365 920.75342
884.0 0.001131 839.04321 921.68201
932.0 0.001073 839.02930 922.61047
897.0 0.001115 838.86877 923.31769
876.0 0.001142 838.86938 924.09601
915.0 0.001093 838.59937 924.48859
931.0 0.001074 838.45551 924.88379
920.0 0.001087 838.26556 925.15387
934.0 0.001071 838.27856 925.56488
899.0 0.001112 838.04749 925.56293
942.0 0.001062 838.09448 925.78448
931.0 0.001074 837.88501 925.64569
859.0 0.001164 837.72626 925.47144
935.0 0.001070 837.48474 925.08527
934.0 0.001071 837.47394 924.88812
923.0 0.001083 837.31299 924.41016
869.0 0.001151 837.26630 923.94196
908.0 0.001101 837.08160 923.09802
905.0 0.001105 836.88678 922.27240
897.0 0.001115 836.73865 921.38770
905.0 0.001105 836.71625 920.55487
934.0 0.001071 836.50049 919.46893
855.0 0.001170 836.30792 918.35443
932.0 0.001073 836.30914 917.38708
909.0 0.001100 836.11261 916.22430
906.0 0.001104 835.90619 915.07843
861.0 0.001161 835.72852 913.99640
881.0 0.001135 835.69482 913.10791
896.0 0.001116 835.50537 912.18195
879.0 0.001138 835.54401 911.57214
892.0 0.001121 835.26617 910.78687
922.0 0.001085 835.08807 910.23663
953.0 0.001049 834.90723 909.82294
921.0 0.001086 834.92657 909.70660
916.0 0.001092 834.65247 909.49780
921.0 0.001086 834.73059 909.68823
888.0 0.001126 834.51648 909.69318
905.0 0.001105 834.33569 909.83167
900.0 0.001111 834.09052 909.94830
908.0 0.001101 834.08887 910.35382
925.0 0.001081 833.91107 910.54993
908.0 0.001101 833.90094 910.92010
895.0 0.001117 833.67102 910.96399
938.0 0.001066 833.47406 910.87518
941.0 0.001063 833.31738 910.69769
957.0 0.001045 833.24896 910.45001
893.0 0.001120 833.06122 909.81946
881.0 0.001135 832.89435 908.94458
926.0 0.001080 832.82697 907.92749
883.0 0.001133 832.70978 906.59955
882.0 0.001134 832.45233 904.84650
929.0 0.001076 832.27930 902.98529
945.0 0.001058 832.22876 900.98749
905.0 0.001105 832.03424 898.67279
950.0 0.001053 832.04425 896.36188
897.0 0.001115 831.77655 893.59113
880.0 0.001136 831.58649 890.84998
882.0 0.001134 831.44287 888.00848
887.0 0.001127 831.41455 885.26709
887.0 0.001127 831.18964 882.31750
843.0 0.001186 831.19189 879.59467
869.0 0.001151 830.99451 876.71143
879.0 0.001138 830.80664 873.91107
876.0 0.001142 830.57306 871.14520
838.0 0.001193 830.55548 868.65857
820.0 0.001220 830.36292 866.18341
819.0 0.001221 830.30530 863.92072
842.0 0.001188 830.14691 861.74866
834.0 0.001199 829.95020 859.66718
826.0 0.001211 829.76898 857.84302
874.0 0.001144 829.67938 856.27441
880.0 0.001136 829.51733 854.79578
884.0 0.001131 829.33911 853.55341
830.0 0.001205 829.29456 852.60370
836.0 0.001196 829.10156 851.74426
856.0 0.001168 828.90057 851.09674
801.0 0.001248 828.69861 850.66760
833.0 0.001200 828.63831 850.61505
843.0 0.001186 828.44708 850.62646
832.0 0.001202 828.45996 851.09863
819.0 0.001221 828.19025 851.51910
785.0 0.001274 828.00311 852.29871
831.0 0.001203 827.83063 853.25385
863.0 0.001159 827.80579 854.62274
835.0 0.001198 827.56915 856.00977
825.0 0.001212 827.54895 857.88379
824.0 0.001214 827.39215 859.77142
874.0 0.001144 827.21222 861.90662
831.0 0.001203 826.94354 864.12653
827.0 0.001209 826.90900 866.84717
823.0 0.001215 826.72333 869.59192
895.0 0.001117 826.68109 872.61737
820.0 0.001220 826.52570 875.72437
838.0 0.001193 826.26672 878.88153
866.0 0.001155 826.09448 882.23047
874.0 0.001144 826.02368 885.79053
913.0 0.001095 825.84387 889.31250
855.0 0.001170 825.66492 892.82275
825.0 0.001212 825.59778 896.52405
895.0 0.001117 825.43628 900.03314
893.0 0.001120 825.17273 903.41858
899.0 0.001112 825.00964 906.69342
926.0 0.001080 824.95862 910.04443
891.0 0.001122 824.73950 912.94043
883.0 0.001133 824.74750 915.80750
873.0 0.001145 824.48071 918.14789
928.0 0.001078 824.27057 920.25385
874.0 0.001144 824.12012 922.04688
941.0 0.001063 824.08948 923.57556
934.0 0.001071 823.82813 924.50403
869.0 0.001151 823.81439 925.28711
915.0 0.001093 823.66266 925.50562
907.0 0.001103 823.46136 925.34460
881.0 0.001135 823.19397 924.73871
900.0 0.001111 823.22314 924.07660
921.0 0.001086 822.97284 922.84009
843.0 0.001186 822.94562 921.47144
855.0 0.001170 822.78564 919.70947
820.0 0.001220 822.47144 917.58386
862.0 0.001160 822.30542 915.34448
850.0 0.001176 822.26788 913.01953
889.0 0.001125 822.06653 910.31342
840.0 0.001190 821.85590 907.46429
900.0 0.001111 821.85382 904.69458
849.0 0.001178 821.63531 901.58893
861.0 0.001161 821.39966 898.35297
905.0 0.001105 821.18402 895.09497
866.0 0.001155 821.16156 891.96136
840.0 0.001190 820.93298 888.64917
912.0 0.001096 820.94177 885.60004
864.0 0.001157 820.64850 882.28894
820.0 0.001220 820.42554 879.09479
904.0 0.001106 820.28278 876.01672
863.0 0.001159 820.27991 873.24866
845.0 0.001183 820.00885 870.30188
842.0 0.001188 820.00299 867.71625
822.0 0.001217 819.83270 865.13080
829.0 0.001206 819.62030 862.69226
885.0 0.001130 819.36243 860.33752
851.0 0.001175 819.35223 858.40344
807.0 0.001239 819.12408 856.40558
819.0 0.001221 819.06354 854.81500
809.0 0.001236 818.89026 853.25592
827.0 0.001209 818.64032 851.82672
863.0 0.001159 818.44989 850.67828
851.0 0.001175 818.39813 849.91412
827.0 0.001209 818.18024 849.16083
794.0 0.001259 817.98230 848.57123
852.0 0.001174 817.96570 848.46765
842.0 0.001188 817.75024 848.33875
795.0 0.001258 817.54028 848.39691
815.0 0.001227 817.33167 848.70740
864.0 0.001157 817.27051 849.33276
851.0 0.001175 817.06708 850.00208
856.0 0.001168 817.04498 851.02466
821.0 0.001218 816.75458 851.92963
822.0 0.001217 816.54480 853.12305
903.0 0.001107 816.39471 854.50500
868.0 0.001152 816.35632 856.15613
812.0 0.001232 816.06201 857.66187
864.0 0.001157 816.08118 859.59467
858.0 0.001166 815.93506 861.44073
873.0 0.001145 815.75415 863.30804
897.0 0.001115 815.43945 865.14001
885.0 0.001130 815.45013 867.25671
890.0 0.001124 815.22443 869.15765
897.0 0.001115 815.16144 871.19611
985.0 0.001015 815.00281 873.04950
891.0 0.001122 814.73004 874.72693
926.0 0.001080 814.49036 876.29974
972.0 0.001029 814.47644 877.94830
927.0 0.001079 814.25098 879.14160
918.0 0.001089 814.03229 880.15326
949.0 0.001054 814.02393 881.11505
865.0 0.001156 813.80005 881.58698
888.0 0.001126 813.54651 881.73590
934.0 0.001071 813.39996 881.63434
1010.0 0.000990 813.29535 881.31561
902.0 0.001109 813.11163 880.54126
911.0 0.001098 813.10492 879.67365
925.0 0.001081 812.80151 878.24762
891.0 0.001122 812.57837 876.61530
940.0 0.001064 812.41693 874.76373
885.0 0.001130 812.40863 872.90179
909.0 0.001100 812.13525 870.61102
877.0 0.001140 812.10028 868.46472
881.0 0.001135 811.92542 866.00757
857.0 0.001167 811.73730 863.51495
869.0 0.001151 811.45789 860.90247
841.0 0.001189 811.42151 858.61945
849.0 0.001178 811.22583 856.16571
853.0 0.001172 811.17590 853.89948
828.0 0.001208 810.96930 851.65576
807.0 0.001239 810.70233 849.45819
835.0 0.001198 810.52179 847.44702
832.0 0.001202 810.48792 845.86078
780.0 0.001282 810.24060 844.24939
794.0 0.001259 810.05737 842.90131
810.0 0.001235 810.04034 842.00098
829.0 0.001206 809.82758 841.17383
836.0 0.001196 809.57007 840.59894
765.0 0.001307 809.37158 840.37506
872.0 0.001147 809.27972 840.57202
827.0 0.001209 809.04285 840.94049
789.0 0.001267 809.05859 841.88593
835.0 0.001198 808.78912 842.86823
857.0 0.001167 808.59113 844.21918
831.0 0.001203 808.42303 845.96667
857.0 0.001167 808.40979 848.18903
853.0 0.001172 808.07483 850.40546
887.0 0.001127 808.09741 853.22418
837.0 0.001195 807.92841 856.15704
818.0 0.001222 807.70422 859.28210
868.0 0.001152 807.42554 862.58844
839.0 0.001192 807.43274 866.36383
891.0 0.001122 807.19244 870.04510
871.0 0.001148 807.12146 873.98663
896.0 0.001116 806.96985 877.94574
898.0 0.001114 806.69940 881.81610
903.0 0.001107 806.46808 885.72150
925.0 0.001081 806.44513 889.78113
947.0 0.001056 806.19788 893.47266
916.0 0.001092 805.98749 896.99225
941.0 0.001063 805.98352 900.48938
928.0 0.001078 805.74805 903.53796
968.0 0.001033 805.52069 906.20282
936.0 0.001068 805.34125 908.63324
939.0 0.001065 805.24603 910.68451
958.0 0.001044 805.01556 912.12854
923.0 0.001083 805.01434 913.38922
961.0 0.001041 804.73480 913.92529
910.0 0.001099 804.51996 914.06433
871.0 0.001148 804.37952 913.83984
934.0 0.001071 804.35986 913.31274
899.0 0.001112 804.07123 912.21088
926.0 0.001080 804.00989 910.96619
861.0 0.001161 803.90338 909.34198
909.0 0.001100 803.66870 907.39636
950.0 0.001053 803.37451 905.16541
970.0 0.001031 803.40546 903.07385
923.0 0.001083 803.14740 900.64044
897.0 0.001115 803.08600 898.26666
854.0 0.001171 802.91681 895.73914
791.0 0.001264 802.64789 893.08179
863.0 0.001159 802.42542 890.46051
861.0 0.001161 802.42352 888.10388
883.0 0.001133 802.20099 885.55048
870.0 0.001149 801.95477 883.03302
860.0 0.001163 801.92419 880.79456
875.0 0.001143 801.72186 878.44763
863.0 0.001159 801.45978 876.10651
938.0 0.001066 801.31555 873.97125
824.0 0.001214 801.21356 871.92993
888.0 0.001126 800.99689 869.80695
871.0 0.001148 800.96124 868.00146
894.0 0.001119 800.70349 865.94763
801.0 0.001248 800.48993 864.01874
876.0 0.001142 800.30109 862.18018
864.0 0.001157 800.28821 860.47986
919.0 0.001088 800.00354 858.59503
823.0 0.001215 799.99988 856.92572
860.0 0.001163 799.83545 855.13098
862.0 0.001160 799.62140 853.29938
870.0 0.001149 799.35297 851.38544
857.0 0.001167 799.33295 849.78113
859.0 0.001164 799.13440 847.94543
808.0 0.001238 799.01825 846.28021
856.0 0.001168 798.86768 844.56049
857.0 0.001167 798.61938 842.75958
847.0 0.001181 798.39514 841.08521
842.0 0.001188 798.39789 839.65558
846.0 0.001182 798.15363 838.02930
821.0 0.001218 797.90424 836.46948
823.0 0.001215 797.89996 835.22955
803.0 0.001245 797.69910 833.82208
857.0 0.001167 797.41510 832.45813
782.0 0.001279 797.27924 831.30511
826.0 0.001211 797.16858 830.27338
838.0 0.001193 796.94824 829.20081
838.0 0.001193 796.93243 828.38745
821.0 0.001218 796.67352 827.44958
824.0 0.001214 796.46283 826.64691
814.0 0.001229 796.31396 825.95520
825.0 0.001212 796.31036 825.43909
803.0 0.001245 795.98871 824.70148
816.0 0.001225 796.00330 824.34692
783.0 0.001277 795.83466 823.86945
861.0 0.001161 795.64093 823.36169
829.0 0.001206 795.35864 822.86462
816.0 0.001225 795.32336 822.60107
829.0 0.001206 795.09454 822.15619
796.0 0.001256 795.00378 821.84161
802.0 0.001247 794.87091 821.45667
826.0 0.001211 794.60754 820.95386
843.0 0.001186 794.40985 820.47406
814.0 0.001229 794.39716 820.17322
800.0 0.001250 794.17084 819.63898
840.0 0.001190 793.88916 818.98450
801.0 0.001248 793.92438 818.54218
802.0 0.001247 793.72449 817.87952
772.0 0.001295 793.43805 817.12964
808.0 0.001238 793.29352 816.42206
794.0 0.001259 793.19330 815.79242
800.0 0.001250 792.95459 814.96362
794.0 0.001259 792.99182 814.37054
780.0 0.001282 792.73273 813.49017
824.0 0.001214 792.48682 812.65173
811.0 0.001233 792.36041 811.87903
785.0 0.001274 792.35632 811.25684
777.0 0.001287 792.02936 810.33575
806.0 0.001241 791.99866 809.77820
809.0 0.001236 791.85858 809.08081
767.0 0.001304 791.63428 808.34814
799.0 0.001252 791.38300 807.60028
790.0 0.001266 791.41461 807.18530
818.0 0.001222 791.13141 806.52838
826.0 0.001211 791.08698 806.08813
825.0 0.001212 790.94983 805.60675
796.0 0.001256 790.68793 805.06805
804.0 0.001244 790.45728 804.64459
778.0 0.001285 790.49548 804.46436
780.0 0.001282 790.23676 804.06512
784.0 0.001276 789.99152 803.73059
855.0 0.001170 789.98938 803.67847
794.0 0.001259 789.81390 803.51849
841.0 0.001189 789.51624 803.25848
840.0 0.001190 789.38892 803.23584
818.0 0.001222 789.31744 803.31085
810.0 0.001235 789.06860 803.25012
775.0 0.001290 789.06158 803.55524
814.0 0.001229 788.78955 803.59314
794.0 0.001259 788.61475 803.87280
834.0 0.001199 788.50287 804.19470
795.0 0.001258 788.47083 804.77588
823.0 0.001215 788.13300 805.13110
823.0 0.001215 788.18823 805.94122
768.0 0.001302 788.00330 806.66528
820.0 0.001220 787.82361 807.46320
822.0 0.001217 787.56415 808.33246
813.0 0.001230 787.56702 809.58704
829.0 0.001206 787.31927 810.72260
842.0 0.001188 787.21216 812.17719
873.0 0.001145 787.10699 813.70490
808.0 0.001238 786.82599 815.23669
850.0 0.001176 786.60901 816.99023
851.0 0.001175 786.67267 819.11548
826.0 0.001211 786.39728 821.12518
869.0 0.001151 786.18182 823.29614
815.0 0.001227 786.21851 825.83228
846.0 0.001182 785.99866 828.25653
820.0 0.001220 785.72229 830.76611
831.0 0.001203 785.59564 833.55011
870.0 0.001149 785.48743 836.38770
855.0 0.001170 785.27118 839.18280
827.0 0.001209 785.26111 842.28741
877.0 0.001140 785.02759 845.20886
851.0 0.001175 784.84686 848.20428
899.0 0.001112 784.69611 851.23541
883.0 0.001133 784.70172 854.36255
914.0 0.001094 784.40106 857.15906
928.0 0.001078 784.41595 860.19006
892.0 0.001121 784.24542 862.95569
917.0 0.001091 784.06110 865.58026
878.0 0.001139 783.83221 867.97174
851.0 0.001175 783.81689 870.48822
887.0 0.001127 783.61835 872.58929
880.0 0.001136 783.48083 874.60834
899.0 0.001112 783.37866 876.42297
852.0 0.001174 783.13043 877.88660
937.0 0.001067 782.89874 879.19122
916.0 0.001092 782.93402 880.50299
878.0 0.001139 782.70911 881.27460
895.0 0.001117 782.46997 881.84698
890.0 0.001124 782.47803 882.40564
845.0 0.001183 782.34528 882.57043
927.0 0.001079 782.05988 882.37231
905.0 0.001105 781.92780 882.14484
871.0 0.001148 781.86768 881.67108
905.0 0.001105 781.61914 880.88959
917.0 0.001091 781.61725 880.11389
928.0 0.001078 781.39941 878.95837
931.0 0.001074 781.18536 877.64166
871.0 0.001148 781.06824 876.27850
914.0 0.001094 781.05994 874.87952
903.0 0.001107 780.76270 873.05029
874.0 0.001144 780.78845 871.44769
887.0 0.001127 780.65271 869.60565
937.0 0.001067 780.46771 867.54517
906.0 0.001104 780.24768 865.41187
908.0 0.001101 780.23859 863.38745
880.0 0.001136 780.01392 861.05090
901.0 0.001110 779.94702 858.78900
805.0 0.001242 779.81152 856.41119
883.0 0.001133 779.54407 853.79797
895.0 0.001117 779.37042 851.21259
913.0 0.001095 779.41016 848.79980
880.0 0.001136 779.17291 846.03534
842.0 0.001188 778.98840 843.34528
811.0 0.001233 778.97839 840.78772
861.0 0.001161 778.81940 837.96960
902.0 0.001109 778.55890 835.13306
864.0 0.001157 778.42352 832.45612
837.0 0.001195 778.34058 829.83496
838.0 0.001193 778.14197 827.15942
827.0 0.001209 778.15100 824.73322
847.0 0.001181 777.91998 822.13788
769.0 0.001300 777.71655 819.65027
864.0 0.001157 777.63782 817.34698
803.0 0.001245 777.64038 815.24622
810.0 0.001235 777.31311 812.94312
794.0 0.001259 777.32062 811.08307
832.0 0.001202 777.24585 809.20532
774.0 0.001292 777.04645 807.36530
776.0 0.001289 776.82245 805.60901
830.0 0.001205 776.85516 804.24152
838.0 0.001193 776.64471 802.79108
822.0 0.001217 776.49548 801.57703
788.0 0.001269 776.42346 800.52155
788.0 0.001269 776.20190 799.47913
762.0 0.001312 775.98468 798.60022
811.0 0.001233 776.04041 798.15509
835.0 0.001198 775.83356 797.59271
806.0 0.001241 775.62122 797.16638
799.0 0.001252 775.66534 797.18915
783.0 0.001277 775.50403 797.11035
761.0 0.001314 775.24805 797.10364
832.0 0.001202 775.13513 797.43768
836.0 0.001196 775.08392 797.96350
797.0 0.001255 774.84045 798.46588
769.0 0.001300 774.86780 799.33453
819.0 0.001221 774.65582 800.15375
738.0 0.001355 774.45544 801.14600
803.0 0.001245 774.38568 802.35718
843.0 0.001186 774.39911 803.84424
861.0 0.001161 774.09192 805.13733
834.0 0.001199 774.09912 806.87341
829.0 0.001206 774.03870 808.67120
835.0 0.001198 773.85657 810.43378
849.0 0.001178 773.65607 812.32660
873.0 0.001145 773.66309 814.51825
810.0 0.001235 773.42883 816.56134
808.0 0.001238 773.37646 818.90100
809.0 0.001236 773.30652 821.25812
826.0 0.001211 773.05688 823.55243
850.0 0.001176 772.87213 825.95026
824.0 0.001214 772.93915 828.69470
854.0 0.001171 772.73499 831.17401
815.0 0.001227 772.48425 833.65234
862.0 0.001160 772.57147 836.50696
867.0 0.001153 772.39868 839.10461
866.0 0.001155 772.13440 841.62018
875.0 0.001143 772.10144 844.37500
854.0 0.001171 772.00586 847.06287
852.0 0.001174 771.78607 849.62500
850.0 0.001176 771.84229 852.44580
828.0 0.001208 771.63922 854.98706
845.0 0.001183 771.44733 857.57672
882.0 0.001134 771.37286 860.29730
891.0 0.001122 771.40308 863.08575
894.0 0.001119 771.10663 865.53650
894.0 0.001119 771.13348 868.36475
874.0 0.001144 771.07904 871.07928
836.0 0.001196 770.90680 873.71002
868.0 0.001152 770.68634 876.27435
859.0 0.001164 770.72723 879.08813
856.0 0.001168 770.51886 881.62628
858.0 0.001166 770.48395 884.33435
888.0 0.001126 770.39172 886.93317
850.0 0.001176 770.13525 889.31580
934.0 0.001071 769.99591 891.71777
865.0 0.001156 770.05707 894.24237
886.0 0.001129 769.88403 896.41956
923.0 0.001083 769.65930 898.41992
853.0 0.001172 769.78009 900.61841
939.0 0.001065 769.55237 902.34729
969.0 0.001032 769.31842 903.86481
940.0 0.001064 769.26331 905.42218
907.0 0.001103 769.23010 906.79132
941.0 0.001063 769.01593 907.78448
941.0 0.001063 769.04901 908.81219
939.0 0.001065 768.88727 909.41064
947.0 0.001056 768.70105 909.79718
972.0 0.001029 768.65076 910.06348
923.0 0.001083 768.70557 910.20081
992.0 0.001008 768.37457 909.70135
945.0 0.001058 768.45245 909.35156
925.0 0.001081 768.45276 908.71918
954.0 0.001048 768.29132 907.61768
931.0 0.001074 767.99677 906.16748
970.0 0.001031 768.06165 904.80396
894.0 0.001119 767.89032 902.92303
859.0 0.001164 767.83636 900.97485
896.0 0.001116 767.82990 898.73511
904.0 0.001106 767.46875 895.99847
883.0 0.001133 767.32587 893.22260
902.0 0.001109 767.48053 890.57379
936.0 0.001068 767.29205 887.35168
886.0 0.001129 767.08026 883.90790
888.0 0.001126 767.25531 880.72363
873.0 0.001145 767.10358 876.97638
834.0 0.001199 766.74908 872.92139
856.0 0.001168 766.76385 869.14722
789.0 0.001267 766.70026 865.18030
830.0 0.001205 766.51453 861.03033
830.0 0.001205 766.56567 857.09357
835.0 0.001198 766.33710 852.87744
800.0 0.001250 766.17175 848.73517
800.0 0.001250 766.20087 844.85748
847.0 0.001181 766.27948 841.09717
789.0 0.001267 765.97015 837.04419
856.0 0.001168 766.01746 833.47833
800.0 0.001250 766.04919 830.03491
809.0 0.001236 765.90265 826.56946
805.0 0.001242 765.64923 823.15894
829.0 0.001206 765.71954 820.28259
821.0 0.001218 765.54681 817.32355
844.0 0.001185 765.48340 814.71155
787.0 0.001271 765.55389 812.35303
854.0 0.001171 765.19183 809.83569
841.0 0.001189 765.01068 807.67633
773.0 0.001294 765.21320 806.15649
773.0 0.001294 765.02222 804.43073
813.0 0.001230 764.84900 802.90155
820.0 0.001220 765.00934 801.92584
842.0 0.001188 764.87378 800.79712
814.0 0.001229 764.51440 799.66669
788.0 0.001269 764.57007 799.05786
836.0 0.001196 764.52277 798.55737
814.0 0.001229 764.35675 798.04767
833.0 0.001200 764.40778 797.92413
764.0 0.001309 764.17297 797.62427
846.0 0.001182 764.02966 797.53827
792.0 0.001263 764.10083 797.76099
798.0 0.001253 764.17120 798.07007
745.0 0.001342 763.86835 798.11798
800.0 0.001250 763.95020 798.57745
860.0 0.001163 763.99786 799.11670
837.0 0.001195 763.83966 799.47168
803.0 0.001245 763.63129 799.83313
808.0 0.001238 763.68793 800.51685
779.0 0.001284 763.50641 800.98566
818.0 0.001222 763.48633 801.64581
854.0 0.001171 763.54987 802.42731
819.0 0.001221 763.19678 802.80798
805.0 0.001242 763.08710 803.43567
822.0 0.001217 763.27216 804.41589
856.0 0.001168 763.10004 805.03601
901.0 0.001110 762.90680 805.62286
843.0 0.001186 763.13092 806.67474
836.0 0.001196 762.96582 807.31012
823.0 0.001215 762.64728 807.78699
817.0 0.001224 762.70453 808.69305
822.0 0.001217 762.71381 809.50189
803.0 0.001245 762.54688 810.16785
826.0 0.001211 762.58105 811.03870
849.0 0.001178 762.41107 811.71460
801.0 0.001248 762.24615 812.42633
784.0 0.001276 762.28711 813.35822
824.0 0.001214 762.40784 814.43988
799.0 0.001252 762.12958 815.08301
804.0 0.001244 762.18555 816.10150
871.0 0.001148 762.25897 817.21021
814.0 0.001229 762.15454 818.13263
797.0 0.001255 761.96307 819.00592
847.0 0.001181 762.04877 820.20190
868.0 0.001152 761.88104 821.21204
856.0 0.001168 761.85138 822.31512
864.0 0.001157 761.91718 823.57501
891.0 0.001122 761.61731 824.45532
858.0 0.001166 761.48444 825.47949
844.0 0.001185 761.68463 826.84631
859.0 0.001164 761.54425 827.81616
868.0 0.001152 761.37811 828.73132
876.0 0.001142 761.57593 829.92822
843.0 0.001186 761.44037 830.70856
842.0 0.001188 761.14069 831.24481
857.0 0.001167 761.22778 832.04242
900.0 0.001111 761.22009 832.65295
900.0 0.001111 761.06427 832.98547
863.0 0.001159 761.13702 833.45227
812.0 0.001232 760.96796 833.48090
883.0 0.001133 760.82947 833.45905
894.0 0.001119 760.90332 833.50110
888.0 0.001126 760.98364 833.42664
869.0 0.001151 760.74487 832.91473
801.0 0.001248 760.85083 832.61438
868.0 0.001152 760.94373 832.20172
859.0 0.001164 760.80457 831.48260
858.0 0.001166 760.63715 830.62115
870.0 0.001149 760.73303 829.94092
866.0 0.001155 760.57806 828.94196
823.0 0.001215 760.54761 828.00452
877.0 0.001140 760.62518 827.16986
799.0 0.001252 760.38440 825.93658
826.0 0.001211 760.25092 824.82800
830.0 0.001205 760.49298 824.07507
830.0 0.001205 760.36389 822.98108
839.0 0.001192 760.18097 821.89734
889.0 0.001125 760.40643 821.23529
809.0 0.001236 760.28778 820.32654
845.0 0.001183 760.01245 819.32306
827.0 0.001209 760.13013 818.78992
841.0 0.001189 760.09363 818.23474
860.0 0.001163 759.94678 817.66376
830.0 0.001205 760.05237 817.46460
856.0 0.001168 759.91632 817.13080
874.0 0.001144 759.81970 817.00500
804.0 0.001244 759.91199 817.18579
848.0 0.001179 759.98706 817.45166
852.0 0.001174 759.75494 817.51190
822.0 0.001217 759.84467 818.09033
840.0 0.001190 759.95935 818.78137
838.0 0.001193 759.82721 819.33392
809.0 0.001236 759.69269 819.99915
828.0 0.001208 759.80243 821.02448
828.0 0.001208 759.65472 821.86920
841.0 0.001189 759.66888 822.94464
818.0 0.001222 759.77545 824.20587
845.0 0.001183 759.50763 825.13898
871.0 0.001148 759.38739 826.29633
851.0 0.001175 759.65924 827.85907
805.0 0.001242 759.50879 829.04468
801.0 0.001248 759.36420 830.25433
867.0 0.001153 759.62360 831.82324
894.0 0.001119 759.52441 833.06927
851.0 0.001175 759.25897 834.08691
876.0 0.001142 759.37964 835.47620
836.0 0.001196 759.37689 836.69366
910.0 0.001099 759.25909 837.76013
886.0 0.001129 759.35895 838.97107
877.0 0.001140 759.24719 839.84949
885.0 0.001130 759.13947 840.70807
891.0 0.001122 759.24249 841.70166
848.0 0.001179 759.35645 842.61395
843.0 0.001186 759.11127 843.05426
888.0 0.001126 759.25183 843.81195
917.0 0.001091 759.35712 844.41779
910.0 0.001099 759.25482 844.68060
869.0 0.001151 759.15491 844.85699
910.0 0.001099 759.29749 845.16492
855.0 0.001170 759.14862 845.06830
908.0 0.001101 759.12128 845.00946
898.0 0.001114 759.26782 844.95667
820.0 0.001220 759.01837 844.41925
871.0 0.001148 758.95203 843.93683
912.0 0.001096 759.20599 843.68335
918.0 0.001089 759.11066 842.90985
919.0 0.001088 758.97314 842.00714
872.0 0.001147 759.21405 841.36664
926.0 0.001080 759.15070 840.29602
932.0 0.001073 758.88690 838.96106
859.0 0.001164 759.03784 837.91345
843.0 0.001186 759.02881 836.63544
837.0 0.001195 758.92096 835.17834
878.0 0.001139 759.02893 833.87708
846.0 0.001182 758.95654 832.35718
836.0 0.001196 758.86896 830.79987
886.0 0.001129 758.96472 829.39178
881.0 0.001135 759.14209 828.04095
841.0 0.001189 758.89874 826.34235
842.0 0.001188 759.01068 825.02325
838.0 0.001193 759.15698 823.79468
790.0 0.001266 759.09198 822.43280
808.0 0.001238 758.99402 821.12396
823.0 0.001215 759.11560 820.15558
842.0 0.001188 758.98419 819.06519
839.0 0.001192 759.02197 818.29034
841.0 0.001189 759.17151 817.78094
839.0 0.001192 758.91174 817.06891
865.0 0.001156 758.89502 816.76953
815.0 0.001227 759.14734 816.93024
829.0 0.001206 758.99683 816.95007
814.0 0.001229 758.94720 817.27850
819.0 0.001221 759.19733 818.15265
798.0 0.001253 759.12891 818.95953
811.0 0.001233 758.89526 819.84503
795.0 0.001258 759.06628 821.38361
812.0 0.001232 759.04004 823.02069
803.0 0.001245 758.94318 824.78534
790.0 0.001266 759.10449 827.04150
831.0 0.001203 759.02295 829.28583
815.0 0.001227 758.94531 831.75360
857.0 0.001167 759.12378 834.66986
880.0 0.001136 759.25043 837.71887
843.0 0.001186 759.05121 840.59448
813.0 0.001230 759.16077 843.94897
893.0 0.001120 759.30756 847.44849
913.0 0.001095 759.28076 850.80042
928.0 0.001078 759.20178 854.15509
954.0 0.001048 759.32758 857.74518
927.0 0.001079 759.23218 861.10144
1003.0 0.000997 759.25995 864.51910
965.0 0.001036 759.42133 867.97266
937.0 0.001067 759.22528 870.97736
1021.0 0.000979 759.15674 873.90021
967.0 0.001034 759.42261 876.99408
930.0 0.001075 759.34729 879.51941
1002.0 0.000998 759.23657 881.80212
1004.0 0.000996 759.55554 884.20764
959.0 0.001043 759.48181 885.98724
922.0 0.001085 759.26532 887.30664
988.0 0.001012 759.43738 888.76343
997.0 0.001003 759.47662 889.81085
954.0 0.001048 759.41003 890.48431
957.0 0.001045 759.52032 891.08887
937.0 0.001067 759.50122 891.30164
918.0 0.001089 759.43304 891.27435
923.0 0.001083 759.58148 891.21381
929.0 0.001076 759.72632 891.01221
896.0 0.001116 759.51855 890.21570
874.0 0.001144 759.68298 889.64563
943.0 0.001060 759.83386 888.91888
907.0 0.001103 759.77887 887.83899
887.0 0.001127 759.73560 886.59973
863.0 0.001159 759.91516 885.47235
869.0 0.001151 759.81171 883.88501
902.0 0.001109 759.82233 882.30505
881.0 0.001135 760.01697 880.76349
846.0 0.001182 759.84192 878.70490
836.0 0.001196 759.77087 876.63605
823.0 0.001215 760.07452 874.81055
906.0 0.001104 760.00983 872.47992
816.0 0.001225 759.90790 869.99207
847.0 0.001181 760.22620 867.81036
905.0 0.001105 760.16095 865.15356
858.0 0.001166 760.00861 862.34924
877.0 0.001140 760.15997 859.74933
829.0 0.001206 760.21484 857.02045
864.0 0.001157 760.13202 854.05865
837.0 0.001195 760.29205 851.33136
894.0 0.001119 760.25708 848.42255
849.0 0.001178 760.20917 845.46381
834.0 0.001199 760.37457 842.72205
825.0 0.001212 760.54034 839.99237
822.0 0.001217 760.36694 836.96887
817.0 0.001224 760.49609 834.30017
800.0 0.001250 760.67621 831.73688
862.0 0.001160 760.63452 828.99298
828.0 0.001208 760.65485 826.40302
900.0 0.001111 760.78802 823.99164
802.0 0.001247 760.73425 821.50555
815.0 0.001227 760.74634 819.22424
809.0 0.001236 760.92554 817.19501
819.0 0.001221 760.77325 814.98456
791.0 0.001264 760.74786 812.99048
802.0 0.001247 761.03351 811.45459
776.0 0.001289 760.98798 809.70221
802.0 0.001247 760.89984 808.07538
825.0 0.001212 761.18134 806.95764
783.0 0.001277 761.17999 805.70154
838.0 0.001193 761.01031 804.43982
810.0 0.001235 761.21649 803.68274
840.0 0.001190 761.23206 802.85876
803.0 0.001245 761.19928 802.15179
827.0 0.001209 761.32428 801.77087
807.0 0.001239 761.31036 801.33398
820.0 0.001220 761.30847 801.07123
758.0 0.001319 761.49750 801.13293
732.0 0.001366 761.64154 801.28979
800.0 0.001250 761.45990 801.27441
818.0 0.001222 761.61426 801.70526
752.0 0.001330 761.79681 802.31885
791.0 0.001264 761.76794 802.88165
823.0 0.001215 761.77319 803.59406
789.0 0.001267 761.95575 804.63104
795.0 0.001258 761.88654 805.59259
825.0 0.001212 761.94232 806.81836
817.0 0.001224 762.11475 808.31342
820.0 0.001220 761.99957 809.68567
834.0 0.001199 761.96283 811.26471
824.0 0.001214 762.26495 813.34869
820.0 0.001220 762.18823 815.21918
847.0 0.001181 762.14142 817.24768
803.0 0.001245 762.41418 819.71655
778.0 0.001285 762.40649 822.06866
784.0 0.001276 762.28027 824.38623
800.0 0.001250 762.47876 827.14819
842.0 0.001188 762.51221 829.85852
818.0 0.001222 762.44037 832.50867
799.0 0.001252 762.62207 835.46820
774.0 0.001292 762.64020 838.27496
802.0 0.001247 762.59772 841.04773
761.0 0.001314 762.80640 844.07001
841.0 0.001189 762.98071 846.98859
799.0 0.001252 762.80273 849.47827
864.0 0.001157 762.95056 852.21069
768.0 0.001302 763.17969 854.90851
838.0 0.001193 763.12640 857.18341
802.0 0.001247 763.15363 859.32477
877.0 0.001140 763.32465 861.41364
858.0 0.001166 763.26849 863.05768
834.0 0.001199 763.32819 864.59088
826.0 0.001211 763.49884 865.98669
839.0 0.001192 763.41333 866.82715
778.0 0.001285 763.35309 867.43054
814.0 0.001229 763.66309 868.09637
834.0 0.001199 763.63275 868.19293
836.0 0.001196 763.56158 867.91754
848.0 0.001179 763.86755 867.70801
830.0 0.001205 763.84515 866.93042
797.0 0.001255 763.72296 865.77948
816.0 0.001225 763.94519 864.77124
804.0 0.001244 764.00250 863.40057
772.0 0.001295 763.95251 861.77155
787.0 0.001271 764.07928 860.18549
828.0 0.001208 764.12878 858.41943
816.0 0.001225 764.10687 856.56818
793.0 0.001261 764.32208 854.90094
797.0 0.001255 764.47046 853.15173
807.0 0.001239 764.28784 851.14410
819.0 0.001221 764.44788 849.54834
815.0 0.001227 764.66602 848.05060
814.0 0.001229 764.65491 846.47156
806.0 0.001241 764.69598 845.07153
841.0 0.001189 764.86646 843.95435
787.0 0.001271 764.78937 842.79120
774.0 0.001292 764.85724 841.87799
801.0 0.001248 765.06183 841.31250
769.0 0.001300 764.93994 840.60999
805.0 0.001242 764.93634 840.21191
784.0 0.001276 765.25397 840.30682
798.0 0.001253 765.17035 840.20349
809.0 0.001236 765.13403 840.28424
740.0 0.001351 765.39929 840.85455
800.0 0.001250 765.39575 841.28735
830.0 0.001205 765.31390 841.78528
810.0 0.001235 765.49524 842.63855
810.0 0.001235 765.55591 843.43805
790.0 0.001266 765.49316 844.23193
824.0 0.001214 765.65344 845.28979
829.0 0.001206 765.69702 846.26233
843.0 0.001186 765.67633 847.18652
870.0 0.001149 765.88556 848.32733
837.0 0.001195 766.05225 849.42426
870.0 0.001149 765.88458 850.10693
887.0 0.001127 766.04626 851.07813
893.0 0.001120 766.27185 852.03772
922.0 0.001085 766.24640 852.66058
880.0 0.001136 766.30347 853.27588
859.0 0.001164 766.43518 853.85162
859.0 0.001164 766.35419 854.12329
860.0 0.001163 766.41241 854.37817
858.0 0.001166 766.61188 854.67834
876.0 0.001142 766.50635 854.56177
898.0 0.001114 766.52844 854.40985
868.0 0.001152 766.82172 854.44849
842.0 0.001188 766.75171 854.00787
886.0 0.001129 766.69232 853.44580
860.0 0.001163 766.99658 853.14966
828.0 0.001208 766.97253 852.42511
802.0 0.001247 766.88190 851.55402
848.0 0.001179 767.09576 850.88776
852.0 0.001174 767.10046 849.97125
897.0 0.001115 767.05994 848.95074
846.0 0.001182 767.20471 848.03424
912.0 0.001096 767.27197 846.99646
821.0 0.001218 767.22607 845.80920
873.0 0.001145 767.43823 844.84540
846.0 0.001182 767.61902 843.80347
804.0 0.001244 767.43097 842.40961
829.0 0.001206 767.57623 841.27197
799.0 0.001252 767.75018 840.17670
835.0 0.001198 767.75751 838.86292
868.0 0.001152 767.78986 837.60724
854.0 0.001171 767.97882 836.43103
801.0 0.001248 767.90216 835.01715
826.0 0.001211 767.93591 833.72784
821.0 0.001218 768.14294 832.58362
836.0 0.001196 768.05780 831.18597
846.0 0.001182 768.01703 829.84277
805.0 0.001242 768.31500 828.87000
797.0 0.001255 768.25543 827.55225
813.0 0.001230 768.17761 826.27405
807.0 0.001239 768.46753 825.39044
815.0 0.001227 768.43359 824.23639
807.0 0.001239 768.36255 823.09766
806.0 0.001241 768.57037 822.27228
786.0 0.001272 768.57104 821.32275
743.0 0.001346 768.52795 820.36932
790.0 0.001266 768.68500 819.68201
799.0 0.001252 768.67975 818.90399
813.0 0.001230 768.66138 818.14978
780.0 0.001282 768.86298 817.56525
761.0 0.001314 769.00867 817.09290
849.0 0.001178 768.81207 816.31696
766.0 0.001305 768.97852 815.92993
796.0 0.001256 769.11206 815.56506
847.0 0.001181 769.11304 815.06836
831.0 0.001203 769.15137 814.63770
829.0 0.001206 769.31207 814.37506
768.0 0.001302 769.22150 813.92090
780.0 0.001282 769.28210 813.55096
803.0 0.001245 769.42896 813.36078
809.0 0.001236 769.35022 812.94873
829.0 0.001206 769.29688 812.57300
844.0 0.001185 769.60455 812.54315
832.0 0.001202 769.50897 812.12976
837.0 0.001195 769.43292 811.75226
833.0 0.001200 769.71088 811.73224
760.0 0.001316 769.66687 811.39124
822.0 0.001217 769.58319 811.05859
765.0 0.001307 769.73669 810.92407
854.0 0.001171 769.77411 810.69287
763.0 0.001311 769.68719 810.35620
779.0 0.001284 769.82806 810.26202
875.0 0.001143 769.88232 810.06036
826.0 0.001211 769.81714 809.76123
825.0 0.001212 769.99384 809.73468
803.0 0.001245 770.12225 809.64642
804.0 0.001244 769.93781 809.27789
802.0 0.001247 770.05792 809.23303
832.0 0.001202 770.18097 809.25995
810.0 0.001235 770.16492 809.11469
820.0 0.001220 770.19373 809.09973
838.0 0.001193 770.29968 809.20361
840.0 0.001190 770.23376 809.14557
834.0 0.001199 770.25116 809.28156
859.0 0.001164 770.40417 809.58295
798.0 0.001253 770.31036 809.71820
825.0 0.001212 770.25812 809.94202
828.0 0.001208 770.52057 810.52240
757.0 0.001321 770.41156 810.86035
809.0 0.001236 770.30792 811.26147
874.0 0.001144 770.58588 812.10510
797.0 0.001255 770.46594 812.66089
813.0 0.001230 770.40179 813.32416
827.0 0.001209 770.55286 814.30267
843.0 0.001186 770.54767 815.14154
792.0 0.001263 770.46094 815.96265
825.0 0.001212 770.54248 817.03735
841.0 0.001189 770.59912 818.12531
837.0 0.001195 770.52283 819.11108
820.0 0.001220 770.66382 820.38318
870.0 0.001149 770.76819 821.64673
849.0 0.001178 770.54486 822.57983
821.0 0.001218 770.62378 823.85248
824.0 0.001214 770.82269 825.24817
822.0 0.001217 770.71759 826.38239
910.0 0.001099 770.75323 827.61859
863.0 0.001159 770.80817 828.89673
889.0 0.001125 770.71564 830.03827
862.0 0.001160 770.70428 831.25073
826.0 0.001211 770.83380 832.58545
839.0 0.001192 770.73120 833.71631
875.0 0.001143 770.62000 834.86920
882.0 0.001134 770.87012 836.35016
833.0 0.001200 770.72296 837.46942
856.0 0.001168 770.61395 838.63501
853.0 0.001172 770.84283 840.17462
850.0 0.001176 770.75659 841.45306
821.0 0.001218 770.64740 842.75055
797.0 0.001255 770.75684 844.29163
819.0 0.001221 770.73206 845.72302
837.0 0.001195 770.62067 847.18420
830.0 0.001205 770.65186 848.82501
880.0 0.001136 770.68927 850.53021
836.0 0.001196 770.57556 852.11505
823.0 0.001215 770.69165 854.01251
813.0 0.001230 770.77393 855.93250
843.0 0.001186 770.52930 857.53674
794.0 0.001259 770.57764 859.50342
831.0 0.001203 770.71527 861.60095
837.0 0.001195 770.58167 863.46783
851.0 0.001175 770.59149 865.47797
918.0 0.001089 770.63513 867.53845
868.0 0.001152 770.51306 869.45117
811.0 0.001233 770.43878 871.36725
811.0 0.001233 770.52960 873.43225
887.0 0.001127 770.43311 875.21710
836.0 0.001196 770.29651 876.90863
823.0 0.001215 770.46497 878.82416
875.0 0.001143 770.34412 880.31122
876.0 0.001142 770.15619 881.61243
847.0 0.001181 770.32867 883.13629
874.0 0.001144 770.22656 884.15344
913.0 0.001095 770.06860 884.99146
850.0 0.001176 770.15820 885.86353
888.0 0.001126 770.08215 886.37726
872.0 0.001147 769.92847 886.58661
824.0 0.001214 769.94781 886.71356
910.0 0.001099 769.94556 886.61584
872.0 0.001147 769.77972 886.10864
862.0 0.001160 769.88049 885.62311
890.0 0.001124 769.89465 884.84875
830.0 0.001205 769.60773 883.51569
871.0 0.001148 769.61621 882.31073
837.0 0.001195 769.68646 880.96509
802.0 0.001247 769.52136 879.19305
874.0 0.001144 769.52710 877.42542
832.0 0.001202 769.56366 875.52747
812.0 0.001232 769.37073 873.29645
824.0 0.001214 769.19513 871.02026
868.0 0.001152 769.27350 868.89374
830.0 0.001205 769.14673 866.51453
797.0 0.001255 768.96649 864.07867
797.0 0.001255 769.09955 861.93347
841.0 0.001189 768.90918 859.53369
827.0 0.001209 768.70221 857.14917
847.0 0.001181 768.84747 855.21625
882.0 0.001134 768.61566 853.02716
840.0 0.001190 768.47052 850.99646
762.0 0.001312 768.54425 849.40863
805.0 0.001242 768.38269 847.69623
817.0 0.001224 768.16107 846.13745
840.0 0.001190 768.14374 844.94904
844.0 0.001185 768.07709 843.97003
846.0 0.001182 767.87671 843.00580
802.0 0.001247 767.96075 842.54169
816.0 0.001225 767.90564 842.17505
794.0 0.001259 767.57404 841.76251
832.0 0.001202 767.52710 841.81738
796.0 0.001256 767.56262 842.18433
790.0 0.001266 767.35193 842.50488
835.0 0.001198 767.26605 843.16376
867.0 0.001153 767.22021 844.03015
858.0 0.001166 766.96576 844.86896
858.0 0.001166 766.83234 845.97003
814.0 0.001229 766.83801 847.32593
862.0 0.001160 766.60199 848.57471
861.0 0.001161 766.41144 849.98853
850.0 0.001176 766.46027 851.68091
801.0 0.001248 766.21362 853.16089
867.0 0.001153 765.97424 854.66931
852.0 0.001174 765.98309 856.45917
859.0 0.001164 765.76819 857.96881
862.0 0.001160 765.55109 859.46570
852.0 0.001174 765.56616 861.11426
848.0 0.001179 765.34589 862.45898
845.0 0.001183 765.09692 863.65106
846.0 0.001182 764.97418 864.81476
827.0 0.001209 764.88208 865.92731
840.0 0.001190 764.65546 866.71289
833.0 0.001200 764.61823 867.52594
838.0 0.001193 764.50671 868.10797
846.0 0.001182 764.10681 868.18915
860.0 0.001163 763.98853 868.40704
865.0 0.001156 763.96564 868.54865
779.0 0.001284 763.66766 868.25372
797.0 0.001255 763.59100 867.99341
817.0 0.001224 763.46356 867.54883
844.0 0.001185 763.17065 866.84692
866.0 0.001155 762.92694 866.06158
833.0 0.001200 762.85663 865.39301
817.0 0.001224 762.58960 864.45673
837.0 0.001195 762.29688 863.41602
813.0 0.001230 762.28052 862.64868
819.0 0.001221 761.96381 861.52917
781.0 0.001280 761.64917 860.40814
812.0 0.001232 761.64111 859.63062
788.0 0.001269 761.35791 858.57184
825.0 0.001212 761.04523 857.56964
787.0 0.001271 760.96252 856.74475
814.0 0.001229 760.69818 855.87476
830.0 0.001205 760.37427 854.92963
780.0 0.001282 760.19666 854.18378
816.0 0.001225 760.01318 853.52588
829.0 0.001206 759.68347 852.74866
780.0 0.001282 759.60297 852.31586
803.0 0.001245 759.40247 851.83264
851.0 0.001175 758.92828 851.11456
807.0 0.001239 758.74286 850.79498
817.0 0.001224 758.62964 850.63531
796.0 0.001256 758.29181 850.31287
790.0 0.001266 758.07050 850.23779
795.0 0.001258 757.88757 850.28607
781.0 0.001280 757.52350 850.27997
834.0 0.001199 757.19788 850.48047
809.0 0.001236 757.04572 851.00793
811.0 0.001233 756.72034 851.49817
841.0 0.001189 756.33624 852.14148
822.0 0.001217 756.28290 853.29865
823.0 0.001215 755.83710 854.23309
860.0 0.001163 755.44794 855.42987
850.0 0.001176 755.35730 857.15912
893.0 0.001120 754.95380 858.75574
815.0 0.001227 754.61212 860.70172
869.0 0.001151 754.41290 862.94537
892.0 0.001121 754.05353 865.21912
835.0 0.001198 753.67810 867.59473
921.0 0.001086 753.38702 870.27991
899.0 0.001112 753.12225 873.13885
853.0 0.001172 752.70087 875.93115
896.0 0.001116 752.51825 879.09015
892.0 0.001121 752.27631 882.22198
893.0 0.001120 751.67242 885.06122
933.0 0.001072 751.41125 888.20917
950.0 0.001053 751.23279 891.43567
961.0 0.001041 750.76019 894.28857
917.0 0.001091 750.49249 897.22894
951.0 0.001052 750.18683 899.94244
954.0 0.001048 749.68286 902.28552
975.0 0.001026 749.29932 904.47406
988.0 0.001012 749.06750 906.56769
993.0 0.001007 748.64600 908.07141
999.0 0.001001 748.17065 909.25531
981.0 0.001019 747.98199 910.33289
982.0 0.001018 747.46375 910.69305
1029.0 0.000972 746.94611 910.64203
1014.0 0.000986 746.77808 910.49066
976.0 0.001025 746.29279 909.59540
950.0 0.001053 745.79950 908.34235
976.0 0.001025 745.60028 906.87793
1055.0 0.000948 745.07257 904.79803
974.0 0.001027 744.57214 902.31378
979.0 0.001021 744.17566 899.59686
966.0 0.001035 743.87140 896.69641
906.0 0.001104 743.33124 893.28473
895.0 0.001117 743.07147 889.88660
934.0 0.001071 742.64868 886.15009
879.0 0.001138 741.98834 882.01324
879.0 0.001138 741.60950 877.96057
865.0 0.001156 741.32318 873.97052
867.0 0.001153 740.75146 869.63397
822.0 0.001217 740.38336 865.44409
864.0 0.001157 739.95221 861.22296
834.0 0.001199 739.37280 856.88342
843.0 0.001186 738.83350 852.60498
835.0 0.001198 738.48401 848.65826
859.0 0.001164 737.98602 844.55920
870.0 0.001149 737.36310 840.62885
805.0 0.001242 737.06531 836.99475
836.0 0.001196 736.44684 833.20081
809.0 0.001236 735.80737 829.52161
848.0 0.001179 735.50854 826.26184
826.0 0.001211 734.90015 822.89667
837.0 0.001195 734.34711 819.69781
800.0 0.001250 733.94934 816.82550
791.0 0.001264 733.37170 813.91296
818.0 0.001222 732.70068 811.01434
826.0 0.001211 732.19592 808.44714
825.0 0.001212 731.77893 806.06244
836.0 0.001196 731.12738 803.60870
813.0 0.001230 730.76819 801.54327
822.0 0.001217 730.21979 799.45245
787.0 0.001271 729.41565 797.22522
820.0 0.001220 728.86902 795.34882
808.0 0.001238 728.45331 793.76215
828.0 0.001208 727.74609 792.01971
845.0 0.001183 727.29584 790.61829
802.0 0.001247 726.72687 789.25006
758.0 0.001319 726.02710 787.84631
769.0 0.001300 725.34863 786.58917
810.0 0.001235 724.89197 785.73615
757.0 0.001321 724.23462 784.77197
840.0 0.001190 723.53149 783.84528
781.0 0.001280 723.08893 783.29663
788.0 0.001269 722.31604 782.55676
815.0 0.001227 721.59631 781.94495
819.0 0.001221 721.12390 781.68274
832.0 0.001202 720.39117 781.28406
804.0 0.001244 719.70685 781.02167
841.0 0.001189 719.16486 780.94812
810.0 0.001235 718.44824 780.81104
782.0 0.001279 717.65656 780.63190
805.0 0.001242 717.03717 780.68018
769.0 0.001300 716.45013 780.86523
804.0 0.001244 715.65002 780.81000
812.0 0.001232 715.08984 781.04572
789.0 0.001267 714.42767 781.19781
839.0 0.001192 713.49969 781.07434
821.0 0.001218 712.80566 781.13647
781.0 0.001280 712.25586 781.31812
844.0 0.001185 711.40698 781.17603
828.0 0.001208 710.82709 781.23035
829.0 0.001206 710.08624 781.09387
823.0 0.001215 709.25220 780.75739
837.0 0.001195 708.41998 780.36652
822.0 0.001217 707.79663 780.06396
818.0 0.001222 707.00537 779.52075
790.0 0.001266 706.12323 778.77881
836.0 0.001196 705.54114 778.22333
861.0 . . .
828.0 . . .
857.0 . . .
825.0 . . .
798.0 . . .
814.0 . . .
855.0 . . .
830.0 . . .
823.0 . . .
803.0 . . .
797.0 . . .
844.0 . . .
790.0 . . .
815.0 . . .
792.0 . . .
763.0 . . .
799.0 . . .
780.0 . . .
784.0 . . .
815.0 . . .
774.0 . . .
802.0 . . .
779.0 . . .
748.0 . . .
808.0 . . .
826.0 . . .
768.0 . . .
777.0 . . .
758.0 . . .
743.0 . . .
793.0 . . .
835.0 . . .
743.0 . . .
806.0 . . .
792.0 . . .
805.0 . . .
827.0 . . .
775.0 . . .
837.0 . . .
831.0 . . .
788.0 . . .
822.0 . . .
783.0 . . .
825.0 . . .
809.0 . . .
857.0 . . .
815.0 . . .
837.0 . . .
806.0 . . .
799.0 . . .
806.0 . . .
793.0 . . .
784.0 . . .
777.0 . . .
804.0 . . .
786.0 . . .
886.0 . . .
856.0 . . .
805.0 . . .
765.0 . . .
801.0 . . .
811.0 . . .
808.0 . . .
785.0 . . .
820.0 . . .
773.0 . . .
770.0 . . .
837.0 . . .
777.0 . . .
763.0 . . .
787.0 . . .
837.0 . . .
795.0 . . .
742.0 . . .
756.0 . . .
769.0 . . .
807.0 . . .
775.0 . . .
818.0 . . .
816.0 . . .
807.0 . . .
775.0 . . .
769.0 . . .
810.0 . . .
766.0 . . .
759.0 . . .
758.0 . . .
778.0 . . .
776.0 . . .
803.0 . . .
779.0 . . .
803.0 . . .
793.0 . . .
861.0 . . .
801.0 . . .
792.0 . . .
821.0 . . .
847.0 . . .
789.0 . . .
801.0 . . .
809.0 . . .
800.0 . . .
827.0 . . .
808.0 . . .
800.0 . . .
833.0 . . .
810.0 . . .
844.0 . . .
850.0 . . .
834.0 . . .
816.0 . . .
833.0 . . .
867.0 . . .
863.0 . . .
872.0 . . .
916.0 . . .
855.0 . . .
886.0 . . .
910.0 . . .
853.0 . . .
878.0 . . .
947.0 . . .
901.0 . . .
852.0 . . .
877.0 . . .
850.0 . . .
814.0 . . .
918.0 . . .
884.0 . . .
858.0 . . .
883.0 . . .
825.0 . . .
809.0 . . .
806.0 . . .
809.0 . . .
805.0 . . .
763.0 . . .
818.0 . . .
859.0 . . .
818.0 . . .
839.0 . . .
831.0 . . .
760.0 . . .
781.0 . . .
830.0 . . .
786.0 . . .
787.0 . . .
776.0 . . .
744.0 . . .
812.0 . . .
768.0 . . .
827.0 . . .
769.0 . . .
793.0 . . .
792.0 . . .
759.0 . . .
851.0 . . .
787.0 . . .
813.0 . . .
820.0 . . .
805.0 . . .
800.0 . . .
762.0 . . .
850.0 . . .
808.0 . . .
794.0 . . .
845.0 . . .
784.0 . . .
809.0 . . .
785.0 . . .
792.0 . . .
781.0 . . .
845.0 . . .
823.0 . . .
777.0 . . .
801.0 . . .
802.0 . . .
797.0 . . .
835.0 . . .
819.0 . . .
782.0 . . .
878.0 . . .
784.0 . . .
841.0 . . .
784.0 . . .
775.0 . . .
771.0 . . .
826.0 . . .
860.0 . . .
804.0 . . .
834.0 . . .
858.0 . . .
830.0 . . .
880.0 . . .
847.0 . . .
828.0 . . .
866.0 . . .
833.0 . . .
847.0 . . .
850.0 . . .
863.0 . . .
886.0 . . .
892.0 . . .
895.0 . . .
870.0 . . .
909.0 . . .
904.0 . . .
881.0 . . .
867.0 . . .
910.0 . . .
863.0 . . .
886.0 . . .
920.0 . . .
932.0 . . .
878.0 . . .
936.0 . . .
920.0 . . .
929.0 . . .
916.0 . . .
927.0 . . .
971.0 . . .
971.0 . . .
930.0 . . .
963.0 . . .
980.0 . . .
960.0 . . .
972.0 . . .
960.0 . . .
931.0 . . .
979.0 . . .
954.0 . . .
953.0 . . .
980.0 . . .
1017.0 . . .
985.0 . . .
935.0 . . .
953.0 . . .
929.0 . . .
945.0 . . .
948.0 . . .
945.0 . . .
923.0 . . .
945.0 . . .
908.0 . . .
900.0 . . .
882.0 . . .
910.0 . . .
855.0 . . .
834.0 . . .
809.0 . . .
839.0 . . .
824.0 . . .
841.0 . . .
885.0 . . .
848.0 . . .
894.0 . . .
868.0 . . .
798.0 . . .
792.0 . . .
821.0 . . .
825.0 . . .
822.0 . . .
821.0 . . .
841.0 . . .
829.0 . . .
824.0 . . .
857.0 . . .
808.0 . . .
808.0 . . .
815.0 . . .
807.0 . . .
864.0 . . .
836.0 . . .
797.0 . . .
806.0 . . .
818.0 . . .
766.0 . . .
811.0 . . .
829.0 . . .
842.0 . . .
815.0 . . .
818.0 . . .
791.0 . . .
844.0 . . .
815.0 . . .
789.0 . . .
837.0 . . .
821.0 . . .
804.0 . . .
822.0 . . .
809.0 . . .
826.0 . . .
799.0 . . .
803.0 . . .
786.0 . . .
816.0 . . .
815.0 . . .
839.0 . . .
826.0 . . .
802.0 . . .
807.0 . . .
837.0 . . .
854.0 . . .
858.0 . . .
868.0 . . .
865.0 . . .
881.0 . . .
878.0 . . .
892.0 . . .
873.0 . . .
876.0 . . .
847.0 . . .
912.0 . . .
897.0 . . .
962.0 . . .
941.0 . . .
974.0 . . .
1004.0 . . .
984.0 . . .
1079.0 . . .
1101.0 . . .
1067.0 . . .
1130.0 . . .
1122.0 . . .
1197.0 . . .
1144.0 . . .
1182.0 . . .
1212.0 . . .
1192.0 . . .
1201.0 . . .
1223.0 . . .
1201.0 . . .
1211.0 . . .
1251.0 . . .
1198.0 . . .
1148.0 . . .
1193.0 . . .
1137.0 . . .
1079.0 . . .
1152.0 . . .
1101.0 . . .
1075.0 . . .
1074.0 . . .
1107.0 . . .
1126.0 . . .
1059.0 . . .
1080.0 . . .
1024.0 . . .
1074.0 . . .
1069.0 . . .
977.0 . . .
992.0 . . .
960.0 . . .
1032.0 . . .
1000.0 . . .
979.0 . . .
953.0 . . .
988.0 . . .
867.0 . . .
939.0 . . .
930.0 . . .
876.0 . . .
884.0 . . .
915.0 . . .
916.0 . . .
856.0 . . .
863.0 . . .
829.0 . . .
836.0 . . .
855.0 . . .
846.0 . . .
852.0 . . .
866.0 . . .
837.0 . . .
855.0 . . .
842.0 . . .
816.0 . . .
820.0 . . .
920.0 . . .
905.0 . . .
808.0 . . .
822.0 . . .
853.0 . . .
821.0 . . .
830.0 . . .
912.0 . . .
890.0 . . .
854.0 . . .
888.0 . . .
849.0 . . .
818.0 . . .
828.0 . . .
825.0 . . .
815.0 . . .
862.0 . . .
839.0 . . .
839.0 . . .
791.0 . . .
842.0 . . .
781.0 . . .
806.0 . . .
814.0 . . .
798.0 . . .
824.0 . . .
867.0 . . .
820.0 . . .
813.0 . . .
815.0 . . .
828.0 . . .
800.0 . . .
828.0 . . .
802.0 . . .
808.0 . . .
864.0 . . .
812.0 . . .
847.0 . . .
867.0 . . .
832.0 . . .
824.0 . . .
816.0 . . .
852.0 . . .
820.0 . . .
821.0 . . .
828.0 . . .
837.0 . . .
883.0 . . .
884.0 . . .
833.0 . . .
847.0 . . .
835.0 . . .
845.0 . . .
863.0 . . .
882.0 . . .
846.0 . . .
866.0 . . .
849.0 . . .
828.0 . . .
831.0 . . .
822.0 . . .
844.0 . . .
806.0 . . .
825.0 . . .
859.0 . . .
832.0 . . .
794.0 . . .
802.0 . . .
823.0 . . .
795.0 . . .
794.0 . . .
780.0 . . .
791.0 . . .
770.0 . . .
755.0 . . .
794.0 . . .
773.0 . . .
776.0 . . .
795.0 . . .
819.0 . . .
781.0 . . .
780.0 . . .
767.0 . . .
744.0 . . .
731.0 . . .
746.0 . . .
804.0 . . .
770.0 . . .
738.0 . . .
762.0 . . .
794.0 . . .
741.0 . . .
776.0 . . .
759.0 . . .
754.0 . . .
754.0 . . .
776.0 . . .
768.0 . . .
734.0 . . .
755.0 . . .
757.0 . . .
774.0 . . .
757.0 . . .
795.0 . . .
818.0 . . .
790.0 . . .
722.0 . . .
772.0 . . .
783.0 . . .
812.0 . . .
794.0 . . .
813.0 . . .
787.0 . . .
806.0 . . .
787.0 . . .
799.0 . . .
769.0 . . .
785.0 . . .
808.0 . . .
772.0 . . .
772.0 . . .
840.0 . . .
759.0 . . .
818.0 . . .
807.0 . . .
816.0 . . .
820.0 . . .
827.0 . . .
838.0 . . .
787.0 . . .
802.0 . . .
831.0 . . .
813.0 . . .
816.0 . . .
807.0 . . .
831.0 . . .
874.0 . . .
823.0 . . .
806.0 . . .
790.0 . . .
819.0 . . .
857.0 . . .
798.0 . . .
885.0 . . .
816.0 . . .
830.0 . . .
815.0 . . .
855.0 . . .
837.0 . . .
902.0 . . .
944.0 . . .
869.0 . . .
898.0 . . .
888.0 . . .
889.0 . . .
902.0 . . .
843.0 . . .
827.0 . . .
842.0 . . .
854.0 . . .
846.0 . . .
915.0 . . .
805.0 . . .
812.0 . . .
827.0 . . .
849.0 . . .
804.0 . . .
815.0 . . .
811.0 . . .
784.0 . . .
784.0 . . .
782.0 . . .
802.0 . . .
805.0 . . .
837.0 . . .
829.0 . . .
806.0 . . .
792.0 . . .
748.0 . . .
830.0 . . .
813.0 . . .
755.0 . . .
789.0 . . .
781.0 . . .
817.0 . . .
794.0 . . .
844.0 . . .
826.0 . . .
800.0 . . .
819.0 . . .
802.0 . . .
842.0 . . .
826.0 . . .
826.0 . . .
811.0 . . .
793.0 . . .
789.0 . . .
823.0 . . .
827.0 . . .
815.0 . . .
819.0 . . .
835.0 . . .
885.0 . . .
781.0 . . .
828.0 . . .
861.0 . . .
875.0 . . .
823.0 . . .
825.0 . . .
791.0 . . .
788.0 . . .
793.0 . . .
810.0 . . .
755.0 . . .
818.0 . . .
814.0 . . .
809.0 . . .
794.0 . . .
822.0 . . .
794.0 . . .
801.0 . . .
766.0 . . .
758.0 . . .
804.0 . . .
795.0 . . .
850.0 . . .
809.0 . . .
840.0 . . .
853.0 . . .
826.0 . . .
878.0 . . .
837.0 . . .
788.0 . . .
817.0 . . .
801.0 . . .
796.0 . . .
851.0 . . .
800.0 . . .
898.0 . . .
913.0 . . .
887.0 . . .
879.0 . . .
814.0 . . .
869.0 . . .
831.0 . . .
849.0 . . .
822.0 . . .
843.0 . . .
795.0 . . .
780.0 . . .
804.0 . . .
777.0 . . .
797.0 . . .
761.0 . . .
784.0 . . .
753.0 . . .
814.0 . . .
800.0 . . .
823.0 . . .
751.0 . . .
771.0 . . .
759.0 . . .
758.0 . . .
814.0 . . .
768.0 . . .
749.0 . . .
742.0 . . .
733.0 . . .
721.0 . . .
747.0 . . .
727.0 . . .
732.0 . . .
767.0 . . .
773.0 . . .
739.0 . . .
753.0 . . .
755.0 . . .
725.0 . . .
755.0 . . .
710.0 . . .
745.0 . . .
689.0 . . .
745.0 . . .
760.0 . . .
715.0 . . .
780.0 . . .
729.0 . . .
729.0 . . .
707.0 . . .
721.0 . . .
733.0 . . .
743.0 . . .
742.0 . . .
784.0 . . .
729.0 . . .
735.0 . . .
735.0 . . .
740.0 . . .
774.0 . . .
732.0 . . .
786.0 . . .
759.0 . . .
775.0 . . .
777.0 . . .
742.0 . . .
782.0 . . .
772.0 . . .
784.0 . . .
745.0 . . .
780.0 . . .
782.0 . . .
790.0 . . .
786.0 . . .
778.0 . . .
787.0 . . .
809.0 . . .
818.0 . . .
793.0 . . .
816.0 . . .
777.0 . . .
824.0 . . .
825.0 . . .
804.0 . . .
797.0 . . .
796.0 . . .
839.0 . . .
832.0 . . .
827.0 . . .
891.0 . . .
783.0 . . .
869.0 . . .
827.0 . . .
820.0 . . .
827.0 . . .
806.0 . . .
858.0 . . .
769.0 . . .
830.0 . . .
781.0 . . .
811.0 . . .
838.0 . . .
814.0 . . .
772.0 . . .
824.0 . . .
798.0 . . .
763.0 . . .
827.0 . . .
815.0 . . .
776.0 . . .
794.0 . . .
771.0 . . .
784.0 . . .
803.0 . . .
840.0 . . .
766.0 . . .
762.0 . . .
753.0 . . .
784.0 . . .
770.0 . . .
770.0 . . .
795.0 . . .
740.0 . . .
759.0 . . .
795.0 . . .
753.0 . . .
757.0 . . .
733.0 . . .
797.0 . . .
782.0 . . .
731.0 . . .
743.0 . . .
745.0 . . .
726.0 . . .
741.0 . . .
770.0 . . .
753.0 . . .
754.0 . . .
726.0 . . .
782.0 . . .
796.0 . . .
788.0 . . .
746.0 . . .
735.0 . . .
718.0 . . .
707.0 . . .
705.0 . . .
771.0 . . .
767.0 . . .
750.0 . . .
740.0 . . .
735.0 . . .
749.0 . . .
735.0 . . .
744.0 . . .
734.0 . . .
760.0 . . .
730.0 . . .
713.0 . . .
718.0 . . .
753.0 . . .
724.0 . . .
735.0 . . .
708.0 . . .
752.0 . . .
740.0 . . .
725.0 . . .
739.0 . . .
713.0 . . .
733.0 . . .
762.0 . . .
733.0 . . .
714.0 . . .
731.0 . . .
750.0 . . .
742.0 . . .
725.0 . . .
723.0 . . .
779.0 . . .
773.0 . . .
784.0 . . .
790.0 . . .
744.0 . . .
764.0 . . .
756.0 . . .
769.0 . . .
743.0 . . .
783.0 . . .
773.0 . . .
770.0 . . .
770.0 . . .
745.0 . . .
708.0 . . .
779.0 . . .
736.0 . . .
738.0 . . .
712.0 . . .
750.0 . . .
787.0 . . .
790.0 . . .
712.0 . . .
737.0 . . .
719.0 . . .
764.0 . . .
772.0 . . .
772.0 . . .
746.0 . . .
745.0 . . .
776.0 . . .
767.0 . . .
740.0 . . .
790.0 . . .
762.0 . . .
731.0 . . .
778.0 . . .
790.0 . . .
779.0 . . .
792.0 . . .
801.0 . . .
776.0 . . .
744.0 . . .
812.0 . . .
787.0 . . .
769.0 . . .
791.0 . . .
765.0 . . .
762.0 . . .
769.0 . . .
773.0 . . .
754.0 . . .
757.0 . . .
778.0 . . .
767.0 . . .
790.0 . . .
719.0 . . .
759.0 . . .
765.0 . . .
720.0 . . .
738.0 . . .
719.0 . . .
725.0 . . .
744.0 . . .
727.0 . . .
742.0 . . .
753.0 . . .
738.0 . . .
755.0 . . .
804.0 . . .
733.0 . . .
758.0 . . .
743.0 . . .
746.0 . . .
763.0 . . .
738.0 . . .
781.0 . . .
723.0 . . .
749.0 . . .
764.0 . . .
736.0 . . .
754.0 . . .
754.0 . . .
765.0 . . .
794.0 . . .
750.0 . . .
779.0 . . .
757.0 . . .
764.0 . . .
828.0 . . .
781.0 . . .
744.0 . . .
804.0 . . .
820.0 . . .
791.0 . . .
764.0 . . .
774.0 . . .
786.0 . . .
777.0 . . .
842.0 . . .
774.0 . . .
758.0 . . .
823.0 . . .
790.0 . . .
824.0 . . .
798.0 . . .
825.0 . . .
756.0 . . .
839.0 . . .
838.0 . . .
853.0 . . .
786.0 . . .
807.0 . . .
819.0 . . .
831.0 . . .
794.0 . . .
785.0 . . .
767.0 . . .
782.0 . . .
747.0 . . .
750.0 . . .
744.0 . . .
751.0 . . .
803.0 . . .
763.0 . . .
781.0 . . .
788.0 . . .
763.0 . . .
743.0 . . .
736.0 . . .
770.0 . . .
758.0 . . .
755.0 . . .
775.0 . . .
716.0 . . .
776.0 . . .
711.0 . . .
744.0 . . .
739.0 . . .
728.0 . . .
741.0 . . .
731.0 . . .
726.0 . . .
708.0 . . .
734.0 . . .
731.0 . . .
745.0 . . .
741.0 . . .
724.0 . . .
726.0 . . .
735.0 . . .
732.0 . . .
760.0 . . .
771.0 . . .
720.0 . . .
779.0 . . .
736.0 . . .
717.0 . . .
686.0 . . .
767.0 . . .
726.0 . . .
722.0 . . .
745.0 . . .
743.0 . . .
736.0 . . .
665.0 . . .
736.0 . . .
697.0 . . .
744.0 . . .
753.0 . . .
724.0 . . .
732.0 . . .
694.0 . . .
740.0 . . .
741.0 . . .
724.0 . . .
744.0 . . .
717.0 . . .
733.0 . . .
734.0 . . .
721.0 . . .
641.0 . . .
685.0 . . .
723.0 . . .
662.0 . . .
704.0 . . .
700.0 . . .
718.0 . . .
724.0 . . .
699.0 . . .
697.0 . . .
686.0 . . .
697.0 . . .
785.0 . . .
706.0 . . .
689.0 . . .
703.0 . . .
719.0 . . .
718.0 . . .
696.0 . . .
693.0 . . .
711.0 . . .
734.0 . . .
705.0 . . .
697.0 . . .
731.0 . . .
730.0 . . .
711.0 . . .
739.0 . . .
780.0 . . .
709.0 . . .
733.0 . . .
725.0 . . .
735.0 . . .
728.0 . . .
678.0 . . .
732.0 . . .
723.0 . . .
705.0 . . .
734.0 . . .
720.0 . . .
714.0 . . .
772.0 . . .
693.0 . . .
735.0 . . .
742.0 . . .
756.0 . . .
723.0 . . .
733.0 . . .
733.0 . . .
724.0 . . .
714.0 . . .
728.0 . . .
734.0 . . .
754.0 . . .
759.0 . . .
758.0 . . .
754.0 . . .
746.0 . . .
797.0 . . .
725.0 . . .
729.0 . . .
734.0 . . .
764.0 . . .
786.0 . . .
746.0 . . .
784.0 . . .
726.0 . . .
730.0 . . .
767.0 . . .
757.0 . . .
761.0 . . .
731.0 . . .
751.0 . . .
744.0 . . .
765.0 . . .
746.0 . . .
782.0 . . .
764.0 . . .
761.0 . . .
737.0 . . .
758.0 . . .
737.0 . . .
791.0 . . .
749.0 . . .
750.0 . . .
795.0 . . .
799.0 . . .
786.0 . . .
807.0 . . .
797.0 . . .
784.0 . . .
766.0 . . .
792.0 . . .
803.0 . . .
779.0 . . .
800.0 . . .
787.0 . . .
754.0 . . .
773.0 . . .
752.0 . . .
751.0 . . .
764.0 . . .
761.0 . . .
756.0 . . .
728.0 . . .
737.0 . . .
724.0 . . .
698.0 . . .
686.0 . . .
750.0 . . .
729.0 . . .
719.0 . . .
741.0 . . .
779.0 . . .
709.0 . . .
719.0 . . .
724.0 . . .
723.0 . . .
739.0 . . .
725.0 . . .
752.0 . . .
696.0 . . .
696.0 . . .
697.0 . . .
754.0 . . .
736.0 . . .
739.0 . . .
763.0 . . .
736.0 . . .
704.0 . . .
725.0 . . .
701.0 . . .
720.0 . . .
708.0 . . .
697.0 . . .
754.0 . . .
740.0 . . .
720.0 . . .
764.0 . . .
731.0 . . .
761.0 . . .
723.0 . . .
718.0 . . .
732.0 . . .
717.0 . . .
707.0 . . .
736.0 . . .
681.0 . . .
749.0 . . .
765.0 . . .
655.0 . . .
755.0 . . .
704.0 . . .
756.0 . . .
691.0 . . .
759.0 . . .
714.0 . . .
721.0 . . .
761.0 . . .
716.0 . . .
706.0 . . .
742.0 . . .
733.0 . . .
744.0 . . .
731.0 . . .
734.0 . . .
731.0 . . .
706.0 . . .
744.0 . . .
712.0 . . .
731.0 . . .
710.0 . . .
719.0 . . .
730.0 . . .
731.0 . . .
741.0 . . .
689.0 . . .
707.0 . . .
740.0 . . .
715.0 . . .
743.0 . . .
728.0 . . .
714.0 . . .
735.0 . . .
758.0 . . .
749.0 . . .
739.0 . . .
762.0 . . .
763.0 . . .
778.0 . . .
729.0 . . .
802.0 . . .
776.0 . . .
776.0 . . .
753.0 . . .
816.0 . . .
748.0 . . .
804.0 . . .
748.0 . . .
807.0 . . .
766.0 . . .
794.0 . . .
752.0 . . .
772.0 . . .
766.0 . . .
771.0 . . .
756.0 . . .
749.0 . . .
743.0 . . .
718.0 . . .
712.0 . . .
734.0 . . .
734.0 . . .
739.0 . . .
742.0 . . .
719.0 . . .
719.0 . . .
740.0 . . .
742.0 . . .
722.0 . . .
728.0 . . .
721.0 . . .
711.0 . . .
719.0 . . .
762.0 . . .
733.0 . . .
743.0 . . .
696.0 . . .
697.0 . . .
722.0 . . .
742.0 . . .
703.0 . . .
722.0 . . .
684.0 . . .
726.0 . . .
728.0 . . .
707.0 . . .
722.0 . . .
735.0 . . .
731.0 . . .
694.0 . . .
700.0 . . .
726.0 . . .
686.0 . . .
761.0 . . .
723.0 . . .
643.0 . . .
697.0 . . .
726.0 . . .
727.0 . . .
756.0 . . .
682.0 . . .
708.0 . . .
736.0 . . .
750.0 . . .
721.0 . . .
693.0 . . .
710.0 . . .
708.0 . . .
707.0 . . .
728.0 . . .
778.0 . . .
749.0 . . .
714.0 . . .
722.0 . . .
720.0 . . .
754.0 . . .
745.0 . . .
762.0 . . .
768.0 . . .
760.0 . . .
792.0 . . .
765.0 . . .
777.0 . . .
733.0 . . .
757.0 . . .
729.0 . . .
776.0 . . .
697.0 . . .
706.0 . . .
736.0 . . .
734.0 . . .
735.0 . . .
756.0 . . .
723.0 . . .
710.0 . . .
706.0 . . .
715.0 . . .
702.0 . . .
718.0 . . .
710.0 . . .
700.0 . . .
718.0 . . .
767.0 . . .
741.0 . . .
686.0 . . .
657.0 . . .
693.0 . . .
698.0 . . .
701.0 . . .
741.0 . . .
715.0 . . .
687.0 . . .
700.0 . . .
708.0 . . .
718.0 . . .
711.0 . . .
735.0 . . .
740.0 . . .
692.0 . . .
684.0 . . .
779.0 . . .
734.0 . . .
726.0 . . .
722.0 . . .
755.0 . . .
752.0 . . .
692.0 . . .
743.0 . . .
747.0 . . .
749.0 . . .
719.0 . . .
745.0 . . .
738.0 . . .
748.0 . . .
751.0 . . .
763.0 . . .
799.0 . . .
830.0 . . .
799.0 . . .
761.0 . . .
718.0 . . .
733.0 . . .
719.0 . . .
717.0 . . .
720.0 . . .
757.0 . . .
744.0 . . .
723.0 . . .
761.0 . . .
769.0 . . .
736.0 . . .
719.0 . . .
765.0 . . .
778.0 . . .
747.0 . . .
766.0 . . .
836.0 . . .
780.0 . . .
735.0 . . .
742.0 . . .
742.0 . . .
758.0 . . .
781.0 . . .
778.0 . . .
732.0 . . .
737.0 . . .
751.0 . . .
740.0 . . .
757.0 . . .
793.0 . . .
816.0 . . .
794.0 . . .
735.0 . . .
810.0 . . .
799.0 . . .
767.0 . . .
740.0 . . .
838.0 . . .
762.0 . . .
763.0 . . .
766.0 . . .
738.0 . . .
769.0 . . .
787.0 . . .
732.0 . . .
797.0 . . .
778.0 . . .
750.0 . . .
777.0 . . .
760.0 . . .
721.0 . . .
780.0 . . .
747.0 . . .
743.0 . . .
741.0 . . .
778.0 . . .
804.0 . . .
716.0 . . .
783.0 . . .
763.0 . . .
778.0 . . .
766.0 . . .
750.0 . . .
761.0 . . .
738.0 . . .
771.0 . . .
745.0 . . .
774.0 . . .
719.0 . . .
743.0 . . .
677.0 . . .
732.0 . . .
730.0 . . .
760.0 . . .
753.0 . . .
751.0 . . .
729.0 . . .
684.0 . . .
744.0 . . .
746.0 . . .
708.0 . . .
737.0 . . .
726.0 . . .
702.0 . . .
704.0 . . .
712.0 . . .
697.0 . . .
734.0 . . .
708.0 . . .
716.0 . . .
710.0 . . .
714.0 . . .
711.0 . . .
712.0 . . .
687.0 . . .
715.0 . . .
730.0 . . .
749.0 . . .
730.0 . . .
750.0 . . .
704.0 . . .
689.0 . . .
693.0 . . .
717.0 . . .
672.0 . . .
729.0 . . .
726.0 . . .
699.0 . . .
698.0 . . .
679.0 . . .
692.0 . . .
688.0 . . .
759.0 . . .
692.0 . . .
725.0 . . .
762.0 . . .
724.0 . . .
714.0 . . .
742.0 . . .
723.0 . . .
731.0 . . .
801.0 . . .
749.0 . . .
761.0 . . .
764.0 . . .
768.0 . . .
739.0 . . .
725.0 . . .
740.0 . . .
721.0 . . .
751.0 . . .
766.0 . . .
714.0 . . .
699.0 . . .
771.0 . . .
733.0 . . .
735.0 . . .
740.0 . . .
743.0 . . .
763.0 . . .
751.0 . . .
777.0 . . .
705.0 . . .
711.0 . . .
747.0 . . .
717.0 . . .
715.0 . . .
687.0 . . .
724.0 . . .
715.0 . . .
657.0 . . .
706.0 . . .
703.0 . . .
723.0 . . .
710.0 . . .
712.0 . . .
746.0 . . .
670.0 . . .
747.0 . . .
676.0 . . .
683.0 . . .
678.0 . . .
784.0 . . .
747.0 . . .
725.0 . . .
718.0 . . .
732.0 . . .
742.0 . . .
733.0 . . .
731.0 . . .
726.0 . . .
771.0 . . .
738.0 . . .
691.0 . . .
732.0 . . .
695.0 . . .
736.0 . . .
741.0 . . .
754.0 . . .
709.0 . . .
765.0 . . .
738.0 . . .
678.0 . . .
701.0 . . .
720.0 . . .
758.0 . . .
711.0 . . .
745.0 . . .
706.0 . . .
766.0 . . .
698.0 . . .
688.0 . . .
692.0 . . .
715.0 . . .
735.0 . . .
748.0 . . .
751.0 . . .
715.0 . . .
696.0 . . .
726.0 . . .
784.0 . . .
703.0 . . .
745.0 . . .
736.0 . . .
684.0 . . .
742.0 . . .
671.0 . . .
679.0 . . .
703.0 . . .
736.0 . . .
734.0 . . .
753.0 . . .
713.0 . . .
716.0 . . .
683.0 . . .
718.0 . . .
697.0 . . .
737.0 . . .
718.0 . . .
699.0 . . .
712.0 . . .
744.0 . . .
712.0 . . .
737.0 . . .
702.0 . . .
721.0 . . .
680.0 . . .
687.0 . . .
709.0 . . .
671.0 . . .
656.0 . . .
668.0 . . .
710.0 . . .
715.0 . . .
692.0 . . .
709.0 . . .
674.0 . . .
683.0 . . .
725.0 . . .
740.0 . . .
689.0 . . .
735.0 . . .
718.0 . . .
723.0 . . .
690.0 . . .
672.0 . . .
690.0 . . .
719.0 . . .
703.0 . . .
727.0 . . .
724.0 . . .
670.0 . . .
711.0 . . .
721.0 . . .
723.0 . . .
700.0 . . .
705.0 . . .
718.0 . . .
729.0 . . .
714.0 . . .
698.0 . . .
703.0 . . .
726.0 . . .
711.0 . . .
745.0 . . .
746.0 . . .
714.0 . . .
768.0 . . .
688.0 . . .
695.0 . . .
734.0 . . .
757.0 . . .
738.0 . . .
727.0 . . .
776.0 . . .
709.0 . . .
723.0 . . .
708.0 . . .
690.0 . . .
673.0 . . .
723.0 . . .
713.0 . . .
712.0 . . .
698.0 . . .
759.0 . . .
726.0 . . .
723.0 . . .
723.0 . . .
695.0 . . .
714.0 . . .
722.0 . . .
695.0 . . .
683.0 . . .
697.0 . . .
698.0 . . .
720.0 . . .
668.0 . . .
699.0 . . .
717.0 . . .
719.0 . . .
695.0 . . .
724.0 . . .
729.0 . . .
732.0 . . .
693.0 . . .
731.0 . . .
694.0 . . .
696.0 . . .
721.0 . . .
714.0 . . .
705.0 . . .
694.0 . . .
704.0 . . .
717.0 . . .
676.0 . . .
678.0 . . .
703.0 . . .
671.0 . . .
697.0 . . .
651.0 . . .
702.0 . . .
741.0 . . .
681.0 . . .
706.0 . . .
711.0 . . .
702.0 . . .
689.0 . . .
663.0 . . .
684.0 . . .
743.0 . . .
694.0 . . .
694.0 . . .
719.0 . . .
715.0 . . .
690.0 . . .
663.0 . . .
669.0 . . .
704.0 . . .
748.0 . . .
669.0 . . .
673.0 . . .
698.0 . . .
704.0 . . .
725.0 . . .
682.0 . . .
712.0 . . .
692.0 . . .
690.0 . . .
719.0 . . .
742.0 . . .
715.0 . . .
758.0 . . .
686.0 . . .
715.0 . . .
715.0 . . .
719.0 . . .
688.0 . . .
722.0 . . .
751.0 . . .
689.0 . . .
692.0 . . .
727.0 . . .
738.0 . . .
719.0 . . .
732.0 . . .
674.0 . . .
688.0 . . .
736.0 . . .
723.0 . . .
726.0 . . .
728.0 . . .
689.0 . . .
691.0 . . .
696.0 . . .
711.0 . . .
697.0 . . .
722.0 . . .
685.0 . . .
729.0 . . .
738.0 . . .
698.0 . . .
675.0 . . .
724.0 . . .
677.0 . . .
629.0 . . .
651.0 . . .
678.0 . . .
653.0 . . .
716.0 . . .
662.0 . . .
680.0 . . .
704.0 . . .
687.0 . . .
694.0 . . .
713.0 . . .
682.0 . . .
696.0 . . .
675.0 . . .
704.0 . . .
703.0 . . .
700.0 . . .
692.0 . . .
669.0 . . .
676.0 . . .
692.0 . . .
674.0 . . .
662.0 . . .
727.0 . . .
647.0 . . .
682.0 . . .
640.0 . . .
692.0 . . .
756.0 . . .
683.0 . . .
648.0 . . .
642.0 . . .
683.0 . . .
719.0 . . .
689.0 . . .
695.0 . . .
675.0 . . .
723.0 . . .
693.0 . . .
693.0 . . .
685.0 . . .
692.0 . . .
668.0 . . .
681.0 . . .
684.0 . . .
695.0 . . .
727.0 . . .
674.0 . . .
704.0 . . .
672.0 . . .
699.0 . . .
698.0 . . .
652.0 . . .
695.0 . . .
654.0 . . .
730.0 . . .
654.0 . . .
652.0 . . .
682.0 . . .
703.0 . . .
673.0 . . .
675.0 . . .
660.0 . . .
676.0 . . .
653.0 . . .
678.0 . . .
673.0 . . .
672.0 . . .
701.0 . . .
661.0 . . .
637.0 . . .
706.0 . . .
699.0 . . .
674.0 . . .
741.0 . . .
659.0 . . .
634.0 . . .
687.0 . . .
671.0 . . .
695.0 . . .
686.0 . . .
700.0 . . .
698.0 . . .
656.0 . . .
658.0 . . .
674.0 . . .
632.0 . . .
705.0 . . .
711.0 . . .
678.0 . . .
670.0 . . .
669.0 . . .
696.0 . . .
687.0 . . .
655.0 . . .
692.0 . . .
657.0 . . .
721.0 . . .
655.0 . . .
668.0 . . .
728.0 . . .
696.0 . . .
721.0 . . .
708.0 . . .
751.0 . . .
715.0 . . .
664.0 . . .
714.0 . . .
675.0 . . .
745.0 . . .
752.0 . . .
701.0 . . .
662.0 . . .
666.0 . . .
683.0 . . .
650.0 . . .
717.0 . . .
679.0 . . .
703.0 . . .
709.0 . . .
688.0 . . .
730.0 . . .
711.0 . . .
705.0 . . .
715.0 . . .
655.0 . . .
719.0 . . .
715.0 . . .
702.0 . . .
737.0 . . .
709.0 . . .
686.0 . . .
691.0 . . .
698.0 . . .
690.0 . . .
725.0 . . .
707.0 . . .
696.0 . . .
713.0 . . .
680.0 . . .
694.0 . . .
680.0 . . .
703.0 . . .
716.0 . . .
730.0 . . .
758.0 . . .
732.0 . . .
703.0 . . .
683.0 . . .
703.0 . . .
687.0 . . .
671.0 . . .
687.0 . . .
734.0 . . .
715.0 . . .
686.0 . . .
707.0 . . .
707.0 . . .
710.0 . . .
704.0 . . .
737.0 . . .
716.0 . . .
740.0 . . .
705.0 . . .
696.0 . . .
693.0 . . .
750.0 . . .
719.0 . . .
761.0 . . .
699.0 . . .
770.0 . . .
732.0 . . .
789.0 . . .
768.0 . . .
761.0 . . .
750.0 . . .
723.0 . . .
720.0 . . .
716.0 . . .
723.0 . . .
772.0 . . .
756.0 . . .
737.0 . . .
788.0 . . .
706.0 . . .
762.0 . . .
750.0 . . .
719.0 . . .
714.0 . . .
777.0 . . .
720.0 . . .
710.0 . . .
772.0 . . .
747.0 . . .
714.0 . . .
735.0 . . .
781.0 . . .
740.0 . . .
748.0 . . .
712.0 . . .
750.0 . . .
748.0 . . .
709.0 . . .
746.0 . . .
710.0 . . .
717.0 . . .
746.0 . . .
733.0 . . .
777.0 . . .
783.0 . . .
740.0 . . .
749.0 . . .
746.0 . . .
761.0 . . .
734.0 . . .
690.0 . . .
710.0 . . .
707.0 . . .
706.0 . . .
677.0 . . .
763.0 . . .
724.0 . . .
706.0 . . .
754.0 . . .
695.0 . . .
754.0 . . .
700.0 . . .
683.0 . . .
730.0 . . .
741.0 . . .
761.0 . . .
715.0 . . .
710.0 . . .
732.0 . . .
685.0 . . .
740.0 . . .
740.0 . . .
725.0 . . .
717.0 . . .
718.0 . . .
773.0 . . .
734.0 . . .
742.0 . . .
722.0 . . .
699.0 . . .
701.0 . . .
700.0 . . .
712.0 . . .
737.0 . . .
774.0 . . .
670.0 . . .
679.0 . . .
729.0 . . .
727.0 . . .
732.0 . . .
739.0 . . .
688.0 . . .
691.0 . . .
700.0 . . .
704.0 . . .
691.0 . . .
704.0 . . .
717.0 . . .
713.0 . . .
694.0 . . .
712.0 . . .
663.0 . . .
651.0 . . .
737.0 . . .
647.0 . . .
703.0 . . .
690.0 . . .
710.0 . . .
730.0 . . .
705.0 . . .
719.0 . . .
712.0 . . .
704.0 . . .
737.0 . . .
709.0 . . .
673.0 . . .
714.0 . . .
661.0 . . .
628.0 . . .
697.0 . . .
707.0 . . .
655.0 . . .
710.0 . . .
663.0 . . .
622.0 . . .
662.0 . . .
642.0 . . .
745.0 . . .
685.0 . . .
660.0 . . .
693.0 . . .
662.0 . . .
676.0 . . .
644.0 . . .
678.0 . . .
721.0 . . .
678.0 . . .
734.0 . . .
692.0 . . .
694.0 . . .
695.0 . . .
682.0 . . .
720.0 . . .
698.0 . . .
loop_
_refln_index_h
_refln_index_k
_refln_index_l
_pd_refln_wavelength_id
_refln_observed_status
_refln_F_squared_meas
_refln_F_squared_calc
_refln_phase_calc
_refln_d_spacing
_gsas_i100_meas
1 0 0 2 o 196.766 191.475 180.00 10.66619 22.87
1 0 0 1 o 196.766 191.475 180.00 10.66619 22.87
0 1 0 1 o 178.353 168.025 180.00 11.09226 16.06
0 1 0 2 o 178.353 168.025 180.00 11.09226 16.06
1 -1 0 2 o 112.921 90.118 0.00 9.45588 9.55
1 -1 0 1 o 112.921 90.118 0.00 9.45588 9.55
1 1 0 1 o 6.774 4.035 180.00 6.64443 0.26
1 1 0 2 o 6.774 4.035 180.00 6.64443 0.26
1 -2 0 2 o 1878.794 1929.583 180.00 5.78962 49.62
1 -2 0 1 o 1878.794 1929.583 180.00 5.78962 49.62
2 -1 0 1 o 898.644 945.668 180.00 5.60595 29.36
2 -1 0 2 o 898.644 945.668 180.00 5.60595 29.36
0 2 0 2 o 1420.850 1484.740 180.00 5.54613 31.57
0 2 0 1 o 1420.850 1484.740 180.00 5.54613 31.57
2 0 0 2 o 68.096 83.558 180.00 5.33309 1.96
2 0 0 1 o 68.096 83.558 180.00 5.33309 1.96
2 -2 0 2 o 183.959 239.733 180.00 4.72794 3.83
2 -2 0 1 o 183.959 239.733 180.00 4.72794 3.83
1 2 0 1 o 202.852 199.353 0.00 4.35331 2.88
1 2 0 2 o 202.852 199.353 0.00 4.35331 2.88
2 1 0 2 o 281.453 290.375 0.00 4.27359 4.47
2 1 0 1 o 281.453 290.375 0.00 4.27359 4.47
1 -3 0 1 o 149.803 116.024 0.00 3.93026 1.70
1 -3 0 2 o 149.803 116.024 0.00 3.93026 1.70
0 0 1 1 o 627.076 619.467 180.00 3.73741 8.84
0 0 1 2 o 627.076 619.467 180.00 3.73741 8.84
0 1 -1 1 o 1096.874 1092.820 0.00 3.71835 15.23
0 1 -1 2 o 1096.874 1092.820 0.00 3.71835 15.23
1 0 -1 1 o 324.438 317.394 0.00 3.70182 4.59
1 0 -1 2 o 324.438 317.394 0.00 3.70182 4.59
3 -1 0 2 o 81.506 78.985 0.00 3.77867 1.20
3 -1 0 1 o 81.506 78.985 0.00 3.77867 1.20
0 3 0 2 o 281.424 274.498 180.00 3.69742 2.71
0 3 0 1 o 281.424 274.498 180.00 3.69742 2.71
2 -3 0 2 o 108.973 122.205 0.00 3.67839 1.20
2 -3 0 1 o 108.973 122.205 0.00 3.67839 1.20
3 -2 0 2 o 237.029 238.706 0.00 3.59865 3.02
3 -2 0 1 o 237.029 238.706 0.00 3.59865 3.02
1 -1 1 2 o 366.244 349.041 0.00 3.47545 4.50
1 -1 1 1 o 366.244 349.041 0.00 3.47545 4.50
1 1 -1 2 o 1676.840 1616.438 180.00 3.54789 20.71
1 1 -1 1 o 1676.840 1616.438 180.00 3.54789 20.71
3 0 0 1 o 266.888 260.524 180.00 3.55540 3.29
3 0 0 2 o 266.888 260.524 180.00 3.55540 3.29
1 -1 -1 1 o 1353.667 1295.395 180.00 3.47608 15.77
1 -1 -1 2 o 1353.667 1295.395 180.00 3.47608 15.77
0 1 1 1 o 166.632 165.646 180.00 3.38818 1.80
0 1 1 2 o 166.632 165.646 180.00 3.38818 1.80
1 0 1 2 o 32.358 30.464 180.00 3.37508 0.36
1 0 1 1 o 32.358 30.464 180.00 3.37508 0.36
0 2 -1 2 o 1512.436 1483.877 0.00 3.34603 15.63
0 2 -1 1 o 1512.436 1483.877 0.00 3.34603 15.63
2 0 -1 2 o 7214.608 7156.550 180.00 3.29803 79.03
2 0 -1 1 o 7214.608 7156.550 180.00 3.29803 79.03
1 -2 1 1 o 579.347 581.465 180.00 3.26082 5.91
1 -2 1 2 o 579.347 581.465 180.00 3.26082 5.91
2 2 0 1 o 41.501 45.228 180.00 3.32222 0.36
2 2 0 2 o 41.501 45.228 180.00 3.32222 0.36
2 -1 -1 1 o 9718.304 9580.362 0.00 3.22766 100.00
2 -1 -1 2 o 9718.304 9580.362 0.00 3.22766 100.00
1 3 0 2 o 396.285 389.999 0.00 3.17599 2.83
1 3 0 1 o 396.285 389.999 0.00 3.17599 2.83
1 2 -1 2 o 2607.204 2533.554 0.00 3.12854 22.70
1 2 -1 1 o 2607.204 2533.554 0.00 3.12854 22.70
3 -3 0 2 o 467.186 487.962 180.00 3.15196 4.09
3 -3 0 1 o 467.186 487.962 180.00 3.15196 4.09
2 1 -1 2 o 5736.366 5726.848 180.00 3.09878 52.44
2 1 -1 1 o 5736.366 5726.848 180.00 3.09878 52.44
1 -2 -1 2 o 1069.695 1043.704 180.00 3.03169 8.60
1 -2 -1 1 o 1069.695 1043.704 180.00 3.03169 8.60
1 1 1 1 o 394.087 374.959 180.00 3.02836 3.27
1 1 1 2 o 394.087 374.959 180.00 3.02836 3.27
3 1 0 2 o 592.728 593.885 0.00 3.09438 4.99
3 1 0 1 o 592.728 593.885 0.00 3.09438 4.99
2 -1 1 2 o 319.757 234.760 0.00 3.00377 2.88
2 -1 1 1 o 319.757 234.760 0.00 3.00377 2.88
2 -2 1 2 o 347.594 295.517 0.00 2.93160 2.89
2 -2 1 1 o 347.594 295.517 0.00 2.93160 2.89
2 -2 -1 2 o 91.199 77.539 0.00 2.93235 0.72
2 -2 -1 1 o 91.199 77.539 0.00 2.93235 0.72
0 2 1 2 o 426.837 397.883 0.00 2.90027 3.02
0 2 1 1 o 426.837 397.883 0.00 2.90027 3.02
2 0 1 2 o 741.329 691.888 180.00 2.86813 5.82
2 0 1 1 o 741.329 691.888 180.00 2.86813 5.82
1 -4 0 2 o 1372.882 1168.826 180.00 2.93741 8.23
1 -4 0 1 o 1372.882 1168.826 180.00 2.93741 8.23
1 -3 1 2 o 150.553 140.751 180.00 2.86816 1.08
1 -3 1 1 o 150.553 140.751 180.00 2.86816 1.08
0 3 -1 1 o 296.674 290.009 0.00 2.85639 2.02
0 3 -1 2 o 296.674 290.009 0.00 2.85639 2.02
2 -4 0 1 o 96.489 88.481 0.00 2.89481 0.60
2 -4 0 2 o 96.489 88.481 0.00 2.89481 0.60
3 -1 -1 1 o 1.274 1.294 0.00 2.80829 0.01
3 -1 -1 2 o 1.274 1.294 0.00 2.80829 0.01
4 -1 0 1 o 416.127 427.605 180.00 2.81907 3.25
4 -1 0 2 o 416.127 427.605 180.00 2.81907 3.25
3 0 -1 2 o 7.158 4.935 180.00 2.78986 0.06
3 0 -1 1 o 7.158 4.935 180.00 2.78986 0.06
4 -2 0 1 o 240.899 253.531 180.00 2.80297 1.84
4 -2 0 2 o 240.899 253.531 180.00 2.80297 1.84
0 4 0 2 o 58.914 67.222 180.00 2.77307 0.30
0 4 0 1 o 58.914 67.222 180.00 2.77307 0.30
2 2 -1 1 o 2.807 2.043 180.00 2.74619 0.02
2 2 -1 2 o 2.807 2.043 180.00 2.74619 0.02
2 -3 1 2 o 1.497 2.208 0.00 2.69058 0.01
2 -3 1 1 o 1.497 2.208 0.00 2.69058 0.01
3 -2 -1 1 o 173.382 169.518 0.00 2.65960 1.14
3 -2 -1 2 o 173.382 169.518 0.00 2.65960 1.14
3 -4 0 2 o 158.298 159.454 180.00 2.66929 0.91
3 -4 0 1 o 158.298 159.454 180.00 2.66929 0.91
4 0 0 1 o 59.985 60.265 0.00 2.66655 0.40
4 0 0 2 o 59.985 60.265 0.00 2.66655 0.40
1 3 -1 1 o 73.507 72.518 180.00 2.66172 0.42
1 3 -1 2 o 73.507 72.518 180.00 2.66172 0.42
1 2 1 1 o 109.856 121.499 0.00 2.61223 0.62
1 2 1 2 o 109.856 121.499 0.00 2.61223 0.62
2 1 1 2 o 291.851 314.907 0.00 2.59457 1.73
2 1 1 1 o 291.851 314.907 0.00 2.59457 1.73
2 3 0 2 o 18.671 23.187 180.00 2.64713 0.09
2 3 0 1 o 18.671 23.187 180.00 2.64713 0.09
4 -3 0 2 o 2.344 3.550 0.00 2.62627 0.01
4 -3 0 1 o 2.344 3.550 0.00 2.62627 0.01
3 2 0 1 o 1.633 1.797 0.00 2.61695 0.01
3 2 0 2 o 1.633 1.797 0.00 2.61695 0.01
1 -3 -1 2 o 261.926 271.984 180.00 2.57260 1.37
1 -3 -1 1 o 261.926 271.984 180.00 2.57260 1.37
3 1 -1 1 o 101.234 111.473 0.00 2.61340 0.64
3 1 -1 2 o 101.234 111.473 0.00 2.61340 0.64
2 -3 -1 1 o 27.740 37.282 0.00 2.55773 0.15
2 -3 -1 2 o 27.740 37.282 0.00 2.55773 0.15
3 -2 1 1 o 425.009 475.040 0.00 2.52986 2.64
3 -2 1 2 o 425.009 475.040 0.00 2.52986 2.64
3 -1 1 1 o 96.762 112.206 0.00 2.52817 0.60
3 -1 1 2 o 96.762 112.206 0.00 2.52817 0.60
1 4 0 2 o 657.753 778.843 0.00 2.48633 2.75
1 4 0 1 o 657.753 778.843 0.00 2.48633 2.75
0 3 1 1 o -0.609 41.023 180.00 2.44768 0.00
0 3 1 2 o -0.609 41.023 180.00 2.44768 0.00
1 -4 1 1 o 0.033 0.303 0.00 2.45938 0.00
1 -4 1 2 o 0.033 0.303 0.00 2.45938 0.00
3 -3 -1 1 o 161.020 197.796 0.00 2.40980 0.80
3 -3 -1 2 o 161.020 197.796 0.00 2.40980 0.80
3 -3 1 2 o 134.961 167.353 0.00 2.40917 0.72
3 -3 1 1 o 134.961 167.353 0.00 2.40917 0.72
3 0 1 1 o 551.864 663.131 180.00 2.40480 2.93
3 0 1 2 o 551.864 663.131 180.00 2.40480 2.93
0 4 -1 1 o 15.527 19.419 0.00 2.41075 0.07
0 4 -1 2 o 15.527 19.419 0.00 2.41075 0.07
2 -4 1 1 o 0.302 0.583 0.00 2.38250 0.00
2 -4 1 2 o 0.302 0.583 0.00 2.38250 0.00
4 1 0 1 o 262.035 348.611 0.00 2.41333 1.31
4 1 0 2 o 262.035 348.611 0.00 2.41333 1.31
4 -1 -1 2 o 0.158 0.441 180.00 2.38917 0.00
4 -1 -1 1 o 0.158 0.441 180.00 2.38917 0.00
2 3 -1 2 o 51.782 67.864 0.00 2.37483 0.23
2 3 -1 1 o 51.782 67.864 0.00 2.37483 0.23
3 2 -1 1 o 89.513 87.965 0.00 2.35305 0.42
3 2 -1 2 o 89.513 87.965 0.00 2.35305 0.42
4 -2 -1 1 o 0.407 0.429 0.00 2.33108 0.00
4 -2 -1 2 o 0.407 0.429 0.00 2.33108 0.00
4 -4 0 2 o 0.020 0.050 0.00 2.36397 0.00
4 -4 0 1 o 0.020 0.050 0.00 2.36397 0.00
4 0 -1 2 o 0.630 0.551 180.00 2.34017 0.00
4 0 -1 1 o 0.630 0.551 180.00 2.34017 0.00
2 -5 0 1 o 1379.775 1178.315 0.00 2.35041 5.28
2 -5 0 2 o 1379.775 1178.315 0.00 2.35041 5.28
1 -5 0 1 o 505.241 439.607 180.00 2.33564 1.82
1 -5 0 2 o 505.241 439.607 180.00 2.33564 1.82
2 2 1 1 o 816.293 763.608 0.00 2.28342 3.39
2 2 1 2 o 816.293 763.608 0.00 2.28342 3.39
1 3 1 1 o 4.422 4.357 180.00 2.23434 0.02
1 3 1 2 o 4.422 4.357 180.00 2.23434 0.02
1 4 -1 1 o 0.232 0.164 180.00 2.25657 0.00
1 4 -1 2 o 0.232 0.164 180.00 2.25657 0.00
5 -2 0 1 o 0.001 0.001 180.00 2.26501 0.00
5 -2 0 2 o 0.001 0.001 180.00 2.26501 0.00
3 -5 0 2 o 23.163 16.266 180.00 2.25707 0.09
3 -5 0 1 o 23.163 16.266 180.00 2.25707 0.09
3 1 1 1 o 236.612 228.057 0.00 2.20520 0.97
3 1 1 2 o 236.612 228.057 0.00 2.20520 0.97
3 -4 1 2 o 1785.365 1552.934 180.00 2.21083 7.40
3 -4 1 1 o 1785.365 1552.934 180.00 2.21083 7.40
5 -1 0 1 o 454.258 498.322 180.00 2.24052 2.15
5 -1 0 2 o 454.258 498.322 180.00 2.24052 2.15
2 -4 -1 2 o 0.092 0.090 0.00 2.20499 0.00
2 -4 -1 1 o 0.092 0.090 0.00 2.20499 0.00
0 5 0 1 o 65.553 68.337 0.00 2.21845 0.21
0 5 0 2 o 65.553 68.337 0.00 2.21845 0.21
4 -3 -1 2 o 166.758 153.246 180.00 2.18674 0.70
4 -3 -1 1 o 166.758 153.246 180.00 2.18674 0.70
4 1 -1 1 o 0.418 0.465 0.00 2.20181 0.00
4 1 -1 2 o 0.418 0.465 0.00 2.20181 0.00
3 3 0 1 o 114.884 105.118 0.00 2.21481 0.41
3 3 0 2 o 114.884 105.118 0.00 2.21481 0.41
1 -4 -1 1 o 38.982 33.858 0.00 2.18401 0.14
1 -4 -1 2 o 38.982 33.858 0.00 2.18401 0.14
4 -2 1 1 o 4.492 2.737 0.00 2.16313 0.02
4 -2 1 2 o 4.492 2.737 0.00 2.16313 0.02
5 -3 0 2 o 322.286 389.393 0.00 2.19850 1.44
5 -3 0 1 o 322.286 389.393 0.00 2.19850 1.44
4 -1 1 1 o 718.085 763.513 180.00 2.13367 3.03
4 -1 1 2 o 718.085 763.513 180.00 2.13367 3.03
2 4 0 2 o 22.644 17.665 0.00 2.17665 0.07
2 4 0 1 o 22.644 17.665 0.00 2.17665 0.07
3 -4 -1 2 o 244.951 263.224 0.00 2.13548 0.88
3 -4 -1 1 o 244.951 263.224 0.00 2.13548 0.88
4 -3 1 2 o 4.565 3.118 180.00 2.11276 0.02
4 -3 1 1 o 4.565 3.118 180.00 2.11276 0.02
5 0 0 1 o 348.966 378.956 0.00 2.13324 1.41
5 0 0 2 o 348.966 378.956 0.00 2.13324 1.41
4 2 0 2 o 1758.785 1924.795 180.00 2.13679 6.29
4 2 0 1 o 1758.785 1924.795 180.00 2.13679 6.29
1 -5 1 2 o 583.820 400.861 0.00 2.10654 1.87
1 -5 1 1 o 583.820 400.861 0.00 2.10654 1.87
0 4 1 1 o 63.194 39.775 0.00 2.07974 0.19
0 4 1 2 o 63.194 39.775 0.00 2.07974 0.19
2 -5 1 2 o 20.523 13.085 0.00 2.08306 0.07
2 -5 1 1 o 20.523 13.085 0.00 2.08306 0.07
3 3 -1 1 o 38.634 24.367 0.00 2.08038 0.13
3 3 -1 2 o 38.634 24.367 0.00 2.08038 0.13
4 -5 0 2 o 81.575 48.556 180.00 2.08897 0.27
4 -5 0 1 o 81.575 48.556 180.00 2.08897 0.27
5 -4 0 2 o 1793.144 1721.754 0.00 2.06232 6.55
5 -4 0 1 o 1793.144 1721.754 0.00 2.06232 6.55
4 0 1 1 o 37.760 35.584 180.00 2.03340 0.14
4 0 1 2 o 37.760 35.584 180.00 2.03340 0.14
0 5 -1 1 o 314.285 241.370 180.00 2.05057 0.92
0 5 -1 2 o 314.285 241.370 180.00 2.05057 0.92
5 -1 -1 2 o 89.730 81.234 180.00 2.03634 0.34
5 -1 -1 1 o 89.730 81.234 180.00 2.03634 0.34
2 4 -1 2 o 244.379 191.544 0.00 2.04860 0.74
2 4 -1 1 o 244.379 191.544 0.00 2.04860 0.74
1 5 0 2 o 691.143 599.842 180.00 2.03850 1.83
1 5 0 1 o 691.143 599.842 180.00 2.03850 1.83
5 -2 -1 1 o 234.691 216.053 0.00 2.02335 0.87
5 -2 -1 2 o 234.691 216.053 0.00 2.02335 0.87
4 -4 1 1 o 125.849 80.185 0.00 1.99763 0.43
4 -4 1 2 o 125.849 80.185 0.00 1.99763 0.43
2 3 1 1 o 384.695 257.462 180.00 1.99487 1.12
2 3 1 2 o 384.695 257.462 180.00 1.99487 1.12
4 2 -1 2 o 37.430 22.899 180.00 2.01539 0.12
4 2 -1 1 o 37.430 22.899 180.00 2.01539 0.12
4 -4 -1 1 o 96.093 61.090 180.00 1.99810 0.31
4 -4 -1 2 o 96.093 61.090 180.00 1.99810 0.31
3 2 1 2 o 19.540 16.334 180.00 1.98180 0.06
3 2 1 1 o 19.540 16.334 180.00 1.98180 0.06
3 -5 1 2 o 418.329 332.134 180.00 1.98752 1.29
3 -5 1 1 o 418.329 332.134 180.00 1.98752 1.29
5 0 -1 2 o 113.880 99.860 0.00 1.98300 0.40
5 0 -1 1 o 113.880 99.860 0.00 1.98300 0.40
5 1 0 2 o 54.283 32.735 180.00 1.97434 0.17
5 1 0 1 o 54.283 32.735 180.00 1.97434 0.17
2 -6 0 2 o 22.914 10.282 0.00 1.96513 0.06
2 -6 0 1 o 22.914 10.282 0.00 1.96513 0.06
5 -3 -1 2 o 240.481 241.678 0.00 1.94763 0.80
5 -3 -1 1 o 240.481 241.678 0.00 1.94763 0.80
1 4 1 2 o 228.144 261.134 0.00 1.92333 0.58
1 4 1 1 o 228.144 261.134 0.00 1.92333 0.58
1 -6 0 1 o 251.726 215.002 0.00 1.93535 0.58
1 -6 0 2 o 251.726 215.002 0.00 1.93535 0.58
1 5 -1 2 o 825.699 723.072 0.00 1.93213 2.09
1 5 -1 1 o 825.699 723.072 0.00 1.93213 2.09
2 -5 -1 1 o 1.133 1.173 0.00 1.90779 0.00
2 -5 -1 2 o 1.133 1.173 0.00 1.90779 0.00
3 -6 0 1 o 283.233 256.993 0.00 1.92987 0.72
3 -6 0 2 o 283.233 256.993 0.00 1.92987 0.72
1 1 -2 1 o 165.587 214.781 180.00 1.89179 0.54
1 1 -2 2 o 165.587 214.781 180.00 1.89179 0.54
0 1 -2 1 o 13.984 17.722 0.00 1.89081 0.04
0 1 -2 2 o 13.984 17.722 0.00 1.89081 0.04
1 0 -2 1 o 91.328 110.898 0.00 1.88867 0.30
1 0 -2 2 o 91.328 110.898 0.00 1.88867 0.30
4 1 1 1 o 237.974 290.380 180.00 1.88879 0.69
4 1 1 2 o 237.974 290.380 180.00 1.88879 0.69
0 0 2 2 o 171.770 190.724 0.00 1.86871 0.54
0 0 2 1 o 171.770 190.724 0.00 1.86871 0.54
3 -5 -1 1 o 71.703 70.999 180.00 1.88102 0.18
3 -5 -1 2 o 71.703 70.999 180.00 1.88102 0.18
1 -5 -1 2 o 881.031 872.965 0.00 1.87497 2.08
1 -5 -1 1 o 881.031 872.965 0.00 1.87497 2.08
3 4 0 1 o 44.437 59.420 180.00 1.89678 0.11
3 4 0 2 o 44.437 59.420 180.00 1.89678 0.11
0 2 -2 2 o 210.633 210.625 180.00 1.85917 0.64
0 2 -2 1 o 210.633 210.625 180.00 1.85917 0.64
5 -5 0 2 o 176.211 233.980 180.00 1.89118 0.51
5 -5 0 1 o 176.211 233.980 180.00 1.89118 0.51
6 -2 0 2 o 207.629 262.182 180.00 1.88934 0.68
6 -2 0 1 o 207.629 262.182 180.00 1.88934 0.68
5 1 -1 2 o 6.434 6.167 0.00 1.87743 0.02
5 1 -1 1 o 6.434 6.167 0.00 1.87743 0.02
2 0 -2 2 o 624.859 674.266 0.00 1.85091 1.91
2 0 -2 1 o 624.859 674.266 0.00 1.85091 1.91
5 -2 1 1 o 0.020 0.020 0.00 1.86093 0.00
5 -2 1 2 o 0.020 0.020 0.00 1.86093 0.00
4 3 0 2 o 142.676 140.524 180.00 1.88115 0.36
4 3 0 1 o 142.676 140.524 180.00 1.88115 0.36
1 2 -2 2 o 97.054 110.380 180.00 1.84193 0.29
1 2 -2 1 o 97.054 110.380 180.00 1.84193 0.29
2 1 -2 2 o 0.054 0.058 180.00 1.83584 0.00
2 1 -2 1 o 0.054 0.058 180.00 1.83584 0.00
6 -3 0 1 o 2.002 2.318 180.00 1.86865 0.01
6 -3 0 2 o 2.002 2.318 180.00 1.86865 0.01
5 -3 1 1 o 120.905 124.504 180.00 1.84635 0.37
5 -3 1 2 o 120.905 124.504 180.00 1.84635 0.37
4 -5 1 1 o 175.687 180.956 180.00 1.84611 0.48
4 -5 1 2 o 175.687 180.956 180.00 1.84611 0.48
1 -1 -2 1 o 19.342 19.906 180.00 1.83334 0.06
1 -1 -2 2 o 19.342 19.906 180.00 1.83334 0.06
1 -1 2 2 o 101.444 104.015 0.00 1.83316 0.31
1 -1 2 1 o 101.444 104.015 0.00 1.83316 0.31
6 -1 0 2 o 31.321 33.128 0.00 1.85644 0.09
6 -1 0 1 o 31.321 33.128 0.00 1.85644 0.09
1 -2 2 2 o 117.009 117.827 180.00 1.82136 0.35
1 -2 2 1 o 117.009 117.827 180.00 1.82136 0.35
5 -4 -1 1 o 0.028 0.025 0.00 1.82805 0.00
5 -4 -1 2 o 0.028 0.025 0.00 1.82805 0.00
2 -1 -2 2 o 74.464 80.959 180.00 1.81566 0.21
2 -1 -2 1 o 74.464 80.959 180.00 1.81566 0.21
0 6 0 1 o 170.627 175.056 180.00 1.84871 0.36
0 6 0 2 o 170.627 175.056 180.00 1.84871 0.36
5 -1 1 1 o 57.924 54.159 0.00 1.82441 0.17
5 -1 1 2 o 57.924 54.159 0.00 1.82441 0.17
0 1 2 2 o 374.973 366.549 180.00 1.79816 1.03
0 1 2 1 o 374.973 366.549 180.00 1.79816 1.03
1 0 2 2 o 32.594 33.156 0.00 1.79615 0.09
1 0 2 1 o 32.594 33.156 0.00 1.79615 0.09
4 -6 0 1 o 78.171 93.343 0.00 1.83919 0.19
4 -6 0 2 o 78.171 93.343 0.00 1.83919 0.19
2 5 0 2 o 104.543 124.371 180.00 1.83902 0.23
2 5 0 1 o 104.543 124.371 180.00 1.83902 0.23
2 -6 1 2 o 48.203 46.551 0.00 1.82269 0.11
2 -6 1 1 o 48.203 46.551 0.00 1.82269 0.11
3 4 -1 1 o 317.074 319.972 180.00 1.83261 0.76
3 4 -1 2 o 317.074 319.972 180.00 1.83261 0.76
1 -6 1 1 o 177.281 181.992 180.00 1.82080 0.39
1 -6 1 2 o 177.281 181.992 180.00 1.82080 0.39
4 3 -1 2 o 60.924 66.684 0.00 1.81855 0.15
4 3 -1 1 o 60.924 66.684 0.00 1.81855 0.15
4 -5 -1 1 o 88.520 77.309 180.00 1.80164 0.21
4 -5 -1 2 o 88.520 77.309 180.00 1.80164 0.21
0 3 -2 1 o 10.229 11.955 0.00 1.78128 0.03
0 3 -2 2 o 10.229 11.955 0.00 1.78128 0.03
0 5 1 1 o 4.533 4.699 180.00 1.79104 0.01
0 5 1 2 o 4.533 4.699 180.00 1.79104 0.01
2 2 -2 1 o 121.304 133.361 180.00 1.77395 0.32
2 2 -2 2 o 121.304 133.361 180.00 1.77395 0.32
5 -4 1 2 o 14.621 15.670 180.00 1.78408 0.04
5 -4 1 1 o 14.621 15.670 180.00 1.78408 0.04
3 3 1 1 o 281.199 267.274 0.00 1.76820 0.63
3 3 1 2 o 281.199 267.274 0.00 1.76820 0.63
6 -4 0 1 o 2.588 2.456 0.00 1.79933 0.01
6 -4 0 2 o 2.588 2.456 0.00 1.79933 0.01
5 2 0 1 o 82.635 83.460 0.00 1.79724 0.20
5 2 0 2 o 82.635 83.460 0.00 1.79724 0.20
3 0 -2 1 o 69.274 68.555 180.00 1.76492 0.19
3 0 -2 2 o 69.274 68.555 180.00 1.76492 0.19
1 -3 2 1 o 497.588 502.253 180.00 1.76346 1.32
1 -3 2 2 o 497.588 502.253 180.00 1.76346 1.32
3 -6 1 2 o 44.048 47.636 0.00 1.77343 0.10
3 -6 1 1 o 44.048 47.636 0.00 1.77343 0.10
2 5 -1 2 o 131.208 161.451 180.00 1.78032 0.28
2 5 -1 1 o 131.208 161.451 180.00 1.78032 0.28
6 0 0 1 o 93.463 118.479 0.00 1.77770 0.25
6 0 0 2 o 93.463 118.479 0.00 1.77770 0.25
1 3 -2 2 o 103.416 117.486 0.00 1.75051 0.26
1 3 -2 1 o 103.416 117.486 0.00 1.75051 0.26
1 -2 -2 1 o 34.605 38.631 180.00 1.73828 0.09
1 -2 -2 2 o 34.605 38.631 180.00 1.73828 0.09
2 -2 -2 2 o 32.080 35.829 180.00 1.73804 0.08
2 -2 -2 1 o 32.080 35.829 180.00 1.73804 0.08
3 -1 -2 2 o 1297.089 1473.562 0.00 1.74943 3.48
3 -1 -2 1 o 1297.089 1473.562 0.00 1.74943 3.48
2 -2 2 2 o 42.945 47.909 0.00 1.73773 0.11
2 -2 2 1 o 42.945 47.909 0.00 1.73773 0.11
2 4 1 1 o 217.722 247.603 180.00 1.74864 0.46
2 4 1 2 o 217.722 247.603 180.00 1.74864 0.46
0 6 -1 2 o 664.786 624.400 180.00 1.76823 1.36
0 6 -1 1 o 664.786 624.400 180.00 1.76823 1.36
5 0 1 2 o 253.386 285.850 0.00 1.74509 0.65
5 0 1 1 o 253.386 285.850 0.00 1.74509 0.65
2 -1 2 2 o 205.492 228.586 0.00 1.73285 0.54
2 -1 2 1 o 205.492 228.586 0.00 1.73285 0.54
6 -2 -1 1 o 46.483 47.530 0.00 1.76205 0.13
6 -2 -1 2 o 46.483 47.530 0.00 1.76205 0.13
3 1 -2 1 o 871.049 971.974 0.00 1.73663 2.27
3 1 -2 2 o 871.049 971.974 0.00 1.73663 2.27
6 -1 -1 1 o 63.894 68.677 0.00 1.75491 0.17
6 -1 -1 2 o 63.894 68.677 0.00 1.75491 0.17
1 1 2 1 o 221.274 208.090 180.00 1.71850 0.54
1 1 2 2 o 221.274 208.090 180.00 1.71850 0.54
4 2 1 2 o 84.789 88.605 0.00 1.72770 0.19
4 2 1 1 o 84.789 88.605 0.00 1.72770 0.19
5 2 -1 1 o 23.359 26.586 180.00 1.74245 0.06
5 2 -1 2 o 23.359 26.586 180.00 1.74245 0.06
6 -3 -1 1 o 114.669 117.204 180.00 1.72591 0.29
6 -3 -1 2 o 114.669 117.204 180.00 1.72591 0.29
2 -3 2 2 o 198.110 188.571 0.00 1.70116 0.49
2 -3 2 1 o 198.110 188.571 0.00 1.70116 0.49
1 6 0 2 o 14.452 14.743 0.00 1.72572 0.03
1 6 0 1 o 14.452 14.743 0.00 1.72572 0.03
0 2 2 1 o 76.176 71.605 0.00 1.69409 0.18
0 2 2 2 o 76.176 71.605 0.00 1.69409 0.18
3 -2 -2 2 o 7.206 6.672 0.00 1.69343 0.02
3 -2 -2 1 o 7.206 6.672 0.00 1.69343 0.02
2 0 2 1 o 39.619 28.784 180.00 1.68754 0.10
2 0 2 2 o 39.619 28.784 180.00 1.68754 0.10
6 0 -1 1 o 137.460 122.725 0.00 1.70601 0.34
6 0 -1 2 o 137.460 122.725 0.00 1.70601 0.34
5 -6 0 1 o 8.326 7.072 180.00 1.71414 0.02
5 -6 0 2 o 8.326 7.072 180.00 1.71414 0.02
2 3 -2 2 o 607.365 630.634 180.00 1.67813 1.38
2 3 -2 1 o 607.365 630.634 180.00 1.67813 1.38
5 -5 -1 1 o 61.905 43.727 180.00 1.68762 0.13
5 -5 -1 2 o 61.905 43.727 180.00 1.68762 0.13
5 -5 1 1 o 309.579 220.281 0.00 1.68726 0.71
5 -5 1 2 o 309.579 220.281 0.00 1.68726 0.71
6 -5 0 1 o 61.322 60.015 0.00 1.69608 0.14
6 -5 0 2 o 61.322 60.015 0.00 1.69608 0.14
1 5 1 1 o 96.199 109.678 180.00 1.67459 0.17
1 5 1 2 o 96.199 109.678 180.00 1.67459 0.17
4 -6 1 1 o 55.595 42.306 0.00 1.68432 0.12
4 -6 1 2 o 55.595 42.306 0.00 1.68432 0.12
0 4 -2 1 o 0.885 1.031 180.00 1.67302 0.00
0 4 -2 2 o 0.885 1.031 180.00 1.67302 0.00
1 -4 2 2 o 0.025 0.032 180.00 1.67145 0.00
1 -4 2 1 o 0.025 0.032 180.00 1.67145 0.00
3 2 -2 1 o 94.817 113.938 180.00 1.67043 0.22
3 2 -2 2 o 94.817 113.938 180.00 1.67043 0.22
2 -6 -1 2 o 22.385 23.684 0.00 1.66649 0.04
2 -6 -1 1 o 22.385 23.684 0.00 1.66649 0.04
2 -7 0 1 o 194.840 159.145 180.00 1.68277 0.34
2 -7 0 2 o 194.840 159.145 180.00 1.68277 0.34
3 -6 -1 2 o 546.089 496.077 180.00 1.66155 1.00
3 -6 -1 1 o 546.089 496.077 180.00 1.66155 1.00
1 6 -1 2 o 4.170 4.550 0.00 1.67690 0.01
1 6 -1 1 o 4.170 4.550 0.00 1.67690 0.01
3 -7 0 2 o 4.841 5.710 180.00 1.67376 0.01
3 -7 0 1 o 4.841 5.710 180.00 1.67376 0.01
6 1 0 2 o 140.972 168.826 0.00 1.66907 0.31
6 1 0 1 o 140.972 168.826 0.00 1.66907 0.31
4 -1 -2 1 o 1307.557 1525.900 180.00 1.64906 3.07
4 -1 -2 2 o 1307.557 1525.900 180.00 1.64906 3.07
4 0 -2 2 o 283.326 331.273 180.00 1.64901 0.67
4 0 -2 1 o 283.326 331.273 180.00 1.64901 0.67
6 -4 -1 1 o 7.693 8.469 0.00 1.65387 0.02
6 -4 -1 2 o 7.693 8.469 0.00 1.65387 0.02
2 -3 -2 1 o 105.337 118.089 0.00 1.63301 0.22
2 -3 -2 2 o 105.337 118.089 0.00 1.63301 0.22
4 4 0 1 o 16.476 14.812 0.00 1.66111 0.03
4 4 0 2 o 16.476 14.812 0.00 1.66111 0.03
2 -4 2 1 o 33.222 38.965 180.00 1.63041 0.07
2 -4 2 2 o 33.222 38.965 180.00 1.63041 0.07
5 1 1 2 o 22.718 25.228 180.00 1.63834 0.05
5 1 1 1 o 22.718 25.228 180.00 1.63834 0.05
3 -2 2 1 o 39.057 50.087 180.00 1.62552 0.09
3 -2 2 2 o 39.057 50.087 180.00 1.62552 0.09
1 4 -2 1 o 317.280 353.369 0.00 1.63478 0.66
1 4 -2 2 o 317.280 353.369 0.00 1.63478 0.66
1 -7 0 2 o 125.491 143.521 0.00 1.65091 0.21
1 -7 0 1 o 125.491 143.521 0.00 1.65091 0.21
1 -6 -1 2 o 293.028 332.871 180.00 1.63187 0.49
1 -6 -1 1 o 293.028 332.871 180.00 1.63187 0.49
1 -3 -2 1 o 3.375 3.722 180.00 1.62086 0.01
1 -3 -2 2 o 3.375 3.722 180.00 1.62086 0.01
3 5 0 1 o 27.342 32.870 180.00 1.64778 0.05
3 5 0 2 o 27.342 32.870 180.00 1.64778 0.05
1 2 2 1 o 0.092 0.085 0.00 1.61477 0.00
1 2 2 2 o 0.092 0.085 0.00 1.61477 0.00
4 -2 -2 1 o 250.211 230.818 0.00 1.61383 0.55
4 -2 -2 2 o 250.211 230.818 0.00 1.61383 0.55
6 -3 1 2 o 3.000 3.496 180.00 1.62171 0.01
6 -3 1 1 o 3.000 3.496 180.00 1.62171 0.01
2 1 2 2 o 52.340 49.708 0.00 1.61055 0.11
2 1 2 1 o 52.340 49.708 0.00 1.61055 0.11
6 -2 1 2 o 1.314 1.340 180.00 1.61925 0.00
6 -2 1 1 o 1.314 1.340 180.00 1.61925 0.00
3 -1 2 1 o 227.672 216.899 180.00 1.60944 0.50
3 -1 2 2 o 227.672 216.899 180.00 1.60944 0.50
4 -6 -1 1 o 340.953 330.566 0.00 1.61809 0.62
4 -6 -1 2 o 340.953 330.566 0.00 1.61809 0.62
3 -3 -2 2 o 98.047 92.429 180.00 1.60762 0.20
3 -3 -2 1 o 98.047 92.429 180.00 1.60762 0.20
3 -3 2 1 o 0.191 0.179 180.00 1.60725 0.00
3 -3 2 2 o 0.191 0.179 180.00 1.60725 0.00
4 4 -1 1 o 102.578 114.420 180.00 1.63340 0.19
4 4 -1 2 o 102.578 114.420 180.00 1.63340 0.19
4 1 -2 1 o 798.234 736.419 0.00 1.61369 1.75
4 1 -2 2 o 798.234 736.419 0.00 1.61369 1.75
4 -7 0 1 o 55.067 73.870 0.00 1.62574 0.10
4 -7 0 2 o 55.067 73.870 0.00 1.62574 0.10
6 1 -1 1 o 474.165 633.197 180.00 1.62495 1.02
6 1 -1 2 o 474.165 633.197 180.00 1.62495 1.02
5 3 0 2 o 37.900 50.258 180.00 1.62458 0.07
5 3 0 1 o 37.900 50.258 180.00 1.62458 0.07
3 5 -1 1 o 1.083 1.196 0.00 1.62070 0.00
3 5 -1 2 o 1.083 1.196 0.00 1.62070 0.00
7 -2 0 1 o 3.518 3.225 0.00 1.61596 0.01
7 -2 0 2 o 3.518 3.225 0.00 1.61596 0.01
7 -3 0 1 o 33.436 30.521 0.00 1.61490 0.07
7 -3 0 2 o 33.436 30.521 0.00 1.61490 0.07
2 -7 1 1 o 0.029 0.026 180.00 1.60581 0.00
2 -7 1 2 o 0.029 0.026 180.00 1.60581 0.00
6 -4 1 2 o 4.372 3.514 0.00 1.59044 0.01
6 -4 1 1 o 4.372 3.514 0.00 1.59044 0.01
1 -7 1 1 o 35.723 24.407 180.00 1.59280 0.06
1 -7 1 2 o 35.723 24.407 180.00 1.59280 0.06
6 -1 1 1 o 10.159 7.076 0.00 1.58352 0.02
6 -1 1 2 o 10.159 7.076 0.00 1.58352 0.02
0 3 2 2 o 229.136 160.758 0.00 1.57356 0.42
0 3 2 1 o 229.136 160.758 0.00 1.57356 0.42
5 3 -1 2 o 8.859 5.186 180.00 1.59866 0.02
5 3 -1 1 o 8.859 5.186 180.00 1.59866 0.02
3 0 2 1 o 68.143 60.368 0.00 1.56191 0.14
3 0 2 2 o 68.143 60.368 0.00 1.56191 0.14
3 4 1 1 o 51.030 31.699 0.00 1.57852 0.08
3 4 1 2 o 51.030 31.699 0.00 1.57852 0.08
3 3 -2 1 o 216.183 134.975 180.00 1.57831 0.42
3 3 -2 2 o 216.183 134.975 180.00 1.57831 0.42
3 -7 1 1 o 72.536 49.798 180.00 1.58307 0.12
3 -7 1 2 o 72.536 49.798 180.00 1.58307 0.12
5 -6 1 1 o 106.572 77.932 0.00 1.57211 0.20
5 -6 1 2 o 106.572 77.932 0.00 1.57211 0.20
2 6 0 2 o 106.422 89.577 0.00 1.58800 0.16
2 6 0 1 o 106.422 89.577 0.00 1.58800 0.16
1 -5 2 1 o 326.279 290.076 0.00 1.56065 0.60
1 -5 2 2 o 326.279 290.076 0.00 1.56065 0.60
4 3 1 1 o 69.049 53.406 0.00 1.56945 0.12
4 3 1 2 o 69.049 53.406 0.00 1.56945 0.12
0 7 0 1 o 130.407 95.460 0.00 1.58461 0.19
0 7 0 2 o 130.407 95.460 0.00 1.58461 0.19
7 -1 0 2 o 83.775 58.891 0.00 1.58372 0.18
7 -1 0 1 o 83.775 58.891 0.00 1.58372 0.18
3 -4 2 1 o 272.793 234.991 0.00 1.55791 0.54
3 -4 2 2 o 272.793 234.991 0.00 1.55791 0.54
0 6 1 2 o 40.444 34.881 180.00 1.56454 0.06
0 6 1 1 o 40.444 34.881 180.00 1.56454 0.06
2 4 -2 2 o 93.754 81.217 180.00 1.56427 0.17
2 4 -2 1 o 93.754 81.217 180.00 1.56427 0.17
7 -4 0 1 o 175.306 110.041 180.00 1.58073 0.37
7 -4 0 2 o 175.306 110.041 180.00 1.58073 0.37
0 5 -2 2 o 39.700 32.908 0.00 1.55111 0.07
0 5 -2 1 o 39.700 32.908 0.00 1.55111 0.07
6 -6 0 2 o 89.117 57.104 180.00 1.57598 0.17
6 -6 0 1 o 89.117 57.104 180.00 1.57598 0.17
4 -3 -2 2 o 6.411 5.390 180.00 1.54960 0.01
4 -3 -2 1 o 6.411 5.390 180.00 1.54960 0.01
6 -5 -1 1 o 45.525 39.705 180.00 1.55845 0.09
6 -5 -1 2 o 45.525 39.705 180.00 1.55845 0.09
4 2 -2 1 o 301.559 252.088 0.00 1.54939 0.58
4 2 -2 2 o 301.559 252.088 0.00 1.54939 0.58
2 6 -1 2 o 116.995 103.085 0.00 1.56368 0.18
2 6 -1 1 o 116.995 103.085 0.00 1.56368 0.18
2 -5 2 1 o 76.295 64.591 0.00 1.53739 0.14
2 -5 2 2 o 76.295 64.591 0.00 1.53739 0.14
2 5 1 2 o 53.030 45.179 180.00 1.54479 0.08
2 5 1 1 o 53.030 45.179 180.00 1.54479 0.08
5 -6 -1 1 o 26.089 22.058 180.00 1.54443 0.04
5 -6 -1 2 o 26.089 22.058 180.00 1.54443 0.04
5 -1 -2 1 o 4.829 5.156 180.00 1.53161 0.01
5 -1 -2 2 o 4.829 5.156 180.00 1.53161 0.01
7 -2 -1 1 o 238.427 203.672 180.00 1.54770 0.49
7 -2 -1 2 o 238.427 203.672 180.00 1.54770 0.49
6 2 0 1 o 59.161 51.075 0.00 1.54719 0.10
6 2 0 2 o 59.161 51.075 0.00 1.54719 0.10
0 7 -1 2 o 63.974 55.557 180.00 1.54654 0.09
0 7 -1 1 o 63.974 55.557 180.00 1.54654 0.09
2 -4 -2 2 o 35.613 27.311 180.00 1.51584 0.06
2 -4 -2 1 o 35.613 27.311 180.00 1.51584 0.06
5 -7 0 2 o 28.441 24.221 0.00 1.54797 0.05
5 -7 0 1 o 28.441 24.221 0.00 1.54797 0.05
2 2 2 2 o 351.984 272.086 180.00 1.51418 0.61
2 2 2 1 o 351.984 272.086 180.00 1.51418 0.61
6 -5 1 1 o 21.591 23.239 0.00 1.53088 0.04
6 -5 1 2 o 21.591 23.239 0.00 1.53088 0.04
5 0 -2 2 o 37.621 32.844 0.00 1.52137 0.07
5 0 -2 1 o 37.621 32.844 0.00 1.52137 0.07
6 0 1 2 o 0.969 0.821 0.00 1.52063 0.00
6 0 1 1 o 0.969 0.821 0.00 1.52063 0.00
4 -7 1 1 o 26.848 28.642 180.00 1.52885 0.04
4 -7 1 2 o 26.848 28.642 180.00 1.52885 0.04
5 2 1 1 o 108.072 89.327 180.00 1.51970 0.18
5 2 1 2 o 108.072 89.327 180.00 1.51970 0.18
7 -3 -1 2 o 241.169 251.880 180.00 1.53326 0.47
7 -3 -1 1 o 241.169 251.880 180.00 1.53326 0.47
7 -1 -1 1 o 68.534 73.400 0.00 1.53243 0.13
7 -1 -1 2 o 68.534 73.400 0.00 1.53243 0.13
3 -4 -2 2 o 322.793 322.395 180.00 1.50515 0.55
3 -4 -2 1 o 322.793 322.395 180.00 1.50515 0.55
5 -2 -2 2 o 73.660 57.698 180.00 1.51309 0.14
5 -2 -2 1 o 73.660 57.698 180.00 1.51309 0.14
4 -2 2 2 o 0.766 0.693 0.00 1.50188 0.00
4 -2 2 1 o 0.766 0.693 0.00 1.50188 0.00
1 5 -2 1 o 92.141 79.043 180.00 1.51051 0.15
1 5 -2 2 o 92.141 79.043 180.00 1.51051 0.15
1 3 2 1 o 173.130 140.430 180.00 1.49963 0.28
1 3 2 2 o 173.130 140.430 180.00 1.49963 0.28
6 2 -1 1 o 127.254 125.259 0.00 1.52478 0.22
6 2 -1 2 o 127.254 125.259 0.00 1.52478 0.22
7 0 0 2 o 20.847 19.878 180.00 1.52374 0.04
7 0 0 1 o 20.847 19.878 180.00 1.52374 0.04
4 -3 2 2 o 1.660 1.236 180.00 1.49696 0.00
4 -3 2 1 o 1.660 1.236 180.00 1.49696 0.00
1 -4 -2 2 o 4.728 3.549 180.00 1.49641 0.01
1 -4 -2 1 o 4.728 3.549 180.00 1.49641 0.01
3 1 2 2 o 315.864 292.718 0.00 1.49068 0.55
3 1 2 1 o 315.864 292.718 0.00 1.49068 0.55
7 -5 0 2 o 76.337 62.120 180.00 1.51930 0.14
7 -5 0 1 o 76.337 62.120 180.00 1.51930 0.14
4 -1 2 1 o 63.928 55.674 180.00 1.47980 0.12
4 -1 2 2 o 63.928 55.674 180.00 1.47980 0.12
3 -5 2 2 o 23.041 20.135 180.00 1.48547 0.04
3 -5 2 1 o 23.041 20.135 180.00 1.48547 0.04
5 1 -2 2 o 5.428 4.548 0.00 1.48404 0.01
5 1 -2 1 o 5.428 4.548 0.00 1.48404 0.01
7 -4 -1 1 o 21.484 19.574 180.00 1.49151 0.04
7 -4 -1 2 o 21.484 19.574 180.00 1.49151 0.04
1 7 0 1 o 137.293 101.113 0.00 1.49542 0.18
1 7 0 2 o 137.293 101.113 0.00 1.49542 0.18
1 6 1 1 o 69.337 66.528 180.00 1.47582 0.09
1 6 1 2 o 69.337 66.528 180.00 1.47582 0.09
4 -4 -2 2 o 3.674 3.187 180.00 1.46618 0.01
4 -4 -2 1 o 3.674 3.187 180.00 1.46618 0.01
7 0 -1 2 o 51.804 50.178 180.00 1.48997 0.09
7 0 -1 1 o 51.804 50.178 180.00 1.48997 0.09
4 -4 2 2 o 0.528 0.459 0.00 1.46580 0.00
4 -4 2 1 o 0.528 0.459 0.00 1.46580 0.00
3 4 -2 1 o 135.305 129.590 0.00 1.47323 0.22
3 4 -2 2 o 135.305 129.590 0.00 1.47323 0.22
2 -7 -1 2 o 38.599 35.922 180.00 1.47177 0.05
2 -7 -1 1 o 38.599 35.922 180.00 1.47177 0.05
3 -7 -1 2 o 41.016 37.677 180.00 1.47752 0.06
3 -7 -1 1 o 41.016 37.677 180.00 1.47752 0.06
5 -3 -2 2 o 52.938 46.353 180.00 1.46878 0.09
5 -3 -2 1 o 52.938 46.353 180.00 1.46878 0.09
4 3 -2 2 o 23.442 20.215 0.00 1.46592 0.04
4 3 -2 1 o 23.442 20.215 0.00 1.46592 0.04
4 5 0 1 o 238.912 224.636 0.00 1.47684 0.33
4 5 0 2 o 238.912 224.636 0.00 1.47684 0.33
1 7 -1 2 o 0.279 0.271 0.00 1.47503 0.00
1 7 -1 1 o 0.279 0.271 0.00 1.47503 0.00
0 4 2 2 o 15.395 14.700 0.00 1.45013 0.02
0 4 2 1 o 15.395 14.700 0.00 1.45013 0.02
3 -8 0 2 o 49.707 46.244 180.00 1.47175 0.06
3 -8 0 1 o 49.707 46.244 180.00 1.47175 0.06
4 5 -1 1 o 38.112 33.122 0.00 1.46884 0.05
4 5 -1 2 o 38.112 33.122 0.00 1.46884 0.05
2 -8 0 1 o 139.095 120.564 180.00 1.46870 0.17
2 -8 0 2 o 139.095 120.564 180.00 1.46870 0.17
5 4 0 1 o 20.761 17.617 180.00 1.46733 0.03
5 4 0 2 o 20.761 17.617 180.00 1.46733 0.03
4 -7 -1 1 o 13.963 15.161 0.00 1.45547 0.02
4 -7 -1 2 o 13.963 15.161 0.00 1.45547 0.02
2 5 -2 2 o 36.954 39.501 180.00 1.44563 0.06
2 5 -2 1 o 36.954 39.501 180.00 1.44563 0.06
6 -6 -1 1 o 230.979 209.847 180.00 1.45229 0.36
6 -6 -1 2 o 230.979 209.847 180.00 1.45229 0.36
5 4 -1 2 o 51.812 73.584 180.00 1.45951 0.08
5 4 -1 1 o 51.812 73.584 180.00 1.45951 0.08
5 -7 1 2 o 69.966 63.641 0.00 1.45216 0.10
5 -7 1 1 o 69.966 63.641 0.00 1.45216 0.10
6 -6 1 2 o 244.219 222.412 180.00 1.45202 0.40
6 -6 1 1 o 244.219 222.412 180.00 1.45202 0.40
1 -6 2 1 o 14.731 15.426 0.00 1.44419 0.02
1 -6 2 2 o 14.731 15.426 0.00 1.44419 0.02
4 0 2 2 o 8.966 9.605 0.00 1.43406 0.01
4 0 2 1 o 8.966 9.605 0.00 1.43406 0.01
6 1 1 2 o 63.589 57.454 180.00 1.43980 0.10
6 1 1 1 o 63.589 57.454 180.00 1.43980 0.10
1 -7 -1 1 o 0.147 0.132 0.00 1.43914 0.00
1 -7 -1 2 o 0.147 0.132 0.00 1.43914 0.00
6 -7 0 1 o 3.288 2.958 180.00 1.45266 0.00
6 -7 0 2 o 3.288 2.958 180.00 1.45266 0.00
3 6 0 2 o 90.890 82.923 0.00 1.45110 0.11
3 6 0 1 o 90.890 82.923 0.00 1.45110 0.11
7 -3 1 2 o 9.166 8.677 180.00 1.43634 0.02
7 -3 1 1 o 9.166 8.677 180.00 1.43634 0.02
2 -6 2 1 o 0.835 0.888 180.00 1.43408 0.00
2 -6 2 2 o 0.835 0.888 180.00 1.43408 0.00
4 -8 0 1 o 70.800 74.473 0.00 1.44740 0.09
4 -8 0 2 o 70.800 74.473 0.00 1.44740 0.09
7 1 0 1 o 116.909 125.693 180.00 1.44494 0.19
7 1 0 2 o 116.909 125.693 180.00 1.44494 0.19
3 6 -1 2 o 78.330 80.955 0.00 1.44349 0.10
3 6 -1 1 o 78.330 80.955 0.00 1.44349 0.10
0 6 -2 2 o 15.541 20.047 180.00 1.42820 0.02
0 6 -2 1 o 15.541 20.047 180.00 1.42820 0.02
7 -2 1 1 o 367.879 441.276 0.00 1.42625 0.62
7 -2 1 2 o 367.879 441.276 0.00 1.42625 0.62
7 -6 0 2 o 6.563 5.832 180.00 1.43964 0.01
7 -6 0 1 o 6.563 5.832 180.00 1.43964 0.01
5 2 -2 2 o 21.407 25.458 180.00 1.42520 0.03
5 2 -2 1 o 21.407 25.458 180.00 1.42520 0.03
1 -8 0 1 o 42.815 37.939 0.00 1.43876 0.05
1 -8 0 2 o 42.815 37.939 0.00 1.43876 0.05
4 4 1 1 o 69.679 83.378 180.00 1.42393 0.09
4 4 1 2 o 69.679 83.378 180.00 1.42393 0.09
7 -4 1 2 o 42.210 51.393 180.00 1.42266 0.07
7 -4 1 1 o 42.210 51.393 180.00 1.42266 0.07
7 -5 -1 1 o 286.664 380.399 0.00 1.42868 0.46
7 -5 -1 2 o 286.664 380.399 0.00 1.42868 0.46
4 -5 2 1 o 119.778 129.434 180.00 1.41300 0.19
4 -5 2 2 o 119.778 129.434 180.00 1.41300 0.19
2 -8 1 2 o 59.151 73.325 180.00 1.42732 0.07
2 -8 1 1 o 59.151 73.325 180.00 1.42732 0.07
2 3 2 1 o 27.393 29.522 0.00 1.40992 0.04
2 3 2 2 o 27.393 29.522 0.00 1.40992 0.04
3 5 1 1 o 196.474 204.104 0.00 1.41553 0.25
3 5 1 2 o 196.474 204.104 0.00 1.41553 0.25
3 2 2 1 o 18.741 18.221 0.00 1.40526 0.03
3 2 2 2 o 18.741 18.221 0.00 1.40526 0.03
7 1 -1 1 o 2.153 2.602 0.00 1.42665 0.00
7 1 -1 2 o 2.153 2.602 0.00 1.42665 0.00
5 -4 -2 2 o 55.696 53.950 0.00 1.40504 0.08
5 -4 -2 1 o 55.696 53.950 0.00 1.40504 0.08
3 -8 1 1 o 61.820 72.932 0.00 1.41941 0.08
3 -8 1 2 o 61.820 72.932 0.00 1.41941 0.08
6 -2 -2 2 o 1.314 1.263 180.00 1.40415 0.00
6 -2 -2 1 o 1.314 1.263 180.00 1.40415 0.00
6 -1 -2 1 o 9.124 10.042 180.00 1.41079 0.02
6 -1 -2 2 o 9.124 10.042 180.00 1.41079 0.02
6 3 0 1 o 69.331 82.416 180.00 1.42453 0.10
6 3 0 2 o 69.331 82.416 180.00 1.42453 0.10
5 -7 -1 1 o 3.732 3.946 0.00 1.40911 0.01
5 -7 -1 2 o 3.732 3.946 0.00 1.40911 0.01
3 -6 2 1 o 14.363 13.229 180.00 1.39945 0.02
3 -6 2 2 o 14.363 13.229 180.00 1.39945 0.02
2 -5 -2 2 o 69.520 71.873 0.00 1.39800 0.09
2 -5 -2 1 o 69.520 71.873 0.00 1.39800 0.09
3 -5 -2 1 o 20.475 22.659 180.00 1.39736 0.03
3 -5 -2 2 o 20.475 22.659 180.00 1.39736 0.03
6 3 -1 2 o 239.641 257.987 0.00 1.41739 0.35
6 3 -1 1 o 239.641 257.987 0.00 1.41739 0.35
8 -3 0 2 o 6.434 6.801 0.00 1.41691 0.01
8 -3 0 1 o 6.434 6.801 0.00 1.41691 0.01
1 -8 1 1 o 9.026 9.824 0.00 1.41006 0.01
1 -8 1 2 o 9.026 9.824 0.00 1.41006 0.01
5 3 1 1 o 14.239 12.574 180.00 1.40070 0.02
5 3 1 2 o 14.239 12.574 180.00 1.40070 0.02
1 4 2 2 o 17.762 19.821 180.00 1.38399 0.02
1 4 2 1 o 17.762 19.821 180.00 1.38399 0.02
8 -2 0 2 o 4.489 4.818 0.00 1.40953 0.01
8 -2 0 1 o 4.489 4.818 0.00 1.40953 0.01
6 0 -2 2 o 39.985 59.274 0.00 1.39493 0.06
6 0 -2 1 o 39.985 59.274 0.00 1.39493 0.06
5 -2 2 2 o 59.112 59.704 180.00 1.37910 0.09
5 -2 2 1 o 59.112 59.704 180.00 1.37910 0.09
7 -1 1 1 o -0.001 0.000 0.00 1.39382 0.00
7 -1 1 2 o -0.001 0.000 0.00 1.39382 0.00
5 -3 2 1 o 32.006 36.255 180.00 1.38280 0.05
5 -3 2 2 o 32.006 36.255 180.00 1.38280 0.05
1 6 -2 2 o 0.081 0.081 0.00 1.38857 0.00
1 6 -2 1 o 0.081 0.081 0.00 1.38857 0.00
8 -4 0 1 o 33.579 29.474 180.00 1.40149 0.05
8 -4 0 2 o 33.579 29.474 180.00 1.40149 0.05
7 -5 1 1 o 229.531 221.072 0.00 1.38715 0.35
7 -5 1 2 o 229.531 221.072 0.00 1.38715 0.35
5 -8 0 1 o 176.075 156.551 180.00 1.39949 0.22
5 -8 0 2 o 176.075 156.551 180.00 1.39949 0.22
4 1 2 2 o 19.774 23.167 0.00 1.37090 0.03
4 1 2 1 o 19.774 23.167 0.00 1.37090 0.03
0 7 1 2 o 44.234 48.131 0.00 1.38465 0.05
0 7 1 1 o 44.234 48.131 0.00 1.38465 0.05
6 -3 -2 1 o 13.614 14.920 0.00 1.37592 0.02
6 -3 -2 2 o 13.614 14.920 0.00 1.37592 0.02
1 -5 -2 1 o 85.377 96.302 0.00 1.37519 0.11
1 -5 -2 2 o 85.377 96.302 0.00 1.37519 0.11
2 7 0 2 o 43.407 63.977 180.00 1.39526 0.05
2 7 0 1 o 43.407 63.977 180.00 1.39526 0.05
4 -8 1 1 o 65.853 62.910 0.00 1.38753 0.08
4 -8 1 2 o 65.853 62.910 0.00 1.38753 0.08
4 -5 -2 2 o 2.517 3.014 180.00 1.37337 0.00
4 -5 -2 1 o 2.517 3.014 180.00 1.37337 0.00
2 6 1 2 o 0.016 0.016 180.00 1.37711 0.00
2 6 1 1 o 0.016 0.016 180.00 1.37711 0.00
2 7 -1 2 o 11.008 10.812 180.00 1.38847 0.01
2 7 -1 1 o 11.008 10.812 180.00 1.38847 0.01
8 -1 0 2 o 0.105 0.107 180.00 1.38038 0.00
8 -1 0 1 o 0.105 0.107 180.00 1.38038 0.00
0 8 0 1 o 21.381 20.534 180.00 1.38653 0.02
0 8 0 2 o 21.381 20.534 180.00 1.38653 0.02
4 4 -2 1 o 63.975 76.103 180.00 1.37310 0.09
4 4 -2 2 o 63.975 76.103 180.00 1.37310 0.09
5 -4 2 1 o 106.873 117.402 0.00 1.36537 0.16
5 -4 2 2 o 106.873 117.402 0.00 1.36537 0.16
5 -1 2 2 o 100.528 155.426 0.00 1.35475 0.15
5 -1 2 1 o 100.528 155.426 0.00 1.35475 0.15
8 -2 -1 1 o 25.982 31.087 0.00 1.37303 0.04
8 -2 -1 2 o 25.982 31.087 0.00 1.37303 0.04
3 5 -2 1 o 70.230 75.728 180.00 1.36550 0.09
3 5 -2 2 o 70.230 75.728 180.00 1.36550 0.09
0 8 -1 2 o 117.882 137.314 0.00 1.37022 0.13
0 8 -1 1 o 117.882 137.314 0.00 1.37022 0.13
8 -3 -1 1 o 19.767 23.005 180.00 1.37024 0.03
8 -3 -1 2 o 19.767 23.005 180.00 1.37024 0.03
6 -7 1 1 o 0.385 0.494 180.00 1.36314 0.00
6 -7 1 2 o 0.385 0.494 180.00 1.36314 0.00
6 1 -2 2 o 0.079 0.144 0.00 1.35873 0.00
6 1 -2 1 o 0.079 0.144 0.00 1.35873 0.00
6 2 1 1 o 0.006 0.017 0.00 1.35017 0.00
6 2 1 2 o 0.006 0.017 0.00 1.35017 0.00
8 -5 0 2 o 24.514 26.080 0.00 1.36538 0.04
8 -5 0 1 o 24.514 26.080 0.00 1.36538 0.04
7 -6 -1 2 o 46.877 74.656 180.00 1.35260 0.06
7 -6 -1 1 o 46.877 74.656 180.00 1.35260 0.06
5 3 -2 2 o 21.059 33.714 180.00 1.35228 0.03
5 3 -2 1 o 21.059 33.714 180.00 1.35228 0.03
4 -6 2 2 o 3.395 2.996 0.00 1.34529 0.00
4 -6 2 1 o 3.395 2.996 0.00 1.34529 0.00
7 0 1 2 o 256.757 214.754 180.00 1.34335 0.36
7 0 1 1 o 256.757 214.754 180.00 1.34335 0.36
7 2 0 1 o 2.070 3.492 0.00 1.35646 0.00
7 2 0 2 o 2.070 3.492 0.00 1.35646 0.00
8 -1 -1 1 o 59.815 94.174 0.00 1.35514 0.09
8 -1 -1 2 o 59.815 94.174 0.00 1.35514 0.09
0 5 2 2 o 26.986 27.169 180.00 1.33219 0.03
0 5 2 1 o 26.986 27.169 180.00 1.33219 0.03
6 -7 -1 2 o 2.576 2.188 180.00 1.34501 0.00
6 -7 -1 1 o 2.576 2.188 180.00 1.34501 0.00
7 2 -1 2 o 7.628 12.219 180.00 1.35031 0.01
7 2 -1 1 o 7.628 12.219 180.00 1.35031 0.01
5 -5 2 1 o 11.260 11.866 180.00 1.32907 0.02
5 -5 2 2 o 11.260 11.866 180.00 1.32907 0.02
8 -4 -1 2 o 11.700 13.233 180.00 1.34714 0.02
8 -4 -1 1 o 11.700 13.233 180.00 1.34714 0.02
7 -7 0 1 o 6.136 10.282 0.00 1.35084 0.01
7 -7 0 2 o 6.136 10.282 0.00 1.35084 0.01
1 -7 2 1 o 15.714 16.105 0.00 1.33085 0.02
1 -7 2 2 o 15.714 16.105 0.00 1.33085 0.02
2 6 -2 1 o 30.605 31.376 0.00 1.33086 0.04
2 6 -2 2 o 30.605 31.376 0.00 1.33086 0.04
6 -4 -2 1 o 2.335 2.423 180.00 1.32980 0.00
6 -4 -2 2 o 2.335 2.423 180.00 1.32980 0.00
5 -8 1 2 o 0.113 0.114 0.00 1.33623 0.00
5 -8 1 1 o 0.113 0.114 0.00 1.33623 0.00
2 -7 2 2 o 0.073 0.076 180.00 1.32962 0.00
2 -7 2 1 o 0.073 0.076 180.00 1.32962 0.00
5 -5 -2 1 o 82.086 85.805 0.00 1.32942 0.11
5 -5 -2 2 o 82.086 85.805 0.00 1.32942 0.11
7 -6 1 1 o 3.027 2.909 180.00 1.33443 0.00
7 -6 1 2 o 3.027 2.909 180.00 1.33443 0.00
3 3 2 1 o 3.534 2.683 0.00 1.31419 0.00
3 3 2 2 o 3.534 2.683 0.00 1.31419 0.00
8 0 0 2 o 0.780 0.763 0.00 1.33327 0.00
8 0 0 1 o 0.780 0.763 0.00 1.33327 0.00
5 0 2 2 o 103.365 80.521 0.00 1.31287 0.14
5 0 2 1 o 103.365 80.521 0.00 1.31287 0.14
5 5 -1 2 o 28.309 28.698 0.00 1.33171 0.03
5 5 -1 1 o 28.309 28.698 0.00 1.33171 0.03
3 -8 -1 2 o 3.583 4.848 0.00 1.32433 0.00
3 -8 -1 1 o 3.583 4.848 0.00 1.32433 0.00
6 -8 0 2 o 358.920 340.523 180.00 1.33465 0.43
6 -8 0 1 o 358.920 340.523 180.00 1.33465 0.43
5 5 0 1 o 3.334 3.522 180.00 1.32889 0.00
5 5 0 2 o 3.334 3.522 180.00 1.32889 0.00
1 7 1 2 o 0.003 0.002 0.00 1.31543 0.00
1 7 1 1 o 0.003 0.002 0.00 1.31543 0.00
4 6 -1 2 o 16.399 19.469 180.00 1.32634 0.02
4 6 -1 1 o 16.399 19.469 180.00 1.32634 0.02
2 -8 -1 1 o 39.623 30.230 0.00 1.31363 0.04
2 -8 -1 2 o 39.623 30.230 0.00 1.31363 0.04
2 4 2 2 o 3.777 3.208 180.00 1.30611 0.00
2 4 2 1 o 3.777 3.208 180.00 1.30611 0.00
0 7 -2 2 o 22.590 17.941 180.00 1.31178 0.03
0 7 -2 1 o 22.590 17.941 180.00 1.31178 0.03
4 6 0 2 o 47.744 68.481 0.00 1.32357 0.05
4 6 0 1 o 47.744 68.481 0.00 1.32357 0.05
4 -8 -1 1 o 1.585 1.176 180.00 1.31485 0.00
4 -8 -1 2 o 1.585 1.176 180.00 1.31485 0.00
3 -7 2 2 o 179.220 145.282 180.00 1.30825 0.22
3 -7 2 1 o 179.220 145.282 180.00 1.30825 0.22
1 8 0 1 o 21.877 19.212 180.00 1.31897 0.02
1 8 0 2 o 21.877 19.212 180.00 1.31897 0.02
6 2 -2 2 o 11.980 10.045 0.00 1.30670 0.02
6 2 -2 1 o 11.980 10.045 0.00 1.30670 0.02
8 0 -1 2 o 1.856 1.607 180.00 1.31889 0.00
8 0 -1 1 o 1.856 1.607 180.00 1.31889 0.00
4 2 2 2 o 25.036 22.660 180.00 1.29728 0.03
4 2 2 1 o 25.036 22.660 180.00 1.29728 0.03
1 8 -1 2 o 37.669 28.939 180.00 1.31321 0.04
1 8 -1 1 o 37.669 28.939 180.00 1.31321 0.04
8 -6 0 1 o 28.259 21.738 0.00 1.31313 0.04
8 -6 0 2 o 28.259 21.738 0.00 1.31313 0.04
8 -5 -1 2 o 3.653 3.066 0.00 1.30666 0.00
8 -5 -1 1 o 3.653 3.066 0.00 1.30666 0.00
6 4 -1 1 o 205.071 163.039 0.00 1.31119 0.24
6 4 -1 2 o 205.071 163.039 0.00 1.31119 0.24
3 -6 -2 2 o 243.842 238.108 0.00 1.29194 0.28
3 -6 -2 1 o 243.842 238.108 0.00 1.29194 0.28
3 -9 0 2 o 45.079 35.778 180.00 1.31009 0.05
3 -9 0 1 o 45.079 35.778 180.00 1.31009 0.05
6 4 0 2 o 24.444 19.615 0.00 1.30847 0.03
6 4 0 1 o 24.444 19.615 0.00 1.30847 0.03
7 -2 -2 1 o 106.502 97.475 180.00 1.29621 0.15
7 -2 -2 2 o 106.502 97.475 180.00 1.29621 0.15
7 -1 -2 2 o 11.233 10.320 180.00 1.29515 0.02
7 -1 -2 1 o 11.233 10.320 180.00 1.29515 0.02
4 5 1 2 o 175.010 161.366 0.00 1.29459 0.19
4 5 1 1 o 175.010 161.366 0.00 1.29459 0.19
2 -6 -2 1 o 9.740 7.509 180.00 1.28630 0.01
2 -6 -2 2 o 9.740 7.509 180.00 1.28630 0.01
2 -9 0 1 o 20.526 16.918 0.00 1.30157 0.02
2 -9 0 2 o 20.526 16.918 0.00 1.30157 0.02
5 4 1 2 o 3.577 3.031 0.00 1.28816 0.00
5 4 1 1 o 3.577 3.031 0.00 1.28816 0.00
4 -9 0 2 o 190.904 166.447 180.00 1.29907 0.19
4 -9 0 1 o 190.904 166.447 180.00 1.29907 0.19
5 -8 -1 1 o 53.696 41.303 0.00 1.28643 0.06
5 -8 -1 2 o 53.696 41.303 0.00 1.28643 0.06
4 -6 -2 2 o 0.091 0.065 0.00 1.27886 0.00
4 -6 -2 1 o 0.091 0.065 0.00 1.27886 0.00
5 -6 2 1 o 104.148 76.973 180.00 1.27821 0.13
5 -6 2 2 o 104.148 76.973 180.00 1.27821 0.13
3 7 -1 2 o 120.489 110.516 180.00 1.29598 0.12
3 7 -1 1 o 120.489 110.516 180.00 1.29598 0.12
1 -8 -1 2 o 41.338 30.378 0.00 1.28416 0.04
1 -8 -1 1 o 41.338 30.378 0.00 1.28416 0.04
8 -3 1 2 o 88.568 65.075 0.00 1.28378 0.12
8 -3 1 1 o 88.568 65.075 0.00 1.28378 0.12
3 7 0 1 o 182.988 173.613 0.00 1.29341 0.18
3 7 0 2 o 182.988 173.613 0.00 1.29341 0.18
1 5 2 2 o 7.543 5.664 180.00 1.27439 0.01
1 5 2 1 o 7.543 5.664 180.00 1.27439 0.01
7 1 1 2 o 70.383 50.968 180.00 1.28059 0.09
7 1 1 1 o 70.383 50.968 180.00 1.28059 0.09
1 1 -3 1 o 56.755 44.484 180.00 1.26737 0.07
1 1 -3 2 o 56.755 44.484 180.00 1.26737 0.07
8 -4 1 2 o 107.231 77.988 180.00 1.27995 0.14
8 -4 1 1 o 107.231 77.988 180.00 1.27995 0.14
7 -3 -2 2 o 0.510 0.371 180.00 1.27987 0.00
7 -3 -2 1 o 0.510 0.371 180.00 1.27987 0.00
6 -3 2 1 o 136.299 100.178 180.00 1.27280 0.18
6 -3 2 2 o 136.299 100.178 180.00 1.27280 0.18
4 5 -2 2 o 41.884 30.820 0.00 1.27860 0.05
4 5 -2 1 o 41.884 30.820 0.00 1.27860 0.05
6 -5 -2 1 o 48.209 34.543 180.00 1.27100 0.06
6 -5 -2 2 o 48.209 34.543 180.00 1.27100 0.06
3 6 1 1 o 21.093 15.866 0.00 1.27717 0.02
3 6 1 2 o 21.093 15.866 0.00 1.27717 0.02
7 0 -2 1 o 8.818 6.648 0.00 1.27684 0.01
7 0 -2 2 o 8.818 6.648 0.00 1.27684 0.01
4 -7 2 2 o 182.372 133.779 0.00 1.26950 0.21
4 -7 2 1 o 182.372 133.779 0.00 1.26950 0.21
1 7 -2 1 o 59.428 44.896 0.00 1.27490 0.06
1 7 -2 2 o 59.428 44.896 0.00 1.27490 0.06
3 -9 1 1 o 50.225 36.321 180.00 1.28045 0.05
3 -9 1 2 o 50.225 36.321 180.00 1.28045 0.05
2 -9 1 2 o 5.806 4.222 0.00 1.28019 0.01
2 -9 1 1 o 5.806 4.222 0.00 1.28019 0.01
5 4 -2 1 o 0.335 0.245 0.00 1.27244 0.00
5 4 -2 2 o 0.335 0.245 0.00 1.27244 0.00
0 1 -3 2 o 0.008 0.006 0.00 1.25961 0.00
0 1 -3 1 o 0.008 0.006 0.00 1.25961 0.00
1 2 -3 1 o 14.028 12.786 180.00 1.25937 0.02
1 2 -3 2 o 14.028 12.786 180.00 1.25937 0.02
1 0 -3 1 o 45.510 42.277 0.00 1.25899 0.06
1 0 -3 2 o 45.510 42.277 0.00 1.25899 0.06
6 -4 2 2 o 10.151 7.918 0.00 1.26493 0.01
6 -4 2 1 o 10.151 7.918 0.00 1.26493 0.01
5 1 2 2 o 10.477 10.118 180.00 1.25813 0.01
5 1 2 1 o 10.477 10.118 180.00 1.25813 0.01
8 -2 1 2 o 1.495 1.069 180.00 1.27063 0.00
8 -2 1 1 o 1.495 1.069 180.00 1.27063 0.00
7 -7 1 1 o 14.850 10.618 180.00 1.27030 0.02
7 -7 1 2 o 14.850 10.618 180.00 1.27030 0.02
6 -2 2 2 o 0.785 0.595 180.00 1.26408 0.00
6 -2 2 1 o 0.785 0.595 180.00 1.26408 0.00
2 1 -3 1 o 84.583 83.523 180.00 1.25743 0.11
2 1 -3 2 o 84.583 83.523 180.00 1.25743 0.11
0 2 -3 2 o 2.614 2.582 0.00 1.25741 0.00
0 2 -3 1 o 2.614 2.582 0.00 1.25741 0.00
1 -6 -2 1 o 10.340 7.770 180.00 1.26266 0.01
1 -6 -2 2 o 10.340 7.770 180.00 1.26266 0.01
2 0 -3 2 o 0.000 0.000 0.00 1.25487 0.00
2 0 -3 1 o 0.000 0.000 0.00 1.25487 0.00
6 -8 1 1 o 74.461 53.252 0.00 1.27175 0.08
6 -8 1 2 o 74.461 53.252 0.00 1.27175 0.08
7 -7 -1 2 o 40.876 29.326 0.00 1.27051 0.05
7 -7 -1 1 o 40.876 29.326 0.00 1.27051 0.05
1 -9 0 1 o 0.506 0.377 0.00 1.27461 0.00
1 -9 0 2 o 0.506 0.377 0.00 1.27461 0.00
8 1 0 1 o 34.060 25.202 0.00 1.27355 0.04
8 1 0 2 o 34.060 25.202 0.00 1.27355 0.04
3 6 -2 2 o 1.470 1.144 180.00 1.26176 0.00
3 6 -2 1 o 1.470 1.144 180.00 1.26176 0.00
8 -5 1 2 o 11.783 10.631 0.00 1.25959 0.01
8 -5 1 1 o 11.783 10.631 0.00 1.25959 0.01
6 3 1 1 o 0.206 0.193 180.00 1.25889 0.00
6 3 1 2 o 0.206 0.193 180.00 1.25889 0.00
5 -9 0 1 o 3.360 2.419 0.00 1.26993 0.00
5 -9 0 2 o 3.360 2.419 0.00 1.26993 0.00
0 0 3 2 o 14.119 21.259 0.00 1.24580 0.02
0 0 3 1 o 14.119 21.259 0.00 1.24580 0.02
8 1 -1 2 o 22.243 16.805 180.00 1.26847 0.03
8 1 -1 1 o 22.243 16.805 180.00 1.26847 0.03
4 -9 1 1 o 551.114 409.821 0.00 1.26263 0.55
4 -9 1 2 o 551.114 409.821 0.00 1.26263 0.55
7 3 -1 1 o 7.237 5.546 180.00 1.26814 0.01
7 3 -1 2 o 7.237 5.546 180.00 1.26814 0.01
2 2 -3 1 o 44.465 54.871 0.00 1.24405 0.06
2 2 -3 2 o 44.465 54.871 0.00 1.24405 0.06
1 -9 1 2 o 68.971 52.584 0.00 1.26189 0.06
1 -9 1 1 o 68.971 52.584 0.00 1.26189 0.06
5 -6 -2 1 o 50.428 81.128 0.00 1.24870 0.06
5 -6 -2 2 o 50.428 81.128 0.00 1.24870 0.06
7 3 0 2 o 0.326 0.257 0.00 1.26567 0.00
7 3 0 1 o 0.326 0.257 0.00 1.26567 0.00
7 -4 -2 1 o 17.153 28.265 0.00 1.24804 0.02
7 -4 -2 2 o 17.153 28.265 0.00 1.24804 0.02
6 -1 2 2 o 47.861 53.164 180.00 1.23976 0.06
6 -1 2 1 o 47.861 53.164 180.00 1.23976 0.06
0 3 -3 1 o 69.348 78.137 180.00 1.23945 0.09
0 3 -3 2 o 69.348 78.137 180.00 1.23945 0.09
1 -2 3 1 o 10.984 12.825 0.00 1.23842 0.01
1 -2 3 2 o 10.984 12.825 0.00 1.23842 0.01
7 -8 0 1 o 19.501 16.980 0.00 1.26009 0.02
7 -8 0 2 o 19.501 16.980 0.00 1.26009 0.02
2 -1 -3 2 o 23.957 27.395 0.00 1.23667 0.03
2 -1 -3 1 o 23.957 27.395 0.00 1.23667 0.03
9 -3 0 2 o 181.457 164.605 0.00 1.25956 0.23
9 -3 0 1 o 181.457 164.605 0.00 1.25956 0.23
1 3 -3 2 o 51.370 56.072 0.00 1.23588 0.06
1 3 -3 1 o 51.370 56.072 0.00 1.23588 0.06
8 -6 -1 2 o 27.453 31.337 0.00 1.25331 0.03
8 -6 -1 1 o 27.453 31.337 0.00 1.25331 0.03
6 -5 2 1 o 8.206 8.715 0.00 1.24135 0.01
6 -5 2 2 o 8.206 8.715 0.00 1.24135 0.01
1 -1 -3 2 o 8.023 8.317 0.00 1.23517 0.01
1 -1 -3 1 o 8.023 8.317 0.00 1.23517 0.01
1 -1 3 1 o 0.021 0.021 180.00 1.23509 0.00
1 -1 3 2 o 0.021 0.021 180.00 1.23509 0.00
3 0 -3 1 o 3.652 3.459 180.00 1.23394 0.00
3 0 -3 2 o 3.652 3.459 180.00 1.23394 0.00
6 3 -2 2 o 15.310 19.452 180.00 1.24426 0.02
6 3 -2 1 o 15.310 19.452 180.00 1.24426 0.02
9 -4 0 1 o 22.023 23.853 180.00 1.25430 0.03
9 -4 0 2 o 22.023 23.853 180.00 1.25430 0.03
7 1 -2 2 o 64.761 74.303 180.00 1.24336 0.08
7 1 -2 1 o 64.761 74.303 180.00 1.24336 0.08
9 -2 0 1 o 130.333 215.222 180.00 1.24875 0.17
9 -2 0 2 o 130.333 215.222 180.00 1.24875 0.17
3 1 -3 2 o 3.594 3.082 180.00 1.23099 0.00
3 1 -3 1 o 3.594 3.082 180.00 1.23099 0.00
6 -8 -1 2 o 14.751 15.881 0.00 1.24257 0.02
6 -8 -1 1 o 14.751 15.881 0.00 1.24257 0.02
8 -1 1 2 o 120.574 127.656 0.00 1.24201 0.15
8 -1 1 1 o 120.574 127.656 0.00 1.24201 0.15
8 -7 0 2 o 60.916 90.168 180.00 1.25026 0.07
8 -7 0 1 o 60.916 90.168 180.00 1.25026 0.07
0 8 1 1 o 16.170 18.232 180.00 1.23950 0.01
0 8 1 2 o 16.170 18.232 180.00 1.23950 0.01
2 7 1 2 o 0.002 0.003 180.00 1.23861 0.00
2 7 1 1 o 0.002 0.003 180.00 1.23861 0.00
1 -3 3 2 o 58.344 63.589 0.00 1.22651 0.07
1 -3 3 1 o 58.344 63.589 0.00 1.22651 0.07
2 8 0 1 o 27.157 30.342 180.00 1.24316 0.02
2 8 0 2 o 27.157 30.342 180.00 1.24316 0.02
0 6 2 1 o 1.368 1.703 0.00 1.22384 0.00
0 6 2 2 o 1.368 1.703 0.00 1.22384 0.00
0 1 3 1 o 0.630 0.848 180.00 1.21750 0.00
0 1 3 2 o 0.630 0.848 180.00 1.21750 0.00
2 -8 2 2 o 83.107 72.112 0.00 1.22969 0.08
2 -8 2 1 o 83.107 72.112 0.00 1.22969 0.08
3 4 2 1 o 17.272 21.990 180.00 1.22363 0.02
3 4 2 2 o 17.272 21.990 180.00 1.22363 0.02
2 8 -1 1 o 0.021 0.033 0.00 1.24543 0.00
2 8 -1 2 o 0.021 0.033 0.00 1.24543 0.00
1 0 3 1 o 261.291 356.190 180.00 1.21687 0.32
1 0 3 2 o 261.291 356.190 180.00 1.21687 0.32
3 -1 -3 2 o 8.865 11.706 0.00 1.22181 0.01
3 -1 -3 1 o 8.865 11.706 0.00 1.22181 0.01
1 -8 2 2 o 32.714 38.642 180.00 1.22536 0.03
1 -8 2 1 o 32.714 38.642 180.00 1.22536 0.03
4 3 2 1 o 13.861 17.833 180.00 1.21937 0.01
4 3 2 2 o 13.861 17.833 180.00 1.21937 0.01
9 -3 -1 1 o 3.015 2.704 0.00 1.23332 0.00
9 -3 -1 2 o 3.015 2.704 0.00 1.23332 0.00
2 3 -3 2 o 0.037 0.051 180.00 1.21620 0.00
2 3 -3 1 o 0.037 0.051 180.00 1.21620 0.00
0 9 0 1 o 2.577 2.208 180.00 1.23247 0.00
0 9 0 2 o 2.577 2.208 180.00 1.23247 0.00
8 -6 1 1 o 0.023 0.028 0.00 1.22496 0.00
8 -6 1 2 o 0.023 0.028 0.00 1.22496 0.00
3 2 -3 1 o 180.170 235.834 0.00 1.21328 0.22
3 2 -3 2 o 180.170 235.834 0.00 1.21328 0.22
9 -2 -1 2 o 3.326 2.821 0.00 1.22998 0.00
9 -2 -1 1 o 3.326 2.821 0.00 1.22998 0.00
2 7 -2 1 o 210.261 260.416 0.00 1.22450 0.21
2 7 -2 2 o 210.261 260.416 0.00 1.22450 0.21
5 -9 1 1 o 98.280 88.239 180.00 1.22889 0.10
5 -9 1 2 o 98.280 88.239 180.00 1.22889 0.10
3 -8 2 1 o 45.369 59.792 180.00 1.21788 0.05
3 -8 2 2 o 45.369 59.792 180.00 1.21788 0.05
5 -7 2 1 o 3.175 4.202 0.00 1.21782 0.00
5 -7 2 2 o 3.175 4.202 0.00 1.21782 0.00
9 -5 0 1 o 61.565 56.060 180.00 1.23357 0.08
9 -5 0 2 o 61.565 56.060 180.00 1.23357 0.08
0 9 -1 2 o 46.724 45.935 0.00 1.22776 0.04
0 9 -1 1 o 46.724 45.935 0.00 1.22776 0.04
2 -2 -3 1 o 83.494 70.927 180.00 1.20476 0.10
2 -2 -3 2 o 83.494 70.927 180.00 1.20476 0.10
2 -2 3 2 o 15.820 13.408 0.00 1.20461 0.02
2 -2 3 1 o 15.820 13.408 0.00 1.20461 0.02
2 5 2 1 o 237.956 201.301 180.00 1.20773 0.23
2 5 2 2 o 237.956 201.301 180.00 1.20773 0.23
0 4 -3 2 o 2.234 1.885 180.00 1.20766 0.00
0 4 -3 1 o 2.234 1.885 180.00 1.20766 0.00
1 -4 3 1 o 96.427 70.211 180.00 1.20061 0.11
1 -4 3 2 o 96.427 70.211 180.00 1.20061 0.11
9 -1 0 1 o 148.594 195.680 180.00 1.22306 0.18
9 -1 0 2 o 148.594 195.680 180.00 1.22306 0.18
7 2 1 1 o 7.504 7.583 180.00 1.21116 0.01
7 2 1 2 o 7.504 7.583 180.00 1.21116 0.01
9 -4 -1 1 o 15.309 20.487 0.00 1.22159 0.02
9 -4 -1 2 o 15.309 20.487 0.00 1.22159 0.02
6 -9 0 2 o 4.325 4.899 180.00 1.22613 0.00
6 -9 0 1 o 4.325 4.899 180.00 1.22613 0.00
6 -6 2 2 o 52.953 44.837 180.00 1.20459 0.06
6 -6 2 1 o 52.953 44.837 180.00 1.20459 0.06
6 0 2 1 o 6.817 5.294 180.00 1.20240 0.01
6 0 2 2 o 6.817 5.294 180.00 1.20240 0.01
5 6 -1 2 o 5.932 7.914 0.00 1.21757 0.01
5 6 -1 1 o 5.932 7.914 0.00 1.21757 0.01
0 8 -2 1 o 4.387 3.769 180.00 1.20538 0.00
0 8 -2 2 o 4.387 3.769 180.00 1.20538 0.00
6 -6 -2 1 o 36.646 31.249 180.00 1.20490 0.04
6 -6 -2 2 o 36.646 31.249 180.00 1.20490 0.04
7 -5 -2 2 o 11.395 9.435 0.00 1.20402 0.01
7 -5 -2 1 o 11.395 9.435 0.00 1.20402 0.01
9 -1 -1 2 o 3.495 3.945 180.00 1.21194 0.00
9 -1 -1 1 o 3.495 3.945 180.00 1.21194 0.00
8 0 1 1 o 0.367 0.257 180.00 1.20091 0.00
8 0 1 2 o 0.367 0.257 180.00 1.20091 0.00
6 5 -1 2 o 0.367 0.363 180.00 1.21106 0.00
6 5 -1 1 o 0.367 0.363 180.00 1.21106 0.00
5 6 0 1 o 762.955 635.892 180.00 1.20883 0.69
5 6 0 2 o 762.955 635.892 180.00 1.20883 0.69
8 2 -1 2 o 40.774 33.926 180.00 1.20882 0.04
8 2 -1 1 o 40.774 33.926 180.00 1.20882 0.04
8 2 0 2 o 0.288 0.249 0.00 1.20666 0.00
8 2 0 1 o 0.288 0.249 0.00 1.20666 0.00
7 -8 1 1 o 12.266 8.740 180.00 1.20030 0.01
7 -8 1 2 o 12.266 8.740 180.00 1.20030 0.01
4 7 -1 2 o 0.158 0.132 0.00 1.20417 0.00
4 7 -1 1 o 0.158 0.132 0.00 1.20417 0.00
6 5 0 2 o 29.725 22.896 180.00 1.20244 0.03
6 5 0 1 o 29.725 22.896 180.00 1.20244 0.03
9 -6 0 2 o 119.780 82.984 0.00 1.19955 0.14
9 -6 0 1 o 119.780 82.984 0.00 1.19955 0.14
