#------------------------------------------------------------------------------
#$Date: 2016-03-24 02:31:37 +0200 (Thu, 24 Mar 2016) $
#$Revision: 179583 $
#$URL: svn://www.crystallography.net/cod/cif/4/50/48/4504826.cif $
#------------------------------------------------------------------------------
#
# This file is available in the Crystallography Open Database (COD),
# http://www.crystallography.net/
#
# All data on this site have been placed in the public domain by the
# contributors.
#
data_4504826
loop_
_publ_author_name
'Guo, Fang'
'Cheung, Eugene Y.'
'Harris, Kenneth D. M.'
'Pedireddi, V. R.'
_publ_section_title
;
 Contrasting Solid-State Structures of Trithiocyanuric Acid and Cyanuric
 Acid
;
_journal_issue                   4
_journal_name_full               'Crystal Growth &amp; Design'
_journal_page_first              846
_journal_paper_doi               10.1021/cg0601094
_journal_volume                  6
_journal_year                    2006
_chemical_formula_sum            'C H N S'
_chemical_formula_weight         59.09
_chemical_name_systematic        ' ?'
_space_group_IT_number           2
_symmetry_cell_setting           triclinic
_symmetry_space_group_name_Hall  '-P 1'
_symmetry_space_group_name_H-M   'P -1'
_audit_creation_date             2005-10-06T11:54
_audit_creation_method           'from EXP file using GSAS2CIF'
_audit_update_record
' 2005-10-06T11:54  Initial CIF as created by GSAS2CIF'
_cell_angle_alpha                102.990(6)
_cell_angle_beta                 92.874(6)
_cell_angle_gamma                110.470(4)
_cell_formula_units_Z            6
_cell_length_a                   5.8571(4)
_cell_length_b                   7.04750(25)
_cell_length_c                   8.7999(6)
_cell_volume                     328.28(4)
_computing_structure_refinement  GSAS
_diffrn_radiation_probe          x-ray
_diffrn_radiation_wavelength     1.54056
_exptl_absorpt_correction_T_max  1.00000
_exptl_absorpt_correction_T_min  1.00000
_exptl_absorpt_process_details
;   GSAS Absorption/surface roughness correction: function number 0
 No correction is applied.
;
_pd_block_id                     2005-10-06T11:54|NEW||
_pd_calc_method                  'Rietveld Refinement'
_pd_instr_location               ' ?'
_pd_meas_2theta_range_inc        0.0167
_pd_meas_2theta_range_max        69.9332
_pd_meas_2theta_range_min        8.043
_pd_meas_number_of_points        3707
_pd_phase_name                   TTCA
_pd_proc_2theta_range_inc        0.0167
_pd_proc_2theta_range_max        69.92647
_pd_proc_2theta_range_min        8.03627
_pd_proc_info_datetime           2005-10-06T11:54:35
_pd_proc_info_excluded_regions   ' ?'
_pd_proc_ls_background_function
;   GSAS Background function number 2 with  3 terms.
 Cosine Fourier series
      1:    1.00000     2:    0.00000     3:    0.00000    
;
_pd_proc_ls_peak_cutoff          0.01000
_pd_proc_ls_pref_orient_corr
;   March-Dollase
 AXIS  1 Ratio=     0.372 Frac     0.063  h= 0.000  k= 0.000  l= 1.000
 AXIS  2 Ratio=     1.918 Frac     0.063  h= 0.000  k= 1.000  l= 0.000
 AXIS  3 Ratio=     1.346 Frac     0.125  h= 1.000  k= 0.000  l= 0.000
 AXIS  4 Ratio=     0.784 Frac     0.250  h= 1.000  k= 2.000  l= 1.000
 AXIS  5 Ratio=     1.144 Frac     0.500  h= 1.000  k= 1.000  l= 1.000
 Prefered orientation correction range: Min=   0.80263, Max=   2.20255
;
_pd_proc_ls_profile_function
;
 CW Profile function number 2 with  18 terms
 Profile coefficients for Simpson's rule integration of pseudovoigt function
 C.J. Howard (1982). J. Appl. Cryst.,15,615-620.
 P. Thompson, D.E. Cox & J.B. Hastings (1987). J. Appl. Cryst.,20,79-83.
 Peak tails are ignored  where the intensity is below 0.0100 times the peak
   Aniso. broadening axis   0.0   0.0   1.0
;
_pd_proc_ls_prof_R_factor        0.0206
_pd_proc_ls_prof_wR_expected     0.0052
_pd_proc_ls_prof_wR_factor       0.0304
_pd_proc_number_of_points        3707
_pd_spec_mounting                ' ?'
_refine_ls_goodness_of_fit_all   5.90
_refine_ls_matrix_type           full
_refine_ls_number_parameters     48
_refine_ls_number_restraints     39
_refine_ls_R_Fsqd_factor
;
;
_refine_ls_shift/su_max          0.08
_refine_ls_shift/su_mean         0.02
_reflns_number_observed          0
_cod_data_source_file            cg0601094si20060228_053714.cif
_cod_data_source_block           NEW_publ
_cod_original_cell_volume        328.283(23)
_cod_original_sg_symbol_H-M      p-1
_cod_database_code               4504826
#BEGIN Tags that were not found in dictionaries:
_gsas_exptl_extinct_corr_t_min   1.00000
_gsas_exptl_extinct_corr_t_max   1.00000
#END Tags that were not found in dictionaries
loop_
_symmetry_equiv_pos_site_id
_symmetry_equiv_pos_as_xyz
1 +x,+y,+z
-1 -x,-y,-z
loop_
_atom_site_type_symbol
_atom_site_label
_atom_site_fract_x
_atom_site_fract_y
_atom_site_fract_z
_atom_site_occupancy
_atom_site_thermal_displace_type
_atom_site_U_iso_or_equiv
_atom_site_symmetry_multiplicity
C C1 0.1995(15) 0.5973(26) 0.2721(8) 1.0 Uiso 0.10002 2
N N2 0.3238(16) 0.6557(29) 0.1505(10) 1.0 Uiso 0.10002 2
C C3 0.5698(11) 0.7787(19) 0.1803(9) 1.0 Uiso 0.10002 2
N N4 0.6925(10) 0.8401(18) 0.3294(11) 1.0 Uiso 0.10002 2
C C5 0.5681(9) 0.7813(15) 0.4510(8) 1.0 Uiso 0.10002 2
N N6 0.3223(15) 0.6588(27) 0.4211(8) 1.0 Uiso 0.10002 2
S S7 -0.0986(11) 0.4504(18) 0.2365(8) 1.0 Uiso 0.10002 2
S S8 0.7212(12) 0.8500(21) 0.0324(9) 1.0 Uiso 0.10002 2
S S9 0.7177(11) 0.8577(16) 0.6336(8) 1.0 Uiso 0.10002 2
H H10 0.2383(18) 0.6125(31) 0.0465(12) 1.0 Uiso 0.025 2
H H11 0.863(5) 0.924(9) 0.3499(22) 1.0 Uiso 0.025 2
H H12 0.2367(18) 0.6185(33) 0.5049(20) 1.0 Uiso 0.025 2
loop_
_atom_type_symbol
_atom_type_number_in_cell
_atom_type_scat_dispersion_real
_atom_type_scat_dispersion_imag
_atom_type_scat_Cromer_Mann_a1
_atom_type_scat_Cromer_Mann_a2
_atom_type_scat_Cromer_Mann_a3
_atom_type_scat_Cromer_Mann_a4
_atom_type_scat_Cromer_Mann_b1
_atom_type_scat_Cromer_Mann_b2
_atom_type_scat_Cromer_Mann_b3
_atom_type_scat_Cromer_Mann_b4
_atom_type_scat_Cromer_Mann_c
_atom_type_scat_source
C 6.0 0.000 0.000 2.31000 20.8439 1.02000 10.2075 1.58860 0.56870 0.86500
51.6512 0.21560 International_Tables_Vol_C
N 6.0 0.000 0.000 12.2126 0.00570 3.13220 9.89330 2.01250 28.9975 1.16630
0.58260 -11.529 International_Tables_Vol_C
S 6.0 0.000 0.000 6.90530 1.46790 5.20340 22.2151 1.43790 0.25360 1.58630
56.1720 0.86690 International_Tables_Vol_C
H 6.0 0.000 0.000 0.49300 10.5109 0.32291 26.1257 0.14019 3.14236 0.04081
57.7997 0.00304 International_Tables_Vol_C
loop_
_pd_meas_counts_total
_pd_proc_ls_weight
_pd_proc_intensity_bkg_calc
_pd_calc_intensity_total
98918.0 0.00001011 100207.77344 1.00000
99060.0 0.00001009 100106.24219 1.00000
99642.0 0.00001004 100004.71094 1.00000
99372.0 0.00001006 99903.17969 1.00000
98782.0 0.00001012 99801.65625 1.00000
98604.0 0.00001014 99700.12500 1.00000
98932.0 0.00001011 99598.59375 1.00000
98522.0 0.00001015 99497.07031 1.00000
97638.0 0.00001024 99395.53906 1.00000
99000.0 0.00001010 99294.00781 1.00000
98128.0 0.00001019 99192.47656 1.00000
97994.0 0.00001020 99090.95313 1.00000
98122.0 0.00001019 98989.42188 1.00000
98150.0 0.00001019 98887.89063 1.00000
98036.0 0.00001020 98786.36719 1.00000
97486.0 0.00001026 98684.83594 1.00000
99118.0 0.00001009 98583.30469 1.00000
97920.0 0.00001021 98481.78125 1.00000
97198.0 0.00001029 98380.24219 1.00000
97106.0 0.00001030 98278.71875 1.00000
96548.0 0.00001036 98177.18750 1.00000
96766.0 0.00001033 98075.66406 1.00000
97044.0 0.00001030 97974.13281 1.00000
96684.0 0.00001034 97872.60938 1.00000
96460.0 0.00001037 97771.07031 29.02859
96116.0 0.00001040 97669.54688 29.51516
96580.0 0.00001035 97568.01563 30.01452
96524.0 0.00001036 97466.48438 30.52711
95410.0 0.00001048 97364.96094 31.05333
96572.0 0.00001035 97263.42969 31.59376
96928.0 0.00001032 97161.89844 32.14888
96248.0 0.00001039 97060.37500 32.71917
96196.0 0.00001040 96958.83594 33.30529
96880.0 0.00001032 96857.31250 33.90775
96270.0 0.00001039 96755.78125 34.52719
95870.0 0.00001043 96654.25781 35.16428
95656.0 0.00001045 96552.72656 35.81964
95212.0 0.00001050 96451.19531 36.49401
95868.0 0.00001043 96349.66406 37.18815
94954.0 0.00001053 96248.14063 37.90275
95602.0 0.00001046 96146.60938 38.63874
95354.0 0.00001049 96045.07813 39.39693
95254.0 0.00001050 95943.55469 40.17815
95164.0 0.00001051 95842.02344 40.98347
95068.0 0.00001052 95740.49219 41.81382
94820.0 0.00001055 95638.96875 42.67018
94574.0 0.00001057 95537.43750 43.55378
93898.0 0.00001065 95435.90625 44.46568
94304.0 0.00001060 95334.37500 45.40715
94746.0 0.00001055 95232.84375 46.37949
93516.0 0.00001069 95131.32031 47.38396
94030.0 0.00001063 95029.78906 48.42215
95084.0 0.00001052 94928.26563 49.49551
94492.0 0.00001058 94826.73438 50.60553
94158.0 0.00001062 94725.20313 51.75408
93568.0 0.00001069 94623.67188 52.94287
94350.0 0.00001060 94522.14844 54.17372
93676.0 0.00001068 94420.61719 55.44879
93358.0 0.00001071 94319.09375 56.77009
93420.0 0.00001070 94217.56250 58.13993
93442.0 0.00001070 94116.03125 59.56075
93190.0 0.00001073 94014.50000 61.03501
93226.0 0.00001073 93912.97656 62.56545
93678.0 0.00001067 93811.43750 64.15501
93356.0 0.00001071 93709.92188 65.80660
92978.0 0.00001076 93608.38281 67.52372
93050.0 0.00001075 93506.85938 69.30974
93704.0 0.00001067 93405.32813 71.16824
92410.0 0.00001082 93303.79688 73.10347
93452.0 0.00001070 93202.26563 75.11954
92392.0 0.00001082 93100.74219 77.22085
92342.0 0.00001083 92999.21094 79.41257
92790.0 0.00001078 92897.68750 81.69968
92792.0 0.00001078 92796.15625 84.08786
92834.0 0.00001077 92694.62500 86.58323
92472.0 0.00001081 92593.10156 89.19196
92474.0 0.00001081 92491.57031 91.92140
91972.0 0.00001087 92390.03125 94.77885
92138.0 0.00001085 92288.51563 97.77219
92424.0 0.00001082 92186.97656 100.91057
91954.0 0.00001088 92085.44531 104.20322
90820.0 0.00001101 91983.92188 107.66010
91484.0 0.00001093 91882.39063 111.29279
91664.0 0.00001091 91780.85938 115.11288
90696.0 0.00001103 91679.33594 119.13356
91200.0 0.00001096 91577.80469 123.36918
91516.0 0.00001093 91476.28125 127.83487
92374.0 0.00001083 91374.75000 132.54764
92444.0 0.00001082 91273.21875 137.52608
90378.0 0.00001106 91171.68750 142.78978
90742.0 0.00001102 91070.16406 148.36162
91398.0 0.00001094 90968.63281 154.26543
91420.0 0.00001094 90868.71875 160.52744
91326.0 0.00001095 90834.61719 167.17792
90502.0 0.00001105 90800.50781 174.24887
90748.0 0.00001102 90766.41406 181.77573
90892.0 0.00001100 90732.30469 189.79939
91002.0 0.00001099 90698.21094 198.36342
90084.0 0.00001110 90664.10938 207.51764
90816.0 0.00001101 90630.00000 217.31792
90644.0 0.00001103 90595.90625 227.82549
90250.0 0.00001108 90561.79688 239.11221
90434.0 0.00001106 90527.70313 251.25706
90740.0 0.00001102 90493.60156 264.34958
90056.0 0.00001110 90459.50000 278.49506
89338.0 0.00001119 90425.39063 293.81085
89818.0 0.00001113 90391.29688 310.43170
89646.0 0.00001115 90357.18750 328.51663
90150.0 0.00001109 90323.09375 348.24445
89962.0 0.00001112 90288.99219 369.82480
89578.0 0.00001116 90254.88281 393.50027
90698.0 0.00001103 90220.78125 419.54874
89532.0 0.00001117 90186.67969 448.29385
90354.0 0.00001107 90152.57813 480.10934
89942.0 0.00001112 90118.48438 515.41974
89944.0 0.00001112 90084.37500 554.72052
89514.0 0.00001117 90050.27344 598.56830
89826.0 0.00001113 90016.17188 647.59216
89530.0 0.00001117 89982.07031 702.51050
89194.0 0.00001121 89947.96875 764.11035
89414.0 0.00001118 89913.86719 833.25226
89822.0 0.00001113 89879.76563 910.87732
89274.0 0.00001120 89845.66406 997.95142
88748.0 0.00001127 89811.56250 1095.45410
89454.0 0.00001118 89777.46094 1204.31042
88822.0 0.00001126 89743.36719 1325.28186
88766.0 0.00001127 89709.25781 1458.89709
89028.0 0.00001123 89675.15625 1605.25391
89484.0 0.00001118 89641.05469 1763.90332
89996.0 0.00001111 89606.95313 1933.79492
90238.0 0.00001108 89572.85156 2113.21484
89430.0 0.00001118 89538.75000 2299.96997
89362.0 0.00001119 89504.64844 2491.69019
89774.0 0.00001114 89470.54688 2685.98242
89904.0 0.00001112 89436.45313 2880.44629
91422.0 0.00001094 89402.34375 3072.36865
90806.0 0.00001101 89368.24219 3257.69946
91372.0 0.00001094 89334.14844 3430.36743
92218.0 0.00001084 89300.03906 3581.86719
92068.0 0.00001086 89265.93750 3701.51782
92944.0 0.00001076 89231.83594 3778.15063
94458.0 0.00001059 89197.73438 3802.37036
94310.0 0.00001060 89163.63281 3768.84106
94508.0 0.00001058 89129.53125 3677.81226
93274.0 0.00001072 89095.42969 3535.09863
91848.0 0.00001089 89061.32813 3350.87280
90356.0 0.00001107 89027.22656 3137.48438
89184.0 0.00001121 88993.12500 2907.43921
88400.0 0.00001131 88959.02344 2671.95532
88424.0 0.00001131 88924.92188 2439.89136
88118.0 0.00001135 88890.82031 2217.61499
87888.0 0.00001138 88856.71875 2009.30334
88436.0 0.00001131 88822.61719 1817.17114
88084.0 0.00001135 88788.51563 1642.05859
88650.0 0.00001128 88754.41406 1483.92627
87760.0 0.00001139 88720.31250 1342.03650
87282.0 0.00001146 88686.21094 1215.36084
87268.0 0.00001146 88652.10938 1102.61365
87680.0 0.00001141 88618.00781 1002.52295
88150.0 0.00001134 88583.90625 913.79272
87532.0 0.00001142 88549.80469 835.14514
87226.0 0.00001146 88515.70313 765.43909
87272.0 0.00001146 88481.60156 703.60590
87748.0 0.00001140 88447.50000 648.65314
87724.0 0.00001140 88413.39844 599.72998
86754.0 0.00001153 88379.29688 556.06836
87672.0 0.00001141 88345.19531 516.97687
87446.0 0.00001144 88311.09375 481.88065
87204.0 0.00001147 88276.99219 450.26297
87602.0 0.00001142 88242.89063 421.67938
87080.0 0.00001148 88208.78906 395.75977
87144.0 0.00001148 88174.68750 372.17545
87124.0 0.00001148 88140.58594 350.64557
86890.0 0.00001151 88106.48438 330.93860
87058.0 0.00001149 88072.38281 312.84714
86946.0 0.00001150 88038.28125 296.19324
86602.0 0.00001155 88004.17969 280.83017
87598.0 0.00001142 87970.07813 266.62408
87714.0 0.00001140 87935.97656 253.45879
86872.0 0.00001151 87901.87500 241.23798
86916.0 0.00001151 87867.77344 229.87102
88134.0 0.00001135 87833.67188 219.28261
86752.0 0.00001153 87799.57031 209.40018
86574.0 0.00001155 87765.46875 200.16553
87582.0 0.00001142 87731.36719 191.52432
86848.0 0.00001151 87697.26563 183.42447
86962.0 0.00001150 87663.16406 175.82436
86416.0 0.00001157 87629.06250 168.68471
87326.0 0.00001145 87594.96094 161.96707
86822.0 0.00001152 87560.85156 155.64107
86514.0 0.00001156 87526.75781 149.67760
87350.0 0.00001145 87492.64844 144.04776
86514.0 0.00001156 87458.55469 138.72929
87036.0 0.00001149 87424.45313 133.69917
87450.0 0.00001144 87394.10156 128.93646
86978.0 0.00001150 87394.82813 124.42400
87432.0 0.00001144 87395.54688 120.14413
86370.0 0.00001158 87396.27344 116.08065
87566.0 0.00001142 87396.99219 112.22050
86814.0 0.00001152 87397.71875 108.54987
87610.0 0.00001141 87398.44531 105.05619
86582.0 0.00001155 87399.16406 101.72929
87064.0 0.00001149 87399.89063 98.55835
87432.0 0.00001144 87400.60938 95.53340
87164.0 0.00001147 87401.33594 92.64651
86964.0 0.00001150 87402.06250 89.88886
86720.0 0.00001153 87402.78125 87.25348
86800.0 0.00001152 87403.50781 84.73238
87214.0 0.00001147 87404.23438 82.31975
86494.0 0.00001156 87404.95313 80.00970
87154.0 0.00001147 87405.67969 77.79571
87462.0 0.00001143 87406.39844 75.67317
87272.0 0.00001146 87407.12500 73.63730
87136.0 0.00001148 87407.85156 71.68274
87396.0 0.00001144 87408.57031 69.80579
86832.0 0.00001152 87409.29688 68.00254
87232.0 0.00001146 87410.01563 66.26859
87448.0 0.00001144 87410.74219 64.60104
87594.0 0.00001142 87411.46875 62.99632
87464.0 0.00001143 87412.18750 61.45112
87238.0 0.00001146 87412.91406 59.96295
87384.0 0.00001144 87413.64063 58.52886
87556.0 0.00001142 87414.35938 57.14606
86682.0 0.00001154 87415.08594 55.81255
87422.0 0.00001144 87415.80469 54.52583
86914.0 0.00001151 87416.53125 53.28354
87164.0 0.00001147 87417.25781 52.08403
87202.0 0.00001147 87417.97656 50.92520
87752.0 0.00001140 87418.70313 49.80508
86908.0 0.00001151 87419.42188 48.72227
88042.0 0.00001136 87420.14844 47.67491
87486.0 0.00001143 87420.87500 46.66171
87230.0 0.00001146 87421.59375 45.68083
87690.0 0.00001140 87422.32031 44.73120
87896.0 0.00001138 87423.03906 43.81158
87860.0 0.00001138 87423.76563 42.92039
86610.0 0.00001155 87424.49219 42.05672
87414.0 0.00001144 87425.21094 41.21954
87118.0 0.00001148 87425.93750 40.40746
87296.0 0.00001146 87426.66406 39.61972
87518.0 0.00001143 87427.38281 38.85542
88090.0 0.00001135 87428.10938 38.11337
86756.0 0.00001153 87428.82813 37.39299
88098.0 0.00001135 87429.55469 36.69332
87472.0 0.00001143 87430.28125 36.01350
87346.0 0.00001145 87431.00000 35.35297
88558.0 0.00001129 87431.72656 34.71091
87920.0 0.00001137 87432.44531 34.08657
87926.0 0.00001137 87433.17188 33.47946
88486.0 0.00001130 87433.89844 32.88887
87684.0 0.00001140 87434.61719 32.31413
87620.0 0.00001141 87435.34375 31.75484
88370.0 0.00001132 87436.07031 31.21037
88454.0 0.00001131 87436.78906 30.68013
87738.0 0.00001140 87437.51563 30.16378
87856.0 0.00001138 87438.23438 29.66072
88260.0 0.00001133 87438.96094 29.17062
88628.0 0.00001128 87439.68750 28.69286
88014.0 0.00001136 87440.40625 1.00000
88032.0 0.00001136 87441.13281 1.00000
88066.0 0.00001136 87441.85156 1.00000
87644.0 0.00001141 87442.57813 1.00000
88060.0 0.00001136 87443.30469 1.00000
87760.0 0.00001139 87444.02344 1.00000
87850.0 0.00001138 87444.75000 1.00000
87930.0 0.00001137 87445.46875 1.00000
88340.0 0.00001132 87446.19531 1.00000
87970.0 0.00001137 87446.92188 1.00000
87716.0 0.00001140 87447.64063 1.00000
87774.0 0.00001139 87448.36719 1.00000
87304.0 0.00001145 87449.09375 1.00000
87724.0 0.00001140 87449.81250 1.00000
88078.0 0.00001135 87450.53906 1.00000
88118.0 0.00001135 87451.25781 1.00000
88318.0 0.00001132 87444.60938 1.00000
87934.0 0.00001137 87435.71094 1.00000
88366.0 0.00001132 87426.81250 1.00000
87594.0 0.00001142 87417.91406 1.00000
87666.0 0.00001141 87409.01563 1.00000
87750.0 0.00001140 87400.11719 1.00000
88178.0 0.00001134 87391.21875 1.00000
88490.0 0.00001130 87382.32031 1.00000
88134.0 0.00001135 87373.42188 1.00000
88296.0 0.00001133 87364.52344 1.00000
87682.0 0.00001140 87355.62500 1.00000
88192.0 0.00001134 87346.72656 1.00000
88422.0 0.00001131 87337.82813 1.00000
87514.0 0.00001143 87328.92969 1.00000
88290.0 0.00001133 87320.03125 1.00000
87844.0 0.00001138 87311.13281 1.00000
88496.0 0.00001130 87302.23438 1.00000
88124.0 0.00001135 87293.33594 1.00000
87720.0 0.00001140 87284.43750 1.00000
87764.0 0.00001139 87275.53906 1.00000
87266.0 0.00001146 87266.64063 1.00000
88022.0 0.00001136 87257.74219 1.00000
87908.0 0.00001138 87248.84375 1.00000
86804.0 0.00001152 87239.94531 1.00000
87796.0 0.00001139 87231.04688 1.00000
87558.0 0.00001142 87222.14844 1.00000
87380.0 0.00001144 87213.25000 1.00000
87624.0 0.00001141 87204.35156 1.00000
87306.0 0.00001145 87195.45313 1.00000
87322.0 0.00001145 87186.55469 1.00000
87466.0 0.00001143 87177.65625 1.00000
87854.0 0.00001138 87168.75781 1.00000
87846.0 0.00001138 87159.85938 10.57275
87630.0 0.00001141 87150.96094 11.04358
87828.0 0.00001139 87142.05469 11.55003
87990.0 0.00001136 87133.16406 12.09577
88066.0 0.00001136 87124.25781 12.68519
87212.0 0.00001147 87115.35938 13.32289
87282.0 0.00001146 87106.46875 14.01426
86892.0 0.00001151 87097.56250 14.76579
87658.0 0.00001141 87088.66406 15.58445
87442.0 0.00001144 87079.77344 16.47840
87538.0 0.00001142 87070.86719 17.45759
87242.0 0.00001146 87061.96875 18.53283
87406.0 0.00001144 87053.07813 19.71731
87344.0 0.00001145 87044.17188 21.02661
87426.0 0.00001144 87035.27344 22.47852
86872.0 0.00001151 87026.37500 24.09483
86792.0 0.00001152 87017.47656 25.90174
87284.0 0.00001146 87008.57813 27.92994
87310.0 0.00001145 86999.67969 30.21759
86876.0 0.00001151 86990.78125 32.81155
86628.0 0.00001154 86981.88281 35.76841
86694.0 0.00001153 86972.98438 39.16006
86424.0 0.00001157 86964.08594 43.07735
86696.0 0.00001153 86955.18750 47.63457
86228.0 0.00001160 86946.28906 52.98322
87352.0 0.00001145 86913.57813 59.32411
86684.0 0.00001154 86867.49219 66.94211
87390.0 0.00001144 86821.41406 76.24907
85784.0 0.00001166 86775.34375 87.87484
87186.0 0.00001147 86729.25781 102.80399
86032.0 0.00001162 86683.17969 194.32619
86042.0 0.00001162 86637.10938 222.83734
86616.0 0.00001155 86591.02344 261.54773
86418.0 0.00001157 86544.94531 314.49097
86440.0 0.00001157 86498.86719 386.29233
86876.0 0.00001151 86452.78906 480.79233
86424.0 0.00001157 86406.71094 598.17426
87106.0 0.00001148 86360.63281 734.83588
86256.0 0.00001159 86314.55469 889.85040
86586.0 0.00001155 86268.47656 1061.80859
85540.0 0.00001169 86222.39844 1229.50232
86772.0 0.00001152 86176.32031 1359.01184
86506.0 0.00001156 86130.24219 1440.92688
86092.0 0.00001162 86084.16406 1478.89893
86260.0 0.00001159 86038.08594 1452.66724
85924.0 0.00001164 85992.00781 1335.23804
86244.0 0.00001160 85945.92969 1139.30273
85898.0 0.00001164 85899.85156 919.48749
86446.0 0.00001157 85853.77344 723.44397
85394.0 0.00001171 85807.69531 569.60120
85884.0 0.00001164 85761.61719 457.70834
86010.0 0.00001163 85715.53906 380.25052
85692.0 0.00001167 85669.46094 328.29749
85700.0 0.00001167 85623.38281 293.90073
85432.0 0.00001171 85577.30469 271.04999
85606.0 0.00001168 85531.22656 255.72023
85338.0 0.00001172 85485.14844 245.40817
85722.0 0.00001167 85439.07031 238.61824
86148.0 0.00001161 85392.99219 234.45795
85074.0 0.00001175 85346.91406 232.36618
85442.0 0.00001170 85300.83594 231.97115
84908.0 0.00001178 85254.75781 233.01625
85318.0 0.00001172 85208.67969 235.31947
85028.0 0.00001176 85162.59375 238.75241
84902.0 0.00001178 85116.52344 243.22461
84560.0 0.00001183 85070.44531 248.67740
85058.0 0.00001176 85024.35938 255.07713
85116.0 0.00001175 84978.28906 262.40738
84428.0 0.00001184 84932.21094 270.67163
85422.0 0.00001171 84886.12500 279.88925
84920.0 0.00001178 84840.05469 290.08978
84504.0 0.00001183 84793.97656 301.32034
85020.0 0.00001176 84747.89063 313.64227
84872.0 0.00001178 84701.81250 327.12549
84500.0 0.00001183 84655.73438 341.86139
83972.0 0.00001191 84609.66406 357.95126
84832.0 0.00001179 84563.58594 375.52380
83470.0 0.00001198 84517.50000 394.71713
84442.0 0.00001184 84471.42969 415.69519
84136.0 0.00001189 84425.34375 438.65823
84080.0 0.00001189 84379.26563 463.82339
85252.0 0.00001173 84333.19531 491.44742
84922.0 0.00001178 84287.10938 521.84271
84482.0 0.00001184 84241.03125 555.35382
84396.0 0.00001185 84194.96094 592.39069
83518.0 0.00001197 84148.87500 624.05164
84020.0 0.00001190 84102.79688 670.12976
84882.0 0.00001178 84056.72656 721.45886
83916.0 0.00001192 84010.64063 778.87158
83570.0 0.00001197 83964.56250 843.34357
83404.0 0.00001199 83918.49219 916.08734
84930.0 0.00001177 83872.40625 998.58820
84252.0 0.00001187 83826.32813 1092.63464
83904.0 0.00001192 83780.25781 1200.48010
85020.0 0.00001176 83734.17188 1324.92896
84936.0 0.00001177 83688.09375 1469.41101
84538.0 0.00001183 83642.01563 1638.25574
84998.0 0.00001176 83595.93750 1836.84302
85200.0 0.00001174 83549.85938 2071.69873
85352.0 0.00001172 83503.78125 2350.86987
84630.0 0.00001182 83457.71094 2683.77515
85024.0 0.00001176 83411.62500 3081.32935
85928.0 0.00001164 83365.54688 3554.76733
86144.0 0.00001161 83319.46875 4114.17773
87160.0 0.00001147 83273.39063 4765.62402
87724.0 0.00001140 83227.31250 5506.35986
88142.0 0.00001135 83181.24219 6322.43018
88902.0 0.00001125 83135.15625 7191.57080
89138.0 0.00001122 83089.07813 8091.59131
90128.0 0.00001110 83043.00000 9007.64258
91726.0 0.00001090 82996.92188 9920.51172
91652.0 0.00001091 82950.84375 10775.23633
92998.0 0.00001075 82904.76563 11460.26758
93008.0 0.00001075 82858.68750 11826.87207
94682.0 0.00001056 82812.60938 11756.02246
93668.0 0.00001068 82766.53125 11227.69434
93184.0 0.00001073 82720.45313 10333.02539
92482.0 0.00001081 82674.37500 9226.19141
89738.0 0.00001114 82628.29688 8059.49414
88498.0 0.00001130 82582.21875 6943.84277
86930.0 0.00001150 82536.14063 5940.97461
85500.0 0.00001170 82490.06250 5073.11963
85452.0 0.00001170 82443.98438 4338.84473
83884.0 0.00001192 82397.90625 3725.49512
83432.0 0.00001199 82351.82813 3216.04297
82740.0 0.00001209 82305.75000 2793.60059
82642.0 0.00001210 82259.67188 2442.63477
83348.0 0.00001200 82213.58594 2150.05811
82370.0 0.00001214 82167.51563 1904.88733
82068.0 0.00001219 82121.43750 1698.07312
82008.0 0.00001219 82075.35156 1522.46545
81548.0 0.00001226 82029.28125 1372.30371
82428.0 0.00001213 81983.19531 1242.95288
82242.0 0.00001216 81937.11719 1130.81555
82374.0 0.00001214 81891.04688 1032.99744
81162.0 0.00001232 81844.96094 947.14630
81088.0 0.00001233 81798.89063 871.42688
81914.0 0.00001221 81752.81250 804.30975
80946.0 0.00001235 81706.72656 744.54443
81242.0 0.00001231 81660.65625 691.12244
81430.0 0.00001228 81614.57813 643.18066
81792.0 0.00001223 81568.49219 599.99762
81042.0 0.00001234 81522.41406 560.98260
80858.0 0.00001237 81476.34375 525.61700
80754.0 0.00001238 81430.25781 493.46021
80956.0 0.00001235 81384.18750 464.14771
81716.0 0.00001224 81338.10938 480.26535
80104.0 0.00001248 81292.02344 457.83371
80066.0 0.00001249 81245.94531 437.56732
80934.0 0.00001236 81199.86719 419.26874
80374.0 0.00001244 81153.79688 402.77808
80168.0 0.00001247 81107.71094 387.95090
80646.0 0.00001240 81061.63281 374.67596
80666.0 0.00001240 81015.56250 362.85809
79838.0 0.00001253 80969.47656 352.41617
80698.0 0.00001239 80923.39844 343.29410
80340.0 0.00001245 80877.32813 335.44989
79924.0 0.00001251 80831.24219 328.85516
80840.0 0.00001237 80785.16406 323.50357
80152.0 0.00001248 80739.09375 319.40485
80310.0 0.00001245 80693.00781 316.58664
79956.0 0.00001251 80646.92969 315.10123
80660.0 0.00001240 80600.85938 315.02438
80564.0 0.00001241 80554.77344 316.46237
80028.0 0.00001250 80508.69531 319.55670
80826.0 0.00001237 80462.61719 324.49371
80116.0 0.00001248 80416.53906 331.51669
79690.0 0.00001255 80370.46094 340.93723
80258.0 0.00001246 80324.39063 353.16336
80258.0 0.00001246 80278.30469 368.72882
80116.0 0.00001248 80232.22656 388.32864
81186.0 0.00001232 80186.14844 412.89642
80038.0 0.00001249 80140.07031 443.69598
79598.0 0.00001256 80093.99219 482.45001
80024.0 0.00001250 80047.91406 531.59851
80264.0 0.00001246 80001.83594 594.63574
80606.0 0.00001241 79955.75781 676.82452
80146.0 0.00001248 79909.67969 786.37915
81178.0 0.00001232 79863.60156 937.09442
81174.0 0.00001232 79817.52344 1153.48877
81346.0 0.00001229 79771.44531 1479.13660
81502.0 0.00001227 79725.37500 1987.24280
82904.0 0.00001206 79679.28906 2778.05151
83920.0 0.00001192 79633.20313 3905.31665
84544.0 0.00001183 79587.13281 5303.05322
85342.0 0.00001172 79541.04688 6885.84521
87420.0 0.00001144 79494.97656 8194.54004
88618.0 0.00001128 79448.89844 9206.21973
89344.0 0.00001119 79402.81250 10284.82813
89958.0 0.00001112 79356.74219 10952.86523
89426.0 0.00001118 79310.66406 10321.15723
88140.0 0.00001135 79264.57813 8131.45068
86178.0 0.00001160 79218.50781 5575.89258
84872.0 0.00001178 79172.42969 3691.77588
82824.0 0.00001207 79126.35156 2514.58032
81450.0 0.00001228 79080.26563 1804.60669
80638.0 0.00001240 79034.19531 1293.72742
80382.0 0.00001244 78988.11719 1006.52081
79650.0 0.00001255 78942.03125 806.90417
79570.0 0.00001257 78895.96094 661.68213
79322.0 0.00001261 78849.88281 552.53235
78610.0 0.00001272 78803.80469 468.36908
78244.0 0.00001278 78757.71875 402.13107
78648.0 0.00001271 78711.64844 349.07236
78696.0 0.00001271 78665.57031 305.89981
78576.0 0.00001273 78619.48438 270.30997
78278.0 0.00001277 78573.41406 240.62578
78006.0 0.00001282 78527.32813 215.59912
77740.0 0.00001286 78481.25000 194.30888
77488.0 0.00001291 78435.17969 176.04674
78278.0 0.00001277 78389.09375 160.25807
77888.0 0.00001284 78343.02344 146.51978
77946.0 0.00001283 78296.94531 134.48924
77314.0 0.00001293 78250.85938 123.89285
77640.0 0.00001288 78204.78125 114.51369
78164.0 0.00001279 78158.71094 106.17075
77460.0 0.00001291 78112.62500 98.71552
77084.0 0.00001297 78066.54688 92.02813
78150.0 0.00001280 78020.47656 86.00563
77620.0 0.00001288 77974.39063 80.56182
77686.0 0.00001287 77928.31250 75.62619
77516.0 0.00001290 77882.24219 71.13666
76296.0 0.00001311 77836.15625 67.04041
77354.0 0.00001293 77790.07813 63.29383
77258.0 0.00001294 77744.00000 59.85851
77266.0 0.00001294 77697.92969 56.73576
77602.0 0.00001289 77651.84375 54.38292
76990.0 0.00001299 77605.76563 55.87134
77088.0 0.00001297 77559.69531 69.19524
77622.0 0.00001288 77513.60938 97.42323
77150.0 0.00001296 77467.53125 124.71597
75978.0 0.00001316 77421.45313 100.10837
76716.0 0.00001304 77375.37500 118.78284
77146.0 0.00001296 77329.29688 149.21942
77450.0 0.00001291 77283.21875 190.24393
76246.0 0.00001312 77237.14063 191.93867
76728.0 0.00001303 77191.06250 116.97172
75748.0 0.00001320 77144.98438 37.25439
75798.0 0.00001319 77098.90625 6.42476
75880.0 0.00001318 77052.82813 1.37591
76208.0 0.00001312 77006.75000 1.01186
75606.0 0.00001323 76960.67188 33.89559
75604.0 0.00001323 76914.59375 35.14138
76076.0 0.00001314 76868.52344 36.45941
75940.0 0.00001317 76822.43750 37.85539
75648.0 0.00001322 76776.35938 39.33513
76044.0 0.00001315 76730.28125 40.90571
75316.0 0.00001328 76684.19531 42.57495
76088.0 0.00001314 76638.12500 44.35076
75748.0 0.00001320 76592.04688 46.24281
75712.0 0.00001321 76545.97656 48.26100
76028.0 0.00001315 76474.09375 50.41759
76014.0 0.00001316 76399.10938 52.72483
75882.0 0.00001318 76324.13281 55.19686
75546.0 0.00001324 76249.14063 57.85074
76208.0 0.00001312 76174.14844 60.70386
75498.0 0.00001325 76099.17969 63.77640
75980.0 0.00001316 76024.17969 67.09266
75556.0 0.00001324 75949.20313 70.67797
75676.0 0.00001321 75874.21875 74.56190
75518.0 0.00001324 75799.21875 78.78004
75488.0 0.00001325 75724.24219 83.37008
75248.0 0.00001329 75649.25781 88.37764
74896.0 0.00001335 75574.27344 93.85566
74938.0 0.00001334 75499.28125 99.86296
75480.0 0.00001325 75424.30469 106.47072
74720.0 0.00001338 75349.31250 113.76257
75014.0 0.00001333 75274.33594 121.83344
75214.0 0.00001330 75199.34375 130.79924
74690.0 0.00001339 75124.35938 140.79826
74618.0 0.00001340 75049.37500 151.99129
74630.0 0.00001340 74974.39063 164.57718
75400.0 0.00001326 74899.39844 178.79797
74706.0 0.00001339 74824.42188 194.94376
74584.0 0.00001341 74749.42969 213.38298
75622.0 0.00001322 74674.44531 234.57089
74714.0 0.00001338 74599.46094 259.10559
74246.0 0.00001347 74524.46875 287.75504
74356.0 0.00001345 74449.49219 321.55582
73980.0 0.00001352 74374.50000 361.94727
74744.0 0.00001338 74299.51563 410.89822
74356.0 0.00001345 74224.53906 471.15240
75002.0 0.00001333 74149.54688 546.51904
74392.0 0.00001344 74074.55469 642.09210
74760.0 0.00001338 73999.58594 764.57538
74938.0 0.00001334 73924.58594 922.52271
74532.0 0.00001342 73849.60938 1126.02600
74620.0 0.00001340 73774.62500 1385.86682
74980.0 0.00001334 73699.62500 1710.55103
74884.0 0.00001335 73624.64844 2100.55347
75906.0 0.00001317 73549.66406 2543.24976
76272.0 0.00001311 73474.67188 3017.22510
75904.0 0.00001317 73399.68750 3508.03906
77148.0 0.00001296 73324.71094 4007.23926
77160.0 0.00001296 73249.71875 4472.27783
78248.0 0.00001278 73174.73438 4793.28271
77154.0 0.00001296 73099.75000 4837.18994
77458.0 0.00001291 73024.76563 4554.41357
76514.0 0.00001307 72949.78125 4024.03564
75208.0 0.00001330 72874.79688 3386.56909
75606.0 0.00001323 72799.81250 2760.85718
75538.0 0.00001324 72724.82813 2211.79077
74656.0 0.00001339 72649.83594 1760.67175
74244.0 0.00001347 72574.85156 1404.39038
73472.0 0.00001361 72499.86719 1129.60828
73976.0 0.00001352 72424.87500 920.50220
73608.0 0.00001359 72349.89844 761.91101
72950.0 0.00001371 72274.90625 640.89160
72848.0 0.00001373 72199.92188 547.32990
73754.0 0.00001356 72124.93750 473.66937
72614.0 0.00001377 72049.95313 414.49396
72590.0 0.00001378 71974.96875 366.07431
72634.0 0.00001377 71899.99219 325.80490
72324.0 0.00001383 71824.99219 291.86469
73278.0 0.00001365 71750.01563 262.96088
72128.0 0.00001386 71675.03125 238.12579
73102.0 0.00001368 71600.03125 216.62494
72518.0 0.00001379 71525.05469 197.89473
72152.0 0.00001386 71450.07031 181.47995
72632.0 0.00001377 71375.07813 167.01541
72802.0 0.00001374 71300.09375 154.21022
72004.0 0.00001389 71225.11719 142.82040
72164.0 0.00001386 71150.11719 132.64499
72182.0 0.00001385 71075.14063 123.52106
72286.0 0.00001383 71000.14844 115.30776
72622.0 0.00001377 70925.17969 107.89011
72338.0 0.00001382 70850.17969 101.16673
71482.0 0.00001399 70775.20313 95.05582
71392.0 0.00001401 70700.21875 89.48593
71170.0 0.00001405 70625.23438 84.39348
70600.0 0.00001416 70550.24219 79.72699
71368.0 0.00001401 70475.25781 75.44072
70794.0 0.00001413 70400.27344 71.49322
71752.0 0.00001394 70325.28125 67.85085
70780.0 0.00001413 70250.30469 124.83511
71052.0 0.00001407 70175.31250 124.68024
71394.0 0.00001401 70100.33594 124.97319
70426.0 0.00001420 70025.34375 210.81537
71530.0 0.00001398 69950.35938 217.53343
71036.0 0.00001408 69875.37500 225.27614
70862.0 0.00001411 69800.39063 234.14053
71070.0 0.00001407 69725.39844 244.24461
71068.0 0.00001407 69650.42188 255.72592
70554.0 0.00001417 69575.43750 268.75516
70672.0 0.00001415 69500.43750 283.53897
70758.0 0.00001413 69425.46094 300.32050
70430.0 0.00001420 69350.47656 319.40253
69598.0 0.00001437 69275.48438 341.15634
69842.0 0.00001432 69200.50000 366.02859
70830.0 0.00001412 69125.51563 394.58667
70072.0 0.00001427 69050.53906 395.54358
70004.0 0.00001428 68975.54688 434.90509
69666.0 0.00001435 68900.55469 480.63730
70264.0 0.00001423 68825.58594 534.25879
70838.0 0.00001412 68750.58594 597.90332
70286.0 0.00001423 68675.59375 674.72961
70634.0 0.00001416 68600.62500 769.99475
70380.0 0.00001421 68525.62500 893.12524
70844.0 0.00001412 68450.64844 1060.89661
70820.0 0.00001412 68375.66406 1301.46594
72012.0 0.00001389 68300.67969 1657.19946
72288.0 0.00001383 68225.68750 2183.34888
72930.0 0.00001371 68150.71094 2943.29688
73272.0 0.00001365 68075.71875 3999.61890
74194.0 0.00001348 68000.73438 5392.61279
75674.0 0.00001321 67925.75000 7103.51367
77580.0 0.00001289 67850.76563 9081.62207
78494.0 0.00001274 67775.78125 11362.88184
80984.0 0.00001235 67700.79688 13935.47168
81808.0 0.00001222 67625.80469 16373.17871
82914.0 0.00001206 67550.82813 17822.98828
82494.0 0.00001212 67475.83594 17756.46875
82410.0 0.00001213 67400.84375 16548.86133
82206.0 0.00001216 67325.86719 14992.26953
81730.0 0.00001224 67250.87500 13717.06934
81328.0 0.00001230 67175.89844 12929.64551
79708.0 0.00001255 67100.90625 12372.62793
78970.0 0.00001266 67025.92188 11565.71094
76838.0 0.00001301 66950.94531 10251.88867
75606.0 0.00001323 66875.95313 8569.57910
74302.0 0.00001346 66800.96094 6823.61182
72450.0 0.00001380 66725.99219 5251.99414
71872.0 0.00001391 66650.99219 3965.23706
70778.0 0.00001413 66576.00000 2980.85962
70476.0 0.00001419 66501.03125 2264.38062
69496.0 0.00001439 66426.03125 1759.46191
68696.0 0.00001456 66351.05469 1408.08069
68858.0 0.00001452 66276.07031 1160.93188
68418.0 0.00001462 66201.07813 981.79303
68108.0 0.00001468 66126.09375 846.67865
68010.0 0.00001470 66051.11719 740.66602
68352.0 0.00001463 65976.12500 654.79779
67326.0 0.00001485 65901.14063 583.66180
67236.0 0.00001487 65826.15625 523.77527
67574.0 0.00001480 65751.17188 472.76596
67220.0 0.00001488 65676.17969 428.93494
67738.0 0.00001476 65601.20313 390.97711
66668.0 0.00001500 65526.21094 397.70135
66906.0 0.00001495 65451.23047 369.87137
67316.0 0.00001486 65376.24219 345.51767
66738.0 0.00001498 65301.26172 324.12909
66550.0 0.00001503 65226.27344 305.27740
66540.0 0.00001503 65151.28516 288.62296
66610.0 0.00001501 65076.30469 274.17853
66514.0 0.00001503 65001.31641 261.12006
66028.0 0.00001515 64926.32422 249.53769
66228.0 0.00001510 64851.34375 239.26538
66908.0 0.00001495 64776.35547 230.15916
66168.0 0.00001511 64701.36719 222.10359
65818.0 0.00001519 64626.39453 214.99876
65560.0 0.00001525 64551.39844 208.75742
66248.0 0.00001509 64476.41797 203.31030
65188.0 0.00001534 64401.43750 198.59602
65610.0 0.00001524 64326.44141 194.56342
65180.0 0.00001534 64251.46094 191.17157
65820.0 0.00001519 64176.48047 188.38535
65518.0 0.00001526 64101.48438 186.17668
66056.0 0.00001514 64026.50391 184.52477
65122.0 0.00001536 63951.52344 183.41344
65234.0 0.00001533 63876.52344 88.74845
64842.0 0.00001542 63801.54297 133.85860
64710.0 0.00001545 63726.56250 140.81377
65098.0 0.00001536 63651.57422 148.34918
65382.0 0.00001529 63576.58594 156.53133
64746.0 0.00001544 63501.59766 165.44150
64934.0 0.00001540 63426.62500 175.17041
64766.0 0.00001544 63351.62891 185.83044
64586.0 0.00001548 63276.64844 197.54715
64522.0 0.00001550 63201.66797 210.47209
64792.0 0.00001543 63126.67969 224.79391
64554.0 0.00001549 63051.69141 240.73213
64508.0 0.00001550 62976.71094 258.56033
64212.0 0.00001557 62901.72266 278.62982
64442.0 0.00001552 62826.73047 301.37384
64492.0 0.00001551 62751.75000 327.35959
64898.0 0.00001541 62676.76172 357.36172
64576.0 0.00001549 62601.78125 392.45325
64858.0 0.00001542 62526.79297 434.30066
64172.0 0.00001558 62451.80469 485.67618
65394.0 0.00001529 62376.82422 551.36334
64926.0 0.00001540 62301.82813 639.60248
65568.0 0.00001525 62226.84766 763.62555
64718.0 0.00001545 62151.86719 943.07208
65432.0 0.00001528 62076.88672 1204.34583
65404.0 0.00001529 62001.89063 1579.39392
66232.0 0.00001510 61926.91016 2101.50098
66322.0 0.00001508 61851.93750 2796.55518
66296.0 0.00001508 61776.92969 3666.48413
66758.0 0.00001498 61701.94922 4674.26611
67212.0 0.00001488 61626.96875 5763.80664
67798.0 0.00001475 61551.97266 6859.37207
67150.0 0.00001489 61476.99219 7786.71924
67540.0 0.00001481 61402.01953 8255.84180
66712.0 0.00001499 61327.02344 8065.13623
67688.0 0.00001477 61252.03516 7321.95117
67200.0 0.00001488 61177.05469 6342.03564
66712.0 0.00001499 61102.06641 5425.69482
66564.0 0.00001502 61027.07813 4754.77246
66224.0 0.00001510 60952.11328 4423.64844
66480.0 0.00001504 60877.10938 4345.34277
66298.0 0.00001508 60802.12891 4479.20117
66900.0 0.00001495 60727.13672 4736.93945
67674.0 0.00001478 60652.14844 5033.36572
68460.0 0.00001461 60577.16797 5291.26367
68190.0 0.00001466 60502.19922 5441.65771
67768.0 0.00001476 60427.19141 5431.45020
67810.0 0.00001475 60352.21094 5239.65479
66932.0 0.00001494 60277.23047 4886.69434
66032.0 0.00001514 60202.24219 4424.09521
65404.0 0.00001529 60127.25391 3911.94409
63992.0 0.00001563 60052.27344 3400.52075
62920.0 0.00001589 59977.30078 2922.69238
63448.0 0.00001576 59902.29688 2495.34814
63144.0 0.00001584 59827.31641 2124.91968
62150.0 0.00001609 59752.33594 1810.70410
62164.0 0.00001609 59677.33594 1548.46399
61806.0 0.00001618 59602.35547 1332.32288
61984.0 0.00001613 59527.38672 1155.69421
61528.0 0.00001625 59452.37891 1011.99854
61188.0 0.00001634 59377.39844 895.35309
61628.0 0.00001623 59302.41797 800.44983
60950.0 0.00001641 59227.42188 722.84705
61334.0 0.00001630 59152.44141 658.96216
60840.0 0.00001644 59077.46875 605.94073
61564.0 0.00001624 59002.47266 561.55475
60896.0 0.00001642 58927.48438 524.16455
60516.0 0.00001652 58852.50391 492.49518
60770.0 0.00001646 58777.51563 465.59528
60828.0 0.00001644 58702.52344 442.75775
61120.0 0.00001636 58627.56250 423.43811
61218.0 0.00001634 58552.55469 407.21085
60438.0 0.00001655 58477.57422 393.76895
60926.0 0.00001641 58402.58594 382.86249
60496.0 0.00001653 58327.60547 374.30649
59814.0 0.00001672 58252.61719 367.96576
59898.0 0.00001670 58177.62891 363.75204
60398.0 0.00001656 58102.66406 361.61548
59876.0 0.00001670 58027.66016 361.54678
59700.0 0.00001675 57952.67969 363.57867
59844.0 0.00001671 57877.69141 367.78796
59620.0 0.00001677 57802.70313 374.30438
59186.0 0.00001690 57727.72266 383.31622
59272.0 0.00001687 57652.75000 395.08887
59604.0 0.00001678 57577.74219 409.99359
59134.0 0.00001691 57502.76172 428.50638
58896.0 0.00001698 57427.78125 451.27313
59346.0 0.00001685 57352.78516 479.13617
58850.0 0.00001699 57277.80469 513.16461
59426.0 0.00001683 57202.83203 554.71759
59336.0 0.00001685 57127.82813 605.51184
59058.0 0.00001693 57052.84766 667.55634
59382.0 0.00001684 56977.86719 743.27185
59244.0 0.00001688 56902.87109 835.41638
58964.0 0.00001696 56827.89063 946.96613
58922.0 0.00001697 56752.91797 1081.02502
59500.0 0.00001681 56677.92188 1240.65491
58636.0 0.00001705 56602.92969 1428.17542
58406.0 0.00001712 56527.94922 1644.91321
59670.0 0.00001676 56452.97266 1890.14954
59422.0 0.00001683 56377.97266 2160.14429
59590.0 0.00001678 56302.99219 2446.92749
59798.0 0.00001672 56228.01953 2737.82642
59530.0 0.00001680 56153.02344 3015.47803
60190.0 0.00001661 56078.03516 3257.65845
60712.0 0.00001647 56003.05469 3439.03491
60794.0 0.00001645 55928.06641 3534.21411
60074.0 0.00001665 55853.07813 3524.89258
60078.0 0.00001665 55778.11328 3408.10376
59454.0 0.00001682 55703.10938 3199.00781
59016.0 0.00001694 55628.12891 2926.11450
58848.0 0.00001699 55553.14063 2621.15063
57798.0 0.00001730 55478.14844 2311.16553
58478.0 0.00001710 55403.16797 2015.17725
57594.0 0.00001736 55328.19922 1699.48059
57306.0 0.00001745 55253.19141 1459.73010
57106.0 0.00001751 55178.21094 1251.25842
56562.0 0.00001768 55103.23047 1072.83313
56280.0 0.00001777 55028.23438 921.98029
56434.0 0.00001772 54953.25391 795.65631
56796.0 0.00001761 54878.28125 690.54700
56278.0 0.00001777 54803.27734 603.34845
55766.0 0.00001793 54728.29688 531.10327
55790.0 0.00001792 54653.31641 471.08676
55792.0 0.00001792 54578.33594 420.97836
55252.0 0.00001810 54503.33594 378.83435
55310.0 0.00001808 54428.35547 343.08920
55460.0 0.00001803 54353.38672 312.48199
54858.0 0.00001823 54278.37891 286.00800
55172.0 0.00001813 54203.39844 262.91833
54632.0 0.00001830 54128.41797 242.60829
55524.0 0.00001801 54053.42188 224.61209
54914.0 0.00001821 53978.44141 208.57193
54512.0 0.00001834 53903.46875 194.19940
54920.0 0.00001821 53828.47266 181.25531
54380.0 0.00001839 53753.48438 169.56052
54118.0 0.00001848 53678.50391 158.95454
54048.0 0.00001850 53603.51563 149.30476
54280.0 0.00001842 53528.52344 140.50256
54004.0 0.00001852 53453.56250 132.45229
53576.0 0.00001867 53378.55469 125.06731
54100.0 0.00001848 53303.57422 118.28198
53546.0 0.00001868 53228.58594 112.03201
53176.0 0.00001881 53153.59766 106.26236
53462.0 0.00001870 53078.61719 100.92708
52936.0 0.00001889 53003.64453 95.98407
53184.0 0.00001880 52928.64063 91.39356
53298.0 0.00001876 52853.66016 87.12623
53182.0 0.00001880 52778.67969 83.15151
53254.0 0.00001878 52703.69141 79.44350
53024.0 0.00001886 52628.70313 75.97855
53840.0 0.00001857 52553.72266 72.73698
53110.0 0.00001883 52478.75000 69.70011
53192.0 0.00001880 52403.74219 66.84958
52588.0 0.00001902 52328.76172 64.17244
52986.0 0.00001887 52253.78516 61.65430
52330.0 0.00001911 52178.78516 59.28255
52374.0 0.00001909 52103.80469 57.04676
52214.0 0.00001915 52028.83203 54.93679
52082.0 0.00001920 51953.82813 52.94228
52032.0 0.00001922 51878.84766 51.05638
51978.0 0.00001924 51803.86719 49.27084
51802.0 0.00001930 51728.87109 47.57846
51654.0 0.00001936 51653.89063 45.97338
52410.0 0.00001908 51578.91797 44.44971
51604.0 0.00001938 51503.92188 43.00124
51606.0 0.00001938 51428.92969 41.62409
51822.0 0.00001930 51353.95313 40.31332
51026.0 0.00001960 51278.96094 39.06456
50992.0 0.00001961 51203.97266 37.87431
51646.0 0.00001936 51129.01172 36.73899
51792.0 0.00001931 51054.00391 35.65466
51502.0 0.00001942 50979.02344 34.61907
50984.0 0.00001961 50904.03516 33.62907
51238.0 0.00001952 50829.05469 32.68201
51034.0 0.00001959 50754.06641 1.00000
50196.0 0.00001992 50679.08594 1.00000
49644.0 0.00002014 50604.11328 1.00000
50168.0 0.00001993 50529.10938 1.00000
50184.0 0.00001993 50454.12891 1.00000
50598.0 0.00001976 50379.14063 1.00000
49828.0 0.00002007 50304.14844 1.00000
50568.0 0.00001978 50229.16797 1.00000
50018.0 0.00001999 50154.19922 1.00000
49314.0 0.00002028 50079.19141 1.00000
49276.0 0.00002029 50004.21094 1.00000
50194.0 0.00001992 49929.23047 1.00000
49782.0 0.00002009 49854.23438 1.00000
49772.0 0.00002009 49779.25391 1.00000
49128.0 0.00002035 49704.28125 1.00000
49400.0 0.00002024 49629.27734 1.00000
49672.0 0.00002013 49554.29688 1.00000
49578.0 0.00002017 49479.31641 1.00000
49142.0 0.00002035 49404.31641 1.00000
49132.0 0.00002035 49329.33594 1.00000
48978.0 0.00002042 49254.36719 1.00000
48672.0 0.00002055 49179.36719 1.00000
48630.0 0.00002056 49104.37891 1.00000
48474.0 0.00002063 49029.39844 1.00000
49054.0 0.00002039 48954.41797 1.00000
48702.0 0.00002053 48879.42188 1.00000
48144.0 0.00002077 48804.44141 1.00000
48364.0 0.00002068 48729.46875 1.00000
48268.0 0.00002072 48654.47266 1.00000
48444.0 0.00002064 48579.48438 1.00000
48476.0 0.00002063 48504.50391 207.27652
48690.0 0.00002054 48429.51563 213.42940
47768.0 0.00002093 48354.53516 219.85994
47628.0 0.00002100 48279.56250 226.58510
48674.0 0.00002054 48204.55469 233.62727
47852.0 0.00002090 48129.57422 241.00108
47988.0 0.00002084 48067.79688 248.73000
47860.0 0.00002089 48028.38672 256.83826
48094.0 0.00002079 47988.98047 265.34854
47698.0 0.00002097 47949.57813 274.28775
47614.0 0.00002100 47910.16016 283.69058
47474.0 0.00002106 47870.75391 293.58234
47646.0 0.00002099 47831.34766 304.00037
47438.0 0.00002108 47791.92969 314.98413
47260.0 0.00002116 47752.52344 326.57181
47634.0 0.00002099 47713.12500 338.80814
46990.0 0.00002128 47673.70313 351.75009
47652.0 0.00002099 47634.29688 365.44238
47382.0 0.00002111 47594.89063 379.94821
47500.0 0.00002105 47555.48438 395.33301
46978.0 0.00002129 47516.07031 411.67120
47430.0 0.00002108 47476.66406 429.03763
46866.0 0.00002134 47437.26172 447.51984
47804.0 0.00002092 47397.84375 486.93192
47754.0 0.00002094 47358.43750 508.70044
47158.0 0.00002121 47319.03125 531.95660
47088.0 0.00002124 47279.61328 556.84186
47416.0 0.00002109 47240.20703 583.50311
47650.0 0.00002099 47200.80859 612.11194
47782.0 0.00002093 47161.39063 642.87988
47626.0 0.00002100 47121.98047 676.00342
48180.0 0.00002076 47082.57422 711.73730
48468.0 0.00002063 47043.16406 750.36664
48874.0 0.00002046 47003.75781 792.19751
49380.0 0.00002025 46964.35547 837.58984
49946.0 0.00002002 46924.93750 886.98468
49964.0 0.00002001 46885.53125 940.82166
50954.0 0.00001963 46846.12109 999.66138
50826.0 0.00001967 46806.70703 1064.14771
51298.0 0.00001949 46767.30078 1135.00159
51154.0 0.00001955 46727.90234 1213.09058
50288.0 0.00001989 46688.48047 1299.50024
50130.0 0.00001995 46649.07422 1395.42029
49496.0 0.00002020 46609.66797 1502.41418
49334.0 0.00002027 46570.25781 1622.41797
49462.0 0.00002022 46530.84766 1757.94348
48972.0 0.00002042 46491.44141 1912.23169
48868.0 0.00002046 46452.03906 2089.67310
48988.0 0.00002041 46412.62109 2296.35742
49006.0 0.00002041 46373.21484 2540.28027
49846.0 0.00002006 46333.80859 2832.53149
49966.0 0.00002001 46294.39063 3187.92871
50762.0 0.00001970 46254.98438 3875.09741
51012.0 0.00001960 46215.58594 4431.85889
51610.0 0.00001938 46176.16406 5127.12744
52904.0 0.00001890 46136.75781 5996.23779
54374.0 0.00001839 46097.35156 7079.50830
55216.0 0.00001811 46057.93750 8419.32910
58280.0 0.00001716 46018.53125 10055.79492
58968.0 0.00001696 45979.12891 12022.09180
60678.0 0.00001648 45939.71484 14338.14258
63508.0 0.00001575 45900.30469 16996.21875
65936.0 0.00001517 45860.89844 19953.65820
70144.0 0.00001426 45821.48828 23117.34180
72744.0 0.00001375 45782.08203 26333.01563
76146.0 0.00001313 45742.67969 29386.87109
78570.0 0.00001273 45703.25781 32015.46484
80722.0 0.00001239 45663.85156 33922.95313
80278.0 0.00001246 45624.44141 34840.00000
80136.0 0.00001248 45585.03516 34611.11328
79040.0 0.00001265 45545.62500 33278.62500
76292.0 0.00001311 45506.21875 31082.51953
73942.0 0.00001352 45466.81641 28364.62500
70382.0 0.00001421 45427.39844 25450.84766
66784.0 0.00001497 45387.99219 22588.29102
63960.0 0.00001563 45348.58203 19925.73633
61906.0 0.00001615 45309.17188 17535.03711
60222.0 0.00001661 45269.76563 15438.70605
58282.0 0.00001716 45230.36328 13636.15723
57866.0 0.00001728 45190.94141 12126.92871
56248.0 0.00001778 45151.53516 10924.66992
55998.0 0.00001786 45112.12891 10053.05566
55082.0 0.00001815 45072.71484 9544.35547
55188.0 0.00001812 45033.30859 9438.11719
55336.0 0.00001807 44993.90625 9780.66113
56410.0 0.00001773 44954.48828 10623.23828
56436.0 0.00001772 44915.08203 12012.07129
58468.0 0.00001710 44875.67578 13975.00195
61260.0 0.00001632 44836.26172 16500.08398
64072.0 0.00001561 44796.85547 19509.27344
67344.0 0.00001485 44757.45313 22837.53320
71608.0 0.00001396 44718.03516 26226.43359
76192.0 0.00001312 44678.62500 29331.98242
78872.0 0.00001268 44639.21875 31756.83008
78870.0 0.00001268 44599.81250 33266.78516
79546.0 0.00001257 44560.40234 33162.48047
77606.0 0.00001289 44520.99219 31551.97852
74480.0 0.00001343 44481.58984 28707.62500
71330.0 0.00001402 44442.17578 25113.68555
67552.0 0.00001480 44402.76563 21266.96289
63160.0 0.00001583 44363.35938 17545.09375
59138.0 0.00001691 44323.94922 14187.78125
55772.0 0.00001793 44284.54297 11320.08691
53382.0 0.00001873 44245.14063 8978.97656
50906.0 0.00001964 44205.71875 7139.70752
49868.0 0.00002005 44166.31250 5742.34766
48486.0 0.00002062 44126.90234 4707.04736
47436.0 0.00002108 44087.49219 3952.27271
47512.0 0.00002105 44048.08594 3405.04761
46780.0 0.00002138 44008.68359 3005.61255
46844.0 0.00002135 43969.26563 2708.73267
46396.0 0.00002155 43929.85938 2482.71924
45266.0 0.00002209 43890.45313 2305.96191
45234.0 0.00002211 43851.03906 2164.47046
44446.0 0.00002250 43811.63281 2049.39746
44264.0 0.00002259 43772.23047 1955.09375
44306.0 0.00002257 43732.80859 1877.88220
44050.0 0.00002270 43693.40234 1815.42273
44068.0 0.00002269 43653.99609 1766.06213
43498.0 0.00002299 43614.58984 1728.68506
43736.0 0.00002286 43575.17578 1702.54468
43328.0 0.00002308 43535.76953 1687.20227
43826.0 0.00002282 43496.36719 1682.46814
43788.0 0.00002284 43456.94922 1688.41223
43482.0 0.00002300 43417.54297 1705.36609
43496.0 0.00002299 43378.13672 1733.97046
43354.0 0.00002307 43338.72656 1775.26282
43962.0 0.00002275 43299.31641 1830.79688
43970.0 0.00002274 43259.91406 1902.91394
43732.0 0.00002287 43220.50000 1995.19092
44134.0 0.00002266 43181.08594 2112.87866
44368.0 0.00002254 43141.67969 2263.98145
43870.0 0.00002279 43102.26953 2460.37012
44832.0 0.00002231 43062.86328 2719.17041
45556.0 0.00002195 43023.46094 3064.51172
45984.0 0.00002175 42984.04297 3529.30273
46428.0 0.00002154 42944.63672 3932.57227
47818.0 0.00002091 42905.22656 4531.31152
48956.0 0.00002043 42865.81641 5657.15381
50752.0 0.00001970 42826.41016 7111.39209
51766.0 0.00001932 42787.00781 8946.78320
54344.0 0.00001840 42747.58984 11199.48340
56882.0 0.00001758 42708.18359 13870.23926
60332.0 0.00001657 42668.77734 16912.32031
64696.0 0.00001546 42629.37109 20211.73633
68752.0 0.00001455 42589.95313 23577.17969
73282.0 0.00001365 42550.54688 26740.48633
76420.0 0.00001309 42511.14453 29376.59961
76946.0 0.00001300 42471.72656 31134.91406
76908.0 0.00001300 42432.32031 31703.30859
75830.0 0.00001319 42392.91406 30932.52148
73828.0 0.00001354 42353.50000 28930.20313
71182.0 0.00001405 42314.09375 26031.28906
66630.0 0.00001501 42274.69141 22655.49414
63734.0 0.00001569 42235.26953 19173.47266
58368.0 0.00001713 42195.86719 15857.10840
55128.0 0.00001814 42156.46094 12872.02246
51824.0 0.00001930 42117.04688 10302.57031
50568.0 0.00001978 42077.63672 8173.58545
49000.0 0.00002041 42038.23438 6471.62500
48098.0 0.00002079 41998.82031 6683.55127
47758.0 0.00002094 41959.41016 5805.90723
47184.0 0.00002119 41920.00391 5200.31787
47438.0 0.00002108 41880.59375 4811.96289
47768.0 0.00002093 41841.18750 4596.73096
48008.0 0.00002083 41801.78516 4524.45508
47770.0 0.00002093 41762.36719 4582.85254
48682.0 0.00002054 41722.96094 4783.82666
49782.0 0.00002009 41683.54688 5176.02295
50772.0 0.00001970 41644.14453 5867.00000
52496.0 0.00001905 41604.73047 7057.86035
55392.0 0.00001805 41565.32422 9088.18262
58210.0 0.00001718 41525.92578 12485.31250
62886.0 0.00001590 41486.50391 18001.53125
69388.0 0.00001441 41447.09766 26601.45703
79140.0 0.00001264 41407.69141 39341.99219
93852.0 0.00001066 41368.27734 57213.24219
114182.0 8.76e-6 41328.87109 80763.34375
144226.0 6.93e-6 41289.46875 109708.92188
185778.0 5.38e-6 41250.05078 142573.84375
231780.0 4.31e-6 41210.64453 176464.98438
269062.0 3.72e-6 41171.23828 207398.46875
282530.0 3.54e-6 41131.82031 230877.09375
278594.0 3.59e-6 41092.41406 242677.81250
261142.0 3.83e-6 41053.01563 240056.98438
247726.0 4.04e-6 41013.59375 223135.57813
237014.0 4.22e-6 40974.18750 195177.03125
217694.0 4.59e-6 40934.78125 161151.81250
184676.0 5.41e-6 40895.37109 126017.07813
144732.0 6.91e-6 40855.96094 93670.20313
105616.0 9.47e-6 40816.55859 66507.48438
78172.0 0.00001279 40777.14453 45440.03516
64968.0 0.00001539 40737.73438 30241.51758
56304.0 0.00001776 40698.32813 19950.80273
52538.0 0.00001903 40658.92188 13350.16797
49452.0 0.00002022 40619.50781 9283.46777
48260.0 0.00002072 40580.09766 6828.38867
46504.0 0.00002150 40540.69922 5334.53223
45978.0 0.00002175 40501.28125 4388.77588
44854.0 0.00002229 40461.87109 3751.41870
43950.0 0.00002275 40422.46484 3290.93115
43872.0 0.00002279 40383.05469 2938.58643
42846.0 0.00002334 40343.64844 2658.80249
42572.0 0.00002349 40304.24609 2242.43506
42242.0 0.00002367 40264.82813 2065.45605
41534.0 0.00002408 40225.42188 1924.51074
41714.0 0.00002397 40186.01563 1815.69775
41712.0 0.00002397 40146.59766 1736.54773
41474.0 0.00002411 40107.19141 1685.21753
40466.0 0.00002471 40067.79297 1659.72815
40950.0 0.00002442 40028.37109 1657.34863
40536.0 0.00002467 39988.96484 1673.97888
40386.0 0.00002476 39949.55859 1703.62268
40236.0 0.00002485 39910.14453 1738.18640
39934.0 0.00002504 39870.73828 1767.70508
39922.0 0.00002505 39831.33594 1781.13806
40234.0 0.00002485 39791.91797 1767.82361
39936.0 0.00002504 39752.51172 1720.20630
39894.0 0.00002507 39713.10547 1637.07190
39644.0 0.00002522 39673.69922 1524.57947
39650.0 0.00002522 39634.28125 1393.61169
39310.0 0.00002544 39594.87500 1270.54370
39070.0 0.00002560 39555.47656 1135.96887
39120.0 0.00002556 39516.05469 470.24573
39272.0 0.00002546 39476.64844 383.73984
39214.0 0.00002550 39437.24219 310.21008
38974.0 0.00002566 39397.83203 250.00981
38980.0 0.00002565 39358.42188 202.37639
39182.0 0.00002552 39319.01953 380.45831
39026.0 0.00002562 39279.60547 363.44351
38456.0 0.00002600 39240.19531 374.85373
38424.0 0.00002603 39200.78906 373.38873
39052.0 0.00002561 39161.37891 377.10172
38608.0 0.00002590 39121.97266 384.96591
38098.0 0.00002625 39082.57031 396.26385
38050.0 0.00002628 39043.14844 410.55405
38082.0 0.00002626 39003.74219 427.59128
38100.0 0.00002625 38964.33594 447.30930
37718.0 0.00002651 38924.92188 469.76917
38134.0 0.00002622 38885.51563 495.12503
38244.0 0.00002615 38846.11328 523.62726
38236.0 0.00002615 38806.69531 555.63934
37734.0 0.00002650 38767.28906 591.59381
38200.0 0.00002618 38727.88281 632.57983
38390.0 0.00002605 38688.47656 678.46307
37862.0 0.00002641 38649.06250 730.83771
37672.0 0.00002654 38609.65625 791.27515
38222.0 0.00002616 38570.25391 862.04944
38296.0 0.00002611 38530.83203 946.63300
37864.0 0.00002641 38491.42578 1049.35815
38186.0 0.00002619 38452.01953 1176.92603
38438.0 0.00002602 38412.60547 1338.27344
38920.0 0.00002569 38373.19922 1545.12622
38858.0 0.00002573 38333.79688 1812.49011
39334.0 0.00002542 38294.37891 2159.06738
40198.0 0.00002488 38254.97266 2606.57495
40184.0 0.00002489 38215.56641 3180.05615
41252.0 0.00002424 38176.15625 3906.61719
41392.0 0.00002416 38136.74609 4813.39404
42264.0 0.00002366 38097.34375 5916.66113
43302.0 0.00002309 38057.92578 7256.02295
45278.0 0.00002209 38018.51563 8833.38574
46758.0 0.00002139 37979.10938 10649.09180
49258.0 0.00002030 37939.69922 12687.98730
50976.0 0.00001962 37900.29297 14916.77734
53478.0 0.00001870 37860.89063 17279.59180
57072.0 0.00001752 37821.47266 19684.67383
59766.0 0.00001673 37782.06641 21985.42383
61664.0 0.00001622 37742.66016 23984.96680
62250.0 0.00001606 37703.25000 25450.84766
62876.0 0.00001590 37663.83984 26156.25391
62066.0 0.00001611 37624.43359 25946.73438
61980.0 0.00001613 37585.03125 24810.36719
59648.0 0.00001677 37545.60938 22892.41797
57530.0 0.00001738 37506.20313 20444.01172
55134.0 0.00001814 37466.79688 17736.09570
52704.0 0.00001897 37427.38281 15002.29395
49322.0 0.00002027 37387.97656 12416.50977
46836.0 0.00002135 37348.57422 10090.48535
44472.0 0.00002249 37309.15625 8082.48193
43216.0 0.00002314 37269.75000 6412.10791
41942.0 0.00002384 37230.34375 5066.16943
40716.0 0.00002456 37190.92969 4011.59497
40180.0 0.00002489 37151.52344 3204.66553
39324.0 0.00002543 37112.12109 2597.92310
39316.0 0.00002543 37072.69922 2146.07422
38432.0 0.00002602 37033.29297 1810.30151
38118.0 0.00002623 36993.88672 1558.63879
37612.0 0.00002659 36954.47656 1366.65649
36984.0 0.00002704 36915.06641 1216.55371
36412.0 0.00002746 36875.66406 1095.75220
36812.0 0.00002717 36836.25000 995.62878
36436.0 0.00002745 36796.83984 910.58026
36082.0 0.00002771 36757.43359 836.89624
35974.0 0.00002780 36718.02734 772.22272
35728.0 0.00002799 36678.61719 715.02258
35384.0 0.00002826 36639.20703 664.26984
35836.0 0.00002790 36599.80469 619.20239
35476.0 0.00002819 36560.39063 579.20819
35554.0 0.00002813 36520.98438 543.83795
35210.0 0.00002840 36481.57031 512.67072
35110.0 0.00002848 36442.16016 485.33932
34870.0 0.00002868 36402.75391 461.51346
34824.0 0.00002872 36363.35156 440.86136
35360.0 0.00002828 36323.93359 423.03204
35054.0 0.00002853 36284.52734 407.66949
34988.0 0.00002858 36245.12109 380.71716
34908.0 0.00002865 36205.70703 369.54599
34732.0 0.00002879 36166.30078 359.32474
34762.0 0.00002877 36126.89844 349.42886
34966.0 0.00002860 36087.47656 339.21594
34248.0 0.00002920 36048.07031 328.13654
34306.0 0.00002915 36008.66797 315.83279
34790.0 0.00002874 35969.25000 93.02174
34352.0 0.00002911 35929.84375 117.88491
34760.0 0.00002877 35890.44141 92.90044
34224.0 0.00002922 35851.02344 88.19156
34020.0 0.00002939 35811.61719 83.39079
34460.0 0.00002902 35772.21094 78.87514
34234.0 0.00002921 35732.80469 74.90548
34054.0 0.00002937 35693.39063 71.64574
33934.0 0.00002947 35653.98438 69.18853
34116.0 0.00002931 35614.58203 67.57233
33800.0 0.00002959 35575.16016 66.79848
34094.0 0.00002933 35535.75391 66.84563
33570.0 0.00002979 35496.34766 67.67847
33892.0 0.00002951 35456.93750 69.25888
33494.0 0.00002986 35417.52734 71.55243
33948.0 0.00002946 35378.12500 74.53575
33824.0 0.00002956 35338.71094 78.20350
33730.0 0.00002965 35299.30469 82.56548
33838.0 0.00002955 35259.89453 87.65870
33392.0 0.00002995 35220.48438 93.54896
33184.0 0.00003014 35181.07813 100.33710
33410.0 0.00002993 35141.67578 108.17850
33506.0 0.00002985 35102.25781 117.31452
33666.0 0.00002970 35062.85156 128.10155
33444.0 0.00002990 35023.44531 141.10477
33730.0 0.00002965 34984.02734 157.20107
33666.0 0.00002970 34944.62109 177.72908
34020.0 0.00002939 34905.22266 204.70450
33614.0 0.00002975 34865.80078 241.08243
33960.0 0.00002945 34826.39453 290.93726
33952.0 0.00002945 34786.98828 359.72562
33130.0 0.00003018 34747.58203 454.27902
33912.0 0.00002949 34708.16797 582.60706
33908.0 0.00002949 34668.76172 753.21680
34002.0 0.00002941 34629.35938 974.14630
34284.0 0.00002917 34589.94141 1251.63989
34664.0 0.00002885 34550.53516 1587.80566
34878.0 0.00002867 34511.12891 1979.22742
35794.0 0.00002794 34471.71094 2414.77417
36202.0 0.00002762 34432.30469 2873.88818
36440.0 0.00002744 34392.90625 3459.80713
37260.0 0.00002684 34353.48438 3872.05835
38232.0 0.00002616 34314.07813 4195.21436
37808.0 0.00002645 34274.67188 4387.11865
37664.0 0.00002655 34235.26172 4417.21045
37510.0 0.00002666 34195.85156 4278.42480
37328.0 0.00002679 34156.44922 3992.35229
36480.0 0.00002741 34117.03516 3601.23682
36522.0 0.00002738 34077.62891 3154.09570
35976.0 0.00002780 34038.21875 2694.29175
34956.0 0.00002861 33998.80469 2255.01660
34628.0 0.00002888 33959.39844 1858.88843
34124.0 0.00002930 33920.00000 1518.71350
34036.0 0.00002938 33880.57813 1239.09644
33838.0 0.00002955 33841.17188 1018.81445
33600.0 0.00002976 33801.76563 852.08118
33510.0 0.00002984 33762.35547 730.84497
33308.0 0.00003002 33722.94531 646.30933
33728.0 0.00002965 33683.53906 590.16852
33378.0 0.00002996 33644.13672 555.25818
33540.0 0.00002982 33604.71875 535.88776
33572.0 0.00002979 33565.31250 527.86627
33224.0 0.00003010 33525.90625 528.26117
33308.0 0.00003002 33486.48828 535.17072
33732.0 0.00002965 33447.08203 547.45374
33202.0 0.00003012 33407.68359 564.51770
33742.0 0.00002964 33368.26172 585.65771
33280.0 0.00003005 33328.85547 625.88690
33278.0 0.00003005 33289.44922 657.84204
33970.0 0.00002944 33250.03516 695.41125
34310.0 0.00002915 33210.62891 739.67871
34032.0 0.00002938 33171.22656 792.07312
34136.0 0.00002929 33131.80859 854.67920
33926.0 0.00002948 33092.40234 930.34912
34766.0 0.00002876 33052.99609 1023.12402
35166.0 0.00002844 33013.58594 1219.88123
34684.0 0.00002883 32974.17188 1370.23303
35176.0 0.00002843 32934.77344 1568.32422
35372.0 0.00002827 32895.35547 1810.29736
35632.0 0.00002806 32855.94922 2117.64014
35978.0 0.00002779 32816.53906 2506.27295
35862.0 0.00002788 32777.13281 2993.16943
36646.0 0.00002729 32737.72266 3595.26099
36996.0 0.00002703 32698.31250 4327.30371
37550.0 0.00002663 32658.91406 5200.05957
38008.0 0.00002631 32619.49609 6218.21582
38518.0 0.00002596 32580.08984 7345.16406
39128.0 0.00002556 32540.67773 8625.08105
40238.0 0.00002485 32501.26758 9991.97461
40562.0 0.00002465 32461.86133 11392.05371
42068.0 0.00002377 32422.45898 12751.57129
42398.0 0.00002359 32383.04102 13979.83984
42984.0 0.00002326 32343.63477 14976.30176
43592.0 0.00002294 32304.22852 15652.11816
44654.0 0.00002239 32264.81250 15955.28809
44788.0 0.00002233 32225.40625 15897.75586
44932.0 0.00002226 32186.00391 15566.86621
45964.0 0.00002176 32146.58594 15109.34863
45154.0 0.00002215 32107.17969 14697.22461
45982.0 0.00002175 32067.77344 14489.20605
45958.0 0.00002176 32028.35742 14602.78418
46746.0 0.00002139 31988.95117 15095.45313
46258.0 0.00002162 31949.54883 15953.49316
46202.0 0.00002164 31910.13086 17088.54297
46596.0 0.00002146 31870.72461 18340.29688
46596.0 0.00002146 31831.31836 19496.60742
46558.0 0.00002148 31791.91211 20323.23633
45506.0 0.00002198 31752.49609 20606.26367
45374.0 0.00002204 31713.08984 20203.05664
44304.0 0.00002257 31673.68750 19090.83008
43646.0 0.00002291 31634.27344 17377.20898
42182.0 0.00002371 31594.86328 15263.20996
41864.0 0.00002389 31555.45703 12976.92578
41056.0 0.00002436 31516.04492 10780.85449
39898.0 0.00002506 31476.63477 8728.84863
38998.0 0.00002564 31437.23828 6975.67139
37858.0 0.00002641 31397.81836 5564.11523
37164.0 0.00002691 31358.41211 4489.31543
36984.0 0.00002704 31319.00195 3709.63110
35960.0 0.00002781 31279.58984 3165.06470
35966.0 0.00002780 31240.18359 2792.23853
35188.0 0.00002842 31200.78320 2535.58105
35706.0 0.00002801 31161.36328 2354.05078
34578.0 0.00002892 31121.95703 2222.40088
34280.0 0.00002917 31082.55078 2127.46021
34038.0 0.00002938 31043.13477 2063.73486
33752.0 0.00002963 31003.72852 2029.43933
33862.0 0.00002953 30964.32813 2023.77527
32516.0 0.00003075 30924.90820 2045.30383
32960.0 0.00003034 30885.50195 2090.83301
33240.0 0.00003008 30846.09570 2154.78979
32660.0 0.00003062 30806.68945 2228.92407
32744.0 0.00003054 30767.27344 2302.51587
32346.0 0.00003092 30727.86719 2363.17480
32448.0 0.00003082 30688.46680 2398.54102
32356.0 0.00003091 30649.04688 2398.57520
32192.0 0.00003106 30609.64063 2357.96509
31996.0 0.00003125 30570.23438 2277.57349
32094.0 0.00003116 30530.81836 2163.93140
31424.0 0.00003182 30491.41211 2027.14453
31082.0 0.00003217 30452.01172 1878.14319
31140.0 0.00003211 30412.59570 1726.63489
31126.0 0.00003213 30373.18555 1580.51721
30542.0 0.00003274 30333.77930 1445.46973
30476.0 0.00003281 30294.36719 1325.48999
30260.0 0.00003305 30254.95703 1223.36072
30474.0 0.00003281 30215.56055 1140.97754
30268.0 0.00003304 30176.14063 1079.73083
30294.0 0.00003301 30136.73438 1040.95496
30234.0 0.00003308 30097.32422 900.16296
29994.0 0.00003334 30057.91211 915.35175
30302.0 0.00003300 30018.50586 958.43909
30356.0 0.00003294 29979.10547 1032.49817
30126.0 0.00003319 29939.68555 1141.29382
30340.0 0.00003296 29900.27930 1288.88989
30066.0 0.00003326 29860.87305 1479.52429
30194.0 0.00003312 29821.46289 1716.97327
30568.0 0.00003271 29782.05078 2003.97449
30936.0 0.00003232 29742.64453 2341.28760
31450.0 0.00003180 29703.24414 2727.02344
31704.0 0.00003154 29663.82422 3155.89331
32348.0 0.00003091 29624.41797 3617.33765
32204.0 0.00003105 29585.01172 4095.40649
33194.0 0.00003013 29545.59570 4578.75439
34032.0 0.00002938 29506.18945 5015.57715
34086.0 0.00002934 29466.78906 5381.65088
33812.0 0.00002958 29427.36914 5640.86475
33284.0 0.00003004 29387.96289 5762.21338
34242.0 0.00002920 29348.55664 5728.67236
34182.0 0.00002926 29309.14063 5542.74805
34296.0 0.00002916 29269.73438 5226.57227
34108.0 0.00002932 29230.33398 4815.10742
34954.0 0.00002861 29190.91797 4346.53076
35746.0 0.00002798 29151.50781 3855.85864
36576.0 0.00002734 29112.10156 3370.43872
35534.0 0.00002814 29072.69141 2910.14551
35130.0 0.00002847 29033.27930 2488.17090
34238.0 0.00002921 28993.88281 2112.48193
33864.0 0.00002953 28954.46289 1786.70325
32940.0 0.00003036 28915.05664 1511.91125
33212.0 0.00003011 28875.64648 1286.81201
32288.0 0.00003097 28836.24023 1109.08923
31732.0 0.00003151 28796.83008 976.05872
31124.0 0.00003213 28757.41797 885.32202
30444.0 0.00003285 28718.02148 834.97388
30202.0 0.00003311 28678.60156 823.65417
29944.0 0.00003340 28639.19531 850.21527
30804.0 0.00003246 28599.78516 913.00891
30460.0 0.00003283 28560.37500 1009.08545
30406.0 0.00003289 28520.96875 1133.24316
30842.0 0.00003242 28481.56641 1277.37830
30930.0 0.00003233 28442.14648 1430.21155
31074.0 0.00003218 28402.74023 1577.20203
31200.0 0.00003205 28363.33008 1701.89746
31236.0 0.00003201 28323.91992 1787.65112
30876.0 0.00003239 28284.50781 1820.47229
30892.0 0.00003237 28245.11523 1792.62646
30432.0 0.00003286 28205.69531 1705.33081
30262.0 0.00003304 28166.28516 1568.80420
30420.0 0.00003287 28126.87500 1398.74280
29872.0 0.00003348 28087.46484 1212.10779
29174.0 0.00003428 28048.06250 1024.19202
29268.0 0.00003417 28008.66016 846.99603
29410.0 0.00003400 27969.24023 679.39349
28726.0 0.00003481 27929.83008 546.32477
28254.0 0.0000354 27890.42773 438.19827
28318.0 0.0000353 27851.01758 419.49405
28428.0 0.0000352 27811.60742 359.25708
28348.0 0.0000353 27772.19727 316.62018
28404.0 0.0000352 27732.79492 287.84982
28194.0 0.0000355 27693.37500 269.53943
28206.0 0.0000355 27653.97266 258.88687
28374.0 0.0000352 27614.56250 253.71611
27930.0 0.0000358 27575.15234 252.46529
28138.0 0.0000355 27535.74219 254.09171
28010.0 0.0000357 27496.33984 257.98383
27854.0 0.0000359 27456.91992 263.91931
27956.0 0.0000358 27417.51758 281.34344
28502.0 0.0000351 27378.10742 309.09363
28410.0 0.0000352 27338.69727 325.25250
28124.0 0.0000356 27299.28711 347.55637
28376.0 0.0000352 27259.88477 378.89758
28456.0 0.0000351 27220.47461 369.39658
28786.0 0.00003474 27181.06250 433.57239
29582.0 0.00003380 27141.65234 521.58563
29722.0 0.00003365 27102.24219 639.98969
30214.0 0.00003310 27062.83203 795.15112
30602.0 0.00003268 27023.43750 980.61957
30544.0 0.00003274 26984.01953 1223.56421
31168.0 0.00003208 26944.60742 1510.88696
31576.0 0.00003167 26905.19727 1837.92542
31848.0 0.00003140 26865.79492 2195.55518
31908.0 0.00003134 26826.38477 2571.05664
32192.0 0.00003106 26786.97461 2949.76001
31460.0 0.00003179 26747.57227 3318.42871
31886.0 0.00003136 26708.15234 3669.56714
31506.0 0.00003174 26668.75195 4005.60889
31716.0 0.00003153 26629.33984 4343.78174
31420.0 0.00003183 26589.92969 4715.73779
31948.0 0.00003130 26550.51953 5161.17822
32228.0 0.00003103 26511.11719 5717.54639
33164.0 0.00003015 26471.69727 6409.90771
33804.0 0.00002958 26432.29688 7241.75439
34476.0 0.00002901 26392.88477 8191.51465
35358.0 0.00002828 26353.47461 9209.80371
35956.0 0.00002781 26314.06445 10220.34277
37486.0 0.00002668 26274.66211 11126.71973
37622.0 0.00002658 26235.24219 11824.35449
37354.0 0.00002677 26195.84180 12217.58594
36544.0 0.00002736 26156.42969 12245.05371
36598.0 0.00002732 26117.01953 11899.28516
37060.0 0.00002698 26077.60938 11231.55859
36528.0 0.00002738 26038.20703 10334.37207
35558.0 0.00002812 25998.79688 9313.17969
34018.0 0.00002940 25959.38672 8266.06738
33688.0 0.00002968 25919.97461 7269.40869
32338.0 0.00003092 25880.57422 6374.71143
31604.0 0.00003164 25841.15430 5607.82666
31028.0 0.00003223 25801.75195 4971.61035
30530.0 0.00003275 25762.34961 4450.00000
29724.0 0.00003364 25722.93164 4014.96338
29280.0 0.00003415 25683.51953 3636.14648
29314.0 0.00003411 25644.11914 3287.58398
28898.0 0.00003460 25604.70703 2953.78027
28436.0 0.0000352 25565.29688 2629.99097
28472.0 0.0000351 25525.89453 2318.69214
28196.0 0.0000355 25486.47461 2025.63428
28084.0 0.0000356 25447.07422 1739.81372
27596.0 0.0000362 25407.66406 1504.12854
27624.0 0.0000362 25368.25195 1304.19397
26888.0 0.0000372 25328.84180 1143.08289
26842.0 0.0000373 25289.43945 1021.96558
26548.0 0.0000377 25250.01953 940.27197
27102.0 0.0000369 25210.61914 896.13916
26652.0 0.0000375 25171.20898 886.55420
26658.0 0.0000375 25131.79688 907.81848
26578.0 0.0000376 25092.38672 955.72937
26524.0 0.0000377 25052.98438 1025.67395
26616.0 0.0000376 25013.56445 1112.62939
26878.0 0.0000372 24974.16406 1210.80798
26284.0 0.0000380 24934.75195 1313.60535
26318.0 0.0000380 24895.35156 1413.31189
26252.0 0.0000381 24855.93164 1501.22681
26344.0 0.0000380 24816.52930 1568.18298
26868.0 0.0000372 24777.12891 1605.83447
26206.0 0.0000382 24737.70898 1608.30676
26176.0 0.0000382 24698.29688 1573.76172
26122.0 0.0000383 24658.89648 1505.02625
26022.0 0.0000384 24619.47656 1408.70520
25676.0 0.0000389 24580.07422 1293.39124
25742.0 0.0000388 24540.67383 1167.70593
25908.0 0.0000386 24501.25391 973.48285
25384.0 0.0000394 24461.84180 850.60376
26022.0 0.0000384 24422.44141 734.57031
25230.0 0.0000396 24383.02930 628.15778
25226.0 0.0000396 24343.61914 533.02350
25510.0 0.0000392 24304.21875 449.84888
25682.0 0.0000389 24264.79883 378.53690
25462.0 0.0000393 24225.39648 318.53259
25230.0 0.0000396 24185.98633 268.81915
25178.0 0.0000397 24146.57422 228.16925
25044.0 0.0000399 24107.16406 195.27983
25022.0 0.0000400 24067.76367 168.84740
25202.0 0.0000397 24028.34375 147.65038
24838.0 0.0000403 23988.94141 130.63684
24950.0 0.0000401 23949.53125 116.89396
24918.0 0.0000401 23910.11914 105.68069
24804.0 0.0000403 23870.70898 96.40800
25244.0 0.0000396 23831.30664 88.62457
24752.0 0.0000404 23791.90625 81.98663
24696.0 0.0000405 23752.48633 76.23558
25038.0 0.0000399 23713.07617 148.22980
24468.0 0.0000409 23673.67383 146.59161
24632.0 0.0000406 23634.25391 145.57555
24672.0 0.0000405 23605.40820 145.11847
24754.0 0.0000404 23595.89063 145.17616
24426.0 0.0000409 23586.36914 145.71893
24388.0 0.0000410 23576.84961 146.72701
24748.0 0.0000404 23567.33203 149.95341
24610.0 0.0000406 23557.81055 152.02652
24970.0 0.0000400 23548.29492 154.58363
24504.0 0.0000408 23538.77734 157.64923
24444.0 0.0000409 23529.25586 161.26889
24404.0 0.0000410 23519.73633 165.51186
24564.0 0.0000407 23510.21875 170.49283
24666.0 0.0000405 23500.69922 176.38708
24182.0 0.0000414 23491.17969 183.45050
24172.0 0.0000414 23481.66406 192.04697
24054.0 0.0000416 23472.14258 202.67259
24254.0 0.0000412 23462.62500 215.94113
24446.0 0.0000409 23453.10547 232.58644
24514.0 0.0000408 23443.58594 253.39349
24200.0 0.0000413 23434.06641 279.10562
24640.0 0.0000406 23424.55078 310.26938
24040.0 0.0000416 23415.03320 347.08743
24204.0 0.0000413 23405.51172 389.28226
24450.0 0.0000409 23395.99219 435.90421
24220.0 0.0000413 23386.47266 485.40137
24590.0 0.0000407 23376.95313 535.67029
24396.0 0.0000410 23367.43555 564.88434
24212.0 0.0000413 23357.91992 610.11774
24634.0 0.0000406 23348.39844 700.87897
24364.0 0.0000410 23338.87891 735.50079
24450.0 0.0000409 23329.36133 764.94995
24606.0 0.0000406 23319.83984 792.30157
24230.0 0.0000413 23310.32227 822.44952
25094.0 0.0000399 23300.80469 861.78296
24898.0 0.0000402 23291.28320 917.88989
25118.0 0.0000398 23281.76367 999.23944
24844.0 0.0000403 23272.24805 1115.15002
25334.0 0.0000395 23262.72656 1275.60413
25086.0 0.0000399 23253.20898 1490.93884
25026.0 0.0000400 23243.69141 1771.56726
25728.0 0.0000389 23234.16992 2127.58691
26688.0 0.0000375 23224.65039 2567.26611
26710.0 0.0000374 23215.13477 3096.70264
27130.0 0.0000369 23205.61523 3718.07935
27638.0 0.0000362 23196.09570 4428.42725
28794.0 0.00003473 23186.57617 5217.71924
29886.0 0.00003346 23177.05859 6068.28271
31026.0 0.00003223 23167.53906 6952.33789
31890.0 0.00003136 23158.01953 7831.38672
33492.0 0.00002986 23148.50000 8656.67188
34252.0 0.00002920 23138.98242 9370.33594
34464.0 0.00002902 23129.46484 9910.68262
34236.0 0.00002921 23119.94727 10222.55762
34164.0 0.00002927 23110.42578 10269.73242
33276.0 0.00003005 23100.90625 10045.63477
33322.0 0.00003001 23091.38672 9576.51367
32734.0 0.00003055 23081.86719 8913.59277
32122.0 0.00003113 23072.35156 8119.89600
31484.0 0.00003176 23062.83398 7257.10254
29958.0 0.00003338 23053.31250 6377.60156
28810.0 0.00003471 23043.79297 5523.55029
27806.0 0.0000360 23034.27539 4724.94580
26882.0 0.0000372 23024.75391 4001.87305
25702.0 0.0000389 23015.23633 3366.08496
25324.0 0.0000395 23005.72070 2821.88403
25090.0 0.0000399 22996.19922 2367.62231
24778.0 0.0000404 22986.67969 1998.07007
24644.0 0.0000406 22977.16211 1704.75781
24528.0 0.0000408 22967.64258 1477.94812
24586.0 0.0000407 22958.12305 1307.58142
24348.0 0.0000411 22948.60352 1184.21082
24328.0 0.0000411 22939.08789 1099.43640
24064.0 0.0000416 22929.56641 1046.28381
23778.0 0.0000421 22920.04883 1019.44238
24120.0 0.0000415 22910.52930 1015.13855
24112.0 0.0000415 22901.00977 1031.17456
23914.0 0.0000418 22891.49023 1066.82495
23814.0 0.0000420 22881.97266 1122.77185
23642.0 0.0000423 22872.45313 1201.09399
23676.0 0.0000422 22862.93555 1305.03308
23518.0 0.0000425 22853.41602 1444.18604
24078.0 0.0000415 22843.89648 1613.58252
24436.0 0.0000409 22834.37891 1823.58533
24336.0 0.0000411 22824.86133 2087.32764
24774.0 0.0000404 22815.33984 2397.34741
24608.0 0.0000406 22805.82031 2756.14380
24740.0 0.0000404 22796.30273 3167.89063
25604.0 0.0000391 22786.78320 3630.01880
26276.0 0.0000381 22777.26563 4136.06348
27590.0 0.0000362 22767.74805 4675.22998
28410.0 0.0000352 22758.22656 5231.82715
30302.0 0.00003300 22748.70703 5783.49609
31870.0 0.00003138 22739.18945 6302.28613
33054.0 0.00003025 22729.67188 6754.84326
33650.0 0.00002972 22720.15234 7105.47412
33352.0 0.00002998 22710.63281 7321.17432
32886.0 0.00003041 22701.11523 7378.77002
32388.0 0.00003088 22691.59375 7270.75146
31630.0 0.00003162 22682.07617 7007.87305
31456.0 0.00003179 22672.55664 6616.21631
31700.0 0.00003155 22663.03711 6130.52832
30598.0 0.00003268 22653.51953 5587.30518
29698.0 0.00003367 22644.00195 5022.73047
27536.0 0.0000363 22634.48047 4456.47217
26596.0 0.0000376 22624.96289 3912.64185
25406.0 0.0000394 22615.44336 3405.73608
25126.0 0.0000398 22605.92383 2945.55664
24200.0 0.0000413 22596.40430 2460.27344
23996.0 0.0000417 22586.88867 2111.27588
23588.0 0.0000424 22577.36914 1817.97827
23708.0 0.0000422 22567.84961 1579.18286
23874.0 0.0000419 22558.33008 1392.06665
23872.0 0.0000419 22548.81055 1252.99207
23044.0 0.0000434 22539.29297 1157.77820
22968.0 0.0000435 22529.77734 1101.74939
23016.0 0.0000434 22520.25586 1079.84534
23244.0 0.0000430 22510.73633 1088.35901
23556.0 0.0000425 22501.21680 1118.03479
23852.0 0.0000419 22491.69922 1164.13123
23414.0 0.0000427 22482.17969 1219.82385
23582.0 0.0000424 22472.66016 1278.16931
24056.0 0.0000416 22463.14258 1331.72534
24488.0 0.0000408 22453.62109 1374.45496
23722.0 0.0000422 22444.10547 1401.87402
23896.0 0.0000418 22434.58594 1412.43591
23844.0 0.0000419 22425.06641 1408.03113
23726.0 0.0000421 22415.54688 1393.54565
23834.0 0.0000420 22406.02930 1375.49744
23868.0 0.0000419 22396.50781 1360.45068
23544.0 0.0000425 22386.99023 1353.84302
23774.0 0.0000421 22377.47266 1359.22717
23346.0 0.0000428 22367.95313 1377.92468
22988.0 0.0000435 22358.43359 1408.85034
23178.0 0.0000431 22348.91602 1448.54639
23624.0 0.0000423 22339.39453 1491.47314
23436.0 0.0000427 22329.87695 1530.55005
23078.0 0.0000433 22320.35742 1558.35889
23290.0 0.0000429 22310.83984 1568.63306
23270.0 0.0000430 22301.32031 1557.89233
23312.0 0.0000429 22291.80273 1526.48706
23364.0 0.0000428 22282.28320 1478.41150
23574.0 0.0000424 22272.76367 1430.26965
22854.0 0.0000438 22263.24414 1369.59814
23132.0 0.0000432 22253.72656 1312.97192
23188.0 0.0000431 22244.20898 1267.41394
23384.0 0.0000428 22234.68945 1234.45227
23364.0 0.0000428 22225.17188 1217.80396
23058.0 0.0000434 22215.65039 1218.11682
23136.0 0.0000432 22206.13086 1234.23059
23430.0 0.0000427 22196.61328 1263.25659
23278.0 0.0000430 22187.09375 1300.86792
23538.0 0.0000425 22177.57422 1341.76868
23232.0 0.0000430 22168.05859 1380.38574
23204.0 0.0000431 22158.53711 1411.52271
23132.0 0.0000432 22149.01953 1430.72852
23620.0 0.0000423 22139.50000 1434.53064
23256.0 0.0000430 22129.98047 1420.44116
23460.0 0.0000426 22120.46094 1387.20459
22856.0 0.0000438 22110.94531 1335.22412
23516.0 0.0000425 22101.42383 1266.85205
22984.0 0.0000435 22091.90625 1186.39917
23044.0 0.0000434 22082.38672 1107.87109
22444.0 0.0000446 22072.86719 1020.28040
22764.0 0.0000439 22063.34766 937.22845
22972.0 0.0000435 22053.83008 812.17883
22748.0 0.0000440 22044.30859 746.00269
22112.0 0.0000452 22034.79297 699.38611
22482.0 0.0000445 22025.27344 666.93719
22286.0 0.0000449 22015.75586 647.65955
22452.0 0.0000445 22006.23438 639.30597
22544.0 0.0000444 21996.71680 638.64520
22232.0 0.0000450 21987.19922 641.84521
22474.0 0.0000445 21977.67773 698.41205
22456.0 0.0000445 21968.15820 700.66968
22372.0 0.0000447 21958.64258 701.65149
22826.0 0.0000438 21949.12305 692.61060
22534.0 0.0000444 21939.60352 678.80255
22022.0 0.0000454 21930.08594 662.83673
22454.0 0.0000445 21920.56445 648.08051
22604.0 0.0000442 21911.04492 638.08618
22300.0 0.0000448 21901.52930 636.09253
22708.0 0.0000440 21892.00977 692.96362
22666.0 0.0000441 21882.49023 715.83313
22588.0 0.0000443 21872.97266 752.10217
22874.0 0.0000437 21863.45117 801.73901
22568.0 0.0000443 21853.93359 863.81750
22882.0 0.0000437 21844.41406 936.83575
22676.0 0.0000441 21834.89453 1018.94666
23060.0 0.0000434 21825.37695 1108.15894
22960.0 0.0000436 21815.85938 1202.46057
23180.0 0.0000431 21806.33789 1299.70386
23174.0 0.0000432 21796.82031 1397.16882
23660.0 0.0000423 21787.30078 1485.45508
23662.0 0.0000423 21777.78320 1576.11365
23662.0 0.0000423 21768.26172 1654.25061
23660.0 0.0000423 21758.74609 1719.99939
23928.0 0.0000418 21749.22852 1773.77795
23984.0 0.0000417 21739.70703 1819.89001
24174.0 0.0000414 21730.18750 1866.86487
24404.0 0.0000410 21720.66992 1926.89905
24548.0 0.0000407 21711.14844 2014.34424
25172.0 0.0000397 21701.63086 2143.99805
25326.0 0.0000395 21692.11523 2329.65479
25316.0 0.0000395 21682.59375 2582.97266
25486.0 0.0000392 21673.07422 2911.81396
25344.0 0.0000395 21663.55664 3319.61133
25802.0 0.0000388 21654.03711 3804.04736
25936.0 0.0000386 21644.51758 4355.89551
26694.0 0.0000375 21635.00000 4958.69531
26716.0 0.0000374 21625.47852 5588.72803
26540.0 0.0000377 21615.96094 6213.98242
27092.0 0.0000369 21606.44336 6796.64844
26976.0 0.0000371 21596.92383 7294.89990
27480.0 0.0000364 21587.40430 7667.58203
27202.0 0.0000368 21577.88672 7881.83057
27392.0 0.0000365 21568.36523 7920.86279
27836.0 0.0000359 21558.84766 7789.40723
26924.0 0.0000371 21549.33008 7513.75830
27012.0 0.0000370 21539.81055 7135.69189
27196.0 0.0000368 21530.29102 6707.12207
27204.0 0.0000368 21520.77344 6261.88037
26806.0 0.0000373 21511.25586 5863.52881
26958.0 0.0000371 21501.73438 5538.61084
26792.0 0.0000373 21492.21484 5313.94043
26654.0 0.0000375 21482.69922 5206.33350
26882.0 0.0000372 21473.17773 5222.83936
27156.0 0.0000368 21463.66016 5360.78125
27312.0 0.0000366 21454.14258 5608.36572
27952.0 0.0000358 21444.62109 5946.01123
28648.0 0.00003491 21435.10156 6346.84229
29434.0 0.00003397 21425.58398 6778.40527
29104.0 0.00003436 21416.06250 7203.09131
28770.0 0.00003476 21406.54688 7579.18750
29426.0 0.00003398 21397.02930 7863.93408
29022.0 0.00003446 21387.50781 8018.53271
28920.0 0.00003458 21377.98828 8014.79688
28688.0 0.00003486 21368.47070 7842.20605
28208.0 0.0000355 21358.95117 7510.29883
27978.0 0.0000357 21349.43164 7045.97168
27056.0 0.0000370 21339.91602 6486.05273
26390.0 0.0000379 21330.39453 5869.17725
25916.0 0.0000386 21320.87500 5231.45752
25358.0 0.0000394 21311.35742 4602.32617
24352.0 0.0000411 21301.83789 4004.51733
24302.0 0.0000411 21292.31836 3453.99316
23358.0 0.0000428 21282.79883 2960.85718
23280.0 0.0000430 21273.28320 2529.79224
23036.0 0.0000434 21263.76367 2161.11572
22900.0 0.0000437 21254.24414 1852.66943
22938.0 0.0000436 21244.72461 1600.03638
22152.0 0.0000451 21235.20508 1389.27759
22624.0 0.0000442 21225.68750 1232.34619
22158.0 0.0000451 21216.17188 1114.47668
22038.0 0.0000454 21206.65039 1029.85217
22428.0 0.0000446 21197.13086 972.86469
22288.0 0.0000449 21187.61328 937.90918
21792.0 0.0000459 21178.09180 919.49048
22458.0 0.0000445 21168.57422 912.17285
22092.0 0.0000453 21159.05664 910.56500
22248.0 0.0000449 21149.53516 909.41608
21912.0 0.0000456 21140.01563 903.84949
22190.0 0.0000451 21130.50000 889.78699
21686.0 0.0000461 21120.97852 864.48535
22302.0 0.0000448 21111.46094 826.99200
21916.0 0.0000456 21101.94336 778.19012
22170.0 0.0000451 21092.42188 720.35779
21362.0 0.0000468 21082.90234 656.61755
21690.0 0.0000461 21073.38477 590.19263
21450.0 0.0000466 21063.86719 524.06506
22112.0 0.0000452 21054.34766 461.00565
21764.0 0.0000459 21044.82813 362.90701
21094.0 0.0000474 21035.31055 311.63101
21688.0 0.0000461 21025.78906 266.91290
21472.0 0.0000466 21016.27148 228.92729
21004.0 0.0000476 21006.75195 197.37132
21342.0 0.0000469 20997.23438 171.64874
21250.0 0.0000471 20987.71484 150.99568
20664.0 0.0000484 20978.19727 134.57164
21346.0 0.0000468 20968.67773 121.54972
20844.0 0.0000480 20959.15820 111.19931
21026.0 0.0000476 20949.63867 102.88555
21154.0 0.0000473 20940.11914 96.09713
21436.0 0.0000467 20930.60352 90.44038
21570.0 0.0000464 20921.08594 81.60739
21256.0 0.0000470 20911.56445 77.56670
21838.0 0.0000458 20902.04492 73.97116
21458.0 0.0000466 20892.52734 71.93131
21550.0 0.0000464 20883.00586 69.06206
21344.0 0.0000469 20873.48828 66.44544
21386.0 0.0000468 20863.97266 64.05289
21696.0 0.0000461 20854.45117 17.94098
21208.0 0.0000472 20844.93164 17.72339
21488.0 0.0000465 20835.41406 17.63792
21512.0 0.0000465 20825.89453 17.70723
21458.0 0.0000466 20816.37500 17.96651
21052.0 0.0000475 20806.85547 18.46556
21182.0 0.0000472 20797.33789 19.27121
21376.0 0.0000468 20787.81641 20.47018
21224.0 0.0000471 20778.30078 22.16820
20986.0 0.0000477 20768.78125 24.49236
20928.0 0.0000478 20759.26172 27.58833
21142.0 0.0000473 20749.74219 31.61443
20976.0 0.0000477 20740.22461 34.27682
20994.0 0.0000476 20730.70313 40.74636
20880.0 0.0000479 20721.18750 45.40776
20634.0 0.0000485 20711.66797 54.92592
20716.0 0.0000483 20702.14844 65.99628
20290.0 0.0000493 20692.62891 78.58380
20534.0 0.0000487 20683.11133 92.54639
20150.0 0.0000496 20673.59180 107.62070
20414.0 0.0000490 20664.07227 123.38626
20326.0 0.0000492 20654.55273 139.31390
20684.0 0.0000483 20645.03516 154.78342
20542.0 0.0000487 20635.51758 169.12117
20628.0 0.0000485 20626.00000 181.64394
20272.0 0.0000493 20616.47852 191.67665
20460.0 0.0000489 20606.95898 198.55893
20772.0 0.0000481 20597.44141 201.73732
20578.0 0.0000486 20587.92188 200.86560
20550.0 0.0000487 20578.40430 195.93411
20346.0 0.0000491 20568.88477 187.34508
20418.0 0.0000490 20559.36719 175.87552
20342.0 0.0000492 20549.84570 162.54370
20948.0 0.0000477 20540.70703 148.48904
20664.0 0.0000484 20531.80078 134.82965
20526.0 0.0000487 20522.89453 122.61424
20500.0 0.0000488 20513.98828 112.79700
20670.0 0.0000484 20505.08398 106.21854
20538.0 0.0000487 20496.17578 103.61034
20522.0 0.0000487 20487.27148 105.60338
20562.0 0.0000486 20478.36523 112.71911
20452.0 0.0000489 20469.45898 125.36995
20174.0 0.0000496 20460.55273 143.83066
20630.0 0.0000485 20451.64844 168.21243
20710.0 0.0000483 20442.73828 198.43523
20504.0 0.0000488 20433.83398 234.11665
20514.0 0.0000487 20424.92773 274.58276
20524.0 0.0000487 20416.02148 318.78775
20812.0 0.0000480 20407.11523 365.25641
20844.0 0.0000480 20398.21094 412.09445
21196.0 0.0000472 20389.30469 457.01132
20966.0 0.0000477 20380.39844 499.28088
21544.0 0.0000464 20371.49219 532.17670
21176.0 0.0000472 20362.58789 554.85779
21310.0 0.0000469 20353.68164 565.17279
21092.0 0.0000474 20344.77539 562.03479
21202.0 0.0000472 20335.87109 545.72784
21274.0 0.0000470 20326.96289 517.81390
21268.0 0.0000470 20318.05859 480.78928
21360.0 0.0000468 20309.15234 437.50403
20928.0 0.0000478 20300.24609 390.75156
21106.0 0.0000474 20291.33984 343.02914
20694.0 0.0000483 20282.43555 296.52682
20902.0 0.0000478 20273.52734 252.53252
20734.0 0.0000482 20264.62305 212.05557
20240.0 0.0000494 20255.71680 176.37434
20606.0 0.0000485 20246.81055 145.51056
20314.0 0.0000492 20237.90430 119.48399
20084.0 0.0000498 20229.00000 98.05959
19960.0 0.0000501 20220.09180 80.82674
20716.0 0.0000483 20211.18750 76.14343
20416.0 0.0000490 20202.28125 66.06969
20304.0 0.0000493 20193.37500 58.69640
20176.0 0.0000496 20184.46875 53.59506
20112.0 0.0000497 20175.56445 50.42397
19998.0 0.0000500 20166.65625 48.94435
20356.0 0.0000491 20157.75195 49.02607
20002.0 0.0000500 20148.84570 50.63751
20020.0 0.0000500 20139.94141 53.83553
20222.0 0.0000495 20131.03320 58.23761
20082.0 0.0000498 20122.12891 65.04713
19930.0 0.0000502 20113.22461 73.91410
20162.0 0.0000496 20104.31641 84.99995
20500.0 0.0000488 20095.41016 98.38853
20018.0 0.0000500 20086.50586 117.12607
20540.0 0.0000487 20077.59961 135.09837
20112.0 0.0000497 20068.69336 154.89922
20464.0 0.0000489 20059.78906 176.01649
20798.0 0.0000481 20050.88086 197.75015
20600.0 0.0000485 20041.97656 219.17386
20790.0 0.0000481 20033.07031 239.20827
20716.0 0.0000483 20024.16406 256.65143
21170.0 0.0000472 20015.25781 270.28479
21782.0 0.0000459 20006.35352 279.05878
21838.0 0.0000458 19997.44336 282.29367
21352.0 0.0000468 19988.54102 279.84097
21616.0 0.0000463 19979.63281 272.13907
21492.0 0.0000465 19970.72656 260.09161
21556.0 0.0000464 19961.82031 244.86845
21178.0 0.0000472 19952.91602 227.69084
21832.0 0.0000458 19944.00781 209.67804
21598.0 0.0000463 19935.10352 191.80870
21290.0 0.0000470 19926.19727 174.85393
21330.0 0.0000469 19917.29297 159.40591
21166.0 0.0000472 19908.38477 145.89517
21004.0 0.0000476 19899.48047 134.63496
21526.0 0.0000465 19890.57617 125.85155
20722.0 0.0000483 19881.66797 119.72423
20864.0 0.0000479 19872.76172 116.42862
20740.0 0.0000482 19863.85742 112.85756
20632.0 0.0000485 19854.94922 115.92008
20666.0 0.0000484 19846.04492 122.47109
20416.0 0.0000490 19837.14063 132.82619
20618.0 0.0000485 19828.23242 147.35458
20592.0 0.0000486 19819.32617 166.43190
20512.0 0.0000488 19810.42188 190.44040
20288.0 0.0000493 19801.51563 219.71957
20190.0 0.0000495 19792.60938 254.51230
20544.0 0.0000487 19783.70508 294.94574
20648.0 0.0000484 19774.79688 341.01859
20288.0 0.0000493 19765.89258 392.48306
20804.0 0.0000481 19756.98633 448.92218
20410.0 0.0000490 19748.08008 509.68430
20380.0 0.0000491 19739.17383 577.35773
20546.0 0.0000487 19730.26953 644.03394
20652.0 0.0000484 19721.36133 712.03082
20670.0 0.0000484 19712.45703 780.36084
20728.0 0.0000482 19703.55078 848.44440
20540.0 0.0000487 19694.64453 916.08392
20678.0 0.0000484 19685.74023 983.34326
21340.0 0.0000469 19676.83203 1050.25256
20968.0 0.0000477 19667.92578 1116.36108
21242.0 0.0000471 19659.02148 1184.71484
21386.0 0.0000468 19650.11523 1245.12280
21782.0 0.0000459 19641.21094 1298.56934
21930.0 0.0000456 19632.30664 1341.27783
21656.0 0.0000462 19623.39648 1367.16272
21824.0 0.0000458 19614.49023 1376.57385
21354.0 0.0000468 19605.58594 1364.87329
21204.0 0.0000472 19596.67969 1336.33704
21748.0 0.0000460 19587.77539 1282.72400
21746.0 0.0000460 19578.86914 1211.96802
21460.0 0.0000466 19569.96289 1128.33655
21612.0 0.0000463 19561.05664 1036.36462
20940.0 0.0000478 19552.15039 940.38440
21082.0 0.0000474 19543.24219 844.04803
21482.0 0.0000466 19534.33789 750.33508
20836.0 0.0000480 19525.43164 661.40814
21160.0 0.0000473 19516.53125 579.25354
20400.0 0.0000490 19507.61914 504.78656
20706.0 0.0000483 19498.71289 438.80841
20550.0 0.0000487 19489.80859 401.14444
20364.0 0.0000491 19480.90234 353.59421
20578.0 0.0000486 19471.99609 314.68683
20252.0 0.0000494 19463.09180 284.12524
20084.0 0.0000498 19454.18359 261.58179
20506.0 0.0000488 19445.27734 246.80064
20358.0 0.0000491 19436.37305 239.62273
20380.0 0.0000491 19427.46680 240.05798
20592.0 0.0000486 19418.56055 248.29788
20222.0 0.0000495 19409.65820 264.70322
20414.0 0.0000490 19400.74805 289.81030
20926.0 0.0000478 19391.84180 324.18079
20550.0 0.0000487 19382.93750 368.42642
20384.0 0.0000491 19374.03125 423.05682
20396.0 0.0000490 19365.12695 488.38684
20764.0 0.0000482 19356.22070 564.42950
20730.0 0.0000482 19347.31445 660.21869
20942.0 0.0000478 19338.40625 756.34229
21290.0 0.0000470 19329.50195 860.43829
21118.0 0.0000474 19320.59570 970.48969
21102.0 0.0000474 19311.69141 1083.90198
21710.0 0.0000461 19302.78516 1197.68994
21846.0 0.0000458 19293.88281 1308.75208
22144.0 0.0000452 19284.97266 1414.47815
22180.0 0.0000451 19276.06641 1539.66772
22448.0 0.0000445 19267.16016 1630.92078
22612.0 0.0000442 19258.25586 1727.71704
22232.0 0.0000450 19249.34961 1805.29834
22622.0 0.0000442 19240.44531 1879.41113
22664.0 0.0000441 19231.53711 1953.98206
22178.0 0.0000451 19222.63086 2033.77942
22556.0 0.0000443 19213.72656 2124.21875
22326.0 0.0000448 19204.82031 2230.78955
22696.0 0.0000441 19195.91406 2358.35742
22616.0 0.0000442 19187.01172 2510.16504
22364.0 0.0000447 19178.10156 2687.12842
22318.0 0.0000448 19169.19531 2886.33838
22556.0 0.0000443 19160.29102 3101.43408
22564.0 0.0000443 19151.38477 3322.16357
22100.0 0.0000452 19142.47852 3534.91089
22444.0 0.0000446 19133.57422 3723.57422
22146.0 0.0000452 19124.66797 3871.04053
21784.0 0.0000459 19115.75977 3961.37817
22308.0 0.0000448 19106.85547 3982.51343
21602.0 0.0000463 19097.94922 3929.07251
21864.0 0.0000457 19089.04492 3803.79053
22406.0 0.0000446 19080.13672 3617.18457
22326.0 0.0000448 19071.23633 3385.58740
22452.0 0.0000445 19062.32227 3128.04932
22034.0 0.0000454 19053.41797 2865.04150
21502.0 0.0000465 19044.51172 2615.61963
22130.0 0.0000452 19035.60742 2396.98413
21678.0 0.0000461 19026.70117 2223.56982
21866.0 0.0000457 19017.79492 2106.49902
21752.0 0.0000460 19008.88867 2053.20557
21866.0 0.0000457 18999.98242 2057.68799
21726.0 0.0000460 18991.07617 2139.03149
21976.0 0.0000455 18982.17188 2283.22241
22132.0 0.0000452 18973.26563 2482.56177
21962.0 0.0000455 18964.36328 2726.69458
22258.0 0.0000449 18955.45313 3003.84009
22118.0 0.0000452 18946.54688 3292.57227
22436.0 0.0000446 18937.64258 3578.11670
22636.0 0.0000442 18928.73633 3842.09082
22562.0 0.0000443 18919.83008 4066.84082
22708.0 0.0000440 18910.92578 4237.50781
22830.0 0.0000438 18902.01953 4344.43359
22558.0 0.0000443 18893.11133 4385.11523
22348.0 0.0000447 18884.20703 4364.67676
22632.0 0.0000442 18875.30078 4294.58789
22556.0 0.0000443 18866.39453 4190.00928
22536.0 0.0000444 18857.49023 4067.06323
22452.0 0.0000445 18848.58789 3940.70898
23066.0 0.0000434 18839.67578 3823.09839
22570.0 0.0000443 18830.77148 3723.18262
22794.0 0.0000439 18821.86523 3645.61816
22202.0 0.0000450 18812.96094 3591.23682
22442.0 0.0000446 18804.05469 3555.68506
21854.0 0.0000458 18795.14844 3532.09546
21892.0 0.0000457 18786.24023 3510.77417
21942.0 0.0000456 18777.33594 3481.12354
22148.0 0.0000452 18768.42969 3424.06152
21450.0 0.0000466 18759.52539 3351.44556
22152.0 0.0000451 18750.61914 3249.92944
21726.0 0.0000460 18741.71680 3119.66724
21622.0 0.0000462 18732.80664 2963.80225
21762.0 0.0000460 18723.90039 2788.06372
21304.0 0.0000469 18714.99414 2598.91431
21200.0 0.0000472 18706.08984 2421.37500
21276.0 0.0000470 18697.18359 2224.97095
21170.0 0.0000472 18688.27930 2032.22595
21220.0 0.0000471 18679.37305 1846.63391
21028.0 0.0000476 18670.46484 1670.59509
20998.0 0.0000476 18661.56055 1505.88074
20812.0 0.0000480 18652.65430 1353.58533
20726.0 0.0000482 18643.74609 1214.49756
20816.0 0.0000480 18634.84375 1089.07825
20550.0 0.0000487 18625.93945 977.44781
20492.0 0.0000488 18617.02734 879.16132
20302.0 0.0000493 18608.12305 793.63159
20284.0 0.0000493 18599.21680 719.70514
20426.0 0.0000490 18590.31055 656.03241
20026.0 0.0000499 18581.40625 601.13495
19698.0 0.0000508 18572.50000 553.54523
20038.0 0.0000499 18563.59180 523.14386
20042.0 0.0000499 18554.68750 486.68921
20054.0 0.0000499 18545.78125 454.16058
19710.0 0.0000507 18536.87695 424.84924
19856.0 0.0000504 18527.97070 398.25259
19628.0 0.0000509 18519.06836 365.41888
19850.0 0.0000504 18510.15625 343.80258
19476.0 0.0000513 18501.25195 324.57550
19532.0 0.0000512 18492.34570 307.90558
20016.0 0.0000500 18483.44141 294.03104
19130.0 0.0000523 18474.53516 283.20175
19374.0 0.0000516 18465.62891 275.65219
19478.0 0.0000513 18456.72461 271.59378
19124.0 0.0000523 18447.81641 271.22485
19486.0 0.0000513 18438.91016 274.75485
19514.0 0.0000512 18430.00586 282.44168
19580.0 0.0000511 18421.09961 294.64053
19496.0 0.0000513 18412.19531 311.85577
19392.0 0.0000516 18403.29102 334.78690
19646.0 0.0000509 18394.38086 364.42670
19852.0 0.0000504 18385.47656 401.99149
19530.0 0.0000512 18376.57031 449.07895
19268.0 0.0000519 18367.66406 514.12463
19650.0 0.0000509 18358.75977 586.58771
19566.0 0.0000511 18349.85352 675.07678
19580.0 0.0000511 18340.94531 781.96234
19510.0 0.0000513 18332.04102 909.19629
19410.0 0.0000515 18323.13477 1058.46338
19746.0 0.0000506 18314.22852 1229.52124
19964.0 0.0000501 18305.32422 1421.70020
20330.0 0.0000492 18296.42188 1632.40479
20114.0 0.0000497 18287.50977 1857.61206
19966.0 0.0000501 18278.60547 2090.86157
19926.0 0.0000502 18269.69922 2324.27783
20166.0 0.0000496 18260.79492 2548.09058
20404.0 0.0000490 18251.88867 2751.06372
20620.0 0.0000485 18242.98242 2921.14233
20104.0 0.0000497 18234.07813 3046.59595
20164.0 0.0000496 18225.16992 3117.68921
20424.0 0.0000490 18216.26367 3128.46606
20334.0 0.0000492 18207.35938 3078.25854
20556.0 0.0000486 18198.45313 2971.84912
19986.0 0.0000500 18189.54492 2818.49463
20196.0 0.0000495 18180.64453 2630.21753
20112.0 0.0000497 18171.73242 2419.66772
20120.0 0.0000497 18162.82617 2199.65186
20006.0 0.0000500 18153.92188 1981.41675
20186.0 0.0000495 18145.01563 1774.82788
20330.0 0.0000492 18136.11133 1565.57813
19806.0 0.0000505 18127.20508 1414.76672
19538.0 0.0000512 18118.29688 1286.61267
19420.0 0.0000515 18109.39258 1193.06616
19886.0 0.0000503 18100.48633 1135.84888
19518.0 0.0000512 18091.58008 1115.32788
19722.0 0.0000507 18082.67578 1130.59326
19882.0 0.0000503 18073.77148 1179.55750
20090.0 0.0000498 18064.86133 1259.17749
20002.0 0.0000500 18055.95703 1365.24500
20598.0 0.0000485 18047.05078 1492.78015
20298.0 0.0000493 18038.14453 1635.89856
20816.0 0.0000480 18029.24023 1787.89307
21368.0 0.0000468 18020.33398 1941.30115
21934.0 0.0000456 18011.42969 2088.04150
22280.0 0.0000449 18002.52148 2219.73535
22090.0 0.0000453 17993.61523 2328.04321
21864.0 0.0000457 17984.71094 2407.28198
21776.0 0.0000459 17975.80469 2448.35327
21770.0 0.0000459 17966.89844 2449.45654
21378.0 0.0000468 17957.99609 2409.99634
21266.0 0.0000470 17949.08594 2332.20435
21636.0 0.0000462 17940.17969 2221.09717
21316.0 0.0000469 17931.27539 2083.45264
21128.0 0.0000473 17922.36914 1927.03687
21590.0 0.0000463 17913.46289 1759.65198
21052.0 0.0000475 17904.55859 1588.43665
20360.0 0.0000491 17895.65039 1419.41479
20056.0 0.0000499 17886.74414 1257.53857
19664.0 0.0000509 17877.83984 1109.83655
19798.0 0.0000505 17868.93359 972.14758
19374.0 0.0000516 17860.02930 849.40265
19366.0 0.0000516 17851.12500 742.48584
19080.0 0.0000524 17842.21484 651.53748
18872.0 0.0000530 17833.31055 576.50635
18778.0 0.0000533 17824.40430 516.84613
18944.0 0.0000528 17815.49805 471.89771
18586.0 0.0000538 17806.59375 440.93127
18878.0 0.0000530 17797.68750 423.21808
18902.0 0.0000529 17788.78320 422.80252
19136.0 0.0000523 17779.87500 429.76080
18586.0 0.0000538 17770.96875 448.04507
19196.0 0.0000521 17762.06250 477.03238
18706.0 0.0000535 17753.15820 514.97083
18906.0 0.0000529 17744.25000 563.15924
18702.0 0.0000535 17735.34961 617.21686
19242.0 0.0000520 17726.43750 681.82745
19218.0 0.0000520 17717.53125 751.66516
19790.0 0.0000505 17708.62695 824.84979
19858.0 0.0000504 17699.72070 899.10223
19962.0 0.0000501 17690.81445 971.75586
20506.0 0.0000488 17681.91016 1039.76379
20406.0 0.0000490 17673.00195 1099.80212
20218.0 0.0000495 17664.09570 1149.67554
20316.0 0.0000492 17655.19141 1183.87073
20002.0 0.0000500 17646.28516 1201.33521
19880.0 0.0000503 17637.37891 1201.15222
19850.0 0.0000504 17628.47656 1184.01575
19692.0 0.0000508 17619.56641 1152.09082
19834.0 0.0000504 17610.66016 1114.34363
20132.0 0.0000497 17601.75586 1063.62415
19756.0 0.0000506 17592.84961 1009.22589
19382.0 0.0000516 17583.94531 954.80328
19616.0 0.0000510 17575.03906 903.60144
19270.0 0.0000519 17566.13281 858.42389
18816.0 0.0000531 17557.22656 821.65900
19218.0 0.0000520 17548.32031 795.38928
18748.0 0.0000533 17539.41406 781.41266
18568.0 0.0000539 17530.50977 781.38867
18912.0 0.0000529 17521.60352 796.94263
18726.0 0.0000534 17512.70117 829.78113
18846.0 0.0000531 17503.79102 881.88635
19124.0 0.0000523 17494.88477 955.38269
19040.0 0.0000525 17485.97852 1052.69006
19798.0 0.0000505 17477.07422 1176.18701
19476.0 0.0000513 17468.16797 1327.87170
19478.0 0.0000513 17459.26367 1508.90991
19944.0 0.0000501 17450.35547 1719.24023
20388.0 0.0000490 17441.44922 1956.90845
20952.0 0.0000477 17432.54492 2218.13159
20970.0 0.0000477 17423.63867 2496.89307
20868.0 0.0000479 17414.73242 2785.37134
21356.0 0.0000468 17405.83008 3072.74561
21786.0 0.0000459 17396.91992 3348.20776
21902.0 0.0000457 17388.01367 3599.16870
22314.0 0.0000448 17379.10938 3831.83569
22548.0 0.0000443 17370.20313 3999.84912
22574.0 0.0000443 17361.29688 4112.04395
23578.0 0.0000424 17352.39258 4149.70703
23772.0 0.0000421 17343.48633 4139.18066
24214.0 0.0000413 17334.57813 4069.69116
24416.0 0.0000410 17325.67383 3947.85620
24126.0 0.0000414 17316.76758 3782.46509
23636.0 0.0000423 17307.86328 3583.40234
23000.0 0.0000435 17298.95703 3360.78076
22496.0 0.0000445 17290.05469 3124.37695
22286.0 0.0000449 17281.14258 2882.65454
21478.0 0.0000466 17272.23633 2643.25854
21642.0 0.0000462 17263.33008 2411.53076
21566.0 0.0000464 17254.42578 2195.56665
21078.0 0.0000474 17245.51953 1988.56592
21042.0 0.0000475 17236.61523 1794.74536
20446.0 0.0000489 17227.70703 1614.04712
20070.0 0.0000498 17218.80078 1446.03174
19382.0 0.0000516 17209.89453 1290.21130
18738.0 0.0000534 17200.99023 1146.37207
18696.0 0.0000535 17192.08398 1014.45782
18448.0 0.0000542 17183.18164 894.49127
18628.0 0.0000537 17174.27148 786.29749
17974.0 0.0000556 17165.36523 689.92480
18068.0 0.0000553 17156.46094 605.11914
18158.0 0.0000551 17147.55469 531.62653
17750.0 0.0000563 17138.64844 469.13870
17934.0 0.0000558 17129.74414 417.30844
18164.0 0.0000551 17120.83789 375.77374
17704.0 0.0000565 17111.92969 336.50891
17868.0 0.0000560 17103.02539 314.84738
17970.0 0.0000556 17094.11914 302.67484
17946.0 0.0000557 17085.21289 299.97012
17602.0 0.0000568 17076.30859 311.26746
17650.0 0.0000567 17067.40625 328.38260
17794.0 0.0000562 17058.49414 356.07730
17648.0 0.0000567 17049.58984 395.02948
17680.0 0.0000566 17040.68359 446.06747
17868.0 0.0000560 17031.77930 510.02390
17754.0 0.0000563 17022.87305 587.64227
17742.0 0.0000564 17013.96680 677.80469
18046.0 0.0000554 17005.06055 784.09338
17912.0 0.0000558 16996.15430 904.45227
17916.0 0.0000558 16987.24805 1038.03735
17868.0 0.0000560 16978.34375 1183.28564
17784.0 0.0000562 16969.43750 1337.87048
18070.0 0.0000553 16960.53516 1498.60718
18354.0 0.0000545 16951.62500 1661.71228
18404.0 0.0000543 16942.71875 1822.14087
18232.0 0.0000548 16933.81250 1974.40051
18150.0 0.0000551 16924.90820 2112.28979
18156.0 0.0000551 16916.00195 2229.35327
18264.0 0.0000548 16907.09766 2316.11206
18668.0 0.0000536 16898.19141 2374.69287
18554.0 0.0000539 16889.28320 2398.94336
18638.0 0.0000537 16880.37891 2389.05811
18934.0 0.0000528 16871.47266 2348.13403
18642.0 0.0000536 16862.56641 2281.54639
18438.0 0.0000542 16853.66211 2195.97900
19066.0 0.0000524 16844.75781 2098.43994
18968.0 0.0000527 16835.84570 1995.29260
18564.0 0.0000539 16826.94141 1892.18701
19038.0 0.0000525 16818.03516 1774.85693
18860.0 0.0000530 16809.12891 1683.83508
18884.0 0.0000530 16800.22461 1601.62390
19188.0 0.0000521 16791.31836 1528.70801
18814.0 0.0000532 16782.41016 1464.61182
18442.0 0.0000542 16773.50586 1408.26123
18338.0 0.0000545 16764.59961 1359.38770
18316.0 0.0000546 16755.69531 1313.94165
18328.0 0.0000546 16746.78906 1271.37537
18268.0 0.0000547 16737.88672 1233.86609
18324.0 0.0000546 16728.97656 1191.66357
18446.0 0.0000542 16720.07031 1146.77014
17800.0 0.0000562 16711.16406 1097.47205
18072.0 0.0000553 16702.25977 1042.56433
17610.0 0.0000568 16693.35352 981.57928
17666.0 0.0000566 16684.44922 914.89313
17702.0 0.0000565 16675.54297 843.63708
17578.0 0.0000569 16666.63477 769.43573
17488.0 0.0000572 16657.72852 694.21106
17280.0 0.0000579 16648.82422 619.81140
16950.0 0.0000590 16639.91797 547.93585
17442.0 0.0000573 16631.01367 480.01819
17122.0 0.0000584 16622.10938 417.19855
17052.0 0.0000586 16613.19922 360.20251
16482.0 0.0000607 16604.29492 309.58881
16772.0 0.0000596 16595.38867 265.49850
16818.0 0.0000595 16586.48242 227.85378
16396.0 0.0000610 16577.57813 196.37675
16638.0 0.0000601 16568.67188 170.65025
16808.0 0.0000595 16559.76367 150.17393
16996.0 0.0000588 16550.85938 134.44235
16300.0 0.0000613 16541.95313 122.95580
16624.0 0.0000602 16533.04688 115.27915
16402.0 0.0000610 16524.14258 111.05495
16314.0 0.0000613 16515.24023 110.00949
16398.0 0.0000610 16506.32813 111.94849
16310.0 0.0000613 16497.42383 116.73644
16712.0 0.0000598 16488.51758 124.27858
16690.0 0.0000599 16479.61328 134.49194
16226.0 0.0000616 16470.70703 147.27870
16454.0 0.0000608 16461.80078 162.50217
16506.0 0.0000606 16452.89648 194.12576
16238.0 0.0000616 16443.98828 214.11659
16386.0 0.0000610 16435.08203 236.21286
16810.0 0.0000595 16426.17773 259.69296
16358.0 0.0000611 16417.27148 284.14908
16558.0 0.0000604 16408.36719 290.95453
16486.0 0.0000607 16399.46289 316.78601
16910.0 0.0000591 16390.55078 342.53561
16270.0 0.0000615 16381.64551 368.11011
16214.0 0.0000617 16372.74121 403.25311
16306.0 0.0000613 16363.83496 429.90121
16552.0 0.0000604 16354.93066 459.95963
16300.0 0.0000613 16346.02441 491.05322
16174.0 0.0000618 16337.11621 528.45984
16624.0 0.0000602 16328.21191 569.53198
16528.0 0.0000605 16319.30566 617.85034
16604.0 0.0000602 16310.39941 674.89758
16578.0 0.0000603 16301.49512 742.00830
16676.0 0.0000600 16292.59082 820.23608
16706.0 0.0000599 16283.67969 902.47540
16360.0 0.0000611 16274.77539 1004.97711
16668.0 0.0000600 16265.86914 1119.29114
16656.0 0.0000600 16256.96289 1244.57275
16262.0 0.0000615 16248.05859 1379.43835
16754.0 0.0000597 16239.15234 1521.77136
16684.0 0.0000599 16230.24805 1668.64612
16986.0 0.0000589 16221.33984 1816.19238
16956.0 0.0000590 16212.43359 1959.33057
16908.0 0.0000591 16203.52930 2092.09473
16826.0 0.0000594 16194.62305 2207.70947
16578.0 0.0000603 16185.71680 2299.09570
17152.0 0.0000583 16176.81445 2359.53076
17144.0 0.0000583 16167.90430 2383.56470
16808.0 0.0000595 16158.99805 2367.77515
16930.0 0.0000591 16150.09375 2316.74756
16472.0 0.0000607 16141.18750 2222.90015
16976.0 0.0000589 16132.28320 2096.33130
16936.0 0.0000590 16123.37695 1944.12817
16832.0 0.0000594 16114.46875 1774.37854
16534.0 0.0000605 16105.56250 1595.59497
16538.0 0.0000605 16096.65820 1415.80872
16290.0 0.0000614 16087.75195 1242.33740
16408.0 0.0000609 16078.84766 1081.44336
16722.0 0.0000598 16069.94336 938.20636
16500.0 0.0000606 16061.03223 816.24152
16404.0 0.0000610 16052.12793 718.26959
16310.0 0.0000613 16043.22168 645.63867
16764.0 0.0000597 16034.31543 598.84436
16518.0 0.0000605 16025.41113 577.64429
17096.0 0.0000585 16016.50488 581.23706
17414.0 0.0000574 16007.60059 607.07458
17642.0 0.0000567 15998.69238 656.34485
18092.0 0.0000553 15989.78613 725.78986
18176.0 0.0000550 15980.87988 813.28174
18784.0 0.0000532 15971.97559 916.33112
18964.0 0.0000527 15963.06934 1032.02881
20100.0 0.0000498 15954.16699 1156.93433
20550.0 0.0000487 15945.25684 1287.23621
20808.0 0.0000481 15936.35059 1418.18921
21176.0 0.0000472 15927.44629 1544.74304
21278.0 0.0000470 15918.54004 1661.32532
20688.0 0.0000483 15909.63379 1765.44897
20682.0 0.0000484 15900.72949 1845.27441
19892.0 0.0000503 15891.82129 1899.33301
20058.0 0.0000499 15882.91504 1924.47656
19630.0 0.0000509 15874.01074 1919.54846
19952.0 0.0000501 15865.10449 1885.45764
19718.0 0.0000507 15856.20020 1825.01526
19794.0 0.0000505 15847.29590 1742.53857
19140.0 0.0000522 15838.38477 1643.16003
19048.0 0.0000525 15829.47852 1534.85254
18542.0 0.0000539 15820.57422 1420.77698
17800.0 0.0000562 15811.66797 1304.90527
17090.0 0.0000585 15802.76367 1193.58472
17280.0 0.0000579 15793.85742 1090.73389
16444.0 0.0000608 15784.95117 999.40405
16442.0 0.0000608 15776.04492 921.71356
16078.0 0.0000622 15767.13867 847.06897
16538.0 0.0000605 15758.23242 800.01263
16518.0 0.0000605 15749.32813 767.73303
16492.0 0.0000606 15740.42188 749.08722
16240.0 0.0000616 15731.51953 747.53021
17012.0 0.0000588 15722.60938 761.06116
16396.0 0.0000610 15713.70313 771.92279
16374.0 0.0000611 15704.79688 787.39154
16128.0 0.0000620 15695.89258 804.83301
16584.0 0.0000603 15686.98633 821.86066
16320.0 0.0000613 15678.08203 836.59937
16458.0 0.0000608 15669.17383 847.94391
16430.0 0.0000609 15660.26758 855.71460
16456.0 0.0000608 15651.36328 860.68182
16398.0 0.0000610 15642.45703 864.36816
16176.0 0.0000618 15633.55078 868.73883
16260.0 0.0000615 15624.64844 877.76428
16642.0 0.0000601 15615.73730 889.56195
16634.0 0.0000601 15606.83105 907.36383
16394.0 0.0000610 15597.92676 932.01642
16112.0 0.0000621 15589.02051 963.71619
16114.0 0.0000621 15580.11621 1001.99713
16254.0 0.0000615 15571.20996 1054.68506
16076.0 0.0000622 15562.30371 1102.59143
16498.0 0.0000606 15553.39551 1152.25549
16212.0 0.0000617 15544.49121 1201.32031
16622.0 0.0000602 15535.58496 1247.51221
16294.0 0.0000614 15526.68066 1288.91785
16342.0 0.0000612 15517.77441 1324.32324
16344.0 0.0000612 15508.87207 1353.42493
16500.0 0.0000606 15499.96191 1378.33081
16488.0 0.0000607 15491.05566 1397.57434
16870.0 0.0000593 15482.14941 1414.42102
16760.0 0.0000597 15473.24512 1430.89380
17006.0 0.0000588 15464.33887 1448.94336
16470.0 0.0000607 15455.43457 1470.29749
16936.0 0.0000590 15446.52637 1496.37573
17418.0 0.0000574 15437.62012 1528.17737
16948.0 0.0000590 15428.71387 1566.21204
17364.0 0.0000576 15419.80957 1610.32214
17012.0 0.0000588 15410.90332 1659.54041
17336.0 0.0000577 15402.00098 1702.66809
17276.0 0.0000579 15393.08984 1755.95605
17706.0 0.0000565 15384.18359 1804.40186
17500.0 0.0000571 15375.27930 1847.45703
17184.0 0.0000582 15366.37305 1877.05261
17208.0 0.0000581 15357.46680 1893.46143
17362.0 0.0000576 15348.56250 1891.67395
17106.0 0.0000585 15339.65625 1870.32825
17042.0 0.0000587 15330.74805 1839.28223
16746.0 0.0000597 15321.84375 1782.35559
16846.0 0.0000594 15312.93750 1712.22351
16776.0 0.0000596 15304.03320 1640.65173
16710.0 0.0000598 15295.12695 1558.09998
16670.0 0.0000600 15286.22461 1476.27271
16548.0 0.0000604 15277.31250 1399.41357
16568.0 0.0000604 15268.40820 1331.46484
16164.0 0.0000619 15259.50195 1283.07178
16072.0 0.0000622 15250.59766 1242.19556
16634.0 0.0000601 15241.69141 1218.06238
16324.0 0.0000613 15232.78516 1212.14197
16470.0 0.0000607 15223.87891 1225.38452
16908.0 0.0000591 15214.97266 1258.18811
16548.0 0.0000604 15206.06641 1310.36157
17134.0 0.0000584 15197.16211 1381.03979
17116.0 0.0000584 15188.25586 1468.61108
17398.0 0.0000575 15179.35352 1569.14551
17718.0 0.0000564 15170.44238 1682.85779
18148.0 0.0000551 15161.53613 1803.84045
18860.0 0.0000530 15152.62988 1924.03296
19036.0 0.0000525 15143.72559 2049.30713
20002.0 0.0000500 15134.81934 2163.95459
20218.0 0.0000495 15125.91504 2266.54517
20786.0 0.0000481 15117.00879 2352.68091
20310.0 0.0000492 15108.10059 2418.64575
19468.0 0.0000514 15099.19629 2464.69263
19788.0 0.0000505 15090.29004 2483.04858
19008.0 0.0000526 15081.38379 2476.55884
18874.0 0.0000530 15072.47949 2443.82373
18574.0 0.0000538 15063.57520 2394.25049
18500.0 0.0000541 15054.66504 2329.34009
19202.0 0.0000521 15045.76074 2254.72144
18848.0 0.0000531 15036.85449 2176.17505
18836.0 0.0000531 15027.95020 2099.34204
18668.0 0.0000536 15019.04395 2029.38562
18120.0 0.0000552 15010.13770 1970.80640
17164.0 0.0000583 15001.22949 1927.30200
17286.0 0.0000579 14992.32520 1901.69458
16914.0 0.0000591 14983.41895 1895.74695
16566.0 0.0000604 14974.51465 1910.14612
16266.0 0.0000615 14965.60840 1944.47168
16394.0 0.0000610 14956.70605 1997.24695
16422.0 0.0000609 14947.79590 2066.20972
16412.0 0.0000609 14938.88867 2148.31128
16678.0 0.0000600 14929.98242 2240.35815
16782.0 0.0000596 14921.07813 2339.20020
17048.0 0.0000587 14912.17188 2442.02100
17172.0 0.0000582 14903.26758 2546.40479
17474.0 0.0000572 14894.36133 2650.21094
17470.0 0.0000572 14885.45313 2751.37183
17526.0 0.0000571 14876.54688 2847.59058
17716.0 0.0000564 14867.64258 2936.50439
17600.0 0.0000568 14858.73633 3015.75488
17428.0 0.0000574 14849.83203 3087.95239
17032.0 0.0000587 14840.92773 3142.65210
17458.0 0.0000573 14832.01758 3183.72168
17180.0 0.0000582 14823.11328 3210.98584
17212.0 0.0000581 14814.20703 3224.50146
17328.0 0.0000577 14805.30078 3224.04492
17650.0 0.0000567 14796.39648 3208.91064
17410.0 0.0000574 14787.49023 3177.94189
17014.0 0.0000588 14778.58203 3129.78857
16774.0 0.0000596 14769.67773 3063.40137
16404.0 0.0000610 14760.77148 2978.38257
16670.0 0.0000600 14751.86719 2875.31445
16520.0 0.0000605 14742.96094 2755.76611
16294.0 0.0000614 14734.05859 2622.11572
16006.0 0.0000625 14725.14551 2477.01636
16078.0 0.0000622 14716.24121 2323.74170
16048.0 0.0000623 14707.33496 2165.41992
15684.0 0.0000638 14698.43066 2005.37891
15990.0 0.0000625 14689.52441 1847.02661
15606.0 0.0000641 14680.61816 1693.74451
15522.0 0.0000644 14671.71387 1548.71118
15606.0 0.0000641 14662.80566 1414.66748
15428.0 0.0000648 14653.89941 1293.90320
15240.0 0.0000656 14644.99512 1187.91455
15090.0 0.0000663 14636.08887 1097.52368
15122.0 0.0000661 14627.18457 1022.85144
14678.0 0.0000681 14618.28027 963.38263
14950.0 0.0000669 14609.37012 917.95129
14710.0 0.0000680 14600.46387 885.02667
14930.0 0.0000670 14591.55957 862.57397
14706.0 0.0000680 14582.65332 848.28912
14828.0 0.0000674 14573.74902 839.68744
14778.0 0.0000677 14564.84277 834.25110
14846.0 0.0000674 14555.93457 829.61658
14828.0 0.0000674 14547.03027 823.79523
14802.0 0.0000676 14538.12402 816.19598
14482.0 0.0000691 14529.21777 804.53137
14896.0 0.0000671 14520.31348 773.97833
14690.0 0.0000681 14511.40918 759.75165
14462.0 0.0000691 14502.49805 741.45905
14596.0 0.0000685 14493.59375 723.09436
14492.0 0.0000690 14484.68750 705.97510
14614.0 0.0000684 14475.78320 691.27258
14610.0 0.0000684 14466.87695 679.90155
14554.0 0.0000687 14457.97070 672.45581
14376.0 0.0000696 14449.06641 670.46558
14364.0 0.0000696 14440.15820 671.24847
14326.0 0.0000698 14431.25195 675.54626
14348.0 0.0000697 14422.34766 682.48035
14314.0 0.0000699 14413.44141 690.83887
14348.0 0.0000697 14404.53516 699.13361
14490.0 0.0000690 14395.63281 705.69434
14548.0 0.0000687 14386.72266 708.82172
14232.0 0.0000703 14377.81641 710.19531
14568.0 0.0000686 14368.91211 702.29077
14344.0 0.0000697 14360.00586 675.15503
14336.0 0.0000698 14351.10156 654.10675
14542.0 0.0000688 14342.19531 626.87567
14484.0 0.0000690 14333.28711 594.53198
14132.0 0.0000708 14324.38086 561.70068
14308.0 0.0000699 14315.47656 523.48596
14132.0 0.0000708 14306.57031 484.47791
13852.0 0.0000722 14297.66602 446.03546
14116.0 0.0000708 14288.76172 401.42761
14004.0 0.0000714 14279.85059 367.80951
14022.0 0.0000713 14270.94727 337.81000
13702.0 0.0000730 14262.04004 312.01773
13794.0 0.0000725 14253.13379 290.83020
14066.0 0.0000711 14244.22949 274.44131
13786.0 0.0000725 14235.32324 263.01035
13586.0 0.0000736 14226.41895 256.08966
13908.0 0.0000719 14217.51074 256.70694
13586.0 0.0000736 14208.60449 255.71503
13602.0 0.0000735 14199.70020 260.90063
13656.0 0.0000732 14190.79395 269.17923
13552.0 0.0000738 14181.88770 280.09793
13554.0 0.0000738 14172.98535 293.24506
13668.0 0.0000732 14164.07520 308.30914
13446.0 0.0000744 14155.16895 325.04349
13428.0 0.0000745 14146.26465 343.33862
13520.0 0.0000740 14137.35840 363.16187
13476.0 0.0000742 14128.45215 384.51886
13668.0 0.0000732 14119.54785 407.39563
13854.0 0.0000722 14110.63965 431.71188
13614.0 0.0000735 14101.73340 462.21365
13510.0 0.0000740 14092.82910 488.82666
13738.0 0.0000728 14083.92285 515.86316
13862.0 0.0000721 14075.01855 542.71545
13618.0 0.0000734 14066.11426 568.67499
13764.0 0.0000727 14057.20410 593.04224
13864.0 0.0000721 14048.29688 615.12537
14038.0 0.0000712 14039.39258 634.48932
13986.0 0.0000715 14030.48633 651.02295
13912.0 0.0000719 14021.58203 665.04523
13886.0 0.0000720 14012.67578 677.31677
14096.0 0.0000709 14003.76953 688.95422
13366.0 0.0000748 13994.86328 702.63477
13814.0 0.0000724 13985.95703 717.07068
13766.0 0.0000726 13977.05078 734.79059
13754.0 0.0000727 13968.14648 756.77777
13986.0 0.0000715 13959.24023 783.67072
14006.0 0.0000714 13950.33789 815.68359
13908.0 0.0000719 13941.42773 852.62012
13768.0 0.0000726 13932.52148 889.44910
14108.0 0.0000709 13923.61719 933.61597
13908.0 0.0000719 13914.71094 979.11749
13870.0 0.0000721 13905.80469 1030.59009
13806.0 0.0000724 13896.90039 1072.94556
14108.0 0.0000709 13887.99219 1110.39099
14358.0 0.0000696 13879.08594 1136.39001
14088.0 0.0000710 13870.18164 1158.28760
14060.0 0.0000711 13861.27539 1170.02722
14096.0 0.0000709 13852.36914 1171.36621
14390.0 0.0000695 13843.46680 1160.55750
13988.0 0.0000715 13834.55664 1138.59888
14582.0 0.0000686 13825.64941 1106.63733
14126.0 0.0000708 13816.74512 1066.52771
14240.0 0.0000702 13807.83887 1020.73340
14240.0 0.0000702 13798.93457 972.79999
14236.0 0.0000702 13790.02832 924.32910
14290.0 0.0000700 13781.12207 878.12372
14034.0 0.0000713 13772.21387 838.57922
14456.0 0.0000692 13763.30957 807.28772
14046.0 0.0000712 13754.40332 786.27002
14200.0 0.0000704 13745.49902 777.10309
14164.0 0.0000706 13736.59277 781.02155
14156.0 0.0000706 13727.69043 798.20892
14324.0 0.0000698 13718.78027 828.79071
14368.0 0.0000696 13709.87402 872.06592
14816.0 0.0000675 13700.96777 927.87555
14886.0 0.0000672 13692.06348 992.26031
14794.0 0.0000676 13683.15723 1070.08350
14678.0 0.0000681 13674.25293 1146.58081
14890.0 0.0000672 13665.34473 1224.34631
14652.0 0.0000683 13656.43848 1299.81604
14756.0 0.0000678 13647.53418 1369.37207
14934.0 0.0000670 13638.62793 1429.49011
14790.0 0.0000676 13629.72168 1477.08472
15016.0 0.0000666 13620.81934 1510.67102
14784.0 0.0000676 13611.90918 1527.67859
14714.0 0.0000680 13603.00195 1533.36743
14926.0 0.0000670 13594.09863 1521.46460
14564.0 0.0000687 13585.19141 1499.07617
14470.0 0.0000691 13576.28516 1470.21924
14894.0 0.0000671 13567.38086 1439.37268
14694.0 0.0000681 13558.47461 1414.79248
14428.0 0.0000693 13549.56641 1393.37244
14316.0 0.0000699 13540.66211 1380.07336
14362.0 0.0000696 13531.75586 1383.10315
14076.0 0.0000710 13522.85156 1401.96033
14170.0 0.0000706 13513.94531 1437.83740
14344.0 0.0000697 13505.04297 1490.82019
14332.0 0.0000698 13496.13086 1559.94678
14082.0 0.0000710 13487.22656 1642.93982
14482.0 0.0000691 13478.32031 1736.56042
14684.0 0.0000681 13469.41602 1840.84778
14394.0 0.0000695 13460.50977 1942.35376
14200.0 0.0000704 13451.60352 2039.66260
14428.0 0.0000693 13442.69727 2127.06494
14342.0 0.0000697 13433.79102 2199.02539
14508.0 0.0000689 13424.88477 2250.82178
14426.0 0.0000693 13415.98047 2278.90771
14530.0 0.0000688 13407.07422 2281.29980
14562.0 0.0000687 13398.17188 2258.32324
14468.0 0.0000691 13389.26172 2215.44409
14156.0 0.0000706 13380.35547 2146.26758
14402.0 0.0000694 13371.45117 2060.01880
14494.0 0.0000690 13362.54395 1961.85022
14728.0 0.0000679 13353.63770 1857.34509
14666.0 0.0000682 13344.73340 1752.10730
14690.0 0.0000681 13335.82715 1651.39868
14344.0 0.0000697 13326.91895 1560.99365
14278.0 0.0000700 13318.01465 1482.37366
14416.0 0.0000694 13309.10840 1419.36646
14274.0 0.0000701 13300.20215 1373.54834
14534.0 0.0000688 13291.29785 1345.32581
14462.0 0.0000691 13282.39551 1333.96997
14786.0 0.0000676 13273.48340 1343.07568
14666.0 0.0000682 13264.57910 1359.38501
14936.0 0.0000670 13255.67285 1384.74316
15232.0 0.0000657 13246.76855 1415.33130
14766.0 0.0000677 13237.86230 1450.07983
14900.0 0.0000671 13228.95605 1479.92310
14990.0 0.0000667 13220.04785 1503.79395
14860.0 0.0000673 13211.14355 1519.16968
15216.0 0.0000657 13202.23730 1524.22473
15388.0 0.0000650 13193.33301 1517.94141
15042.0 0.0000665 13184.42676 1500.07800
15018.0 0.0000666 13175.52441 1471.12329
14958.0 0.0000669 13166.61426 1432.17847
14938.0 0.0000669 13157.70801 1385.01611
15004.0 0.0000666 13148.80078 1331.77637
15270.0 0.0000655 13139.89648 1275.52368
15004.0 0.0000666 13130.99023 1217.42737
14994.0 0.0000667 13122.08594 1160.43970
14996.0 0.0000667 13113.17969 1106.62036
14888.0 0.0000672 13104.27148 1057.68347
14656.0 0.0000682 13095.36719 1015.01544
14562.0 0.0000687 13086.46094 979.56866
14626.0 0.0000684 13077.55469 951.89954
14816.0 0.0000675 13068.65039 932.13422
14252.0 0.0000702 13059.74609 919.96588
14404.0 0.0000694 13050.83594 914.65680
14852.0 0.0000673 13041.93164 915.11298
14762.0 0.0000677 13033.02539 919.91956
14620.0 0.0000684 13024.11914 927.45178
14544.0 0.0000688 13015.21484 928.95062
14528.0 0.0000688 13006.30859 936.94385
14240.0 0.0000702 12997.40039 942.62701
14370.0 0.0000696 12988.49609 944.73273
14094.0 0.0000710 12979.58984 942.46844
14210.0 0.0000704 12970.68555 935.63654
13938.0 0.0000717 12961.77930 924.68878
13864.0 0.0000721 12952.87695 910.67572
13850.0 0.0000722 12943.96484 895.08069
13716.0 0.0000729 12935.06055 872.82153
14064.0 0.0000711 12926.15332 859.72412
13748.0 0.0000727 12917.25000 850.45447
13764.0 0.0000727 12908.34277 846.62854
13626.0 0.0000734 12899.43652 849.61847
13778.0 0.0000726 12890.53223 860.50677
13626.0 0.0000734 12881.62402 880.06628
13708.0 0.0000730 12872.71777 908.72174
13544.0 0.0000738 12863.81348 946.58185
13682.0 0.0000731 12854.90723 993.42798
13800.0 0.0000725 12846.00293 1048.73328
14268.0 0.0000701 12837.09863 1111.66602
14530.0 0.0000688 12828.18848 1181.24109
14228.0 0.0000703 12819.28418 1256.09570
14326.0 0.0000698 12810.37793 1334.89380
14280.0 0.0000700 12801.47168 1416.27527
14362.0 0.0000696 12792.56738 1499.04834
14414.0 0.0000694 12783.66113 1582.33118
13896.0 0.0000720 12774.75293 1665.65112
14340.0 0.0000697 12765.84863 1748.81409
14470.0 0.0000691 12756.94238 1831.90515
14522.0 0.0000689 12748.03613 1914.97632
14682.0 0.0000681 12739.13184 1997.85022
15108.0 0.0000662 12730.22949 2079.92261
15006.0 0.0000666 12721.31738 2160.19360
15468.0 0.0000646 12712.41309 2236.89502
15222.0 0.0000657 12703.50684 2307.87329
15158.0 0.0000660 12694.60254 2370.43335
15426.0 0.0000648 12685.69531 2445.46997
15374.0 0.0000650 12676.78906 2482.91455
15350.0 0.0000651 12667.88477 2502.53516
15450.0 0.0000647 12658.97656 2501.60522
15414.0 0.0000649 12650.07031 2478.18286
14834.0 0.0000674 12641.16602 2431.40820
14914.0 0.0000671 12632.25977 2361.68018
14802.0 0.0000676 12623.35352 2270.67334
15022.0 0.0000666 12614.45117 2161.21118
14850.0 0.0000673 12605.54102 2036.75476
14822.0 0.0000675 12596.63477 1901.53516
14940.0 0.0000669 12587.73047 1758.93127
14698.0 0.0000680 12578.82422 1614.44067
14200.0 0.0000704 12569.91992 1471.06006
14312.0 0.0000699 12561.01367 1332.16528
13762.0 0.0000727 12552.10547 1200.71997
13750.0 0.0000727 12543.20117 1079.45520
13628.0 0.0000734 12534.29492 971.31036
13484.0 0.0000742 12525.38867 878.98413
13462.0 0.0000743 12516.48438 802.94366
13508.0 0.0000740 12507.58008 744.03589
13608.0 0.0000735 12498.66992 705.46069
13268.0 0.0000754 12489.76563 680.28589
13234.0 0.0000756 12480.85938 688.97076
13092.0 0.0000764 12471.95215 726.76935
13516.0 0.0000740 12463.04785 789.75421
13736.0 0.0000728 12454.14160 882.91547
13338.0 0.0000750 12445.23730 1007.81873
13744.0 0.0000728 12436.32910 1165.55200
13946.0 0.0000717 12427.42285 1356.27930
14122.0 0.0000708 12418.51855 1579.25183
14300.0 0.0000699 12409.61230 1832.38586
14596.0 0.0000685 12400.70605 2112.09473
15002.0 0.0000667 12391.80371 2413.06348
15920.0 0.0000628 12382.89355 2728.75439
16802.0 0.0000595 12373.98730 3050.19287
17954.0 0.0000557 12365.08301 3367.61377
19078.0 0.0000524 12356.17676 3669.95117
19386.0 0.0000516 12347.27051 3945.45483
19486.0 0.0000513 12338.36621 4182.27930
19026.0 0.0000526 12329.45801 4370.30518
18482.0 0.0000541 12320.55176 4497.87939
17982.0 0.0000556 12311.64746 4560.93359
17604.0 0.0000568 12302.74121 4552.37158
17432.0 0.0000574 12293.83691 4474.52637
17110.0 0.0000584 12284.93262 4332.66797
17458.0 0.0000573 12276.02246 4132.84375
17744.0 0.0000564 12267.11816 3886.18335
17700.0 0.0000565 12258.21191 3604.05005
17928.0 0.0000558 12249.30469 3298.34888
17208.0 0.0000581 12240.40137 2980.92358
16462.0 0.0000607 12231.49414 2662.12354
16122.0 0.0000620 12222.58984 2351.96680
15014.0 0.0000666 12213.68164 2057.85352
14738.0 0.0000679 12204.77539 1786.53101
14030.0 0.0000713 12195.86914 1542.49084
13800.0 0.0000725 12186.96484 1328.63306
13368.0 0.0000748 12178.05859 1141.33398
12950.0 0.0000772 12169.15625 990.82019
13624.0 0.0000734 12160.24609 870.80261
13332.0 0.0000750 12151.33984 779.67841
13016.0 0.0000768 12142.43555 715.23523
12862.0 0.0000777 12133.52930 674.41980
13118.0 0.0000762 12124.62305 654.60156
12916.0 0.0000774 12115.71875 651.73248
12990.0 0.0000770 12106.81055 665.37830
12762.0 0.0000784 12097.90430 691.54803
13048.0 0.0000766 12089.00000 727.56018
13184.0 0.0000758 12080.09375 770.81317
12852.0 0.0000778 12071.18750 818.78290
13460.0 0.0000743 12062.28516 863.60193
13024.0 0.0000768 12053.37500 913.96411
13388.0 0.0000747 12044.46875 964.68451
13334.0 0.0000750 12035.56445 1008.61005
13318.0 0.0000751 12026.65820 1038.17627
13180.0 0.0000759 12017.75391 1069.10254
13450.0 0.0000743 12008.84668 1091.76819
13308.0 0.0000751 11999.94043 1105.66675
13030.0 0.0000767 11991.03418 1116.00940
13418.0 0.0000745 11982.12793 1112.97449
13234.0 0.0000756 11973.22168 1102.50183
13590.0 0.0000736 11964.31738 1085.79272
13384.0 0.0000747 11955.41113 1064.21765
13274.0 0.0000753 11946.50879 1039.16980
13362.0 0.0000748 11937.59863 1011.89764
13360.0 0.0000749 11928.69238 959.84955
13388.0 0.0000747 11919.78613 932.31079
13388.0 0.0000747 11910.88184 905.19409
13128.0 0.0000762 11901.97559 879.02814
13172.0 0.0000759 11893.07129 854.19281
13374.0 0.0000748 11884.16309 830.92426
13152.0 0.0000760 11875.25684 809.34381
13120.0 0.0000762 11866.35254 789.41937
13178.0 0.0000759 11857.44629 771.01160
12866.0 0.0000777 11848.54004 753.90399
12584.0 0.0000795 11839.63770 737.85828
12882.0 0.0000776 11830.72754 722.63599
12636.0 0.0000791 11821.82129 708.87189
12928.0 0.0000774 11812.91699 694.95319
12570.0 0.0000796 11804.01074 681.61987
12860.0 0.0000778 11795.10352 668.93304
12998.0 0.0000769 11786.19922 657.00238
12606.0 0.0000793 11777.29297 645.58099
12736.0 0.0000785 11768.38477 635.57928
12730.0 0.0000786 11759.48047 626.71881
12758.0 0.0000784 11750.57422 619.08258
12388.0 0.0000807 11741.66992 612.73389
12300.0 0.0000813 11732.76367 607.73456
12618.0 0.0000793 11723.86133 604.18427
12578.0 0.0000795 11714.95117 602.26337
12298.0 0.0000813 11706.04492 602.28638
12698.0 0.0000788 11697.13867 604.71381
12324.0 0.0000811 11688.23438 610.14581
12616.0 0.0000793 11679.32813 619.27344
12746.0 0.0000785 11670.42383 632.80359
12486.0 0.0000801 11661.51563 651.38269
12578.0 0.0000795 11652.60938 678.84521
12454.0 0.0000803 11643.70313 708.90509
12622.0 0.0000792 11634.79883 744.81378
12834.0 0.0000779 11625.89258 787.83588
12464.0 0.0000802 11616.99023 834.27850
12752.0 0.0000784 11608.08008 884.71814
12746.0 0.0000785 11599.17383 937.74548
13082.0 0.0000764 11590.26953 991.72125
13176.0 0.0000759 11581.36328 1044.69531
13144.0 0.0000761 11572.45605 1094.51624
13412.0 0.0000746 11563.55273 1138.70520
13276.0 0.0000753 11554.64551 1173.66919
12968.0 0.0000771 11545.73730 1200.98462
13166.0 0.0000760 11536.83301 1217.01599
12962.0 0.0000771 11527.92676 1220.57141
12918.0 0.0000774 11519.02051 1211.03455
12944.0 0.0000773 11510.11621 1188.45544
12914.0 0.0000774 11501.21387 1153.58289
12892.0 0.0000776 11492.30176 1107.72998
12918.0 0.0000774 11483.39746 1052.81226
13128.0 0.0000762 11474.49121 990.96552
13218.0 0.0000757 11465.58691 924.46747
13282.0 0.0000753 11456.68066 855.55695
13068.0 0.0000765 11447.77441 786.31653
12992.0 0.0000770 11438.86816 718.57562
12800.0 0.0000781 11429.96191 653.94391
12890.0 0.0000776 11421.05566 593.66876
12708.0 0.0000787 11412.15137 538.71063
12410.0 0.0000806 11403.24512 489.73352
12504.0 0.0000800 11394.34277 447.13962
12232.0 0.0000818 11385.43262 411.03720
12280.0 0.0000814 11376.52637 381.44022
11854.0 0.0000844 11367.62012 358.17596
12182.0 0.0000821 11358.71582 340.90906
12074.0 0.0000828 11349.80957 329.37564
12018.0 0.0000832 11340.90527 323.30441
12090.0 0.0000827 11331.99805 322.48837
12128.0 0.0000825 11323.08984 326.80481
11956.0 0.0000836 11314.18555 336.20142
11862.0 0.0000843 11305.27930 346.62936
11758.0 0.0000850 11296.37305 366.28198
11928.0 0.0000838 11287.46875 390.94119
11802.0 0.0000847 11278.56445 420.43674
12008.0 0.0000833 11269.65430 454.49963
12078.0 0.0000828 11260.75000 492.59280
11912.0 0.0000839 11251.84375 534.17731
11846.0 0.0000844 11242.93750 578.07239
11798.0 0.0000848 11234.03320 623.29254
12110.0 0.0000826 11225.12695 671.26709
11668.0 0.0000857 11216.21875 716.91193
12068.0 0.0000829 11207.31445 757.48218
11910.0 0.0000840 11198.40820 793.15375
11760.0 0.0000850 11189.50391 822.28003
11918.0 0.0000839 11180.59766 843.39587
11860.0 0.0000843 11171.69531 855.35107
11878.0 0.0000842 11162.78516 857.42993
11772.0 0.0000849 11153.87891 849.39355
11944.0 0.0000837 11144.97266 831.50464
11874.0 0.0000842 11136.06836 804.46307
11592.0 0.0000863 11127.16211 769.33069
11778.0 0.0000849 11118.25781 727.43921
11784.0 0.0000849 11109.35059 680.29236
11474.0 0.0000872 11100.44238 626.95142
11848.0 0.0000844 11091.53613 574.08478
11766.0 0.0000850 11082.63184 522.88904
11452.0 0.0000873 11073.72559 470.66080
11246.0 0.0000889 11064.82129 419.93661
11530.0 0.0000867 11055.91699 371.95560
11146.0 0.0000897 11047.00684 327.55811
11026.0 0.0000907 11038.10254 286.93213
11100.0 0.0000901 11029.19629 250.54065
11162.0 0.0000896 11020.29004 214.00377
11032.0 0.0000906 11011.38574 186.55235
10938.0 0.0000914 11002.47949 163.39296
11338.0 0.0000882 10993.57129 144.37061
11144.0 0.0000897 10984.66699 129.31702
11240.0 0.0000890 10975.76074 118.49436
10994.0 0.0000910 10966.85449 110.87156
10984.0 0.0000910 10957.95020 106.77832
11208.0 0.0000892 10949.04785 106.17783
11184.0 0.0000894 10940.13574 109.08414
11118.0 0.0000899 10931.23145 115.59445
11226.0 0.0000891 10922.32520 125.86475
11482.0 0.0000871 10913.42090 140.09901
10886.0 0.0000919 10904.51465 158.53003
11246.0 0.0000889 10895.60742 181.39447
11214.0 0.0000892 10886.70410 208.90294
10722.0 0.0000933 10877.79492 241.21854
10946.0 0.0000914 10868.88867 279.94522
11386.0 0.0000878 10859.98438 321.96848
11546.0 0.0000866 10851.07813 367.83096
11188.0 0.0000894 10842.17383 419.31293
11246.0 0.0000889 10833.26953 473.85715
11380.0 0.0000879 10824.35938 531.38715
11454.0 0.0000873 10815.45313 590.91339
11678.0 0.0000856 10806.54883 651.40778
11676.0 0.0000856 10797.64258 712.91296
11756.0 0.0000851 10788.73828 771.75116
12060.0 0.0000829 10779.83203 827.81836
11776.0 0.0000849 10770.92383 880.41266
12020.0 0.0000832 10762.01953 927.42273
11788.0 0.0000848 10753.11328 968.57227
12220.0 0.0000818 10744.20703 1003.46112
11896.0 0.0000841 10735.30273 1032.15332
11696.0 0.0000855 10726.39844 1055.17639
12142.0 0.0000824 10717.48828 1073.48718
11992.0 0.0000834 10708.58398 1088.25830
12034.0 0.0000831 10699.67773 1100.80127
12214.0 0.0000819 10690.77148 1112.34753
12220.0 0.0000818 10681.86719 1120.71802
12034.0 0.0000831 10672.96094 1133.12280
12508.0 0.0000799 10664.05664 1146.56897
12432.0 0.0000804 10655.14746 1159.32275
12548.0 0.0000797 10646.24121 1174.21008
12394.0 0.0000807 10637.33691 1188.63501
12578.0 0.0000795 10628.43066 1201.37573
12294.0 0.0000813 10619.52441 1210.98364
12258.0 0.0000816 10610.62207 1215.88635
12378.0 0.0000808 10601.71191 1214.68774
12402.0 0.0000806 10592.80566 1208.03845
12174.0 0.0000821 10583.90137 1191.48181
12246.0 0.0000817 10574.99512 1166.65845
12278.0 0.0000814 10566.09082 1133.99597
12018.0 0.0000832 10557.18457 1094.49487
12236.0 0.0000817 10548.27637 1049.60510
12418.0 0.0000805 10539.37012 1001.12787
12078.0 0.0000828 10530.46582 950.98145
11802.0 0.0000847 10521.55957 901.11310
12056.0 0.0000829 10512.65527 853.37115
11820.0 0.0000846 10503.75098 809.42700
11542.0 0.0000866 10494.84082 770.63074
11768.0 0.0000850 10485.93652 738.12225
11694.0 0.0000855 10477.03027 712.60181
10998.0 0.0000909 10468.12402 694.41504
11076.0 0.0000903 10459.21973 683.52246
11162.0 0.0000896 10450.31348 679.51123
11014.0 0.0000908 10441.40918 681.64130
10980.0 0.0000911 10432.50000 688.82599
11294.0 0.0000885 10423.59375 699.77972
11120.0 0.0000899 10414.68750 713.03839
10718.0 0.0000933 10405.78320 727.04858
10916.0 0.0000916 10396.87695 740.25940
11178.0 0.0000895 10387.97461 751.23035
10754.0 0.0000930 10379.06445 758.66815
10750.0 0.0000930 10370.15820 761.56671
10848.0 0.0000922 10361.25391 759.22797
10708.0 0.0000934 10352.34766 751.26489
10790.0 0.0000927 10343.44141 737.58844
11138.0 0.0000898 10334.53711 718.36816
10912.0 0.0000916 10325.62891 693.97766
10892.0 0.0000918 10316.72266 664.98151
11060.0 0.0000904 10307.81836 632.05090
10738.0 0.0000931 10298.91211 595.95526
10614.0 0.0000942 10290.00781 557.51923
10852.0 0.0000921 10281.10352 517.60150
10694.0 0.0000935 10272.19336 476.99222
10628.0 0.0000941 10263.28711 436.55164
10594.0 0.0000944 10254.38281 397.93051
10720.0 0.0000933 10245.47656 359.94247
10794.0 0.0000926 10236.57227 324.06030
10642.0 0.0000940 10227.66602 290.74533
10482.0 0.0000954 10218.75879 260.35864
10976.0 0.0000911 10209.85254 233.15990
10552.0 0.0000948 10200.94629 209.34930
10570.0 0.0000946 10192.04004 189.03209
10566.0 0.0000946 10183.13574 172.26389
10586.0 0.0000945 10174.22949 159.23456
10616.0 0.0000942 10165.32715 149.55971
10728.0 0.0000932 10156.41699 143.34651
10750.0 0.0000930 10147.51074 140.51707
10282.0 0.0000973 10138.60449 140.95198
10656.0 0.0000938 10129.70020 144.50916
10482.0 0.0000954 10120.79395 151.01640
10416.0 0.0000960 10111.88965 160.26700
10408.0 0.0000961 10102.98145 172.01886
10548.0 0.0000948 10094.07520 185.97505
10744.0 0.0000931 10085.17090 201.80026
10712.0 0.0000934 10076.26465 219.10463
10658.0 0.0000938 10067.35840 237.44510
10702.0 0.0000934 10058.45605 256.32022
11030.0 0.0000907 10049.54590 275.20538
11018.0 0.0000908 10040.63965 286.43796
10782.0 0.0000927 10031.73535 304.11624
10816.0 0.0000925 10022.82910 319.98090
10946.0 0.0000914 10013.92480 332.85632
10918.0 0.0000916 10005.01855 342.62387
11034.0 0.0000906 9996.11133 348.79468
10490.0 0.0000953 9987.20313 351.03275
10502.0 0.0000952 9978.29883 349.19708
10740.0 0.0000931 9969.39258 343.36472
10796.0 0.0000926 9960.48828 333.81573
10462.0 0.0000956 9951.58203 320.99570
10864.0 0.0000920 9942.67969 305.46771
11054.0 0.0000905 9933.76953 287.82800
10604.0 0.0000943 9924.86328 268.73093
10918.0 0.0000916 9915.95703 248.77592
10858.0 0.0000921 9907.05273 228.53098
10502.0 0.0000952 9898.14648 208.51013
10562.0 0.0000947 9889.24219 189.16635
10558.0 0.0000947 9880.33398 170.88264
10778.0 0.0000928 9871.42773 153.99202
10482.0 0.0000954 9862.52148 138.74605
10392.0 0.0000962 9853.61719 125.33932
10528.0 0.0000950 9844.71094 113.90818
10598.0 0.0000944 9835.80859 104.53825
10592.0 0.0000944 9826.89844 97.25664
10478.0 0.0000954 9817.99219 92.07044
10744.0 0.0000931 9809.08789 88.94614
10722.0 0.0000933 9800.18164 87.81622
10494.0 0.0000953 9791.27539 88.57553
10696.0 0.0000935 9782.37109 91.10841
10506.0 0.0000952 9773.46484 95.27905
10706.0 0.0000934 9764.55566 97.70029
10632.0 0.0000941 9755.65137 104.75641
10602.0 0.0000943 9746.74512 112.92084
10560.0 0.0000947 9737.84082 121.97742
10596.0 0.0000944 9728.93457 131.68822
10470.0 0.0000955 9720.03223 141.79048
10188.0 0.0000982 9711.12012 152.01138
10644.0 0.0000939 9702.21582 162.04633
10636.0 0.0000940 9693.30957 171.58582
10266.0 0.0000974 9684.40527 180.31609
10446.0 0.0000957 9675.49902 187.93617
10494.0 0.0000953 9666.59277 194.17902
10314.0 0.0000970 9657.68652 198.83771
10416.0 0.0000960 9648.78027 201.78448
10420.0 0.0000960 9639.87402 202.99519
10298.0 0.0000971 9630.96973 202.54616
10178.0 0.0000983 9622.06348 200.60468
10310.0 0.0000970 9613.16113 197.40797
10158.0 0.0000984 9604.25098 193.74577
10230.0 0.0000978 9595.34473 188.90605
10086.0 0.0000991 9586.43848 184.60381
9898.0 0.0001010 9577.53418 179.32339
9778.0 0.0001023 9568.62793 174.21851
9810.0 0.0001019 9559.72363 169.53268
9748.0 0.0001026 9550.81738 165.48022
9912.0 0.0001009 9541.90820 162.23976
9966.0 0.0001003 9533.00391 159.95158
10056.0 0.0000994 9524.09766 158.70618
9922.0 0.0001008 9515.19141 158.54427
9752.0 0.0001025 9506.28711 159.45370
9666.0 0.0001035 9497.38281 161.36879
9636.0 0.0001038 9488.47266 164.17697
9870.0 0.0001013 9479.56836 167.71190
9900.0 0.0001010 9470.66211 171.77116
9944.0 0.0001006 9461.75781 176.12924
9986.0 0.0001001 9452.85156 180.50427
9934.0 0.0001007 9443.94531 184.64203
9690.0 0.0001032 9435.03711 188.29088
9386.0 0.0001065 9426.13281 191.22969
9800.0 0.0001020 9417.22656 193.29274
9818.0 0.0001019 9408.32227 194.37668
9900.0 0.0001010 9399.41602 194.44308
9644.0 0.0001037 9390.51367 193.50998
9636.0 0.0001038 9381.60352 189.73244
9540.0 0.0001048 9372.69727 187.09657
9788.0 0.0001022 9363.79102 183.64996
9820.0 0.0001018 9354.88672 181.25505
9574.0 0.0001044 9345.98047 176.58739
9376.0 0.0001067 9337.07617 171.41878
9686.0 0.0001032 9328.16992 165.84264
9798.0 0.0001021 9319.26074 159.96501
9710.0 0.0001030 9310.35449 153.91913
9402.0 0.0001064 9301.45020 147.85883
9694.0 0.0001032 9292.54395 141.96375
9618.0 0.0001040 9283.63965 136.43042
9596.0 0.0001042 9274.73535 131.46298
9808.0 0.0001020 9265.82520 127.25329
9590.0 0.0001043 9256.92090 123.98831
9684.0 0.0001033 9248.01465 121.81984
9588.0 0.0001043 9239.10840 120.86919
9470.0 0.0001056 9230.20410 121.21891
9650.0 0.0001036 9226.33398 122.90836
9600.0 0.0001042 9225.83887 125.93235
9540.0 0.0001048 9225.34375 130.23537
9598.0 0.0001042 9224.84961 135.71724
9526.0 0.0001050 9224.35449 142.23148
9420.0 0.0001062 9223.85938 149.57210
9358.0 0.0001069 9223.36523 157.54367
9674.0 0.0001034 9222.87012 165.87949
9498.0 0.0001053 9222.37500 174.28535
9590.0 0.0001043 9221.88086 182.47252
9376.0 0.0001067 9221.38574 190.15161
9490.0 0.0001054 9220.89160 197.05652
9344.0 0.0001070 9220.39648 202.96547
9718.0 0.0001029 9219.90137 207.71489
9494.0 0.0001053 9219.40723 211.21506
9530.0 0.0001049 9218.91211 213.44173
9568.0 0.0001045 9218.41699 215.66197
9590.0 0.0001043 9217.92285 215.53481
9348.0 0.0001070 9217.42773 214.34280
9208.0 0.0001086 9216.93359 212.18561
9144.0 0.0001094 9216.43848 208.53799
9472.0 0.0001056 9215.94336 204.75134
9766.0 0.0001024 9215.44922 200.24496
9548.0 0.0001047 9214.95410 195.09047
9336.0 0.0001071 9214.45898 189.36929
9498.0 0.0001053 9213.96484 183.18475
9342.0 0.0001070 9213.46973 176.66946
9576.0 0.0001044 9212.97461 169.99629
9494.0 0.0001053 9212.48047 163.36353
9504.0 0.0001052 9211.98535 156.81285
9220.0 0.0001085 9211.49023 150.94272
9526.0 0.0001050 9210.99609 146.28175
9384.0 0.0001066 9210.50098 142.09285
9356.0 0.0001069 9210.00586 139.05032
9522.0 0.0001050 9209.51172 137.32417
9680.0 0.0001033 9209.01660 137.05611
9532.0 0.0001049 9208.52246 138.35242
9634.0 0.0001038 9208.02734 141.28024
9222.0 0.0001084 9207.53223 145.86424
9592.0 0.0001043 9207.03809 152.08606
9712.0 0.0001030 9206.54297 159.87521
9452.0 0.0001058 9206.04785 169.11955
9354.0 0.0001069 9205.55371 179.65935
9572.0 0.0001045 9205.05859 191.30278
9674.0 0.0001034 9204.56445 203.77802
9538.0 0.0001048 9204.06934 216.40526
9738.0 0.0001027 9203.57422 228.89134
9714.0 0.0001029 9203.08008 242.14186
9660.0 0.0001035 9202.58496 254.95959
9998.0 0.0001000 9202.08984 267.00259
9528.0 0.0001050 9201.59570 278.20642
9748.0 0.0001026 9201.10059 287.82944
9880.0 0.0001012 9200.60547 295.93661
10058.0 0.0000994 9200.11133 302.46875
9862.0 0.0001014 9199.61621 307.47797
9480.0 0.0001055 9199.12109 311.12006
9712.0 0.0001030 9198.62695 313.62561
9734.0 0.0001027 9198.13184 315.26651
9840.0 0.0001016 9197.63672 316.30917
9976.0 0.0001002 9197.14258 316.99045
9882.0 0.0001012 9196.64746 317.48886
9718.0 0.0001029 9196.15332 317.91000
9902.0 0.0001010 9195.65820 318.28036
9812.0 0.0001019 9195.16309 318.54666
10026.0 0.0000997 9194.66895 318.58051
10016.0 0.0000998 9194.17383 318.18903
9734.0 0.0001027 9193.67871 317.13162
9592.0 0.0001043 9193.18457 315.14264
9878.0 0.0001012 9192.68945 311.97003
9834.0 0.0001017 9192.19531 307.37045
10058.0 0.0000994 9191.70020 301.18600
9798.0 0.0001021 9191.20508 293.35043
9724.0 0.0001028 9190.71094 283.88202
9864.0 0.0001014 9190.21582 272.89432
9798.0 0.0001021 9189.72070 260.58167
9520.0 0.0001050 9189.22656 248.35739
9888.0 0.0001011 9188.73145 234.24686
9766.0 0.0001024 9188.23633 219.71387
9584.0 0.0001043 9187.74219 205.62157
9556.0 0.0001046 9187.24707 191.28104
9886.0 0.0001012 9186.75195 177.51636
9598.0 0.0001042 9186.25781 164.61856
9918.0 0.0001008 9185.76270 152.82021
9520.0 0.0001050 9185.26758 142.33804
9496.0 0.0001053 9184.77344 134.58511
9470.0 0.0001056 9184.27832 127.14577
9530.0 0.0001049 9183.78418 121.29380
9234.0 0.0001083 9183.28906 117.01345
9336.0 0.0001071 9182.79395 114.23859
9534.0 0.0001049 9182.29980 112.85695
9334.0 0.0001071 9181.80469 112.71639
9324.0 0.0001073 9181.30957 113.62866
9256.0 0.0001080 9180.81543 115.37768
9256.0 0.0001080 9180.32031 116.78022
9408.0 0.0001063 9179.82617 119.50154
8954.0 0.0001117 9179.33105 122.31804
9192.0 0.0001088 9178.83594 124.97764
9076.0 0.0001102 9178.34180 127.25336
9290.0 0.0001076 9177.84668 128.94899
9190.0 0.0001088 9177.35156 129.91182
9186.0 0.0001089 9176.85742 130.04041
9310.0 0.0001074 9176.36230 129.28629
8962.0 0.0001116 9175.86719 127.65241
9070.0 0.0001103 9175.37305 128.14291
9248.0 0.0001081 9174.87793 125.01430
9068.0 0.0001103 9174.38281 121.25665
9482.0 0.0001055 9173.88867 117.01166
8962.0 0.0001116 9173.39355 112.43305
9176.0 0.0001090 9172.89844 107.69896
9202.0 0.0001087 9172.40430 102.98436
8908.0 0.0001123 9171.90918 98.49000
9160.0 0.0001092 9171.41504 94.34183
9020.0 0.0001109 9170.91992 90.72469
9248.0 0.0001081 9170.42480 87.78809
9258.0 0.0001080 9169.92969 85.66625
9106.0 0.0001098 9169.43555 84.47891
9216.0 0.0001085 9168.94043 84.32686
9144.0 0.0001094 9168.44629 85.29451
9244.0 0.0001082 9167.95117 87.44926
9000.0 0.0001111 9167.45703 90.84085
9232.0 0.0001083 9166.96191 93.80018
9266.0 0.0001079 9166.46680 99.80743
9382.0 0.0001066 9165.97168 107.11115
9010.0 0.0001110 9165.47754 115.70268
9262.0 0.0001080 9164.98242 125.55942
9226.0 0.0001084 9164.48828 135.51131
9260.0 0.0001080 9163.99316 147.81546
9224.0 0.0001084 9163.49805 161.22501
9398.0 0.0001064 9163.00391 175.66174
9274.0 0.0001078 9162.50879 190.73300
9336.0 0.0001071 9162.01367 206.92908
9106.0 0.0001098 9161.51953 223.81522
9148.0 0.0001093 9161.02441 241.27846
9588.0 0.0001043 9160.52930 259.15216
9354.0 0.0001069 9160.03516 277.29614
9376.0 0.0001067 9159.54004 295.54742
9464.0 0.0001057 9159.04492 313.72403
9774.0 0.0001023 9158.55078 331.61798
9622.0 0.0001039 9158.05566 348.99164
9570.0 0.0001045 9157.56055 366.18399
9306.0 0.0001075 9157.06641 381.72662
9334.0 0.0001071 9156.57129 395.91077
9166.0 0.0001091 9156.07715 408.46915
9128.0 0.0001096 9155.58203 419.18130
9130.0 0.0001095 9155.08789 427.89349
9390.0 0.0001065 9154.59277 434.54401
9366.0 0.0001068 9154.09766 439.13519
9092.0 0.0001100 9153.60254 441.75934
9280.0 0.0001078 9153.10840 442.56738
9134.0 0.0001095 9152.61328 441.76447
9200.0 0.0001087 9152.11914 439.60703
9322.0 0.0001073 9151.62402 436.40237
9428.0 0.0001061 9151.12891 432.67667
9146.0 0.0001093 9150.63477 428.51093
9572.0 0.0001045 9150.13965 424.49698
9324.0 0.0001073 9149.64453 421.06876
9086.0 0.0001101 9149.15039 418.65952
9012.0 0.0001110 9148.65527 417.56256
9182.0 0.0001089 9148.16016 418.07297
9278.0 0.0001078 9147.66602 420.35782
9104.0 0.0001098 9147.17090 424.47638
9522.0 0.0001050 9146.67578 430.37439
9680.0 0.0001033 9146.18164 437.88339
9350.0 0.0001070 9145.68652 447.57596
9688.0 0.0001032 9145.19141 457.39072
9380.0 0.0001066 9144.69727 468.58859
9592.0 0.0001043 9144.20215 478.89340
9638.0 0.0001038 9143.70801 487.93533
9452.0 0.0001058 9143.21289 496.10779
9408.0 0.0001063 9142.71875 502.30612
9324.0 0.0001073 9142.22363 505.98563
9750.0 0.0001026 9141.72852 506.71091
9388.0 0.0001065 9141.23340 504.21494
9374.0 0.0001067 9140.73926 498.40375
9634.0 0.0001038 9140.24414 489.35022
9422.0 0.0001061 9139.75000 477.26459
9296.0 0.0001076 9139.25488 462.75049
9484.0 0.0001054 9138.75977 446.87378
9630.0 0.0001038 9138.26563 427.75677
9378.0 0.0001066 9137.77051 406.88391
9414.0 0.0001062 9137.27539 384.91772
9496.0 0.0001053 9136.78125 362.93710
9102.0 0.0001099 9136.28613 339.52151
9232.0 0.0001083 9135.79102 315.87405
9128.0 0.0001096 9135.29688 292.29221
9074.0 0.0001102 9134.80176 269.07556
9282.0 0.0001077 9134.30664 246.50693
8814.0 0.0001135 9133.81250 224.84943
8904.0 0.0001123 9133.31738 205.49701
9016.0 0.0001109 9132.82227 186.34982
8812.0 0.0001135 9132.32813 168.71265
8994.0 0.0001112 9131.83301 152.71173
8956.0 0.0001117 9131.33887 138.44897
8814.0 0.0001135 9130.84375 125.99974
8806.0 0.0001136 9130.34961 115.42050
8766.0 0.0001141 9129.85449 106.73676
8738.0 0.0001144 9129.35938 99.98539
9040.0 0.0001106 9128.86426 95.50273
8906.0 0.0001123 9128.37012 92.65685
8712.0 0.0001148 9127.87500 91.76887
9326.0 0.0001072 9127.38086 92.84949
9012.0 0.0001110 9126.88574 97.14701
9010.0 0.0001110 9126.39063 102.23905
8650.0 0.0001156 9125.89648 109.33044
8752.0 0.0001143 9125.40137 118.41723
8846.0 0.0001130 9124.90625 129.51698
8938.0 0.0001119 9124.41211 142.60287
9056.0 0.0001104 9123.91699 157.66348
8906.0 0.0001123 9123.42188 174.62978
8848.0 0.0001130 9122.92773 193.43915
9018.0 0.0001109 9122.43262 213.99483
9076.0 0.0001102 9121.93750 234.73120
9106.0 0.0001098 9121.44336 258.41446
8806.0 0.0001136 9120.94824 283.98508
8998.0 0.0001111 9120.45313 310.03616
9114.0 0.0001097 9119.95898 336.89182
9086.0 0.0001101 9119.46387 364.28366
8898.0 0.0001124 9118.96973 391.91626
9066.0 0.0001103 9118.47461 419.48663
8914.0 0.0001122 9117.98047 449.15710
8862.0 0.0001128 9117.48535 474.70813
8916.0 0.0001122 9116.99023 500.95111
8920.0 0.0001121 9116.49512 525.79974
9066.0 0.0001103 9116.00098 549.50897
9106.0 0.0001098 9115.50586 571.99768
9362.0 0.0001068 9115.01172 593.20593
9144.0 0.0001094 9114.51660 613.08215
9202.0 0.0001087 9114.02148 631.54700
9162.0 0.0001091 9113.52734 648.52356
9378.0 0.0001066 9113.03223 663.91840
9460.0 0.0001057 9112.53711 677.63654
9158.0 0.0001092 9112.04297 689.58856
9038.0 0.0001106 9111.54785 699.71545
9246.0 0.0001082 9111.05273 707.94720
9350.0 0.0001070 9110.55859 714.25134
9398.0 0.0001064 9110.06348 718.60205
9258.0 0.0001080 9109.56836 720.98566
9770.0 0.0001024 9109.07422 721.40015
9748.0 0.0001026 9108.57910 719.85620
9488.0 0.0001054 9108.08398 714.29657
9422.0 0.0001061 9107.58984 709.04761
9310.0 0.0001074 9107.09473 701.95184
9770.0 0.0001024 9106.60059 693.09277
9568.0 0.0001045 9106.10547 682.59583
9430.0 0.0001060 9105.61035 670.64301
9708.0 0.0001030 9105.11621 657.45776
9414.0 0.0001062 9104.62109 643.35492
9636.0 0.0001038 9104.12598 628.66858
9376.0 0.0001067 9103.63184 613.76532
9350.0 0.0001070 9103.13672 599.01251
9104.0 0.0001098 9102.64258 584.75531
9366.0 0.0001068 9102.14746 571.30548
9548.0 0.0001047 9101.65234 558.90570
9176.0 0.0001090 9101.15820 547.76794
9458.0 0.0001057 9100.66309 538.05450
9320.0 0.0001073 9100.16797 529.89417
9312.0 0.0001074 9099.67383 523.39020
9280.0 0.0001078 9099.17871 518.61407
9132.0 0.0001095 9098.68359 515.62720
9060.0 0.0001104 9098.18945 515.08716
9284.0 0.0001077 9097.69434 515.63177
9400.0 0.0001064 9097.19922 517.79663
9094.0 0.0001100 9096.70508 521.39728
9366.0 0.0001068 9096.20996 526.18170
9334.0 0.0001071 9095.71484 531.84113
9302.0 0.0001075 9095.22070 538.01630
9314.0 0.0001074 9094.72559 544.86340
8932.0 0.0001120 9094.23047 550.92535
9200.0 0.0001087 9093.73633 556.33447
9142.0 0.0001094 9093.24219 560.72632
9334.0 0.0001071 9092.74609 563.78497
9196.0 0.0001087 9092.25195 565.31879
9148.0 0.0001093 9091.75684 564.99567
9120.0 0.0001096 9091.26270 562.78271
9208.0 0.0001086 9090.76758 559.48578
8972.0 0.0001115 9090.27246 553.56006
9104.0 0.0001098 9089.77832 546.14685
8968.0 0.0001115 9089.28320 537.08185
9086.0 0.0001101 9088.78809 526.79901
8782.0 0.0001139 9088.29395 515.55469
9108.0 0.0001098 9087.79883 503.58929
8792.0 0.0001137 9087.30469 491.56567
8902.0 0.0001123 9086.80957 478.74677
8768.0 0.0001141 9086.31445 465.70749
8898.0 0.0001124 9085.82031 452.52399
8886.0 0.0001125 9085.32520 439.25601
9032.0 0.0001107 9084.83008 425.95642
9088.0 0.0001100 9084.33594 412.68842
8812.0 0.0001135 9083.84082 399.35989
9142.0 0.0001094 9083.34570 386.48477
8890.0 0.0001125 9082.85156 373.93472
8698.0 0.0001150 9082.35645 361.90347
8924.0 0.0001121 9081.86230 350.54739
8770.0 0.0001140 9081.36719 340.01331
9022.0 0.0001108 9080.87207 330.47586
8848.0 0.0001130 9080.37793 321.92856
8942.0 0.0001118 9079.88281 314.72260
8880.0 0.0001126 9079.38770 308.41684
8866.0 0.0001128 9078.89355 301.68854
8766.0 0.0001141 9078.39844 297.59149
9040.0 0.0001106 9077.90430 294.46136
8944.0 0.0001118 9077.40918 292.17850
8848.0 0.0001130 9076.91406 290.59976
8752.0 0.0001143 9076.41992 289.57321
8684.0 0.0001152 9075.92480 288.92838
8834.0 0.0001132 9075.42969 288.52936
8872.0 0.0001127 9074.93555 288.29700
8826.0 0.0001133 9074.44043 288.10764
8760.0 0.0001142 9073.94531 288.04111
8818.0 0.0001134 9073.45117 288.01596
8950.0 0.0001117 9072.95605 288.15097
8936.0 0.0001119 9072.46094 288.54941
8710.0 0.0001148 9071.96680 289.31204
8698.0 0.0001150 9071.47168 288.78372
8788.0 0.0001138 9070.97656 290.57690
8878.0 0.0001126 9070.48242 292.93817
8770.0 0.0001140 9069.98730 295.88052
8516.0 0.0001174 9069.49219 299.38531
8684.0 0.0001152 9068.99805 303.40479
8874.0 0.0001127 9068.50293 307.86612
8930.0 0.0001120 9068.00781 312.68484
9008.0 0.0001110 9067.51367 317.77505
9004.0 0.0001111 9067.01855 322.98755
8720.0 0.0001147 9066.52441 328.11188
8864.0 0.0001128 9066.02930 333.30856
8736.0 0.0001145 9065.53418 338.96732
8802.0 0.0001136 9065.04004 343.73154
8866.0 0.0001128 9064.54492 348.26041
8710.0 0.0001148 9064.04980 352.99570
8808.0 0.0001135 9063.55566 356.50082
8862.0 0.0001128 9063.06055 359.52246
8750.0 0.0001143 9062.56641 361.90335
8954.0 0.0001117 9062.07129 363.64804
9066.0 0.0001103 9061.57617 363.30341
9072.0 0.0001102 9061.08203 363.60162
9264.0 0.0001079 9060.58691 363.02536
9056.0 0.0001104 9060.09180 361.79184
8930.0 0.0001120 9059.59766 359.16891
8956.0 0.0001117 9059.10254 355.67328
9146.0 0.0001093 9058.60742 350.61252
8860.0 0.0001129 9058.11328 344.22406
8630.0 0.0001159 9057.61816 336.47922
8850.0 0.0001130 9057.12402 327.39532
8844.0 0.0001131 9056.62891 317.04251
8916.0 0.0001122 9056.13379 305.54788
8622.0 0.0001160 9055.63965 293.07004
8904.0 0.0001123 9055.14453 279.83902
8608.0 0.0001162 9054.64941 266.08664
9074.0 0.0001102 9054.15527 252.06462
8616.0 0.0001161 9053.66016 238.02753
9028.0 0.0001108 9053.16602 224.22328
8478.0 0.0001180 9052.67090 210.88420
8890.0 0.0001125 9052.17578 198.23824
8642.0 0.0001157 9051.68164 186.48293
8738.0 0.0001144 9051.18652 175.79967
8712.0 0.0001148 9050.69141 164.60703
8474.0 0.0001180 9050.19727 157.19516
8640.0 0.0001157 9049.70215 150.29553
8662.0 0.0001154 9049.20703 145.34500
8560.0 0.0001168 9048.71289 142.03966
8660.0 0.0001155 9048.21777 140.43056
8542.0 0.0001171 9047.72266 140.55077
8674.0 0.0001153 9047.22852 142.41742
8412.0 0.0001189 9046.73340 146.03357
8556.0 0.0001169 9046.23828 151.39117
8516.0 0.0001174 9045.74414 158.48055
8664.0 0.0001154 9045.24902 167.23164
8490.0 0.0001178 9044.75391 177.60312
8516.0 0.0001174 9044.25977 189.51396
8520.0 0.0001174 9043.76465 202.85080
8618.0 0.0001160 9043.26953 217.48808
8666.0 0.0001154 9042.77539 233.22713
8522.0 0.0001173 9042.28027 249.86087
8664.0 0.0001154 9041.78613 267.13754
8654.0 0.0001156 9041.29102 283.60178
8850.0 0.0001130 9040.79590 301.31573
8728.0 0.0001146 9040.30176 319.83386
8352.0 0.0001197 9039.80664 336.65366
8812.0 0.0001135 9039.31152 352.49792
8718.0 0.0001147 9038.81738 367.03745
8920.0 0.0001121 9038.32227 380.29025
9142.0 0.0001094 9037.82813 391.34930
8800.0 0.0001136 9037.33301 400.31012
9076.0 0.0001102 9036.83789 406.98145
8718.0 0.0001147 9036.34375 412.03937
8686.0 0.0001151 9035.84863 413.84933
8784.0 0.0001138 9035.35352 413.16251
8646.0 0.0001157 9034.85938 409.98730
8674.0 0.0001153 9034.36426 404.41086
8706.0 0.0001149 9033.86914 396.50632
8756.0 0.0001142 9033.37500 386.40012
8672.0 0.0001153 9032.87988 374.24741
8792.0 0.0001137 9032.38574 360.24561
8280.0 0.0001208 9031.89063 344.63629
8664.0 0.0001154 9031.39551 327.70905
8426.0 0.0001187 9030.90137 308.79596
8706.0 0.0001149 9030.40625 290.22824
8224.0 0.0001216 9029.91113 271.35312
8656.0 0.0001155 9029.41699 252.51595
8568.0 0.0001167 9028.92188 234.04279
8602.0 0.0001163 9028.42676 216.23033
8580.0 0.0001166 9027.93262 199.33531
8598.0 0.0001163 9027.43750 183.59035
8584.0 0.0001165 9026.94336 169.17287
8406.0 0.0001190 9026.44824 156.22499
8458.0 0.0001182 9025.95313 144.85904
8284.0 0.0001207 9025.45898 135.12448
8342.0 0.0001199 9024.96387 127.03385
8394.0 0.0001191 9024.46875 120.63641
8272.0 0.0001209 9023.97461 115.87576
8308.0 0.0001204 9023.47949 111.89957
8500.0 0.0001176 9022.98438 110.25122
8602.0 0.0001163 9022.49023 109.51500
8416.0 0.0001188 9021.99512 110.60799
8790.0 0.0001138 9021.50000 112.90003
8450.0 0.0001183 9021.00586 116.26968
8476.0 0.0001180 9020.51074 120.59280
8514.0 0.0001175 9020.01563 125.74245
8532.0 0.0001172 9019.52148 131.59175
8574.0 0.0001166 9019.02637 138.01514
8330.0 0.0001200 9018.53125 144.90410
8480.0 0.0001179 9018.03711 152.15291
8334.0 0.0001200 9017.54199 159.66107
8554.0 0.0001169 9017.04785 167.37108
8300.0 0.0001205 9016.55273 175.24109
8364.0 0.0001196 9016.05762 183.25258
8710.0 0.0001148 9015.56348 191.45332
8672.0 0.0001153 9015.06836 199.76602
8380.0 0.0001193 9014.57324 208.98521
8378.0 0.0001194 9014.07910 217.69505
8264.0 0.0001210 9013.58398 226.60994
8284.0 0.0001207 9013.08984 235.72411
8122.0 0.0001231 9012.59473 244.81798
8612.0 0.0001161 9012.09961 254.27365
8502.0 0.0001176 9011.60547 264.39017
8288.0 0.0001207 9011.11035 273.98422
8424.0 0.0001187 9010.61523 283.51059
8474.0 0.0001180 9010.12109 292.85962
8278.0 0.0001208 9009.62598 301.87100
8604.0 0.0001162 9009.13086 310.38385
8274.0 0.0001209 9008.63672 318.20010
8408.0 0.0001189 9008.14160 325.11551
8436.0 0.0001185 9007.64746 330.92175
8346.0 0.0001198 9007.15234 335.42352
8542.0 0.0001171 9006.65723 338.38031
8442.0 0.0001185 9006.16309 339.88318
8396.0 0.0001191 9005.66797 339.61386
8440.0 0.0001185 9005.17285 337.59875
8454.0 0.0001183 9004.67871 336.43317
8644.0 0.0001157 9004.18359 331.01126
8360.0 0.0001196 9003.68848 325.04715
8296.0 0.0001205 9003.19434 316.46664
8304.0 0.0001204 9002.69922 306.38840
8416.0 0.0001188 9002.20410 295.04248
8370.0 0.0001195 9001.70996 282.64819
8286.0 0.0001207 9001.21484 269.46133
8340.0 0.0001199 9000.72070 255.76810
8444.0 0.0001184 9000.22559 241.84941
8418.0 0.0001188 8999.73047 228.02493
8262.0 0.0001210 8999.23633 212.92311
8418.0 0.0001188 8998.74121 200.17342
8530.0 0.0001172 8998.24609 188.32909
8494.0 0.0001177 8997.75195 177.61771
8546.0 0.0001170 8997.25684 168.23763
8200.0 0.0001220 8996.76172 160.35269
8246.0 0.0001213 8996.26758 154.09860
8218.0 0.0001217 8995.77246 149.56718
8402.0 0.0001190 8995.27734 146.81535
8266.0 0.0001210 8994.78320 145.86032
8538.0 0.0001171 8994.28809 146.70506
8342.0 0.0001199 8993.79297 149.25313
8310.0 0.0001203 8993.29883 153.43587
8360.0 0.0001196 8992.80371 159.13863
8454.0 0.0001183 8992.30957 166.22278
8370.0 0.0001195 8991.81445 174.53264
8366.0 0.0001195 8991.31934 183.90236
8278.0 0.0001208 8990.82520 194.16595
8522.0 0.0001173 8990.33008 205.15279
8444.0 0.0001184 8989.83496 216.71344
8314.0 0.0001203 8989.34082 228.71605
8292.0 0.0001206 8988.84570 241.15221
8650.0 0.0001156 8988.35156 253.77824
8452.0 0.0001183 8987.85645 266.65546
8442.0 0.0001185 8987.36133 279.80273
8288.0 0.0001207 8986.86621 293.30103
8468.0 0.0001181 8986.37207 307.26416
8488.0 0.0001178 8985.87695 321.83298
8518.0 0.0001174 8985.38281 337.15759
8570.0 0.0001167 8984.88770 353.37762
8506.0 0.0001176 8984.39258 370.60733
8706.0 0.0001149 8983.89844 388.89780
8800.0 0.0001136 8983.40332 407.58298
8440.0 0.0001185 8982.90820 427.94788
8630.0 0.0001159 8982.41406 449.14987
8804.0 0.0001136 8981.91895 470.94662
8666.0 0.0001154 8981.42383 493.04584
8622.0 0.0001160 8980.92969 515.02002
8652.0 0.0001156 8980.43457 536.41986
8520.0 0.0001174 8979.94043 556.73279
8770.0 0.0001140 8979.44531 575.41833
8718.0 0.0001147 8978.95020 592.42480
8784.0 . . .
8720.0 . . .
8796.0 . . .
8780.0 . . .
8826.0 . . .
8892.0 . . .
8798.0 . . .
8694.0 . . .
8738.0 . . .
8876.0 . . .
8976.0 . . .
8764.0 . . .
8922.0 . . .
8824.0 . . .
8648.0 . . .
8842.0 . . .
8956.0 . . .
8960.0 . . .
8948.0 . . .
8896.0 . . .
8848.0 . . .
8920.0 . . .
8920.0 . . .
8670.0 . . .
8924.0 . . .
8814.0 . . .
8876.0 . . .
8574.0 . . .
8726.0 . . .
8600.0 . . .
8752.0 . . .
8582.0 . . .
8738.0 . . .
8454.0 . . .
8504.0 . . .
8548.0 . . .
8270.0 . . .
8342.0 . . .
8710.0 . . .
8592.0 . . .
8264.0 . . .
8334.0 . . .
8522.0 . . .
8582.0 . . .
8502.0 . . .
8474.0 . . .
8362.0 . . .
8310.0 . . .
8398.0 . . .
8592.0 . . .
8264.0 . . .
8334.0 . . .
8522.0 . . .
8582.0 . . .
8502.0 . . .
8474.0 . . .
