#------------------------------------------------------------------------------
#$Date: 2016-03-24 02:52:30 +0200 (Thu, 24 Mar 2016) $
#$Revision: 179601 $
#$URL: svn://www.crystallography.net/cod/cif/4/50/65/4506591.cif $
#------------------------------------------------------------------------------
#
# This file is available in the Crystallography Open Database (COD),
# http://www.crystallography.net/
#
# All data on this site have been placed in the public domain by the
# contributors.
#
data_4506591
loop_
_publ_author_name
'Takeuchi, Kenneth J.'
'Yau, Shali Z.'
'Menard, Melissa C.'
'Marschilok, Amy C.'
'Takeuchi, Esther S.'
_publ_section_title
;
 Synthetic control of composition and crystallite size of silver
 hollandite, Ag(x)Mn8O16: impact on electrochemistry.
;
_journal_issue                   10
_journal_name_full               'ACS applied materials &amp; interfaces'
_journal_page_first              5547
_journal_page_last               5554
_journal_paper_doi               10.1021/am301443g
_journal_volume                  4
_journal_year                    2012
_chemical_formula_sum            'Ag1.15 Mn8 O16'
_chemical_formula_weight         819.57
_chemical_name_systematic        ' ?'
_space_group_IT_number           87
_symmetry_cell_setting           tetragonal
_symmetry_space_group_name_Hall  '-I 4'
_symmetry_space_group_name_H-M   'I 4/m'
_audit_creation_date             2012-02-18T21:14
_audit_creation_method           'from EXP file using GSAS2CIF'
_audit_update_record
' 2012-02-18T21:14  Initial CIF as created by GSAS2CIF'
_cell_angle_alpha                90.0
_cell_angle_beta                 90.0
_cell_angle_gamma                90.0
_cell_formula_units_Z            1
_cell_length_a                   9.831(11)
_cell_length_b                   9.831
_cell_length_c                   2.872(6)
_cell_measurement_temperature    25
_cell_volume                     277.6(7)
_computing_structure_refinement  GSAS
_diffrn_ambient_temperature      25
_diffrn_radiation_polarisn_ratio 0.5
_diffrn_radiation_probe          x-ray
_diffrn_radiation_wavelength     1.5406
_exptl_absorpt_correction_T_max  1.00000
_exptl_absorpt_correction_T_min  1.00000
_exptl_absorpt_process_details
;   GSAS Absorption/surface roughness correction: function number 0
 No correction is applied.
;
_pd_block_id                     2012-02-18T21:14|MM3962C_4|mm|
_pd_calc_method                  'Rietveld Refinement'
_pd_instr_location               ' ?'
_pd_meas_2theta_range_inc        0.025
_pd_meas_2theta_range_max        100.0
_pd_meas_2theta_range_min        10.0
_pd_meas_number_of_points        3601
_pd_phase_name
'from I:/Ag-Hollandite/XRD/Ag Hollandite_Rietvled/mm3962C-std/Ag1.8'
_pd_proc_2theta_range_inc        0.025
_pd_proc_2theta_range_max        99.94982
_pd_proc_2theta_range_min        9.94982
_pd_proc_info_datetime           2012-02-18T21:14:30
_pd_proc_info_excluded_regions   ' ?'
_pd_proc_ls_background_function
;   GSAS Background function number 1 with  6 terms.
 Shifted Chebyshev function of 1st kind
      1:    31.2537     2:   -23.0403     3:    9.03986     4:   -6.05830    
      5:    3.40460     6:   -1.76640    
;
_pd_proc_ls_peak_cutoff          0.02500
_pd_proc_ls_profile_function
;
 CW Profile function number 2 with  18 terms
 Profile coefficients for Simpson's rule integration of pseudovoigt function
 C.J. Howard (1982). J. Appl. Cryst.,15,615-620.
 P. Thompson, D.E. Cox & J.B. Hastings (1987). J. Appl. Cryst.,20,79-83.
 Peak tails are ignored  where the intensity is below 0.0250 times the peak
   Aniso. broadening axis   0.0   0.0   1.0
;
_pd_proc_ls_prof_R_factor        0.1473
_pd_proc_ls_prof_wR_expected     0.1332
_pd_proc_ls_prof_wR_factor       0.1853
_pd_proc_number_of_points        3601
_pd_spec_mounting                ' ?'
_refine_ls_goodness_of_fit_all   1.39
_refine_ls_matrix_type           full
_refine_ls_number_parameters     14
_refine_ls_number_restraints     0
_refine_ls_R_Fsqd_factor         0.13283
_refine_ls_shift/su_max          0.03
_refine_ls_shift/su_mean         0.01
_reflns_d_resolution_high        1.021
_reflns_d_resolution_low         6.952
_reflns_limit_h_max              10
_reflns_limit_h_min              0
_reflns_limit_k_max              10
_reflns_limit_k_min              0
_reflns_limit_l_max              3
_reflns_limit_l_min              0
_reflns_number_total             85
_cod_data_source_file            am301443g_si_001.cif
_cod_data_source_block           MM3962C_4_publ
_cod_depositor_comments
;
The following automatic conversions were performed:

'_geom_bond_publ_flag' value 'N' changed to 'n' according to
/home/saulius/struct/CIF-dictionaries/cif_core.dic dictionary named
'cif_core.dic' version 2.4.2 from 2011-04-26 (23
times).

'_geom_angle_publ_flag' value 'N' changed to 'n' according
to /home/saulius/struct/CIF-dictionaries/cif_core.dic dictionary
named 'cif_core.dic' version 2.4.2 from 2011-04-26 (22 times).

Automatic conversion script
Id: cif_fix_values 1891 2012-01-12 08:04:46Z andrius 
;
_cod_original_cell_volume        277.6(8)
_cod_database_code               4506591
#BEGIN Tags that were not found in dictionaries:
_gsas_exptl_extinct_corr_t_min   1.00000
_gsas_exptl_extinct_corr_t_max   1.00000
#END Tags that were not found in dictionaries
loop_
_symmetry_equiv_pos_site_id
_symmetry_equiv_pos_as_xyz
1 +x,+y,+z
2 -y,+x,+z
3 -x,-y,+z
4 +y,-x,+z
-1 -x,-y,-z
-2 +y,-x,-z
-3 +x,+y,-z
-4 -y,+x,-z
101 +x+1/2,+y+1/2,+z+1/2
102 -y+1/2,+x+1/2,+z+1/2
103 -x+1/2,-y+1/2,+z+1/2
104 +y+1/2,-x+1/2,+z+1/2
-101 -x+1/2,-y+1/2,-z+1/2
-102 +y+1/2,-x+1/2,-z+1/2
-103 +x+1/2,+y+1/2,-z+1/2
-104 -y+1/2,+x+1/2,-z+1/2
loop_
_atom_site_type_symbol
_atom_site_label
_atom_site_fract_x
_atom_site_fract_y
_atom_site_fract_z
_atom_site_occupancy
_atom_site_thermal_displace_type
_atom_site_U_iso_or_equiv
_atom_site_symmetry_multiplicity
Ag Ag1 0.0 0.0 0.0 0.575 Uiso 0.0273 2
Mn Mn1 0.1493 0.3321 0.5 1.0 Uiso 0.0068 8
O O1 0.15171 0.19525 0.0 1.0 Uiso 0.0095 8
O O2 0.13563 0.46199 0.0 1.0 Uiso 0.0094 8
loop_
_atom_type_symbol
_atom_type_number_in_cell
_atom_type_scat_dispersion_real
_atom_type_scat_dispersion_imag
_atom_type_scat_Cromer_Mann_a1
_atom_type_scat_Cromer_Mann_a2
_atom_type_scat_Cromer_Mann_a3
_atom_type_scat_Cromer_Mann_a4
_atom_type_scat_Cromer_Mann_b1
_atom_type_scat_Cromer_Mann_b2
_atom_type_scat_Cromer_Mann_b3
_atom_type_scat_Cromer_Mann_b4
_atom_type_scat_Cromer_Mann_c
_atom_type_scat_source
Ag 1.15 0.000 0.000 19.2808 0.64460 16.6885 7.47260 4.80450 24.6605 1.04630
99.8156 5.17900 International_Tables_Vol_C
Mn 8.0 0.000 0.000 11.2819 5.34090 7.35730 0.34320 3.01930 17.8674 2.24410
83.7543 1.08960 International_Tables_Vol_C
O 16.0 0.000 0.000 3.04850 13.2771 2.28680 5.70110 1.54630 0.32390 0.86700
32.9089 0.25080 International_Tables_Vol_C
loop_
_geom_angle_atom_site_label_1
_geom_angle_atom_site_label_2
_geom_angle_atom_site_label_3
_geom_angle
_geom_angle_site_symmetry_1
_geom_angle_site_symmetry_3
_geom_angle_publ_flag
Ag1 Ag1 Ag1 180.0 1_554 1_556 n
O1 Mn1 O1 93.73(18) 1_555 1_556 n
O1 Mn1 O1 83.972(10) 1_555 103_555 n
O1 Mn1 O2 84.84(18) 1_555 1_555 n
O1 Mn1 O2 176.370(5) 1_555 1_556 n
O1 Mn1 O2 97.351(12) 1_555 104_455 n
O1 Mn1 O1 83.972(10) 1_556 103_555 n
O1 Mn1 O2 176.370(5) 1_556 1_555 n
O1 Mn1 O2 84.84(18) 1_556 1_556 n
O1 Mn1 O2 97.351(12) 1_556 104_455 n
O1 Mn1 O2 99.172(16) 103_555 1_555 n
O1 Mn1 O2 99.172(16) 103_555 1_556 n
O1 Mn1 O2 178.0496 103_555 104_455 n
O2 Mn1 O2 96.40(18) 1_555 1_556 n
O2 Mn1 O2 79.553(18) 1_555 104_455 n
O2 Mn1 O2 79.553(18) 1_556 104_455 n
Mn1 O1 Mn1 93.73(18) 1_554 1_555 n
Mn1 O1 Mn1 96.028(10) 1_554 103_554 n
Mn1 O1 Mn1 96.028(10) 1_555 103_554 n
Mn1 O2 Mn1 96.40(18) 1_554 1_555 n
Mn1 O2 Mn1 129.90(8) 1_554 102_554 n
Mn1 O2 Mn1 129.90(8) 1_555 102_554 n
loop_
_geom_bond_atom_site_label_1
_geom_bond_atom_site_label_2
_geom_bond_distance
_geom_bond_site_symmetry_2
_geom_bond_publ_flag
Ag1 Ag1 2.872(6) 1_554 n
Ag1 Ag1 2.872(6) 1_556 n
Ag1 O1 2.431(5) 1_555 n
Ag1 O1 2.431(5) 2_555 n
Ag1 O1 2.431(5) 3_555 n
Ag1 O1 2.431(5) 4_555 n
Mn1 Mn1 2.872(6) 1_554 n
Mn1 Mn1 2.872(6) 1_556 n
Mn1 Mn1 2.931(5) 103_554 n
Mn1 Mn1 2.931(5) 103_555 n
Mn1 O1 1.9680(31) 1_555 n
Mn1 O1 1.9680(31) 1_556 n
Mn1 O1 1.975(4) 103_555 n
Mn1 O2 1.9265(30) 1_555 n
Mn1 O2 1.9265(30) 1_556 n
Mn1 O2 1.869(4) 104_455 n
O1 Ag1 2.431(5) 1_555 n
O1 Mn1 1.9680(31) 1_554 n
O1 Mn1 1.9680(31) 1_555 n
O1 Mn1 1.975(4) 103_554 n
O2 Mn1 1.9265(30) 1_554 n
O2 Mn1 1.9265(30) 1_555 n
O2 Mn1 1.869(4) 102_554 n
loop_
_pd_meas_counts_total
_pd_proc_ls_weight
_pd_proc_intensity_bkg_calc
_pd_calc_intensity_total
75.0 0.01333 74.56316 77.61136
97.0 0.01031 74.44527 77.54301
98.0 0.01020 74.32764 77.47607
97.0 0.01031 74.21025 77.41058
92.0 0.01087 74.09311 77.34657
87.0 0.01149 73.97622 77.28409
81.0 0.01235 73.85958 77.22316
90.0 0.01111 73.74318 77.16382
104.0 0.00962 73.62703 77.10612
116.0 0.00862 73.51112 77.05009
75.0 0.01333 73.39546 76.99580
80.0 0.01250 73.28005 76.94327
89.0 0.01124 73.16489 76.89256
93.0 0.01075 73.04996 76.84370
93.0 0.01075 72.93527 76.79677
85.0 0.01176 72.82084 76.75180
94.0 0.01064 72.70665 76.70885
88.0 0.01136 72.59270 76.66797
85.0 0.01176 72.47900 76.62923
80.0 0.01250 72.36552 76.59267
81.0 0.01235 72.25230 76.55839
102.0 0.00980 72.13933 76.52641
88.0 0.01136 72.02658 76.49681
95.0 0.01053 71.91409 76.46967
83.0 0.01205 71.80183 76.44505
102.0 0.00980 71.68980 76.42303
92.0 0.01087 71.57803 76.40369
97.0 0.01031 71.46649 76.38709
101.0 0.00990 71.35519 76.37332
91.0 0.01099 71.24413 76.36246
76.0 0.01316 71.13330 76.35461
96.0 0.01042 71.02271 76.34984
86.0 0.01163 70.91236 76.34825
87.0 0.01149 70.80225 76.34994
76.0 0.01316 70.69238 76.35499
98.0 0.01020 70.58274 76.36353
84.0 0.01190 70.47334 76.37563
81.0 0.01235 70.36416 76.39140
90.0 0.01111 70.25523 76.41097
102.0 0.00980 70.14653 76.43445
83.0 0.01205 70.03806 76.46194
87.0 0.01149 69.92983 76.49355
91.0 0.01099 69.82184 76.52944
87.0 0.01149 69.71407 76.56970
73.0 0.01370 69.60654 76.61446
70.0 0.01429 69.49924 76.66386
87.0 0.01149 69.39217 76.71803
73.0 0.01370 69.28534 76.77709
91.0 0.01099 69.17873 77.16292
99.0 0.01010 69.07236 77.23450
70.0 0.01429 68.96622 77.31142
68.0 0.01471 68.86031 77.39382
80.0 0.01250 68.75462 77.48183
90.0 0.01111 68.64917 77.57562
72.0 0.01389 68.54395 77.67532
90.0 0.01111 68.43895 77.78106
88.0 0.01136 68.33418 77.89300
73.0 0.01370 68.22964 78.01125
82.0 0.01220 68.12534 78.13597
92.0 0.01087 68.02125 78.26728
92.0 0.01087 67.91740 78.40530
91.0 0.01099 67.81377 78.55016
95.0 0.01053 67.71036 78.70197
92.0 0.01087 67.60718 78.86080
99.0 0.01010 67.50423 79.02678
75.0 0.01333 67.40150 79.19997
82.0 0.01220 67.29900 79.38040
82.0 0.01220 67.19671 79.56816
77.0 0.01299 67.09466 79.76324
84.0 0.01190 66.99282 79.96566
94.0 0.01064 66.89121 80.17536
79.0 0.01266 66.78983 80.39233
96.0 0.01042 66.68866 80.61646
89.0 0.01124 66.58772 80.84760
87.0 0.01149 66.48699 81.08561
88.0 0.01136 66.38650 81.33028
82.0 0.01220 66.28622 81.58134
83.0 0.01205 66.18616 81.83851
85.0 0.01176 66.08633 82.10141
89.0 0.01124 65.98671 82.36961
88.0 0.01136 65.88731 82.64263
81.0 0.01235 65.78813 82.91992
71.0 0.01408 65.68917 83.20082
92.0 0.01087 65.59043 83.48467
80.0 0.01250 65.49191 83.77066
73.0 0.01370 65.39360 84.05793
77.0 0.01299 65.29551 84.34554
77.0 0.01299 65.19764 84.63246
70.0 0.01429 65.09998 84.91759
93.0 0.01075 65.00254 85.19973
78.0 0.01282 64.90532 85.47762
83.0 0.01205 64.80832 85.74992
78.0 0.01282 64.71152 86.01520
80.0 0.01250 64.61494 86.27203
86.0 0.01163 64.51859 86.51888
84.0 0.01190 64.42244 86.75421
81.0 0.01235 64.32651 86.97643
89.0 0.01124 64.23078 87.18396
97.0 0.01031 64.13527 87.37522
72.0 0.01389 64.03998 87.54866
92.0 0.01087 63.94489 87.70277
87.0 0.01149 63.85002 87.83609
89.0 0.01124 63.75536 87.94729
81.0 0.01235 63.66092 88.03507
75.0 0.01333 63.56668 88.09830
80.0 0.01250 63.47265 88.13599
56.0 0.01786 63.37883 88.14728
77.0 0.01299 63.28523 88.13148
85.0 0.01176 63.19183 88.08810
74.0 0.01351 63.09864 88.01684
77.0 0.01299 63.00566 87.91755
78.0 0.01282 62.91290 87.79034
66.0 0.01515 62.82033 87.63544
73.0 0.01370 62.72797 87.45337
71.0 0.01408 62.63583 87.24471
80.0 0.01250 62.54388 87.01031
79.0 0.01266 62.45216 86.75114
87.0 0.01149 62.36063 86.46832
72.0 0.01389 62.26931 86.16306
69.0 0.01449 62.17819 85.83673
94.0 0.01064 62.08728 85.49075
83.0 0.01205 61.99658 85.12663
69.0 0.01449 61.90608 84.74591
90.0 0.01111 61.81578 84.35017
87.0 0.01149 61.72569 83.94099
78.0 0.01282 61.63580 83.51997
65.0 0.01538 61.54612 83.08865
87.0 0.01149 61.45663 82.64856
70.0 0.01429 61.36735 82.20119
80.0 0.01250 61.27827 81.74796
72.0 0.01389 61.18940 81.29021
70.0 0.01429 61.10072 80.82925
69.0 0.01449 61.01225 80.36626
67.0 0.01493 60.92398 79.90240
67.0 0.01493 60.83591 79.43870
62.0 0.01613 60.74804 78.97613
59.0 0.01695 60.66037 78.51557
69.0 0.01449 60.57290 78.05782
81.0 0.01235 60.48562 77.60360
54.0 0.01852 60.39854 77.15356
79.0 0.01266 60.31167 76.70829
70.0 0.01429 60.22499 76.26827
77.0 0.01299 60.13851 75.83395
78.0 0.01282 60.05223 75.40572
80.0 0.01250 59.96614 74.98389
64.0 0.01563 59.88026 74.56872
90.0 0.01111 59.79456 74.16045
81.0 0.01235 59.70907 73.75925
74.0 0.01351 59.62377 73.36523
72.0 0.01389 59.53866 72.97854
82.0 0.01220 59.45375 72.59920
69.0 0.01449 59.36904 72.22727
64.0 0.01563 59.28452 71.86275
67.0 0.01493 59.20019 71.50563
73.0 0.01370 59.11606 71.15588
68.0 0.01471 59.03212 70.81343
81.0 0.01235 58.94838 70.47823
77.0 0.01299 58.86482 70.15018
65.0 0.01538 58.78146 69.82919
71.0 0.01408 58.69830 69.51516
69.0 0.01449 58.61532 69.20798
61.0 0.01639 58.53253 68.90752
81.0 0.01235 58.44994 68.61366
62.0 0.01613 58.36753 68.32628
78.0 0.01282 58.28532 68.04523
72.0 0.01389 58.20329 67.77038
76.0 0.01316 58.12146 67.50159
67.0 0.01493 58.03982 67.23875
67.0 0.01493 57.95836 66.98167
80.0 0.01250 57.87709 66.73025
70.0 0.01429 57.79602 66.48434
67.0 0.01493 57.71513 66.24381
92.0 0.01087 57.63442 66.00851
63.0 0.01587 57.55391 65.77834
62.0 0.01613 57.47358 65.55314
72.0 0.01389 57.39344 65.33279
71.0 0.01408 57.31349 65.11718
69.0 0.01449 57.23372 64.90617
68.0 0.01471 57.15414 64.69965
81.0 0.01235 57.07474 64.49749
64.0 0.01563 56.99553 64.29959
58.0 0.01724 56.91650 64.10584
88.0 0.01136 56.83766 63.91613
80.0 0.01250 56.75900 63.73036
76.0 0.01316 56.68053 63.54843
55.0 0.01818 56.60224 63.37024
63.0 0.01587 56.52413 63.19569
66.0 0.01515 56.44621 63.02470
57.0 0.01754 56.36846 62.85718
75.0 0.01333 56.29090 62.69304
58.0 0.01724 56.21352 62.53220
64.0 0.01563 56.13633 62.37459
76.0 0.01316 56.05931 62.22013
59.0 0.01695 55.98248 62.06874
64.0 0.01563 55.90582 61.92036
71.0 0.01408 55.82935 61.77492
82.0 0.01220 55.75306 61.63235
68.0 0.01471 55.67694 61.49261
64.0 0.01563 55.60101 61.35562
68.0 0.01471 55.52526 61.22133
67.0 0.01493 55.44968 61.08969
62.0 0.01613 55.37428 60.96065
75.0 0.01333 55.29906 60.83415
71.0 0.01408 55.22402 60.71016
56.0 0.01786 55.14915 60.58863
64.0 0.01563 55.07447 60.46952
63.0 0.01587 54.99996 60.35279
68.0 0.01471 54.92562 60.23840
73.0 0.01370 54.85147 60.12633
51.0 0.01961 54.77748 60.01653
76.0 0.01316 54.70367 59.90899
67.0 0.01493 54.63005 59.80367
56.0 0.01786 54.55659 59.70053
56.0 0.01786 54.48331 59.59958
65.0 0.01538 54.41020 59.50076
78.0 0.01282 54.33727 59.40408
64.0 0.01563 54.26451 59.30952
48.0 0.02083 54.19192 59.21705
49.0 0.02041 54.11951 59.12667
49.0 0.02041 54.04726 59.03836
57.0 0.01754 53.97520 58.95211
61.0 0.01639 53.90330 58.86792
57.0 0.01754 53.83158 58.78578
71.0 0.01408 53.76003 58.70568
57.0 0.01754 53.68864 58.62762
75.0 0.01333 53.61743 58.55161
69.0 0.01449 53.54639 58.47763
53.0 0.01887 53.47552 58.40571
55.0 0.01818 53.40482 58.33584
67.0 0.01493 53.33429 58.26802
59.0 0.01695 53.26393 58.20228
59.0 0.01695 53.19374 58.13861
59.0 0.01695 53.12371 58.07703
58.0 0.01724 53.05386 58.01756
65.0 0.01538 52.98417 57.96021
64.0 0.01563 52.91465 57.90500
59.0 0.01695 52.84530 57.85195
59.0 0.01695 52.77612 57.80108
65.0 0.01538 52.70710 57.75241
55.0 0.01818 52.63824 57.70598
71.0 0.01408 52.56956 57.66182
63.0 0.01587 52.50104 57.61994
62.0 0.01613 52.43269 57.58038
75.0 0.01333 52.36450 57.54317
59.0 0.01695 52.29647 57.50836
63.0 0.01587 52.22862 57.47598
66.0 0.01515 52.16093 57.44606
70.0 0.01429 52.09340 57.41866
46.0 0.02174 52.02603 57.39380
58.0 0.01724 51.95882 57.37155
66.0 0.01515 51.89179 57.35196
57.0 0.01754 51.82491 57.33504
66.0 0.01515 51.75820 57.32089
70.0 0.01429 51.69165 57.30953
55.0 0.01818 51.62526 57.30103
44.0 0.02273 51.55903 57.29546
65.0 0.01538 51.49297 57.29285
57.0 0.01754 51.42706 57.29329
59.0 0.01695 51.36131 57.29681
63.0 0.01587 51.29573 57.30351
57.0 0.01754 51.23031 57.31343
68.0 0.01471 51.16505 57.32665
55.0 0.01818 51.09994 57.34324
58.0 0.01724 51.03499 57.36326
54.0 0.01852 50.97021 57.38678
60.0 0.01667 50.90559 57.41389
53.0 0.01887 50.84112 57.44463
57.0 0.01754 50.77681 57.47910
62.0 0.01613 50.71265 57.51736
65.0 0.01538 50.64865 57.55947
55.0 0.01818 50.58482 57.60551
40.0 0.02500 50.52114 57.65556
52.0 0.01923 50.45762 57.70967
44.0 0.02273 50.39425 57.76789
48.0 0.02083 50.33104 57.83031
75.0 0.01333 50.26798 57.89696
65.0 0.01538 50.20508 57.96791
57.0 0.01754 50.14234 58.04318
55.0 0.01818 50.07975 58.12283
65.0 0.01538 50.01731 58.20687
54.0 0.01852 49.95503 58.29533
53.0 0.01887 49.89291 58.38823
40.0 0.02500 49.83093 58.48553
62.0 0.01613 49.76911 58.58725
60.0 0.01667 49.70744 58.69334
65.0 0.01538 49.64593 58.80376
70.0 0.01429 49.58457 58.91843
62.0 0.01613 49.52337 59.03727
63.0 0.01587 49.46230 59.16016
69.0 0.01449 49.40140 59.28696
52.0 0.01923 49.34065 59.41751
64.0 0.01563 49.28004 59.55162
51.0 0.01961 49.21960 59.68905
61.0 0.01639 49.15929 59.82954
46.0 0.02174 49.09914 59.97281
57.0 0.01754 49.03914 60.11850
59.0 0.01695 48.97929 60.26624
59.0 0.01695 48.91959 60.41560
47.0 0.02128 48.86003 60.56614
58.0 0.01724 48.80063 60.71733
64.0 0.01563 48.74138 60.86863
49.0 0.02041 48.68227 61.01944
60.0 0.01667 48.62331 61.16911
36.0 0.02778 48.56450 61.31694
40.0 0.02500 48.50584 61.46222
45.0 0.02222 48.44732 61.60417
61.0 0.01639 48.38895 61.74199
47.0 0.02128 48.33073 61.87483
63.0 0.01587 48.27265 62.00184
53.0 0.01887 48.21473 62.12214
65.0 0.01538 48.15694 62.23485
55.0 0.01818 48.09930 62.33906
52.0 0.01923 48.04181 62.43388
47.0 0.02128 47.98446 62.51844
48.0 0.02083 47.92725 62.59191
39.0 0.02564 47.87019 62.65347
70.0 0.01429 47.81328 62.70235
50.0 0.02000 47.75651 62.73787
58.0 0.01724 47.69987 62.75937
54.0 0.01852 47.64339 62.76631
53.0 0.01887 47.58705 62.75822
58.0 0.01724 47.53085 62.73473
51.0 0.01961 47.47480 62.69556
60.0 0.01667 47.41888 62.64054
65.0 0.01538 47.36310 62.56961
50.0 0.02000 47.30747 62.48282
52.0 0.01923 47.25198 62.38032
42.0 0.02381 47.19663 62.26237
52.0 0.01923 47.14142 62.92010
51.0 0.01961 47.08636 62.77762
55.0 0.01818 47.03143 62.62110
58.0 0.01724 46.97664 62.45118
53.0 0.01887 46.92199 62.26853
60.0 0.01667 46.86748 62.07391
67.0 0.01493 46.81311 61.86812
55.0 0.01818 46.75888 61.65200
53.0 0.01887 46.70479 61.42643
48.0 0.02083 46.65084 61.19227
55.0 0.01818 46.59702 60.95042
47.0 0.02128 46.54334 60.70177
51.0 0.01961 46.48980 60.44720
65.0 0.01538 46.43640 60.18756
47.0 0.02128 46.38313 59.92369
60.0 0.01667 46.32999 59.65640
45.0 0.02222 46.27700 59.38647
44.0 0.02273 46.22414 59.11459
46.0 0.02174 46.17142 58.84150
39.0 0.02564 46.11884 58.56780
44.0 0.02273 46.06638 58.29411
57.0 0.01754 46.01407 58.02099
54.0 0.01852 45.96189 57.74895
46.0 0.02174 45.90984 57.47844
59.0 0.01695 45.85793 57.20988
65.0 0.01538 45.80615 56.94365
46.0 0.02174 45.75451 56.68010
56.0 0.01786 45.70300 56.41951
44.0 0.02273 45.65162 56.16215
34.0 0.02941 45.60037 55.90825
53.0 0.01887 45.54926 55.65799
32.0 0.03125 45.49828 55.41155
42.0 0.02381 45.44743 55.16905
50.0 0.02000 45.39671 54.93062
46.0 0.02174 45.34613 54.69633
51.0 0.01961 45.29567 54.46624
55.0 0.01818 45.24535 54.24043
46.0 0.02174 45.19516 54.01889
52.0 0.01923 45.14510 53.80166
46.0 0.02174 45.09517 53.58872
44.0 0.02273 45.04536 53.38007
35.0 0.02857 44.99570 53.17569
48.0 0.02083 44.94616 52.97553
56.0 0.01786 44.89674 52.77957
49.0 0.02041 44.84746 52.58774
52.0 0.01923 44.79830 52.39999
51.0 0.01961 44.74928 52.21627
29.0 0.03448 44.70038 52.03650
49.0 0.02041 44.65161 51.86063
48.0 0.02083 44.60297 51.68857
44.0 0.02273 44.55445 51.52026
41.0 0.02439 44.50606 51.35561
54.0 0.01852 44.45780 51.19456
33.0 0.03030 44.40967 51.03702
38.0 0.02632 44.36166 50.88292
45.0 0.02222 44.31377 50.73216
63.0 0.01587 44.26602 50.58469
35.0 0.02857 44.21839 50.44042
50.0 0.02000 44.17089 50.29927
31.0 0.03226 44.12350 50.16117
44.0 0.02273 44.07625 49.50425
55.0 0.01818 44.02912 49.37566
50.0 0.02000 43.98211 49.24984
49.0 0.02041 43.93523 49.12675
43.0 0.02326 43.88847 49.00629
56.0 0.01786 43.84183 48.88841
52.0 0.01923 43.79532 48.77304
43.0 0.02326 43.74893 48.66011
53.0 0.01887 43.70267 48.54956
35.0 0.02857 43.65652 48.44133
37.0 0.02703 43.61050 48.33535
41.0 0.02439 43.56460 48.23158
40.0 0.02500 43.51883 48.12995
45.0 0.02222 43.47317 48.03040
51.0 0.01961 43.42764 47.93288
40.0 0.02500 43.38222 47.83734
61.0 0.01639 43.33693 47.74374
54.0 0.01852 43.29175 47.65200
50.0 0.02000 43.24670 47.56211
59.0 0.01695 43.20177 47.47401
45.0 0.02222 43.15696 47.38765
40.0 0.02500 43.11226 47.30300
45.0 0.02222 43.06769 47.22000
38.0 0.02632 43.02324 47.13862
43.0 0.02326 42.97890 47.05883
46.0 0.02174 42.93468 46.98058
31.0 0.03226 42.89058 46.90384
33.0 0.03030 42.84660 46.82858
45.0 0.02222 42.80274 46.75475
56.0 0.01786 42.75900 46.68233
51.0 0.01961 42.71536 46.61130
49.0 0.02041 42.67185 46.54161
50.0 0.02000 42.62846 46.47325
53.0 0.01887 42.58518 46.40618
45.0 0.02222 42.54202 46.34038
45.0 0.02222 42.49897 46.27582
43.0 0.02326 42.45604 46.21248
46.0 0.02174 42.41323 46.15034
49.0 0.02041 42.37053 46.08937
41.0 0.02439 42.32795 46.02956
43.0 0.02326 42.28547 45.97087
52.0 0.01923 42.24312 45.91330
42.0 0.02381 42.20088 45.85683
52.0 0.01923 42.15876 45.80143
58.0 0.01724 42.11674 45.74710
34.0 0.02941 42.07484 45.69380
50.0 0.02000 42.03306 45.64154
54.0 0.01852 41.99139 45.59030
48.0 0.02083 41.94983 45.54005
35.0 0.02857 41.90838 45.49080
39.0 0.02564 41.86704 45.44252
46.0 0.02174 41.82582 45.39521
44.0 0.02273 41.78471 45.34885
41.0 0.02439 41.74371 45.30344
46.0 0.02174 41.70283 45.25896
48.0 0.02083 41.66205 45.21541
64.0 0.01563 41.62138 45.17278
50.0 0.02000 41.58083 45.13106
42.0 0.02381 41.54039 45.09024
56.0 0.01786 41.50006 45.05032
32.0 0.03125 41.45983 45.01129
49.0 0.02041 41.41972 44.97315
53.0 0.01887 41.37971 44.93589
40.0 0.02500 41.33982 44.89950
42.0 0.02381 41.30003 47.79172
63.0 0.01587 41.26035 47.77626
53.0 0.01887 41.22079 47.76187
48.0 0.02083 41.18133 47.74853
50.0 0.02000 41.14198 47.73625
45.0 0.02222 41.10273 47.72503
44.0 0.02273 41.06359 47.71486
61.0 0.01639 41.02457 47.70576
53.0 0.01887 40.98565 47.69772
43.0 0.02326 40.94683 47.69076
39.0 0.02564 40.90813 47.68488
46.0 0.02174 40.86952 47.68007
45.0 0.02222 40.83103 47.67633
40.0 0.02500 40.79264 47.67370
40.0 0.02500 40.75436 47.67216
53.0 0.01887 40.71618 47.67172
54.0 0.01852 40.67810 47.67240
47.0 0.02128 40.64014 47.67419
55.0 0.01818 40.60228 47.67711
70.0 0.01429 40.56452 47.68117
70.0 0.01429 40.52687 47.68637
44.0 0.02273 40.48932 47.69274
53.0 0.01887 40.45187 47.70027
40.0 0.02500 40.41453 47.70897
45.0 0.02222 40.37729 47.71888
55.0 0.01818 40.34016 47.72998
59.0 0.01695 40.30312 47.74230
41.0 0.02439 40.26620 47.75586
45.0 0.02222 40.22937 47.77065
42.0 0.02381 40.19265 47.78672
40.0 0.02500 40.15602 47.80405
47.0 0.02128 40.11950 47.82268
50.0 0.02000 40.08308 47.84262
59.0 0.01695 40.04677 47.86390
31.0 0.03226 40.01056 47.88652
41.0 0.02439 39.97444 47.91052
50.0 0.02000 39.93843 47.93590
52.0 0.01923 39.90252 47.96269
54.0 0.01852 39.86670 47.99091
44.0 0.02273 39.83099 48.02060
42.0 0.02381 39.79538 48.05175
42.0 0.02381 39.75986 48.08441
48.0 0.02083 39.72445 48.11860
63.0 0.01587 39.68914 48.15435
49.0 0.02041 39.65392 48.19168
45.0 0.02222 39.61880 48.23062
53.0 0.01887 39.58378 48.27120
44.0 0.02273 39.54886 48.31347
42.0 0.02381 39.51404 48.35742
42.0 0.02381 39.47932 48.40312
48.0 0.02083 39.44469 48.45059
41.0 0.02439 39.41016 48.49987
54.0 0.01852 39.37573 48.55098
58.0 0.01724 39.34140 48.60398
41.0 0.02439 39.30716 48.65891
36.0 0.02778 39.27302 48.71579
49.0 0.02041 39.23897 48.77467
40.0 0.02500 39.20502 48.83560
43.0 0.02326 39.17117 48.89864
39.0 0.02564 39.13741 48.96379
48.0 0.02083 39.10375 49.03114
39.0 0.02564 39.07019 49.10073
53.0 0.01887 39.03671 49.17260
46.0 0.02174 39.00333 49.24682
43.0 0.02326 38.97005 49.32343
46.0 0.02174 38.93687 49.40250
48.0 0.02083 38.90377 49.48408
56.0 0.01786 38.87077 49.56823
48.0 0.02083 38.83787 49.65502
52.0 0.01923 38.80505 49.74453
54.0 0.01852 38.77234 49.83679
58.0 0.01724 38.73971 49.93190
52.0 0.01923 38.70718 50.02991
49.0 0.02041 38.67474 50.13092
54.0 0.01852 38.64239 50.23500
44.0 0.02273 38.61013 50.34222
54.0 0.01852 38.57796 50.45266
63.0 0.01587 38.54589 50.56642
48.0 0.02083 38.51391 50.68358
43.0 0.02326 38.48203 50.80423
60.0 0.01667 38.45023 50.92847
46.0 0.02174 38.41852 51.05639
58.0 0.01724 38.38690 51.18808
38.0 0.02632 38.35538 51.32367
48.0 0.02083 38.32394 51.46323
55.0 0.01818 38.29259 51.60692
58.0 0.01724 38.26134 51.75480
43.0 0.02326 38.23017 51.90702
52.0 0.01923 38.19910 52.06369
49.0 0.02041 38.16811 52.22493
50.0 0.02000 38.13721 52.39088
59.0 0.01695 38.10640 52.56166
50.0 0.02000 38.07568 52.73740
63.0 0.01587 38.04505 52.91826
72.0 0.01389 38.01450 53.10436
53.0 0.01887 37.98405 53.29586
42.0 0.02381 37.95368 53.49292
49.0 0.02041 37.92340 53.69567
52.0 0.01923 37.89320 53.90430
45.0 0.02222 37.86310 54.11895
48.0 0.02083 37.83308 54.33979
57.0 0.01754 37.80315 54.56701
43.0 0.02326 37.77330 54.80077
54.0 0.01852 37.74354 55.04125
47.0 0.02128 37.71387 55.28865
55.0 0.01818 37.68428 55.54314
51.0 0.01961 37.65478 55.80493
48.0 0.02083 37.62536 56.07420
54.0 0.01852 37.59603 56.35117
57.0 0.01754 37.56678 56.63602
60.0 0.01667 37.53762 56.92899
56.0 0.01786 37.50854 57.23026
52.0 0.01923 37.47955 57.54006
43.0 0.02326 37.45065 57.85861
54.0 0.01852 37.42183 58.18612
58.0 0.01724 37.39309 58.52282
62.0 0.01613 37.36443 58.86891
60.0 0.01667 37.33586 59.22463
47.0 0.02128 37.30737 59.59021
61.0 0.01639 37.27896 59.96586
67.0 0.01493 37.25064 60.35180
57.0 0.01754 37.22240 60.74825
62.0 0.01613 37.19424 61.15542
62.0 0.01613 37.16616 61.57353
55.0 0.01818 37.13817 62.00277
48.0 0.02083 37.11026 62.44334
64.0 0.01563 37.08243 62.89543
73.0 0.01370 37.05468 63.35921
53.0 0.01887 37.02702 63.83484
66.0 0.01515 36.99943 64.32247
82.0 0.01220 36.97193 64.82223
62.0 0.01613 36.94450 65.33421
85.0 0.01176 36.91716 65.85851
68.0 0.01471 36.88989 66.39518
62.0 0.01613 36.86271 66.94424
81.0 0.01235 36.83561 67.50569
79.0 0.01266 36.80858 68.07948
69.0 0.01449 36.78164 68.66553
75.0 0.01333 36.75477 69.26368
65.0 0.01538 36.72799 69.87378
87.0 0.01149 36.70128 70.49555
74.0 0.01351 36.67465 71.12869
75.0 0.01333 36.64810 71.77287
65.0 0.01538 36.62163 72.42758
71.0 0.01408 36.59524 73.09235
64.0 0.01563 36.56892 73.76656
77.0 0.01299 36.54269 74.44949
91.0 0.01099 36.51653 75.14039
79.0 0.01266 36.49044 75.83836
84.0 0.01190 36.46444 76.22725
80.0 0.01250 36.43851 76.93850
85.0 0.01176 36.41266 77.65351
86.0 0.01163 36.38688 78.37098
104.0 0.00962 36.36118 79.08949
84.0 0.01190 36.33556 79.80748
86.0 0.01163 36.31002 80.52333
92.0 0.01087 36.28455 81.23529
90.0 0.01111 36.25915 81.94151
77.0 0.01299 36.23383 82.64006
93.0 0.01075 36.20859 83.32893
101.0 0.00990 36.18342 84.00600
87.0 0.01149 36.15833 84.66917
97.0 0.01031 36.13330 85.31624
105.0 0.00952 36.10836 85.94501
98.0 0.01020 36.08349 86.55328
95.0 0.01053 36.05870 87.13891
113.0 0.00885 36.03397 87.69975
90.0 0.01111 36.00932 88.23376
112.0 0.00893 35.98475 88.73901
97.0 0.01031 35.96025 89.21365
99.0 0.01010 35.93582 89.65603
104.0 0.00962 35.91146 90.06465
90.0 0.01111 35.88718 90.43822
104.0 0.00962 35.86297 90.77569
96.0 0.01042 35.83883 91.07619
116.0 0.00862 35.81477 91.33916
100.0 0.01000 35.79078 91.56429
102.0 0.00980 35.76685 91.75153
106.0 0.00943 35.74300 91.90110
92.0 0.01087 35.71923 92.01352
87.0 0.01149 35.69552 92.08955
104.0 0.00962 35.67189 92.13023
104.0 0.00962 35.64832 92.13683
106.0 0.00943 35.62482 92.11083
115.0 0.00870 35.60140 92.05396
136.0 0.00735 35.57805 91.96812
98.0 0.01020 35.55477 91.85533
114.0 0.00877 35.53156 91.71781
111.0 0.00901 35.50842 91.55786
115.0 0.00870 35.48534 91.37785
123.0 0.00813 35.46234 91.18024
122.0 0.00820 35.43940 90.96748
98.0 0.01020 35.41654 90.74212
109.0 0.00917 35.39375 90.50659
109.0 0.00917 35.37102 90.26338
92.0 0.01087 35.34836 90.01489
100.0 0.01000 35.32577 89.76348
126.0 0.00794 35.30325 89.51141
86.0 0.01163 35.28079 89.26090
119.0 0.00840 35.25841 89.01406
118.0 0.00847 35.23609 88.77288
101.0 0.00990 35.21384 88.53928
111.0 0.00901 35.19165 88.31508
92.0 0.01087 35.16954 88.10197
113.0 0.00885 35.14749 87.90156
95.0 0.01053 35.12551 87.71534
107.0 0.00935 35.10360 87.54473
97.0 0.01031 35.08175 87.39103
97.0 0.01031 35.05996 87.25546
93.0 0.01075 35.03825 87.13914
93.0 0.01075 35.01660 87.04314
124.0 0.00806 34.99501 86.96843
109.0 0.00917 34.97349 86.91592
112.0 0.00893 34.95204 86.88647
111.0 0.00901 34.93065 86.88086
126.0 0.00794 34.90933 86.89982
99.0 0.01010 34.88807 86.94405
109.0 0.00917 34.86687 87.01418
95.0 0.01053 34.84575 87.11086
117.0 0.00855 34.82468 87.23463
106.0 0.00943 34.80368 87.38607
106.0 0.00943 34.78274 87.56571
107.0 0.00935 34.76187 87.77405
91.0 0.01099 34.74106 88.01158
108.0 0.00926 34.72032 88.27881
111.0 0.00901 34.69963 88.57619
113.0 0.00885 34.67901 88.90417
112.0 0.00893 34.65846 89.26326
118.0 0.00847 34.63796 89.65389
105.0 0.00952 34.61753 90.07652
99.0 0.01010 34.59716 90.53160
121.0 0.00826 34.57686 91.01962
113.0 0.00885 34.55661 91.54102
113.0 0.00885 34.53643 92.09628
105.0 0.00952 34.51632 92.68589
120.0 0.00833 34.49626 93.31030
113.0 0.00885 34.47626 93.97000
135.0 0.00741 34.45632 94.66548
118.0 0.00847 34.43645 95.39722
134.0 0.00746 34.41664 96.16573
123.0 0.00813 34.39688 96.97150
131.0 0.00763 34.37719 97.81501
118.0 0.00847 34.35756 98.69675
104.0 0.00962 34.33799 99.61720
145.0 0.00690 34.31848 100.57685
118.0 0.00847 34.29903 101.57615
129.0 0.00775 34.27963 102.61555
135.0 0.00741 34.26030 103.69547
121.0 0.00826 34.24103 104.81634
140.0 0.00714 34.22182 105.97851
127.0 0.00787 34.20266 107.18232
123.0 0.00813 34.18357 108.42806
129.0 0.00775 34.16453 109.71600
149.0 0.00671 34.14555 111.04631
138.0 0.00725 34.12663 112.41911
126.0 0.00794 34.10777 113.83447
129.0 0.00775 34.08897 115.29230
167.0 0.00599 34.07022 116.79251
135.0 0.00741 34.05154 118.33483
131.0 0.00763 34.03291 119.91890
178.0 0.00562 34.01434 121.54418
166.0 0.00602 33.99582 123.21004
161.0 0.00621 33.97736 124.91564
126.0 0.00794 33.95896 126.65997
159.0 0.00629 33.94062 128.44180
149.0 0.00671 33.92233 130.25972
170.0 0.00588 33.90410 132.11208
138.0 0.00725 33.88593 133.99690
155.0 0.00645 33.86781 135.91203
137.0 0.00730 33.84975 137.85500
174.0 0.00575 33.83174 139.82294
168.0 0.00595 33.81379 141.81277
176.0 0.00568 33.79589 143.82106
146.0 0.00685 33.77806 145.84393
168.0 0.00595 33.76027 147.87723
189.0 0.00529 33.74254 149.91635
160.0 0.00625 33.72486 151.95639
160.0 0.00625 33.70725 153.99202
182.0 0.00549 33.68968 156.01752
188.0 0.00532 33.67217 158.02679
188.0 0.00532 33.65472 160.01344
192.0 0.00521 33.63731 161.97064
186.0 0.00538 33.61996 163.89133
194.0 0.00515 33.60267 165.76814
188.0 0.00532 33.58543 167.59346
173.0 0.00578 33.56824 169.35953
185.0 0.00541 33.55111 171.05843
184.0 0.00543 33.53403 172.68216
200.0 0.00500 33.51700 174.22279
188.0 0.00532 33.50002 175.67241
207.0 0.00483 33.48310 177.02332
222.0 0.00450 33.46623 178.26801
173.0 0.00578 33.44941 179.39935
205.0 0.00488 33.43265 180.41069
175.0 0.00571 33.41594 181.29576
206.0 0.00485 33.39928 182.04900
204.0 0.00490 33.38267 182.66545
205.0 0.00488 33.36611 183.14091
195.0 0.00513 33.34960 183.47203
215.0 0.00465 33.33315 183.65625
216.0 0.00463 33.31675 183.69186
193.0 0.00518 33.30039 183.57820
210.0 0.00476 33.28409 183.31546
211.0 0.00474 33.26784 182.90469
214.0 0.00467 33.25164 182.34799
220.0 0.00455 33.23549 181.64816
190.0 0.00526 33.21939 180.80898
225.0 0.00444 33.20333 179.83493
199.0 0.00503 33.18734 178.73120
186.0 0.00538 33.17139 177.50360
200.0 0.00500 33.15549 176.15855
178.0 0.00562 33.13963 174.70291
203.0 0.00493 33.12383 173.14388
181.0 0.00552 33.10808 171.48901
215.0 0.00465 33.09238 169.74603
199.0 0.00503 33.07673 168.26822
178.0 0.00562 33.06112 166.37491
189.0 0.00529 33.04556 164.41713
218.0 0.00459 33.03005 162.40266
180.0 0.00556 33.01459 160.33914
204.0 0.00490 32.99918 158.23396
207.0 0.00483 32.98381 156.09427
191.0 0.00524 32.96850 153.92691
198.0 0.00505 32.95323 151.73842
185.0 0.00541 32.93801 149.53500
173.0 0.00578 32.92284 147.32240
179.0 0.00559 32.90771 145.10608
207.0 0.00483 32.89263 142.89110
167.0 0.00599 32.87760 140.68211
181.0 0.00552 32.86261 138.48335
182.0 0.00549 32.84767 136.29877
166.0 0.00602 32.83278 134.13190
177.0 0.00565 32.81794 131.98589
165.0 0.00606 32.80313 129.86363
135.0 0.00741 32.78838 127.76765
162.0 0.00617 32.77367 125.70016
152.0 0.00658 32.75901 123.66309
155.0 0.00645 32.74440 121.65813
161.0 0.00621 32.72982 119.68668
158.0 0.00633 32.71530 117.74997
138.0 0.00725 32.70082 115.84895
172.0 0.00581 32.68639 113.98440
135.0 0.00741 32.67200 112.15694
131.0 0.00763 32.65765 110.36701
147.0 0.00680 32.64335 108.61491
131.0 0.00763 32.62910 106.90078
122.0 0.00820 32.61488 105.22466
143.0 0.00699 32.60072 103.58650
144.0 0.00694 32.58659 101.98613
132.0 0.00758 32.57251 100.42329
155.0 0.00645 32.55848 98.89767
113.0 0.00885 32.54449 97.40887
126.0 0.00794 32.53054 95.95645
108.0 0.00926 32.51664 94.53991
126.0 0.00794 32.50277 93.15871
121.0 0.00826 32.48896 91.81228
111.0 0.00901 32.47518 90.50002
91.0 0.01099 32.46145 89.22126
118.0 0.00847 32.44776 87.97540
119.0 0.00840 32.43411 86.76175
124.0 0.00806 32.42051 86.69407
96.0 0.01042 32.40694 85.56682
124.0 0.00806 32.39342 84.47050
97.0 0.01031 32.37995 83.40444
113.0 0.00885 32.36651 82.36799
114.0 0.00877 32.35312 81.36048
104.0 0.00962 32.33977 80.38125
109.0 0.00917 32.32645 79.42966
101.0 0.00990 32.31318 78.50507
100.0 0.01000 32.29995 77.60685
89.0 0.01124 32.28677 76.73440
99.0 0.01010 32.27362 75.88709
78.0 0.01282 32.26052 75.06434
90.0 0.01111 32.24745 74.26557
77.0 0.01299 32.23443 73.49023
95.0 0.01053 32.22144 72.73775
65.0 0.01538 32.20850 72.00761
80.0 0.01250 32.19559 71.29931
87.0 0.01149 32.18273 70.61233
102.0 0.00980 32.16991 69.94621
69.0 0.01449 32.15712 69.30048
87.0 0.01149 32.14438 68.67471
86.0 0.01163 32.13167 68.06847
94.0 0.01064 32.11901 67.48135
72.0 0.01389 32.10638 66.91300
85.0 0.01176 32.09379 66.36304
60.0 0.01667 32.08124 65.83112
69.0 0.01449 32.06873 65.31696
64.0 0.01563 32.05626 64.82025
72.0 0.01389 32.04383 64.34074
71.0 0.01408 32.03144 63.87819
76.0 0.01316 32.01908 63.43239
75.0 0.01333 32.00676 63.00316
75.0 0.01333 31.99448 62.59038
78.0 0.01282 31.98224 62.19393
76.0 0.01316 31.97004 61.81376
62.0 0.01613 31.95787 61.44985
69.0 0.01449 31.94574 61.10225
60.0 0.01667 31.93365 60.77103
63.0 0.01587 31.92159 60.45639
72.0 0.01389 31.90958 60.15854
73.0 0.01370 31.89760 59.87782
83.0 0.01205 31.88565 59.61464
55.0 0.01818 31.87375 59.36953
52.0 0.01923 31.86188 59.14315
68.0 0.01471 31.85004 58.93629
55.0 0.01818 31.83825 58.74990
66.0 0.01515 31.82648 58.58511
52.0 0.01923 31.81476 58.51697
78.0 0.01282 31.80307 58.40005
58.0 0.01724 31.79142 58.30939
75.0 0.01333 31.77980 58.24702
67.0 0.01493 31.76822 58.21523
61.0 0.01639 31.75667 58.21663
56.0 0.01786 31.74516 58.25411
70.0 0.01429 31.73368 58.33089
63.0 0.01587 31.72224 58.45051
66.0 0.01515 31.71084 58.61681
59.0 0.01695 31.69947 58.83393
57.0 0.01754 31.68813 59.10632
69.0 0.01449 31.67683 59.43867
58.0 0.01724 31.66556 59.83590
66.0 0.01515 31.65433 60.30308
54.0 0.01852 31.64313 60.84541
76.0 0.01316 31.63197 61.46810
63.0 0.01587 31.62083 62.17632
59.0 0.01695 31.60974 62.97509
76.0 0.01316 31.59867 63.86915
46.0 0.02174 31.58764 64.86287
52.0 0.01923 31.57665 65.96007
54.0 0.01852 31.56569 67.16393
64.0 0.01563 31.55476 68.47674
63.0 0.01587 31.54386 69.89980
61.0 0.01639 31.53300 71.43314
66.0 0.01515 31.52217 73.07531
59.0 0.01695 31.51137 74.82305
61.0 0.01639 31.50060 76.67100
76.0 0.01316 31.48987 78.61126
89.0 0.01124 31.47917 80.63298
62.0 0.01613 31.46850 82.72176
81.0 0.01235 31.45787 84.85918
65.0 0.01538 31.44727 87.02216
74.0 0.01351 31.43670 89.18244
71.0 0.01408 31.42615 91.30636
86.0 0.01163 31.41565 93.35473
75.0 0.01333 31.40517 95.28334
90.0 0.01111 31.39472 97.04404
72.0 0.01389 31.38431 98.58663
87.0 0.01149 31.37393 99.86150
66.0 0.01515 31.36357 100.82295
71.0 0.01408 31.35326 101.43262
79.0 0.01266 31.34297 101.66310
81.0 0.01235 31.33271 101.50038
90.0 0.01111 31.32248 100.94542
92.0 0.01087 31.31228 100.01395
88.0 0.01136 31.30211 98.73489
92.0 0.01087 31.29198 97.14764
79.0 0.01266 31.28187 95.29855
97.0 0.01031 31.27179 93.23739
76.0 0.01316 31.26174 91.01413
65.0 0.01538 31.25173 88.67640
94.0 0.01064 31.24174 86.26770
69.0 0.01449 31.23178 83.82638
86.0 0.01163 31.22185 81.38534
77.0 0.01299 31.21195 78.97195
88.0 0.01136 31.20208 76.60855
68.0 0.01471 31.19224 74.31290
72.0 0.01389 31.18243 72.09876
68.0 0.01471 31.17265 69.97647
66.0 0.01515 31.16289 67.95343
69.0 0.01449 31.15317 66.03457
57.0 0.01754 31.14347 64.22277
56.0 0.01786 31.13380 62.51914
67.0 0.01493 31.12416 60.92334
69.0 0.01449 31.11455 59.43382
62.0 0.01613 31.10497 58.04800
75.0 0.01333 31.09541 56.76248
67.0 0.01493 31.08588 55.57322
81.0 0.01235 31.07638 53.69372
60.0 0.01667 31.06691 52.68797
53.0 0.01887 31.05747 51.76373
48.0 0.02083 31.04805 50.91568
58.0 0.01724 31.03866 50.13845
56.0 0.01786 31.02929 49.42671
59.0 0.01695 31.01996 48.77521
51.0 0.01961 31.01065 48.17891
47.0 0.02128 31.00137 47.63298
44.0 0.02273 30.99212 47.13285
66.0 0.01515 30.98289 46.67421
38.0 0.02632 30.97368 46.25308
45.0 0.02222 30.96451 45.86578
35.0 0.02857 30.95536 45.50893
48.0 0.02083 30.94624 45.17949
54.0 0.01852 30.93714 44.87468
67.0 0.01493 30.92807 44.59202
47.0 0.02128 30.91903 44.32929
38.0 0.02632 30.91001 44.55415
43.0 0.02326 30.90101 44.32869
48.0 0.02083 30.89205 44.11793
59.0 0.01695 30.88310 43.92054
57.0 0.01754 30.87419 43.73533
43.0 0.02326 30.86530 43.56127
57.0 0.01754 30.85643 43.39745
51.0 0.01961 30.84759 43.24308
50.0 0.02000 30.83877 43.09747
44.0 0.02273 30.82998 42.96001
42.0 0.02381 30.82121 42.83018
45.0 0.02222 30.81247 42.70752
41.0 0.02439 30.80375 42.59162
57.0 0.01754 30.79506 42.48210
49.0 0.02041 30.78639 42.37867
44.0 0.02273 30.77775 42.28103
39.0 0.02564 30.76913 42.18894
38.0 0.02632 30.76053 42.10217
56.0 0.01786 30.75196 42.02052
35.0 0.02857 30.74341 41.94381
36.0 0.02778 30.73489 41.87188
40.0 0.02500 30.72639 41.80460
42.0 0.02381 30.71791 41.74181
43.0 0.02326 30.70946 41.68342
46.0 0.02174 30.70103 41.62931
46.0 0.02174 30.69262 41.57938
46.0 0.02174 30.68423 41.53357
45.0 0.02222 30.67587 41.49176
43.0 0.02326 30.66753 41.45393
59.0 0.01695 30.65922 41.41999
38.0 0.02632 30.65092 41.38990
56.0 0.01786 30.64265 41.36359
40.0 0.02500 30.63441 41.34106
35.0 0.02857 30.62618 47.24976
43.0 0.02326 30.61798 47.33155
47.0 0.02128 30.60979 47.41938
42.0 0.02381 30.60164 47.51332
37.0 0.02703 30.59350 47.61344
34.0 0.02941 30.58538 47.71979
33.0 0.03030 30.57729 47.83248
45.0 0.02222 30.56922 47.95160
47.0 0.02128 30.56117 48.07723
38.0 0.02632 30.55314 48.20949
58.0 0.01724 30.54514 48.34850
47.0 0.02128 30.53715 48.49436
37.0 0.02703 30.52918 48.64722
49.0 0.02041 30.52124 48.80720
47.0 0.02128 30.51332 48.97446
44.0 0.02273 30.50542 49.14915
42.0 0.02381 30.49754 49.33143
43.0 0.02326 30.48968 49.52147
40.0 0.02500 30.48184 49.71946
43.0 0.02326 30.47402 49.92556
46.0 0.02174 30.46622 50.14000
47.0 0.02128 30.45844 50.36296
48.0 0.02083 30.45069 50.59465
54.0 0.01852 30.44295 50.83532
44.0 0.02273 30.43523 51.08519
38.0 0.02632 30.42753 51.34450
40.0 0.02500 30.41986 51.61351
48.0 0.02083 30.41220 51.89248
42.0 0.02381 30.40456 52.18168
45.0 0.02222 30.39694 52.48141
30.0 0.03333 30.38934 52.79195
61.0 0.01639 30.38176 53.11363
51.0 0.01961 30.37420 53.44675
38.0 0.02632 30.36666 53.79166
43.0 0.02326 30.35914 54.14871
41.0 0.02439 30.35164 54.51825
55.0 0.01818 30.34415 54.90067
55.0 0.01818 30.33669 55.29635
58.0 0.01724 30.32924 55.70570
44.0 0.02273 30.32181 56.12917
40.0 0.02500 30.31440 56.56720
34.0 0.02941 30.30701 57.02024
45.0 0.02222 30.29964 57.48880
33.0 0.03030 30.29229 57.97339
45.0 0.02222 30.28495 58.47455
48.0 0.02083 30.27763 58.99288
40.0 0.02500 30.27033 59.52895
48.0 0.02083 30.26305 60.08343
56.0 0.01786 30.25579 60.65702
41.0 0.02439 30.24854 61.25044
55.0 0.01818 30.24131 61.86449
59.0 0.01695 30.23410 62.50004
44.0 0.02273 30.22691 63.15799
56.0 0.01786 30.21973 63.83938
54.0 0.01852 30.21257 64.54529
51.0 0.01961 30.20543 65.27691
55.0 0.01818 30.19831 66.03558
64.0 0.01563 30.19120 66.82275
64.0 0.01563 30.18411 67.63999
52.0 0.01923 30.17704 68.48912
52.0 0.01923 30.16998 69.37204
51.0 0.01961 30.16294 70.29095
54.0 0.01852 30.15592 71.24823
53.0 0.01887 30.14891 72.24653
55.0 0.01818 30.14192 73.28880
64.0 0.01563 30.13494 74.37829
62.0 0.01613 30.12799 75.51859
67.0 0.01493 30.12104 76.71366
70.0 0.01429 30.11412 77.96784
63.0 0.01587 30.10721 79.28592
68.0 0.01471 30.10031 80.67316
83.0 0.01205 30.09344 82.13525
71.0 0.01408 30.08657 80.75996
66.0 0.01515 30.07973 82.40985
54.0 0.01852 30.07290 84.15466
76.0 0.01316 30.06608 86.00220
83.0 0.01205 30.05928 87.96088
78.0 0.01282 30.05250 90.03961
73.0 0.01370 30.04572 92.24786
78.0 0.01282 30.03897 94.59565
76.0 0.01316 30.03223 97.09345
65.0 0.01538 30.02551 99.75220
86.0 0.01163 30.01880 102.58324
104.0 0.00962 30.01210 105.59826
100.0 0.01000 30.00542 108.80920
102.0 0.00980 29.99876 112.22814
109.0 0.00917 29.99211 115.86732
111.0 0.00901 29.98547 119.73884
118.0 0.00847 29.97885 123.85469
118.0 0.00847 29.97224 128.22650
112.0 0.00893 29.96564 132.86543
113.0 0.00885 29.95907 137.78198
120.0 0.00833 29.95250 142.98572
124.0 0.00806 29.94595 148.48524
152.0 0.00658 29.93941 154.28766
158.0 0.00633 29.93289 160.39851
168.0 0.00595 29.92638 166.82141
166.0 0.00602 29.91988 173.55754
180.0 0.00556 29.91340 180.60538
203.0 0.00493 29.90693 187.96013
208.0 0.00481 29.90047 195.61322
212.0 0.00472 29.89403 203.55150
228.0 0.00439 29.88760 211.75670
221.0 0.00452 29.88119 220.20441
240.0 0.00417 29.87478 228.86331
263.0 0.00380 29.86839 237.69412
268.0 0.00373 29.86202 246.64874
233.0 0.00429 29.85565 255.66904
297.0 0.003367 29.84930 264.68634
261.0 0.00383 29.84296 273.62064
314.0 0.003185 29.83664 282.38055
323.0 0.003096 29.83032 290.86365
285.0 0.00351 29.82402 298.95764
322.0 0.003106 29.81773 306.54218
315.0 0.003175 29.81146 313.49213
325.0 0.003077 29.80519 319.68127
363.0 0.002755 29.79894 324.98724
352.0 0.002841 29.79270 329.29709
346.0 0.002890 29.78648 332.51291
357.0 0.002801 29.78026 334.55731
357.0 0.002801 29.77406 335.37805
339.0 0.002950 29.76786 334.95135
349.0 0.002865 29.76168 333.28339
318.0 0.003145 29.75551 330.41000
333.0 0.003003 29.74936 326.39432
336.0 0.002976 29.74321 321.32300
314.0 0.003185 29.73708 315.30112
291.0 0.003436 29.73095 308.44659
305.0 0.003279 29.72484 300.88449
296.0 0.003378 29.71874 292.74185
280.0 0.00357 29.71265 284.14294
297.0 0.003367 29.70657 275.20587
235.0 0.00426 29.70050 266.03995
266.0 0.00376 29.69445 256.74405
216.0 0.00463 29.68840 247.40575
223.0 0.00448 29.68237 238.10127
236.0 0.00424 29.67634 228.89580
203.0 0.00493 29.67033 219.84415
210.0 0.00476 29.66433 210.99158
192.0 0.00521 29.65833 202.37491
175.0 0.00571 29.65235 194.02330
160.0 0.00625 29.64638 185.95943
150.0 0.00667 29.64042 178.20016
154.0 0.00649 29.63447 170.75746
151.0 0.00662 29.62852 163.81734
141.0 0.00709 29.62259 157.02954
114.0 0.00877 29.61667 150.57112
95.0 0.01053 29.61076 144.44041
139.0 0.00719 29.60486 138.63353
89.0 0.01124 29.59896 133.14468
98.0 0.01020 29.59308 127.96645
82.0 0.01220 29.58721 123.09016
77.0 0.01299 29.58134 118.50595
74.0 0.01351 29.57549 114.20320
96.0 0.01042 29.56964 110.17051
75.0 0.01333 29.56381 106.39602
90.0 0.01111 29.55798 102.86749
82.0 0.01220 29.55217 99.57247
68.0 0.01471 29.54636 96.49842
83.0 0.01205 29.54056 93.63285
72.0 0.01389 29.53477 90.96338
68.0 0.01471 29.52899 88.47784
73.0 0.01370 29.52322 86.16438
63.0 0.01587 29.51745 84.01149
59.0 0.01695 29.51170 82.00809
59.0 0.01695 29.50595 80.14358
66.0 0.01515 29.50021 78.40779
72.0 0.01389 29.49449 76.79115
64.0 0.01563 29.48876 75.28456
60.0 0.01667 29.48305 73.87952
73.0 0.01370 29.47735 72.56802
74.0 0.01351 29.47165 71.34264
59.0 0.01695 29.46596 70.19647
51.0 0.01961 29.46028 69.12313
57.0 0.01754 29.45461 68.11673
63.0 0.01587 29.44895 67.17185
63.0 0.01587 29.44329 66.28355
56.0 0.01786 29.43764 65.44731
54.0 0.01852 29.43200 64.65903
57.0 0.01754 29.42637 63.91497
57.0 0.01754 29.42075 63.21174
69.0 0.01449 29.41513 62.54632
58.0 0.01724 29.40952 61.91595
64.0 0.01563 29.40392 61.31816
55.0 0.01818 29.39832 60.75074
56.0 0.01786 29.39273 60.21172
51.0 0.01961 29.38715 59.86835
60.0 0.01667 29.38158 59.38200
48.0 0.02083 29.37601 58.91930
50.0 0.02000 29.37045 58.47897
59.0 0.01695 29.36490 58.05992
54.0 0.01852 29.35936 57.66113
60.0 0.01667 29.35382 57.28174
51.0 0.01961 29.34829 56.92095
50.0 0.02000 29.34276 56.57805
59.0 0.01695 29.33724 56.25243
48.0 0.02083 29.33173 55.94354
59.0 0.01695 29.32623 55.65085
39.0 0.02564 29.32073 55.37395
42.0 0.02381 29.31523 55.11240
59.0 0.01695 29.30975 54.86588
52.0 0.01923 29.30427 54.63403
56.0 0.01786 29.29880 54.41657
47.0 0.02128 29.29333 54.21322
55.0 0.01818 29.28787 54.02374
58.0 0.01724 29.28241 53.84790
54.0 0.01852 29.27696 53.68548
52.0 0.01923 29.27152 53.53629
51.0 0.01961 29.26608 53.40015
40.0 0.02500 29.26065 53.27688
62.0 0.01613 29.25522 53.16632
40.0 0.02500 29.24980 53.06831
44.0 0.02273 29.24439 52.98271
57.0 0.01754 29.23898 52.90936
69.0 0.01449 29.23358 52.84814
52.0 0.01923 29.22818 52.79888
59.0 0.01695 29.22279 52.76146
70.0 0.01429 29.21740 52.73574
65.0 0.01538 29.21202 52.72158
64.0 0.01563 29.20664 52.71885
53.0 0.01887 29.20127 52.72740
56.0 0.01786 29.19590 52.74707
67.0 0.01493 29.19054 52.77773
58.0 0.01724 29.18518 52.81921
58.0 0.01724 29.17983 52.87133
58.0 0.01724 29.17448 52.93394
47.0 0.02128 29.16914 53.00684
67.0 0.01493 29.16381 53.08982
67.0 0.01493 29.15847 53.18268
72.0 0.01389 29.15314 53.28519
68.0 0.01471 29.14782 53.39713
69.0 0.01449 29.14250 53.51822
72.0 0.01389 29.13719 53.64816
71.0 0.01408 29.13188 53.78669
61.0 0.01639 29.12657 53.93346
75.0 0.01333 29.12127 54.08813
71.0 0.01408 29.11597 54.25033
58.0 0.01724 29.11068 54.41966
53.0 0.01887 29.10539 54.59570
51.0 0.01961 29.10011 54.77800
66.0 0.01515 29.09483 54.96606
55.0 0.01818 29.08955 55.15939
84.0 0.01190 29.08428 55.35743
59.0 0.01695 29.07901 55.55962
63.0 0.01587 29.07374 55.76536
66.0 0.01515 29.06848 55.97401
82.0 0.01220 29.06322 56.18495
61.0 0.01639 29.05797 56.39748
67.0 0.01493 29.05272 56.61091
75.0 0.01333 29.04747 56.82452
73.0 0.01370 29.04223 57.03758
73.0 0.01370 29.03699 57.24937
55.0 0.01818 29.03175 57.45913
64.0 0.01563 29.02652 57.66613
71.0 0.01408 29.02129 57.86962
79.0 0.01266 29.01606 58.06890
70.0 0.01429 29.01084 58.26326
66.0 0.01515 29.00562 58.45203
60.0 0.01667 29.00040 58.63457
72.0 0.01389 28.99519 58.81028
63.0 0.01587 28.98998 58.97863
78.0 0.01282 28.98477 59.13911
77.0 0.01299 28.97956 59.29129
54.0 0.01852 28.97436 59.43481
65.0 0.01538 28.96916 59.56936
68.0 0.01471 28.96396 59.69473
68.0 0.01471 28.95877 59.81075
73.0 0.01370 28.95358 59.91735
69.0 0.01449 28.94839 60.01454
74.0 0.01351 28.94320 60.10234
64.0 0.01563 28.93801 60.18090
70.0 0.01429 28.93283 60.25038
78.0 0.01282 28.92765 60.31101
74.0 0.01351 28.92247 60.36302
73.0 0.01370 28.91730 60.40670
73.0 0.01370 28.91212 60.44230
74.0 0.01351 28.90695 60.47006
81.0 0.01235 28.90178 60.49020
86.0 0.01163 28.89662 60.50286
66.0 0.01515 28.89145 60.50809
77.0 0.01299 28.88629 60.50585
77.0 0.01299 28.88113 60.49594
64.0 0.01563 28.87597 60.47802
64.0 0.01563 28.87081 60.45155
73.0 0.01370 28.86566 60.41580
67.0 0.01493 28.86050 60.36984
81.0 0.01235 28.85535 60.31249
77.0 0.01299 28.85020 60.24237
66.0 0.01515 28.84505 60.15790
65.0 0.01538 28.83990 60.05731
65.0 0.01538 28.83476 59.93871
68.0 0.01471 28.82961 59.80014
67.0 0.01493 28.82447 59.63957
70.0 0.01429 28.81933 59.45511
75.0 0.01333 28.81419 59.24499
64.0 0.01563 28.80905 59.00768
70.0 0.01429 28.80391 58.74199
53.0 0.01887 28.79877 58.44715
67.0 0.01493 28.79364 58.12286
84.0 0.01190 28.78850 57.76929
66.0 0.01515 28.78337 57.38716
63.0 0.01587 28.77823 56.97770
66.0 0.01515 28.77310 56.54258
67.0 0.01493 28.76797 56.08392
46.0 0.02174 28.76284 55.60412
58.0 0.01724 28.75771 55.10589
72.0 0.01389 28.75258 54.59205
58.0 0.01724 28.74746 54.36848
68.0 0.01471 28.74233 53.83598
68.0 0.01471 28.73720 53.29658
79.0 0.01266 28.73207 52.75298
65.0 0.01538 28.72695 52.20768
55.0 0.01818 28.72182 51.66300
48.0 0.02083 28.71670 51.12104
62.0 0.01613 28.71158 50.58366
68.0 0.01471 28.70645 50.05251
52.0 0.01923 28.70133 49.52899
58.0 0.01724 28.69621 49.01431
49.0 0.02041 28.69108 48.50950
56.0 0.01786 28.68596 48.01540
57.0 0.01754 28.68084 47.53268
53.0 0.01887 28.67572 47.06192
65.0 0.01538 28.67059 46.60348
57.0 0.01754 28.66547 46.15770
50.0 0.02000 28.66035 45.72479
47.0 0.02128 28.65523 45.30485
47.0 0.02128 28.65010 44.89794
54.0 0.01852 28.64498 44.50404
52.0 0.01923 28.63986 44.12307
39.0 0.02564 28.63474 43.75492
47.0 0.02128 28.62961 43.39942
57.0 0.01754 28.62449 43.05637
40.0 0.02500 28.61936 42.72556
45.0 0.02222 28.61424 42.40672
49.0 0.02041 28.60911 42.09957
44.0 0.02273 28.60399 41.80382
47.0 0.02128 28.59886 41.51918
45.0 0.02222 28.59374 41.24532
48.0 0.02083 28.58861 40.98191
43.0 0.02326 28.58348 40.72862
49.0 0.02041 28.57835 40.48513
43.0 0.02326 28.57323 40.25108
50.0 0.02000 28.56809 40.02615
37.0 0.02703 28.56297 39.81001
48.0 0.02083 28.55783 39.60231
39.0 0.02564 28.55270 39.40274
40.0 0.02500 28.54757 39.21099
27.0 0.0370 28.54243 39.02673
37.0 0.02703 28.53730 38.84969
40.0 0.02500 28.53216 38.67954
36.0 0.02778 28.52703 38.51602
34.0 0.02941 28.52189 38.35885
28.0 0.0357 28.51675 38.20778
48.0 0.02083 28.51161 38.06255
42.0 0.02381 28.50647 37.92293
39.0 0.02564 28.50132 37.78868
30.0 0.03333 28.49618 37.65961
32.0 0.03125 28.49103 37.53548
40.0 0.02500 28.48589 37.41612
34.0 0.02941 28.48074 37.30135
33.0 0.03030 28.47559 37.19099
35.0 0.02857 28.47044 37.08487
41.0 0.02439 28.46529 36.98288
31.0 0.03226 28.46013 36.88482
41.0 0.02439 28.45498 36.79062
33.0 0.03030 28.44982 36.70011
29.0 0.03448 28.44466 36.61321
44.0 0.02273 28.43950 36.52980
40.0 0.02500 28.43434 36.44979
30.0 0.03333 28.42917 36.37309
38.0 0.02632 28.42401 36.29963
30.0 0.03333 28.41884 36.22933
31.0 0.03226 28.41367 36.16212
24.0 0.0417 28.40850 36.09795
43.0 0.02326 28.40333 36.03677
32.0 0.03125 28.39815 35.97854
41.0 0.02439 28.39297 35.92321
33.0 0.03030 28.38780 35.87075
41.0 0.02439 28.38261 35.82115
31.0 0.03226 28.37743 35.77438
32.0 0.03125 28.37225 35.73044
26.0 0.0385 28.36706 35.68931
29.0 0.03448 28.36187 35.65099
36.0 0.02778 28.35668 35.61550
29.0 0.03448 28.35148 35.58284
38.0 0.02632 28.34629 35.55305
33.0 0.03030 28.34109 35.52615
27.0 0.0370 28.33589 35.11174
45.0 0.02222 28.33068 35.09316
39.0 0.02564 28.32548 35.07757
30.0 0.03333 28.32027 35.06502
36.0 0.02778 28.31506 35.05559
28.0 0.0357 28.30984 35.04935
42.0 0.02381 28.30463 35.04637
35.0 0.02857 28.29941 35.04675
34.0 0.02941 28.29419 35.05060
36.0 0.02778 28.28897 35.05801
44.0 0.02273 28.28374 35.06910
31.0 0.03226 28.27851 35.08399
46.0 0.02174 28.27328 35.10284
39.0 0.02564 28.26805 35.12576
29.0 0.03448 28.26281 35.15292
39.0 0.02564 28.25757 35.18449
26.0 0.0385 28.25233 35.22062
36.0 0.02778 28.24708 35.26151
41.0 0.02439 28.24183 35.30733
30.0 0.03333 28.23658 35.35830
41.0 0.02439 28.23133 35.41461
30.0 0.03333 28.22607 35.55689
31.0 0.03226 28.22081 35.62502
36.0 0.02778 28.21554 35.69916
41.0 0.02439 28.21028 35.77953
41.0 0.02439 28.20501 35.86639
29.0 0.03448 28.19974 35.95997
29.0 0.03448 28.19446 36.06051
35.0 0.02857 28.18918 36.16828
38.0 0.02632 28.18390 36.28350
37.0 0.02703 28.17861 36.40644
39.0 0.02564 28.17332 36.53733
51.0 0.01961 28.16803 36.67643
40.0 0.02500 28.16273 36.82397
40.0 0.02500 28.15744 36.98019
34.0 0.02941 28.15213 37.14530
48.0 0.02083 28.14683 37.31951
46.0 0.02174 28.14152 37.50304
42.0 0.02381 28.13621 37.69606
40.0 0.02500 28.13089 37.89873
42.0 0.02381 28.12557 38.11121
31.0 0.03226 28.12025 38.33360
40.0 0.02500 28.11492 38.56599
41.0 0.02439 28.10959 38.80846
40.0 0.02500 28.10426 39.06098
38.0 0.02632 28.09892 39.32356
46.0 0.02174 28.09358 39.59611
45.0 0.02222 28.08823 39.87849
44.0 0.02273 28.08288 40.17050
45.0 0.02222 28.07753 40.47187
47.0 0.02128 28.07217 40.78223
50.0 0.02000 28.06681 41.10114
42.0 0.02381 28.06145 41.42804
55.0 0.01818 28.05608 41.76225
37.0 0.02703 28.05071 42.10299
41.0 0.02439 28.04533 44.53994
50.0 0.02000 28.03995 44.91450
44.0 0.02273 28.03457 45.29267
37.0 0.02703 28.02918 45.67305
40.0 0.02500 28.02379 46.05402
50.0 0.02000 28.01839 46.43383
67.0 0.01493 28.01299 46.81049
61.0 0.01639 28.00759 47.18188
38.0 0.02632 28.00218 47.54572
52.0 0.01923 27.99677 47.89959
57.0 0.01754 27.99135 48.24097
39.0 0.02564 27.98594 48.56729
48.0 0.02083 27.98051 48.87598
45.0 0.02222 27.97508 49.16450
58.0 0.01724 27.96965 49.43045
55.0 0.01818 27.96421 49.67160
36.0 0.02778 27.95877 49.88599
49.0 0.02041 27.95332 50.07193
49.0 0.02041 27.94787 50.22818
47.0 0.02128 27.94242 50.35386
48.0 0.02083 27.93696 50.44856
50.0 0.02000 27.93150 50.51236
48.0 0.02083 27.92603 50.54576
62.0 0.01613 27.92056 50.54976
41.0 0.02439 27.91508 50.52573
52.0 0.01923 27.90960 50.47540
59.0 0.01695 27.90411 50.40083
46.0 0.02174 27.89862 50.30428
52.0 0.01923 27.89313 50.18820
55.0 0.01818 27.88763 50.05511
60.0 0.01667 27.88212 49.90759
45.0 0.02222 27.87661 49.74817
48.0 0.02083 27.87110 49.57934
47.0 0.02128 27.86558 49.40341
46.0 0.02174 27.86006 49.22261
48.0 0.02083 27.85453 49.03897
54.0 0.01852 27.84900 48.99755
56.0 0.01786 27.84346 48.81444
48.0 0.02083 27.83792 48.56006
39.0 0.02564 27.83237 48.38299
46.0 0.02174 27.82682 48.21044
38.0 0.02632 27.82127 48.04332
47.0 0.02128 27.81570 47.88239
55.0 0.01818 27.81014 47.72827
49.0 0.02041 27.80457 47.58141
44.0 0.02273 27.79899 47.44217
59.0 0.01695 27.79341 47.31078
54.0 0.01852 27.78783 47.18736
39.0 0.02564 27.78223 47.07195
57.0 0.01754 27.77664 46.96452
57.0 0.01754 27.77104 46.86491
44.0 0.02273 27.76543 46.77297
50.0 0.02000 27.75982 46.68847
41.0 0.02439 27.75421 46.61111
54.0 0.01852 27.74859 46.54057
56.0 0.01786 27.74296 46.47651
55.0 0.01818 27.73733 46.41853
59.0 0.01695 27.73169 46.36625
54.0 0.01852 27.72605 46.31924
47.0 0.02128 27.72041 46.27710
46.0 0.02174 27.71475 46.23941
48.0 0.02083 27.70910 46.20574
43.0 0.02326 27.70344 46.17570
51.0 0.01961 27.69777 46.14891
35.0 0.02857 27.69210 46.12497
48.0 0.02083 27.68642 46.10356
47.0 0.02128 27.68074 46.08436
56.0 0.01786 27.67505 46.06707
45.0 0.02222 27.66935 46.05146
60.0 0.01667 27.66366 46.03730
47.0 0.02128 27.65795 46.02444
53.0 0.01887 27.65224 46.01273
54.0 0.01852 27.64653 46.00209
55.0 0.01818 27.64080 45.99250
45.0 0.02222 27.63508 45.98392
51.0 0.01961 27.62935 45.97645
49.0 0.02041 27.62361 45.97015
44.0 0.02273 27.61787 45.96517
52.0 0.01923 27.61212 45.96169
48.0 0.02083 27.60637 45.95993
49.0 0.02041 27.60061 45.96015
43.0 0.02326 27.59485 45.96266
49.0 0.02041 27.58908 45.96779
45.0 0.02222 27.58330 45.97592
44.0 0.02273 27.57752 45.98745
51.0 0.01961 27.57173 46.00281
46.0 0.02174 27.56594 46.02248
41.0 0.02439 27.56014 46.04695
48.0 0.02083 27.55434 46.07673
55.0 0.01818 27.54853 46.11239
35.0 0.02857 27.54272 46.15448
40.0 0.02500 27.53690 46.20359
58.0 0.01724 27.53107 46.26038
52.0 0.01923 27.52524 46.32544
51.0 0.01961 27.51940 46.39946
40.0 0.02500 27.51356 46.48313
50.0 0.02000 27.50771 46.57715
45.0 0.02222 27.50186 46.68227
56.0 0.01786 27.49599 46.79922
45.0 0.02222 27.49013 46.92881
42.0 0.02381 27.48426 47.07185
42.0 0.02381 27.47838 47.22916
42.0 0.02381 27.47250 47.40160
50.0 0.02000 27.46661 47.59008
65.0 0.01538 27.46071 47.79550
51.0 0.01961 27.45481 48.60378
54.0 0.01852 27.44891 48.84948
37.0 0.02703 27.44299 49.11509
49.0 0.02041 27.43707 49.40163
57.0 0.01754 27.43115 49.71019
34.0 0.02941 27.42522 50.04186
52.0 0.01923 27.41928 50.39774
60.0 0.01667 27.41334 50.77901
46.0 0.02174 27.40739 51.18683
64.0 0.01563 27.40144 51.62241
54.0 0.01852 27.39548 52.08696
62.0 0.01613 27.38951 52.58175
45.0 0.02222 27.38354 53.10802
50.0 0.02000 27.37756 53.66706
64.0 0.01563 27.37158 54.26016
48.0 0.02083 27.36559 54.88862
48.0 0.02083 27.35959 55.55375
60.0 0.01667 27.35359 56.25683
49.0 0.02041 27.34758 56.99916
57.0 0.01754 27.34157 57.78203
58.0 0.01724 27.33555 58.60670
52.0 0.01923 27.32952 58.50713
48.0 0.02083 27.32349 59.42448
68.0 0.01471 27.31745 60.38719
55.0 0.01818 27.31141 61.39637
49.0 0.02041 27.30536 62.45308
59.0 0.01695 27.29930 63.55830
55.0 0.01818 27.29323 64.71294
45.0 0.02222 27.28716 65.91780
59.0 0.01695 27.28109 67.17361
66.0 0.01515 27.27501 68.48095
51.0 0.01961 27.26892 69.84026
64.0 0.01563 27.26283 71.25182
82.0 0.01220 27.25673 72.71575
72.0 0.01389 27.25062 74.23198
76.0 0.01316 27.24451 75.80019
52.0 0.01923 27.23839 77.41981
71.0 0.01408 27.23226 79.08998
69.0 0.01449 27.22613 80.80956
66.0 0.01515 27.22000 82.57698
72.0 0.01389 27.21385 84.39036
67.0 0.01493 27.20770 86.24731
66.0 0.01515 27.20155 88.14497
69.0 0.01449 27.19538 90.07994
72.0 0.01389 27.18921 92.04823
68.0 0.01471 27.18304 94.04515
73.0 0.01370 27.17686 96.06541
71.0 0.01408 27.17067 98.10284
51.0 0.01961 27.16448 100.15057
77.0 0.01299 27.15828 102.20082
75.0 0.01333 27.15207 104.24496
95.0 0.01053 27.14586 106.27346
70.0 0.01429 27.13964 108.27597
76.0 0.01316 27.13341 110.24118
103.0 0.00971 27.12718 112.15707
78.0 0.01282 27.12094 114.01086
99.0 0.01010 27.11470 115.78923
94.0 0.01064 27.10845 117.47835
77.0 0.01299 27.10219 119.06424
88.0 0.01136 27.09592 120.53288
76.0 0.01316 27.08965 121.87052
99.0 0.01010 27.08338 123.06397
94.0 0.01064 27.07710 124.10088
87.0 0.01149 27.07080 124.97008
91.0 0.01099 27.06451 125.66183
85.0 0.01176 27.05821 126.16817
81.0 0.01235 27.05190 126.48307
106.0 0.00943 27.04558 126.60266
92.0 0.01087 27.03926 126.52533
112.0 0.00893 27.03293 126.25178
85.0 0.01176 27.02660 125.78503
97.0 0.01031 27.02026 125.13028
88.0 0.01136 27.01391 124.29476
78.0 0.01282 27.00756 123.28756
89.0 0.01124 27.00120 122.11932
82.0 0.01220 26.99483 120.80193
84.0 0.01190 26.98846 119.34827
101.0 0.00990 26.98208 117.77193
97.0 0.01031 26.97569 116.08682
96.0 0.01042 26.96930 114.30693
92.0 0.01087 26.96290 112.44618
95.0 0.01053 26.95650 110.51803
92.0 0.01087 26.95008 108.53550
108.0 0.00926 26.94366 106.51088
98.0 0.01020 26.93724 104.45570
73.0 0.01370 26.93081 102.38068
85.0 0.01176 26.92437 100.29566
93.0 0.01075 26.91793 98.20956
65.0 0.01538 26.91147 96.13044
90.0 0.01111 26.90502 94.06552
90.0 0.01111 26.89855 92.02118
79.0 0.01266 26.89208 90.00303
71.0 0.01408 26.88560 88.01595
92.0 0.01087 26.87912 86.06416
88.0 0.01136 26.87263 84.15126
86.0 0.01163 26.86613 82.28030
71.0 0.01408 26.85963 80.45376
71.0 0.01408 26.85312 78.67374
82.0 0.01220 26.84661 76.94190
85.0 0.01176 26.84008 75.25950
76.0 0.01316 26.83355 73.62747
60.0 0.01667 26.82702 72.04649
59.0 0.01695 26.82047 70.51691
90.0 0.01111 26.81392 69.03889
67.0 0.01493 26.80737 67.61237
77.0 0.01299 26.80081 66.23710
60.0 0.01667 26.79424 64.91267
62.0 0.01613 26.78766 63.63854
69.0 0.01449 26.78108 62.41401
69.0 0.01449 26.77449 61.23829
59.0 0.01695 26.76790 60.11050
81.0 0.01235 26.76130 59.02966
64.0 0.01563 26.75469 57.99473
62.0 0.01613 26.74807 57.00460
62.0 0.01613 26.74145 56.05812
60.0 0.01667 26.73483 55.15408
73.0 0.01370 26.72819 54.29124
48.0 0.02083 26.72155 53.46836
46.0 0.02174 26.71490 52.68414
53.0 0.01887 26.70825 51.93730
54.0 0.01852 26.70159 51.22655
56.0 0.01786 26.69492 50.55058
74.0 0.01351 26.68825 49.90810
58.0 0.01724 26.68157 49.29782
56.0 0.01786 26.67488 48.71849
48.0 0.02083 26.66819 48.16885
50.0 0.02000 26.66149 47.64767
73.0 0.01370 26.65478 47.15374
53.0 0.01887 26.64807 46.68589
65.0 0.01538 26.64135 46.24297
54.0 0.01852 26.63462 45.82386
51.0 0.01961 26.62789 45.42748
59.0 0.01695 26.62115 45.05279
64.0 0.01563 26.61440 44.69877
46.0 0.02174 26.60765 44.42542
57.0 0.01754 26.60089 44.11020
51.0 0.01961 26.59412 43.81286
55.0 0.01818 26.58735 43.53251
51.0 0.01961 26.58057 43.26833
58.0 0.01724 26.57379 43.01951
36.0 0.02778 26.56700 42.78534
50.0 0.02000 26.56020 42.56506
50.0 0.02000 26.55339 42.35801
53.0 0.01887 26.54658 42.16353
44.0 0.02273 26.53976 41.98100
58.0 0.01724 26.53294 41.80983
50.0 0.02000 26.52611 41.64947
47.0 0.02128 26.51927 41.49939
33.0 0.03030 26.51242 41.35907
50.0 0.02000 26.50558 41.22804
40.0 0.02500 26.49872 41.10585
44.0 0.02273 26.49185 40.99207
54.0 0.01852 26.48498 40.88627
47.0 0.02128 26.47811 40.78807
49.0 0.02041 26.47122 40.69709
47.0 0.02128 26.46433 40.61299
40.0 0.02500 26.45744 40.53541
51.0 0.01961 26.45053 40.46401
41.0 0.02439 26.44362 40.39849
36.0 0.02778 26.43671 41.34340
46.0 0.02174 26.42978 41.29900
39.0 0.02564 26.42286 41.25975
49.0 0.02041 26.41592 41.22538
44.0 0.02273 26.40898 41.19562
45.0 0.02222 26.40203 41.17022
42.0 0.02381 26.39507 41.14892
52.0 0.01923 26.38811 41.13149
43.0 0.02326 26.38115 41.11769
44.0 0.02273 26.37417 41.10728
44.0 0.02273 26.36719 41.10006
50.0 0.02000 26.36020 41.09581
36.0 0.02778 26.35321 41.09430
48.0 0.02083 26.34621 41.09534
36.0 0.02778 26.33920 41.09875
44.0 0.02273 26.33219 41.10434
61.0 0.01639 26.32517 41.11192
40.0 0.02500 26.31815 41.12133
46.0 0.02174 26.31111 41.13243
48.0 0.02083 26.30407 41.14505
58.0 0.01724 26.29703 41.15907
32.0 0.03125 26.28998 41.17437
52.0 0.01923 26.28292 41.19085
39.0 0.02564 26.27585 41.20839
47.0 0.02128 26.26878 41.22692
56.0 0.01786 26.26171 41.24638
36.0 0.02778 26.25462 41.26674
63.0 0.01587 26.24753 41.28792
45.0 0.02222 26.24043 41.30992
38.0 0.02632 26.23333 41.33275
44.0 0.02273 26.22622 41.35639
52.0 0.01923 26.21911 41.38089
54.0 0.01852 26.21198 41.40628
45.0 0.02222 26.20486 41.43262
43.0 0.02326 26.19772 41.45995
43.0 0.02326 26.19058 41.48838
45.0 0.02222 26.18343 41.51798
48.0 0.02083 26.17628 41.54886
35.0 0.02857 26.16912 41.58111
48.0 0.02083 26.16195 41.61487
41.0 0.02439 26.15478 41.65026
54.0 0.01852 26.14760 41.68740
47.0 0.02128 26.14042 41.72642
37.0 0.02703 26.13322 41.76748
44.0 0.02273 26.12603 41.81069
45.0 0.02222 26.11882 41.85622
44.0 0.02273 26.11161 41.90419
38.0 0.02632 26.10439 41.95475
46.0 0.02174 26.09717 42.00803
44.0 0.02273 26.08994 42.06416
49.0 0.02041 26.08271 42.12329
42.0 0.02381 26.07546 42.18554
39.0 0.02564 26.06822 42.25103
52.0 0.01923 26.06096 42.31985
37.0 0.02703 26.05370 42.39213
54.0 0.01852 26.04644 42.46798
50.0 0.02000 26.03916 42.54747
37.0 0.02703 26.03188 42.63069
37.0 0.02703 26.02460 42.71772
47.0 0.02128 26.01731 42.80864
52.0 0.01923 26.01001 42.90347
43.0 0.02326 26.00270 43.00229
44.0 0.02273 25.99540 43.10513
54.0 0.01852 25.98808 43.21202
50.0 0.02000 25.98076 43.32296
53.0 0.01887 25.97343 43.43797
44.0 0.02273 25.96609 43.55706
50.0 0.02000 25.95875 43.68020
50.0 0.02000 25.95141 43.80737
42.0 0.02381 25.94405 43.93855
51.0 0.01961 25.93670 44.07370
44.0 0.02273 25.92933 44.21274
46.0 0.02174 25.92196 44.35564
50.0 0.02000 25.91458 44.50232
49.0 0.02041 25.90720 44.65272
54.0 0.01852 25.89981 44.80674
41.0 0.02439 25.89241 44.96430
55.0 0.01818 25.88501 45.12531
54.0 0.01852 25.87761 45.28966
45.0 0.02222 25.87019 45.45726
39.0 0.02564 25.86277 45.62799
61.0 0.01639 25.85535 45.80177
47.0 0.02128 25.84792 45.97848
60.0 0.01667 25.84048 46.15804
51.0 0.01961 25.83304 46.34032
37.0 0.02703 25.82559 46.52526
48.0 0.02083 25.81813 46.71277
54.0 0.01852 25.81067 46.90277
46.0 0.02174 25.80320 47.09522
54.0 0.01852 25.79573 47.29005
48.0 0.02083 25.78825 47.48724
64.0 0.01563 25.78077 47.68677
60.0 0.01667 25.77328 47.88865
57.0 0.01754 25.76578 48.09291
63.0 0.01587 25.75828 48.29957
72.0 0.01389 25.75077 48.50872
42.0 0.02381 25.74326 48.72045
54.0 0.01852 25.73574 48.93488
58.0 0.01724 25.72821 49.15215
50.0 0.02000 25.72068 49.37241
52.0 0.01923 25.71314 49.59589
46.0 0.02174 25.70560 49.82277
61.0 0.01639 25.69805 50.05334
54.0 0.01852 25.69049 50.28785
61.0 0.01639 25.68293 50.52657
64.0 0.01563 25.67537 50.76984
58.0 0.01724 25.66780 51.01801
61.0 0.01639 25.66022 51.27141
55.0 0.01818 25.65264 51.53043
58.0 0.01724 25.64505 51.79545
57.0 0.01754 25.63745 52.06689
47.0 0.02128 25.62985 52.34516
54.0 0.01852 25.62225 52.63068
61.0 0.01639 25.61463 54.20668
47.0 0.02128 25.60702 54.51993
47.0 0.02128 25.59939 54.84192
50.0 0.02000 25.59176 55.17310
58.0 0.01724 25.58413 55.51389
64.0 0.01563 25.57649 55.86475
60.0 0.01667 25.56884 56.22611
61.0 0.01639 25.56119 56.59838
58.0 0.01724 25.55354 56.98199
51.0 0.01961 25.54588 57.37733
71.0 0.01408 25.53821 57.78478
66.0 0.01515 25.53053 58.20470
71.0 0.01408 25.52286 58.63743
57.0 0.01754 25.51517 59.08331
67.0 0.01493 25.50748 59.54263
61.0 0.01639 25.49978 60.01564
61.0 0.01639 25.49208 60.50259
60.0 0.01667 25.48438 61.00369
61.0 0.01639 25.47667 61.29761
65.0 0.01538 25.46895 61.82877
72.0 0.01389 25.46123 62.37449
75.0 0.01333 25.45350 62.93481
73.0 0.01370 25.44577 63.50975
67.0 0.01493 25.43803 64.09931
67.0 0.01493 25.43028 64.70340
71.0 0.01408 25.42253 65.32192
64.0 0.01563 25.41478 65.95470
72.0 0.01389 25.40702 66.60155
71.0 0.01408 25.39925 67.26218
85.0 0.01176 25.39148 67.93631
80.0 0.01250 25.38371 68.62354
80.0 0.01250 25.37593 69.32352
86.0 0.01163 25.36814 70.03573
85.0 0.01176 25.36035 70.75969
80.0 0.01250 25.35255 71.49483
78.0 0.01282 25.34475 72.24052
70.0 0.01429 25.33694 72.99613
87.0 0.01149 25.32913 73.76091
83.0 0.01205 25.32131 74.53412
67.0 0.01493 25.31349 75.31495
91.0 0.01099 25.30566 76.10253
87.0 0.01149 25.29782 76.89597
97.0 0.01031 25.28999 77.69431
76.0 0.01316 25.28214 78.49654
73.0 0.01370 25.27429 79.30163
96.0 0.01042 25.26644 80.10847
75.0 0.01333 25.25858 80.91590
76.0 0.01316 25.25072 81.72272
87.0 0.01149 25.24285 82.52764
79.0 0.01266 25.23497 83.32934
87.0 0.01149 25.22709 84.12638
86.0 0.01163 25.21921 84.91727
82.0 0.01220 25.21132 85.70044
81.0 0.01235 25.20343 86.47417
74.0 0.01351 25.19553 87.23669
83.0 0.01205 25.18763 87.98607
82.0 0.01220 25.17972 88.72029
87.0 0.01149 25.17180 89.43717
90.0 0.01111 25.16388 90.13439
94.0 0.01064 25.15596 90.80950
102.0 0.00980 25.14803 91.45988
76.0 0.01316 25.14010 92.08278
97.0 0.01031 25.13216 92.67532
90.0 0.01111 25.12422 93.23446
81.0 0.01235 25.11627 93.75710
91.0 0.01099 25.10832 94.24000
102.0 0.00980 25.10036 94.67990
93.0 0.01075 25.09240 95.07353
79.0 0.01266 25.08443 95.41761
96.0 0.01042 25.07646 95.70897
107.0 0.00935 25.06848 95.94456
92.0 0.01087 25.06050 96.12153
79.0 0.01266 25.05252 96.23723
84.0 0.01190 25.04453 96.28939
71.0 0.01408 25.03653 96.27608
93.0 0.01075 25.02853 96.19579
78.0 0.01282 25.02053 96.04746
93.0 0.01075 25.01252 95.83054
80.0 0.01250 25.00451 95.54509
92.0 0.01087 24.99649 95.19158
104.0 0.00962 24.98846 94.77114
109.0 0.00917 24.98044 94.28542
92.0 0.01087 24.97240 93.73653
83.0 0.01205 24.96437 93.12713
81.0 0.01235 24.95633 92.46027
66.0 0.01515 24.94828 91.73938
77.0 0.01299 24.94023 90.96825
91.0 0.01099 24.93218 90.15089
95.0 0.01053 24.92412 89.29152
84.0 0.01190 24.91606 88.39445
79.0 0.01266 24.90799 87.46414
94.0 0.01064 24.89992 86.50496
75.0 0.01333 24.89184 85.52128
91.0 0.01099 24.88376 84.51739
73.0 0.01370 24.87568 83.49740
90.0 0.01111 24.86759 82.46532
68.0 0.01471 24.85949 81.42490
93.0 0.01075 24.85140 80.37976
88.0 0.01136 24.84329 79.33320
87.0 0.01149 24.83519 78.28836
76.0 0.01316 24.82708 77.24812
78.0 0.01282 24.81896 76.21513
85.0 0.01176 24.81084 75.19182
94.0 0.01064 24.80272 74.18040
87.0 0.01149 24.79459 73.18282
85.0 0.01176 24.78646 72.20094
78.0 0.01282 24.77832 71.23630
77.0 0.01299 24.77019 70.29034
60.0 0.01667 24.76204 69.36433
64.0 0.01563 24.75389 68.45940
82.0 0.01220 24.74574 67.57651
85.0 0.01176 24.73759 66.71650
88.0 0.01136 24.72943 65.88012
74.0 0.01351 24.72126 65.06799
61.0 0.01639 24.71309 64.28062
75.0 0.01333 24.70492 63.51852
76.0 0.01316 24.69674 62.78202
63.0 0.01587 24.68856 62.07144
84.0 0.01190 24.68038 61.38704
76.0 0.01316 24.67219 60.72900
67.0 0.01493 24.66400 60.09749
70.0 0.01429 24.65581 59.49260
75.0 0.01333 24.64761 58.91442
72.0 0.01389 24.63940 58.36298
66.0 0.01515 24.63120 57.83828
69.0 0.01449 24.62298 57.34035
71.0 0.01408 24.61477 56.86913
88.0 0.01136 24.60655 56.42459
73.0 0.01370 24.59833 56.00668
69.0 0.01449 24.59010 55.61534
69.0 0.01449 24.58187 55.25048
61.0 0.01639 24.57364 54.91202
63.0 0.01587 24.56540 54.59990
86.0 0.01163 24.55716 54.31403
68.0 0.01471 24.54892 54.05433
80.0 0.01250 24.54067 53.82071
64.0 0.01563 24.53242 53.61309
81.0 0.01235 24.52416 53.43143
71.0 0.01408 24.51590 53.27563
67.0 0.01493 24.50764 53.14565
68.0 0.01471 24.49937 53.04143
69.0 0.01449 24.49110 52.96291
64.0 0.01563 24.48283 52.91007
69.0 0.01449 24.47455 52.88287
65.0 0.01538 24.46627 52.88130
50.0 0.02000 24.45799 52.90532
69.0 0.01449 24.44970 52.95494
58.0 0.01724 24.44141 53.03015
62.0 0.01613 24.43312 53.13097
39.0 0.02564 24.42482 53.25739
77.0 0.01299 24.41652 53.40945
58.0 0.01724 24.40822 53.58714
62.0 0.01613 24.39991 53.85854
72.0 0.01389 24.39160 54.08797
77.0 0.01299 24.38329 54.34311
72.0 0.01389 24.37497 54.62399
73.0 0.01370 24.36665 54.93061
71.0 0.01408 24.35833 55.26301
75.0 0.01333 24.35000 55.62116
83.0 0.01205 24.34167 56.00508
66.0 0.01515 24.33334 56.41474
65.0 0.01538 24.32500 56.85011
65.0 0.01538 24.31667 57.31113
70.0 0.01429 24.30832 57.79772
70.0 0.01429 24.29998 58.30980
67.0 0.01493 24.29163 58.84725
72.0 0.01389 24.28328 59.40989
72.0 0.01389 24.27492 59.99755
58.0 0.01724 24.26657 60.60999
64.0 0.01563 24.25821 61.24694
67.0 0.01493 24.24984 61.90806
66.0 0.01515 24.24148 62.59299
67.0 0.01493 24.23311 63.30127
84.0 0.01190 24.22473 64.03241
78.0 0.01282 24.21636 64.78580
76.0 0.01316 24.20798 65.56078
91.0 0.01099 24.19960 66.35659
67.0 0.01493 24.19122 67.17237
62.0 0.01613 24.18283 68.00715
54.0 0.01852 24.17444 68.85983
61.0 0.01639 24.16605 69.72918
78.0 0.01282 24.15765 70.61385
70.0 0.01429 24.14926 71.51231
68.0 0.01471 24.14086 72.42290
67.0 0.01493 24.13245 73.34372
71.0 0.01408 24.12405 74.27274
82.0 0.01220 24.11564 75.20769
77.0 0.01299 24.10723 76.14616
82.0 0.01220 24.09882 77.08544
81.0 0.01235 24.09040 78.02264
64.0 0.01563 24.08198 78.95464
95.0 0.01053 24.07356 79.87808
59.0 0.01695 24.06514 80.78941
87.0 0.01149 24.05671 81.68482
78.0 0.01282 24.04828 82.56033
81.0 0.01235 24.03985 83.41174
67.0 0.01493 24.03142 84.23474
67.0 0.01493 24.02298 85.02483
64.0 0.01563 24.01454 85.77750
84.0 0.01190 24.00610 86.48810
78.0 0.01282 23.99766 87.15202
87.0 0.01149 23.98921 87.76476
71.0 0.01408 23.98076 88.32184
65.0 0.01538 23.97231 88.81904
75.0 0.01333 23.96386 89.25237
69.0 0.01449 23.95541 89.61813
60.0 0.01667 23.94695 89.91306
84.0 0.01190 23.93849 90.13429
76.0 0.01316 23.93003 90.27946
62.0 0.01613 23.92156 90.34674
83.0 0.01205 23.91310 90.33489
77.0 0.01299 23.90463 90.24331
80.0 0.01250 23.89616 90.07198
91.0 0.01099 23.88769 89.85931
72.0 0.01389 23.87921 89.53110
82.0 0.01220 23.87074 89.12675
86.0 0.01163 23.86226 88.64862
74.0 0.01351 23.85378 88.09956
78.0 0.01282 23.84529 87.48286
91.0 0.01099 23.83681 86.80221
82.0 0.01220 23.82832 86.06160
59.0 0.01695 23.81984 85.26530
72.0 0.01389 23.81135 84.41779
72.0 0.01389 23.80285 83.52361
78.0 0.01282 23.79436 82.58736
74.0 0.01351 23.78586 81.61377
59.0 0.01695 23.77736 80.60737
75.0 0.01333 23.76887 79.57266
68.0 0.01471 23.76036 78.51402
48.0 0.02083 23.75186 77.43563
45.0 0.02222 23.74336 76.34152
61.0 0.01639 23.73485 75.23546
59.0 0.01695 23.72634 74.17533
72.0 0.01389 23.71783 73.05632
61.0 0.01639 23.70932 71.93538
60.0 0.01667 23.70081 70.81537
68.0 0.01471 23.69229 69.69891
67.0 0.01493 23.68377 68.58836
55.0 0.01818 23.67525 67.48596
49.0 0.02041 23.66674 66.39362
48.0 0.02083 23.65821 64.91150
66.0 0.01515 23.64969 63.84632
71.0 0.01408 23.64117 62.79592
63.0 0.01587 23.63264 61.76150
57.0 0.01754 23.62411 60.74416
45.0 0.02222 23.61559 59.74479
61.0 0.01639 23.60706 58.76421
52.0 0.01923 23.59852 57.80307
55.0 0.01818 23.58999 56.86195
47.0 0.02128 23.58146 55.94126
51.0 0.01961 23.57292 55.04140
54.0 0.01852 23.56438 54.16262
62.0 0.01613 23.55585 53.30514
61.0 0.01639 23.54731 52.46907
55.0 0.01818 23.53877 51.65447
51.0 0.01961 23.53022 50.86133
57.0 0.01754 23.52168 50.08961
50.0 0.02000 23.51314 49.33922
59.0 0.01695 23.50459 48.60998
48.0 0.02083 23.49604 47.90175
49.0 0.02041 23.48750 47.21426
52.0 0.01923 23.47895 46.54729
52.0 0.01923 23.47040 45.90055
46.0 0.02174 23.46185 45.27372
52.0 0.01923 23.45329 44.66648
37.0 0.02703 23.44474 44.07847
54.0 0.01852 23.43619 43.50932
46.0 0.02174 23.42763 42.95864
47.0 0.02128 23.41908 42.42604
37.0 0.02703 23.41052 41.91109
57.0 0.01754 23.40196 41.41338
46.0 0.02174 23.39340 40.93248
53.0 0.01887 23.38484 40.46795
42.0 0.02381 23.37628 40.01935
37.0 0.02703 23.36772 39.58625
35.0 0.02857 23.35916 39.16817
40.0 0.02500 23.35060 38.76468
48.0 0.02083 23.34204 38.37535
47.0 0.02128 23.33347 37.99970
42.0 0.02381 23.32491 37.63732
39.0 0.02564 23.31634 37.28776
37.0 0.02703 23.30777 36.95058
45.0 0.02222 23.29921 36.62537
34.0 0.02941 23.29064 36.31169
42.0 0.02381 23.28207 36.00914
26.0 0.0385 23.27350 35.71729
44.0 0.02273 23.26493 35.43577
23.0 0.0435 23.25636 35.16418
34.0 0.02941 23.24780 34.90213
39.0 0.02564 23.23923 34.64925
36.0 0.02778 23.23065 34.40519
32.0 0.03125 23.22208 34.16959
29.0 0.03448 23.21351 33.94212
42.0 0.02381 23.20494 33.72243
33.0 0.03030 23.19637 33.51022
28.0 0.0357 23.18779 33.30516
35.0 0.02857 23.17922 33.10698
35.0 0.02857 23.17064 32.91536
44.0 0.02273 23.16207 32.73004
37.0 0.02703 23.15350 32.55075
38.0 0.02632 23.14492 33.02644
34.0 0.02941 23.13634 32.87015
29.0 0.03448 23.12777 32.71948
33.0 0.03030 23.11920 32.57421
34.0 0.02941 23.11062 32.43415
34.0 0.02941 23.10205 32.29907
39.0 0.02564 23.09347 32.16882
34.0 0.02941 23.08489 32.04322
35.0 0.02857 23.07632 31.92210
28.0 0.0357 23.06774 31.80531
33.0 0.03030 23.05917 31.54909
32.0 0.03125 23.05059 31.44141
33.0 0.03030 23.04202 31.33766
29.0 0.03448 23.03344 31.23772
27.0 0.0370 23.02486 31.14149
28.0 0.0357 23.01629 31.04887
26.0 0.0385 23.00771 30.95978
25.0 0.0400 22.99914 30.87415
40.0 0.02500 22.99056 30.79189
22.0 0.0455 22.98199 30.71297
39.0 0.02564 22.97341 30.63734
31.0 0.03226 22.96484 30.56495
24.0 0.0417 22.95626 30.49579
31.0 0.03226 22.94769 30.42985
40.0 0.02500 22.93912 30.36712
35.0 0.02857 22.93054 30.30762
24.0 0.0417 22.92197 30.25136
25.0 0.0400 22.91340 30.19839
15.0 0.0667 22.90483 30.14877
19.0 0.0526 22.89625 30.10256
25.0 0.0400 22.88768 30.05985
31.0 0.03226 22.87911 30.02073
33.0 0.03030 22.87054 29.98535
35.0 0.02857 22.86197 29.95382
34.0 0.02941 22.85340 29.92633
31.0 0.03226 22.84483 29.90305
29.0 0.03448 22.83626 29.88419
33.0 0.03030 22.82770 29.86999
26.0 0.0385 22.81913 29.86070
28.0 0.0357 22.81056 29.85662
42.0 0.02381 22.80199 29.85805
37.0 0.02703 22.79343 29.86534
30.0 0.03333 22.78486 29.87888
43.0 0.02326 22.77630 29.89905
35.0 0.02857 22.76774 29.92631
27.0 0.0370 22.75917 29.96112
26.0 0.0385 22.75061 30.00398
28.0 0.0357 22.74205 30.05545
27.0 0.0370 22.73349 30.13028
34.0 0.02941 22.72493 30.20090
33.0 0.03030 22.71637 30.28192
17.0 0.0588 22.70782 30.37400
31.0 0.03226 22.69926 30.47785
26.0 0.0385 22.69070 30.59415
25.0 0.0400 22.68215 30.72366
38.0 0.02632 22.67360 31.51207
28.0 0.0357 22.66504 31.67571
26.0 0.0385 22.65649 31.85493
36.0 0.02778 22.64794 32.05050
24.0 0.0417 22.63939 32.26324
25.0 0.0400 22.63084 32.49391
31.0 0.03226 22.62229 32.74328
41.0 0.02439 22.61375 33.01211
27.0 0.0370 22.60520 33.30109
29.0 0.03448 22.59666 33.61093
20.0 0.0500 22.58812 33.94225
31.0 0.03226 22.57957 34.29564
25.0 0.0400 22.57103 34.67162
30.0 0.03333 22.56250 35.07064
22.0 0.0455 22.55396 35.49305
35.0 0.02857 22.54542 35.93915
29.0 0.03448 22.53688 36.40908
38.0 0.02632 22.52835 36.90292
28.0 0.0357 22.51982 37.42061
31.0 0.03226 22.51129 37.96194
36.0 0.02778 22.50276 38.52659
21.0 0.0476 22.49423 39.11408
24.0 0.0417 22.48570 39.72377
44.0 0.02273 22.47718 40.35485
37.0 0.02703 22.46865 40.42108
25.0 0.0400 22.46013 41.09529
31.0 0.03226 22.45161 41.78734
31.0 0.03226 22.44309 42.49568
32.0 0.03125 22.43458 43.21852
33.0 0.03030 22.42606 43.95387
48.0 0.02083 22.41755 44.69949
54.0 0.01852 22.40903 45.45292
38.0 0.02632 22.40052 46.21145
39.0 0.02564 22.39201 46.97211
29.0 0.03448 22.38350 47.73168
52.0 0.01923 22.37500 48.48667
45.0 0.02222 22.36650 49.23331
56.0 0.01786 22.35799 49.96761
45.0 0.02222 22.34949 50.85710
43.0 0.02326 22.34100 51.55466
65.0 0.01538 22.33250 52.22646
55.0 0.01818 22.32400 52.86766
61.0 0.01639 22.31551 53.47333
63.0 0.01587 22.30702 54.03853
63.0 0.01587 22.29853 54.55835
76.0 0.01316 22.29004 55.02802
65.0 0.01538 22.28156 55.44305
90.0 0.01111 22.27308 55.79932
93.0 0.01075 22.26460 56.09317
95.0 0.01053 22.25612 56.32158
91.0 0.01099 22.24764 56.48215
89.0 0.01124 22.23916 56.57331
97.0 0.01031 22.23069 56.59429
98.0 0.01020 22.22222 56.54516
92.0 0.01087 22.21375 56.45234
70.0 0.01429 22.20529 56.26703
76.0 0.01316 22.19683 56.01683
81.0 0.01235 22.18836 55.70493
83.0 0.01205 22.17990 55.33508
78.0 0.01282 22.17145 54.91154
66.0 0.01515 22.16299 54.43889
64.0 0.01563 22.15454 53.92194
78.0 0.01282 22.14609 53.36567
49.0 0.02041 22.13764 52.77511
58.0 0.01724 22.12920 52.15518
59.0 0.01695 22.12075 51.51077
54.0 0.01852 22.11231 50.84657
41.0 0.02439 22.10388 50.16708
46.0 0.02174 22.09544 49.47654
49.0 0.02041 22.08701 48.77897
55.0 0.01818 22.07858 48.07811
45.0 0.02222 22.07015 47.37745
53.0 0.01887 22.06172 46.68018
44.0 0.02273 22.05330 45.98926
32.0 0.03125 22.04488 45.30736
34.0 0.02941 22.03646 44.63693
39.0 0.02564 22.02805 43.98015
33.0 0.03030 22.01964 43.33897
42.0 0.02381 22.01123 42.71512
37.0 0.02703 22.00282 42.11010
34.0 0.02941 21.99442 41.52522
39.0 0.02564 21.98601 40.96157
27.0 0.0370 21.97762 40.42006
30.0 0.03333 21.96922 39.90137
38.0 0.02632 21.96083 39.40608
43.0 0.02326 21.95244 38.93455
30.0 0.03333 21.94405 38.48699
26.0 0.0385 21.93567 38.06347
32.0 0.03125 21.92729 37.66390
35.0 0.02857 21.91891 37.28808
35.0 0.02857 21.91053 36.93568
43.0 0.02326 21.90216 36.60626
35.0 0.02857 21.89379 36.29927
30.0 0.03333 21.88542 36.01409
39.0 0.02564 21.87706 35.74999
34.0 0.02941 21.86870 35.50621
31.0 0.03226 21.86034 35.28188
24.0 0.0417 21.85198 35.08825
33.0 0.03030 21.84364 34.90022
42.0 0.02381 21.83529 34.72886
24.0 0.0417 21.82694 34.57319
44.0 0.02273 21.81860 34.43221
43.0 0.02326 21.81026 34.30491
29.0 0.03448 21.80193 34.19033
31.0 0.03226 21.79359 34.08746
35.0 0.02857 21.78526 33.99535
27.0 0.0370 21.77694 33.91309
24.0 0.0417 21.76862 33.83979
22.0 0.0455 21.76030 33.77461
35.0 0.02857 21.75198 33.71675
40.0 0.02500 21.74367 33.66546
35.0 0.02857 21.73536 33.62007
31.0 0.03226 21.72706 33.57998
30.0 0.03333 21.71876 33.54460
29.0 0.03448 21.71046 33.51346
35.0 0.02857 21.70216 33.48614
32.0 0.03125 21.69387 33.46225
22.0 0.0455 21.68558 33.44152
25.0 0.0400 21.67730 33.42368
30.0 0.03333 21.66902 33.40854
30.0 0.03333 21.66074 33.39596
30.0 0.03333 21.65247 33.38583
32.0 0.03125 21.64420 33.37813
31.0 0.03226 21.63593 33.37278
35.0 0.02857 21.62767 33.36980
27.0 0.0370 21.61941 33.36922
29.0 0.03448 21.61115 33.37109
25.0 0.0400 21.60290 33.37545
46.0 0.02174 21.59466 33.38240
28.0 0.0357 21.58641 33.39199
28.0 0.0357 21.57817 33.40434
32.0 0.03125 21.56993 33.41951
32.0 0.03125 21.56170 33.43762
29.0 0.03448 21.55347 33.45876
28.0 0.0357 21.54525 33.48304
38.0 0.02632 21.53703 33.51054
36.0 0.02778 21.52881 33.54136
34.0 0.02941 21.52060 33.57560
26.0 0.0385 21.51239 33.61335
21.0 0.0476 21.50418 33.65471
42.0 0.02381 21.49598 33.69975
34.0 0.02941 21.48778 33.74856
32.0 0.03125 21.47959 33.80125
28.0 0.0357 21.47140 33.85786
41.0 0.02439 21.46322 33.91849
35.0 0.02857 21.45504 33.98322
40.0 0.02500 21.44686 34.05213
26.0 0.0385 21.43868 34.12527
32.0 0.03125 21.43052 34.20272
34.0 0.02941 21.42235 34.28453
37.0 0.02703 21.41419 34.37080
36.0 0.02778 21.40604 34.46155
39.0 0.02564 21.39788 34.55684
33.0 0.03030 21.38974 34.65675
42.0 0.02381 21.38160 34.76130
26.0 0.0385 21.37346 34.87054
38.0 0.02632 21.36532 34.98451
28.0 0.0357 21.35719 35.10324
37.0 0.02703 21.34907 34.33617
28.0 0.0357 21.34094 34.56397
52.0 0.01923 21.33283 34.70373
33.0 0.03030 21.32471 34.84829
45.0 0.02222 21.31660 34.99765
32.0 0.03125 21.30850 35.15179
52.0 0.01923 21.30040 35.31072
51.0 0.01961 21.29231 35.47440
49.0 0.02041 21.28422 35.64283
51.0 0.01961 21.27613 35.81599
51.0 0.01961 21.26805 35.99385
47.0 0.02128 21.25997 36.17641
38.0 0.02632 21.25190 36.36364
50.0 0.02000 21.24383 36.55556
51.0 0.01961 21.23577 36.75217
52.0 0.01923 21.22771 36.95350
50.0 0.02000 21.21966 37.15958
44.0 0.02273 21.21161 37.37046
45.0 0.02222 21.20357 37.58620
58.0 0.01724 21.19552 37.80690
49.0 0.02041 21.18749 38.03265
43.0 0.02326 21.17946 38.26351
50.0 0.02000 21.17144 38.49963
61.0 0.01639 21.16342 38.74111
53.0 0.01887 21.15540 38.98805
50.0 0.02000 21.14739 39.24059
49.0 0.02041 21.13938 39.49879
64.0 0.01563 21.13138 39.76276
54.0 0.01852 21.12339 40.03372
49.0 0.02041 21.11539 40.30940
66.0 0.01515 21.10741 40.59100
47.0 0.02128 21.09943 40.87851
62.0 0.01613 21.09145 41.17188
58.0 0.01724 21.08348 41.47107
66.0 0.01515 21.07551 41.77594
43.0 0.02326 21.06755 42.08640
71.0 0.01408 21.05960 42.40221
57.0 0.01754 21.05165 42.72319
40.0 0.02500 21.04370 43.04905
57.0 0.01754 21.03576 43.37949
67.0 0.01493 21.02782 43.71412
63.0 0.01587 21.01989 44.05255
57.0 0.01754 21.01196 44.39429
64.0 0.01563 21.00405 44.73885
66.0 0.01515 20.99613 45.08561
54.0 0.01852 20.98822 45.43398
64.0 0.01563 20.98032 45.78324
68.0 0.01471 20.97242 46.13265
58.0 0.01724 20.96452 46.48141
66.0 0.01515 20.95663 46.82863
79.0 0.01266 20.94875 47.17341
68.0 0.01471 20.94087 47.51476
75.0 0.01333 20.93300 47.85164
64.0 0.01563 20.92513 48.18296
60.0 0.01667 20.91727 48.50760
65.0 0.01538 20.90941 48.82437
62.0 0.01613 20.90156 49.13206
61.0 0.01639 20.89371 49.43519
62.0 0.01613 20.88587 49.72104
73.0 0.01370 20.87804 49.99404
71.0 0.01408 20.87021 50.78432
69.0 0.01449 20.86238 51.03531
67.0 0.01493 20.85456 51.26983
74.0 0.01351 20.84675 51.48672
61.0 0.01639 20.83894 51.68481
68.0 0.01471 20.83114 51.86306
73.0 0.01370 20.82335 52.02046
62.0 0.01613 20.81555 52.15609
70.0 0.01429 20.80777 52.26919
57.0 0.01754 20.79999 52.35906
61.0 0.01639 20.79222 52.42518
59.0 0.01695 20.78445 52.46709
53.0 0.01887 20.77668 52.48455
71.0 0.01408 20.76893 52.47743
69.0 0.01449 20.76118 52.44577
60.0 0.01667 20.75343 52.38977
76.0 0.01316 20.74569 52.30975
63.0 0.01587 20.73796 52.20618
73.0 0.01370 20.73023 52.07972
79.0 0.01266 20.72251 51.93110
54.0 0.01852 20.71479 51.76121
63.0 0.01587 20.70708 51.57105
47.0 0.02128 20.69938 51.36168
60.0 0.01667 20.69168 51.13430
67.0 0.01493 20.68398 50.89015
45.0 0.02222 20.67630 50.63054
76.0 0.01316 20.66862 50.35680
60.0 0.01667 20.66094 50.07030
59.0 0.01695 20.65327 49.77244
42.0 0.02381 20.64561 49.46463
61.0 0.01639 20.63795 49.14823
40.0 0.02500 20.63030 48.82460
55.0 0.01818 20.62265 48.49509
42.0 0.02381 20.61501 48.16101
53.0 0.01887 20.60738 47.82359
46.0 0.02174 20.59975 47.48405
42.0 0.02381 20.59213 47.14354
43.0 0.02326 20.58452 46.80314
58.0 0.01724 20.57691 46.46391
53.0 0.01887 20.56931 46.12679
46.0 0.02174 20.56171 45.79271
41.0 0.02439 20.55412 45.46248
42.0 0.02381 20.54654 45.13691
61.0 0.01639 20.53896 44.81670
42.0 0.02381 20.53138 44.50250
49.0 0.02041 20.52382 44.19490
38.0 0.02632 20.51626 43.89444
28.0 0.0357 20.50871 43.60159
46.0 0.02174 20.50116 43.31675
36.0 0.02778 20.49362 43.04030
49.0 0.02041 20.48609 42.77257
31.0 0.03226 20.47856 42.51380
49.0 0.02041 20.47104 42.26421
35.0 0.02857 20.46352 42.02398
42.0 0.02381 20.45601 41.79322
42.0 0.02381 20.44851 41.57204
40.0 0.02500 20.44102 41.36046
45.0 0.02222 20.43353 41.15850
37.0 0.02703 20.42604 40.96613
40.0 0.02500 20.41856 40.78326
43.0 0.02326 20.41110 40.60981
34.0 0.02941 20.40363 40.44564
42.0 0.02381 20.39618 40.29059
42.0 0.02381 20.38872 40.14449
38.0 0.02632 20.38128 40.00711
45.0 0.02222 20.37384 39.87824
29.0 0.03448 20.36641 39.75765
38.0 0.02632 20.35899 39.64508
43.0 0.02326 20.35157 39.54031
39.0 0.02564 20.34416 39.44310
28.0 0.0357 20.33675 39.35323
31.0 0.03226 20.32935 39.27051
37.0 0.02703 20.32196 39.19479
35.0 0.02857 20.31458 39.12593
34.0 0.02941 20.30720 39.06389
47.0 0.02128 20.29983 39.00866
31.0 0.03226 20.29246 38.96025
40.0 0.02500 20.28510 38.91882
48.0 0.02083 20.27775 38.88452
38.0 0.02632 20.27041 38.85762
37.0 0.02703 20.26307 38.83845
42.0 0.02381 20.25574 38.82735
35.0 0.02857 20.24841 38.82480
46.0 0.02174 20.24110 38.85366
39.0 0.02564 20.23379 38.86979
37.0 0.02703 20.22648 38.89602
41.0 0.02439 20.21918 38.93293
43.0 0.02326 20.21189 38.98112
39.0 0.02564 20.20461 39.04116
37.0 0.02703 20.19733 39.11364
30.0 0.03333 20.19007 39.19911
34.0 0.02941 20.18280 39.45294
38.0 0.02632 20.17554 39.56702
37.0 0.02703 20.16830 39.69558
33.0 0.03030 20.16105 39.83900
36.0 0.02778 20.15382 39.99760
30.0 0.03333 20.14659 40.17167
38.0 0.02632 20.13937 40.36141
34.0 0.02941 20.13216 40.56696
42.0 0.02381 20.12495 40.78839
32.0 0.03125 20.11775 41.02570
38.0 0.02632 20.11056 41.27878
44.0 0.02273 20.10337 41.54750
41.0 0.02439 20.09619 41.83158
37.0 0.02703 20.08902 42.13071
38.0 0.02632 20.08185 42.44447
37.0 0.02703 20.07470 42.77234
37.0 0.02703 20.06754 43.11371
44.0 0.02273 20.06040 43.46791
43.0 0.02326 20.05326 43.83413
43.0 0.02326 20.04614 44.21147
36.0 0.02778 20.03901 44.59895
34.0 0.02941 20.03190 44.99545
51.0 0.01961 20.02479 45.39976
37.0 0.02703 20.01769 45.81055
46.0 0.02174 20.01060 46.22637
55.0 0.01818 20.00351 46.64568
47.0 0.02128 19.99643 47.06679
37.0 0.02703 19.98936 47.48790
31.0 0.03226 19.98229 47.90710
34.0 0.02941 19.97524 48.32238
56.0 0.01786 19.96819 48.73161
47.0 0.02128 19.96114 49.13254
45.0 0.02222 19.95411 49.52289
47.0 0.02128 19.94708 49.90027
69.0 0.01449 19.94006 50.26225
57.0 0.01754 19.93304 50.60637
35.0 0.02857 19.92604 50.93018
55.0 0.01818 19.91904 51.23125
63.0 0.01587 19.91205 51.50723
50.0 0.02000 19.90507 51.75585
60.0 0.01667 19.89809 51.97503
56.0 0.01786 19.89112 52.16281
51.0 0.01961 19.88416 52.31746
61.0 0.01639 19.87720 52.43753
63.0 0.01587 19.87025 52.52182
43.0 0.02326 19.86332 52.56942
58.0 0.01724 19.85638 52.57980
47.0 0.02128 19.84946 52.55271
64.0 0.01563 19.84254 52.48823
48.0 0.02083 19.83563 52.38680
45.0 0.02222 19.82873 52.24913
46.0 0.02174 19.82183 52.07627
50.0 0.02000 19.81495 51.86947
45.0 0.02222 19.80806 51.63024
54.0 0.01852 19.80119 51.36030
41.0 0.02439 19.79433 51.06149
50.0 0.02000 19.78747 50.73577
53.0 0.01887 19.78062 50.38524
62.0 0.01613 19.77378 50.01196
50.0 0.02000 19.76694 49.61808
53.0 0.01887 19.76012 49.20567
40.0 0.02500 19.75330 48.77684
49.0 0.02041 19.74648 48.33360
59.0 0.01695 19.73968 47.87786
49.0 0.02041 19.73289 47.41155
55.0 0.01818 19.72610 46.93640
57.0 0.01754 19.71931 46.45412
42.0 0.02381 19.71254 45.96627
34.0 0.02941 19.70577 45.56950
38.0 0.02632 19.69902 45.07608
35.0 0.02857 19.69226 44.58128
60.0 0.01667 19.68552 44.08627
45.0 0.02222 19.67879 43.59218
41.0 0.02439 19.67206 43.10000
45.0 0.02222 19.66534 42.61066
41.0 0.02439 19.65863 42.12502
36.0 0.02778 19.65192 41.64383
29.0 0.03448 19.64522 41.16782
33.0 0.03030 19.63853 40.69762
47.0 0.02128 19.63186 40.31039
42.0 0.02381 19.62518 39.85381
32.0 0.03125 19.61852 39.40457
37.0 0.02703 19.61186 38.96309
39.0 0.02564 19.60521 38.52970
32.0 0.03125 19.59856 38.10471
34.0 0.02941 19.59193 37.68838
30.0 0.03333 19.58530 37.28092
39.0 0.02564 19.57868 36.88250
42.0 0.02381 19.57207 36.49329
29.0 0.03448 19.56547 36.11334
37.0 0.02703 19.55887 35.74276
36.0 0.02778 19.55228 35.38155
38.0 0.02632 19.54571 35.02976
24.0 0.0417 19.53913 34.68736
39.0 0.02564 19.53257 34.35427
39.0 0.02564 19.52601 34.03046
27.0 0.0370 19.51946 33.71582
28.0 0.0357 19.51292 33.41024
34.0 0.02941 19.50639 33.11360
29.0 0.03448 19.49987 32.82577
38.0 0.02632 19.49335 32.54656
31.0 0.03226 19.48684 32.27583
38.0 0.02632 19.48034 32.01337
37.0 0.02703 19.47385 31.75901
41.0 0.02439 19.46736 31.51256
28.0 0.0357 19.46088 31.27380
28.0 0.0357 19.45441 31.04252
38.0 0.02632 19.44795 30.81852
27.0 0.0370 19.44150 30.64532
37.0 0.02703 19.43505 30.43571
30.0 0.03333 19.42862 30.23276
28.0 0.0357 19.42219 30.03622
35.0 0.02857 19.41577 29.84589
26.0 0.0385 19.40935 29.66158
27.0 0.0370 19.40295 29.48307
26.0 0.0385 19.39655 29.31016
32.0 0.03125 19.39016 29.14264
24.0 0.0417 19.38378 28.98036
28.0 0.0357 19.37740 28.82310
22.0 0.0455 19.37104 28.67070
31.0 0.03226 19.36468 28.52298
31.0 0.03226 19.35833 28.37978
39.0 0.02564 19.35199 28.24096
34.0 0.02941 19.34566 28.10634
26.0 0.0385 19.33933 27.97580
20.0 0.0500 19.33302 27.84920
28.0 0.0357 19.32671 27.72643
25.0 0.0400 19.32040 27.60733
32.0 0.03125 19.31411 27.49183
27.0 0.0370 19.30783 27.37981
21.0 0.0476 19.30155 27.27116
25.0 0.0400 19.29528 27.16581
25.0 0.0400 19.28902 27.06366
18.0 0.0556 19.28277 26.96465
28.0 0.0357 19.27652 26.86869
29.0 0.03448 19.27028 26.77573
22.0 0.0455 19.26406 26.71141
23.0 0.0435 19.25784 26.62439
26.0 0.0385 19.25162 26.54020
31.0 0.03226 19.24542 26.45881
23.0 0.0435 19.23922 26.38017
22.0 0.0455 19.23304 26.30425
36.0 0.02778 19.22685 26.23103
21.0 0.0476 19.22068 26.16048
26.0 0.0385 19.21452 26.09260
22.0 0.0455 19.20836 26.02735
22.0 0.0455 19.20222 25.96474
19.0 0.0526 19.19608 25.90476
20.0 0.0500 19.18995 25.84740
24.0 0.0417 19.18382 25.79267
20.0 0.0500 19.17771 25.74057
33.0 0.03030 19.17160 25.69111
31.0 0.03226 19.16550 25.64430
26.0 0.0385 19.15941 25.60016
24.0 0.0417 19.15333 25.55871
28.0 0.0357 19.14726 25.51997
26.0 0.0385 19.14119 25.48395
21.0 0.0476 19.13513 25.45068
23.0 0.0435 19.12908 25.42020
17.0 0.0588 19.12304 25.39253
29.0 0.03448 19.11701 25.36770
27.0 0.0370 19.11098 25.34576
26.0 0.0385 19.10497 25.32672
31.0 0.03226 19.09896 25.31062
26.0 0.0385 19.09296 25.29751
30.0 0.03333 19.08696 25.28741
26.0 0.0385 19.08098 25.40984
31.0 0.03226 19.07500 25.40734
23.0 0.0435 19.06903 25.40800
16.0 0.0625 19.06308 25.41183
22.0 0.0455 19.05713 25.41887
23.0 0.0435 19.05118 25.42916
21.0 0.0476 19.04524 25.44273
21.0 0.0476 19.03932 25.45959
29.0 0.03448 19.03340 25.47978
22.0 0.0455 19.02749 25.50332
25.0 0.0400 19.02159 25.53022
34.0 0.02941 19.01569 25.56048
24.0 0.0417 19.00980 25.59414
27.0 0.0370 19.00393 25.63118
25.0 0.0400 18.99806 25.67159
20.0 0.0500 18.99220 25.71539
20.0 0.0500 18.98634 25.76255
35.0 0.02857 18.98050 25.81305
24.0 0.0417 18.97466 25.86689
26.0 0.0385 18.96883 25.92399
34.0 0.02941 18.96301 25.98435
39.0 0.02564 18.95720 26.04791
26.0 0.0385 18.95139 26.11461
32.0 0.03125 18.94560 26.18439
20.0 0.0500 18.93981 26.25718
30.0 0.03333 18.93403 26.26498
21.0 0.0476 18.92826 26.34390
24.0 0.0417 18.92249 26.42554
20.0 0.0500 18.91674 26.50980
37.0 0.02703 18.91099 26.59655
33.0 0.03030 18.90525 26.68563
29.0 0.03448 18.89952 26.77693
24.0 0.0417 18.89380 26.87026
33.0 0.03030 18.88808 26.96547
21.0 0.0476 18.88238 27.06235
20.0 0.0500 18.87668 27.16070
28.0 0.0357 18.87099 27.26033
27.0 0.0370 18.86530 27.36099
31.0 0.03226 18.85963 27.46247
25.0 0.0400 18.85397 27.68270
23.0 0.0435 18.84831 27.78580
29.0 0.03448 18.84266 27.88893
32.0 0.03125 18.83702 27.99182
28.0 0.0357 18.83139 28.09420
27.0 0.0370 18.82576 28.19579
21.0 0.0476 18.82014 28.29630
30.0 0.03333 18.81454 28.39547
27.0 0.0370 18.80894 28.49305
19.0 0.0526 18.80334 28.58876
24.0 0.0417 18.79776 28.68238
19.0 0.0526 18.79218 28.77371
34.0 0.02941 18.78661 28.86254
31.0 0.03226 18.78105 28.94872
24.0 0.0417 18.77550 29.03212
27.0 0.0370 18.76996 29.11264
29.0 0.03448 18.76442 29.19023
29.0 0.03448 18.75890 29.26485
19.0 0.0526 18.75338 29.33654
39.0 0.02564 18.74787 29.40532
25.0 0.0400 18.74236 29.47130
20.0 0.0500 18.73687 29.53458
23.0 0.0435 18.73138 29.59533
35.0 0.02857 18.72590 29.65371
22.0 0.0455 18.72043 29.70993
32.0 0.03125 18.71497 29.76420
33.0 0.03030 18.70951 29.81676
29.0 0.03448 18.70407 29.86783
24.0 0.0417 18.69863 29.91768
22.0 0.0455 18.69320 29.96655
25.0 0.0400 18.68777 30.01468
26.0 0.0385 18.68236 30.06231
30.0 0.03333 18.67695 30.10966
17.0 0.0588 18.67155 30.15695
29.0 0.03448 18.66616 30.20439
34.0 0.02941 18.66078 30.25212
30.0 0.03333 18.65541 30.30033
22.0 0.0455 18.65004 30.34914
23.0 0.0435 18.64468 30.39867
31.0 0.03226 18.63933 30.44901
27.0 0.0370 18.63399 30.50023
35.0 0.02857 18.62866 30.55236
41.0 0.02439 18.62333 30.60544
34.0 0.02941 18.61801 30.65941
26.0 0.0385 18.61270 30.71430
38.0 0.02632 18.60740 30.77001
26.0 0.0385 18.60210 30.82648
22.0 0.0455 18.59682 30.47970
23.0 0.0435 18.59154 30.53964
33.0 0.03030 18.58627 30.59993
26.0 0.0385 18.58101 30.66042
38.0 0.02632 18.57575 30.72091
34.0 0.02941 18.57050 30.78120
30.0 0.03333 18.56526 30.84106
22.0 0.0455 18.56003 30.90028
50.0 0.02000 18.55481 30.95860
38.0 0.02632 18.54959 31.01575
29.0 0.03448 18.54439 31.07147
36.0 0.02778 18.53918 31.12551
28.0 0.0357 18.53399 31.17756
35.0 0.02857 18.52881 31.22737
32.0 0.03125 18.52363 31.27465
27.0 0.0370 18.51847 31.31915
38.0 0.02632 18.51330 31.36060
34.0 0.02941 18.50815 31.39878
36.0 0.02778 18.50301 31.43344
30.0 0.03333 18.49787 31.46438
43.0 0.02326 18.49274 31.49141
39.0 0.02564 18.48762 31.51440
41.0 0.02439 18.48251 31.53318
28.0 0.0357 18.47740 31.54767
42.0 0.02381 18.47230 31.55780
43.0 0.02326 18.46721 31.56356
32.0 0.03125 18.46213 31.56493
43.0 0.02326 18.45705 31.56197
28.0 0.0357 18.45198 31.55473
32.0 0.03125 18.44692 31.54336
27.0 0.0370 18.44187 31.52797
41.0 0.02439 18.43683 31.50875
42.0 0.02381 18.43179 31.48591
35.0 0.02857 18.42676 31.45968
36.0 0.02778 18.42174 31.43032
37.0 0.02703 18.41673 31.39809
31.0 0.03226 18.41172 31.36329
34.0 0.02941 18.40672 31.32622
45.0 0.02222 18.40173 31.28718
47.0 0.02128 18.39675 31.24650
35.0 0.02857 18.39177 31.20447
32.0 0.03125 18.38680 31.16142
44.0 0.02273 18.38184 31.11765
41.0 0.02439 18.37689 31.07343
40.0 0.02500 18.37194 31.02907
47.0 0.02128 18.36701 30.98481
40.0 0.02500 18.36208 30.94092
49.0 0.02041 18.35715 30.89762
38.0 0.02632 18.35224 30.85511
44.0 0.02273 18.34733 30.81359
38.0 0.02632 18.34243 30.77321
39.0 0.02564 18.33754 30.73413
29.0 0.03448 18.33265 30.69645
39.0 0.02564 18.32777 30.66026
37.0 0.02703 18.32290 30.65783
30.0 0.03333 18.31804 30.62496
40.0 0.02500 18.31318 30.59369
46.0 0.02174 18.30833 30.56402
40.0 0.02500 18.30349 30.53590
40.0 0.02500 18.29866 30.50927
33.0 0.03030 18.29383 30.48402
36.0 0.02778 18.28901 30.46004
41.0 0.02439 18.28420 30.43717
48.0 0.02083 18.27940 30.41526
29.0 0.03448 18.27460 30.39409
34.0 0.02941 18.26981 30.37344
28.0 0.0357 18.26503 30.35306
38.0 0.02632 18.26025 30.56716
33.0 0.03030 18.25548 30.54823
45.0 0.02222 18.25072 30.52874
36.0 0.02778 18.24597 30.50837
41.0 0.02439 18.24122 30.48677
36.0 0.02778 18.23648 30.46363
42.0 0.02381 18.23175 30.43858
28.0 0.0357 18.22702 30.41128
31.0 0.03226 18.22231 30.38139
33.0 0.03030 18.21759 30.34857
32.0 0.03125 18.21289 30.31250
40.0 0.02500 18.20819 30.27286
37.0 0.02703 18.20350 30.22938
35.0 0.02857 18.19882 30.18179
34.0 0.02941 18.19415 30.12987
30.0 0.03333 18.18948 30.07343
38.0 0.02632 18.18482 30.01231
35.0 0.02857 18.18016 29.94639
29.0 0.03448 18.17551 29.87561
44.0 0.02273 18.17087 29.79995
21.0 0.0476 18.16624 29.71941
46.0 0.02174 18.16161 29.63406
30.0 0.03333 18.15699 29.54399
32.0 0.03125 18.15238 29.44934
39.0 0.02564 18.14777 29.35030
24.0 0.0417 18.14318 29.24708
30.0 0.03333 18.13858 29.13989
27.0 0.0370 18.13400 29.02902
28.0 0.0357 18.12942 28.91474
28.0 0.0357 18.12485 28.79735
24.0 0.0417 18.12028 28.67717
32.0 0.03125 18.11572 28.55452
31.0 0.03226 18.11117 28.42971
27.0 0.0370 18.10663 28.30307
33.0 0.03030 18.10209 28.17493
30.0 0.03333 18.09756 28.04559
28.0 0.0357 18.09303 27.91536
26.0 0.0385 18.08851 27.78454
28.0 0.0357 18.08400 27.65343
38.0 0.02632 18.07950 27.52229
25.0 0.0400 18.07500 27.39141
33.0 0.03030 18.07051 27.26101
37.0 0.02703 18.06602 27.13132
32.0 0.03125 18.06154 27.07422
33.0 0.03030 18.05707 26.94701
20.0 0.0500 18.05260 26.82115
19.0 0.0526 18.04814 26.69684
35.0 0.02857 18.04369 26.57424
32.0 0.03125 18.03924 26.45352
30.0 0.03333 18.03480 26.33482
24.0 0.0417 18.03037 26.21827
26.0 0.0385 18.02594 26.10400
27.0 0.0370 18.02152 25.99214
26.0 0.0385 18.01711 25.88279
21.0 0.0476 18.01270 25.77604
29.0 0.03448 18.00830 25.67199
26.0 0.0385 18.00390 25.57071
30.0 0.03333 17.99951 25.47228
26.0 0.0385 17.99513 25.37677
24.0 0.0417 17.99075 25.28423
29.0 0.03448 17.98638 25.19473
39.0 0.02564 17.98202 25.10831
15.0 0.0667 17.97766 25.02500
24.0 0.0417 17.97331 24.94485
38.0 0.02632 17.96896 24.86790
21.0 0.0476 17.96462 24.79414
20.0 0.0500 17.96029 24.72362
24.0 0.0417 17.95596 24.65635
19.0 0.0526 17.95164 24.59234
41.0 0.02439 17.94732 24.53160
21.0 0.0476 17.94301 24.47414
31.0 0.03226 17.93871 24.41994
26.0 0.0385 17.93441 24.36902
32.0 0.03125 17.93011 24.32136
21.0 0.0476 17.92583 24.27696
22.0 0.0455 17.92155 24.23582
23.0 0.0435 17.91727 24.19790
30.0 0.03333 17.91300 24.16319
24.0 0.0417 17.90874 24.13169
36.0 0.02778 17.90448 24.10336
21.0 0.0476 17.90023 24.07819
24.0 0.0417 17.89598 24.05616
38.0 0.02632 17.89174 24.03724
29.0 0.03448 17.88751 24.02140
24.0 0.0417 17.88328 24.00862
24.0 0.0417 17.87906 23.99887
21.0 0.0476 17.87484 23.99214
25.0 0.0400 17.87063 23.98838
33.0 0.03030 17.86642 23.98757
26.0 0.0385 17.86222 23.98969
22.0 0.0455 17.85802 23.99471
34.0 0.02941 17.85383 24.00260
22.0 0.0455 17.84965 24.01334
18.0 0.0556 17.84547 24.02690
34.0 0.02941 17.84130 24.04324
26.0 0.0385 17.83713 24.06235
23.0 0.0435 17.83297 24.08422
27.0 0.0370 17.82881 24.10879
37.0 0.02703 17.82465 24.13607
27.0 0.0370 17.82051 24.16603
19.0 0.0526 17.81637 24.19864
29.0 0.03448 17.81223 24.23387
35.0 0.02857 17.80810 24.27172
32.0 0.03125 17.80397 24.31216
40.0 0.02500 17.79985 24.35518
32.0 0.03125 17.79573 24.40075
29.0 0.03448 17.79162 24.44886
34.0 0.02941 17.78752 24.49948
35.0 0.02857 17.78341 24.55262
30.0 0.03333 17.77932 24.60823
28.0 0.0357 17.77523 24.66631
21.0 0.0476 17.77114 24.72684
26.0 0.0385 17.76706 24.78981
33.0 0.03030 17.76298 24.67019
31.0 0.03226 17.75891 24.73897
32.0 0.03125 17.75484 24.81011
33.0 0.03030 17.75078 24.88361
26.0 0.0385 17.74673 24.95944
30.0 0.03333 17.74267 25.03757
43.0 0.02326 17.73862 25.11800
28.0 0.0357 17.73458 25.20068
32.0 0.03125 17.73054 25.28559
29.0 0.03448 17.72651 25.37272
34.0 0.02941 17.72248 25.46202
31.0 0.03226 17.71845 25.55346
24.0 0.0417 17.71444 25.64701
40.0 0.02500 17.71042 25.74263
32.0 0.03125 17.70641 25.84028
36.0 0.02778 17.70240 25.93993
25.0 0.0400 17.69840 26.04151
28.0 0.0357 17.69440 26.14499
41.0 0.02439 17.69041 26.25031
31.0 0.03226 17.68642 26.35741
23.0 0.0435 17.68243 26.46622
23.0 0.0435 17.67845 26.57670
26.0 0.0385 17.67448 26.68877
27.0 0.0370 17.67051 26.80235
26.0 0.0385 17.66654 26.91737
29.0 0.03448 17.66257 27.03374
37.0 0.02703 17.65861 27.15137
29.0 0.03448 17.65466 27.27019
28.0 0.0357 17.65071 27.39009
23.0 0.0435 17.64676 27.51096
40.0 0.02500 17.64281 27.63270
29.0 0.03448 17.63887 27.75520
30.0 0.03333 17.63494 27.87835
31.0 0.03226 17.63101 28.00201
31.0 0.03226 17.62708 28.12606
31.0 0.03226 17.62315 28.25036
31.0 0.03226 17.61923 28.37478
28.0 0.0357 17.61532 28.49918
36.0 0.02778 17.61140 28.62339
31.0 0.03226 17.60749 28.74727
33.0 0.03030 17.60359 28.87064
29.0 0.03448 17.59969 28.99336
29.0 0.03448 17.59579 29.11523
30.0 0.03333 17.59189 29.23610
34.0 0.02941 17.58800 29.35576
24.0 0.0417 17.58411 29.47404
37.0 0.02703 17.58023 29.59073
20.0 0.0500 17.57635 29.70566
30.0 0.03333 17.57247 29.81861
26.0 0.0385 17.56860 29.92938
24.0 0.0417 17.56472 30.03775
29.0 0.03448 17.56086 30.14351
33.0 0.03030 17.55699 30.24647
23.0 0.0435 17.55313 30.34639
35.0 0.02857 17.54927 30.44307
41.0 0.02439 17.54542 30.53626
33.0 0.03030 17.54156 30.62579
39.0 0.02564 17.53772 30.75748
27.0 0.0370 17.53387 30.83946
30.0 0.03333 17.53003 30.91714
35.0 0.02857 17.52619 30.99032
37.0 0.02703 17.52235 31.05879
29.0 0.03448 17.51852 31.12237
30.0 0.03333 17.51468 31.18090
33.0 0.03030 17.51086 31.23420
24.0 0.0417 17.50703 31.28212
28.0 0.0357 17.50321 31.32453
29.0 0.03448 17.49939 31.36132
40.0 0.02500 17.49557 31.39238
36.0 0.02778 17.49175 31.41762
33.0 0.03030 17.48794 31.43701
30.0 0.03333 17.48413 31.45049
33.0 0.03030 17.48032 31.45804
35.0 0.02857 17.47652 31.45969
35.0 0.02857 17.47272 31.45546
45.0 0.02222 17.46892 31.44541
42.0 0.02381 17.46512 31.42962
24.0 0.0417 17.46132 31.40821
24.0 0.0417 17.45753 31.38128
39.0 0.02564 17.45374 31.34901
32.0 0.03125 17.44995 31.31156
38.0 0.02632 17.44616 31.26911
34.0 0.02941 17.44238 31.22188
37.0 0.02703 17.43859 31.17010
32.0 0.03125 17.43481 31.11401
34.0 0.02941 17.43103 31.05384
30.0 0.03333 17.42726 30.98987
30.0 0.03333 17.42348 30.92237
27.0 0.0370 17.41971 30.85972
32.0 0.03125 17.41594 30.78602
42.0 0.02381 17.41217 30.70961
28.0 0.0357 17.40840 30.63078
19.0 0.0526 17.40464 30.54981
33.0 0.03030 17.40087 30.46697
41.0 0.02439 17.39711 30.45021
32.0 0.03125 17.39335 30.36508
36.0 0.02778 17.38959 30.27888
34.0 0.02941 17.38583 30.19189
15.0 0.0667 17.38207 30.10434
23.0 0.0435 17.37832 30.01646
32.0 0.03125 17.37457 29.92850
36.0 0.02778 17.37081 29.84066
37.0 0.02703 17.36706 29.75316
28.0 0.0357 17.36331 29.66620
28.0 0.0357 17.35956 29.57998
33.0 0.03030 17.35581 29.49466
39.0 0.02564 17.35207 29.41043
41.0 0.02439 17.34832 29.32746
34.0 0.02941 17.34458 29.24590
36.0 0.02778 17.34083 29.16588
41.0 0.02439 17.33709 29.08756
33.0 0.03030 17.33335 29.01107
30.0 0.03333 17.32961 28.93653
26.0 0.0385 17.32587 28.86405
33.0 0.03030 17.32213 28.79372
26.0 0.0385 17.31839 28.72566
28.0 0.0357 17.31465 28.65997
36.0 0.02778 17.31092 28.59671
25.0 0.0400 17.30718 28.53599
29.0 0.03448 17.30344 28.47786
26.0 0.0385 17.29971 28.42239
19.0 0.0526 17.29597 28.36963
20.0 0.0500 17.29224 28.31966
27.0 0.0370 17.28850 28.27251
28.0 0.0357 17.28477 28.22823
30.0 0.03333 17.28104 28.18684
25.0 0.0400 17.27730 28.14839
33.0 0.03030 17.27357 28.11289
26.0 0.0385 17.26984 28.08036
26.0 0.0385 17.26610 28.07469
19.0 0.0526 17.26237 28.04826
28.0 0.0357 17.25863 28.02483
19.0 0.0526 17.25490 28.00438
24.0 0.0417 17.25117 27.98693
27.0 0.0370 17.24743 27.97245
25.0 0.0400 17.24370 27.96091
28.0 0.0357 17.23997 27.95231
31.0 0.03226 17.23623 27.94658
37.0 0.02703 17.23250 27.94372
34.0 0.02941 17.22876 27.94367
29.0 0.03448 17.22503 27.94637
24.0 0.0417 17.22129 27.95179
27.0 0.0370 17.21755 27.95984
18.0 0.0556 17.21382 27.97046
21.0 0.0476 17.21008 27.98358
29.0 0.03448 17.20634 27.99911
19.0 0.0526 17.20260 28.01698
33.0 0.03030 17.19886 28.03709
24.0 0.0417 17.19512 28.05934
33.0 0.03030 17.19138 28.08362
25.0 0.0400 17.18763 28.40660
28.0 0.0357 17.18389 28.43734
23.0 0.0435 17.18015 28.46978
21.0 0.0476 17.17640 28.50380
33.0 0.03030 17.17265 28.53925
32.0 0.03125 17.16890 28.57601
28.0 0.0357 17.16515 28.61390
30.0 0.03333 17.16140 28.65279
30.0 0.03333 17.15765 28.69250
31.0 0.03226 17.15390 28.73287
33.0 0.03030 17.15014 28.77374
34.0 0.02941 17.14638 28.81491
27.0 0.0370 17.14263 28.85623
26.0 0.0385 17.13886 28.89750
33.0 0.03030 17.13510 28.93854
31.0 0.03226 17.13134 28.97918
27.0 0.0370 17.12757 29.01921
26.0 0.0385 17.12381 29.05845
31.0 0.03226 17.12004 29.09673
34.0 0.02941 17.11627 29.13385
33.0 0.03030 17.11250 29.16964
29.0 0.03448 17.10872 29.20391
30.0 0.03333 17.10494 29.23650
29.0 0.03448 17.10117 29.26725
31.0 0.03226 17.09738 29.29599
25.0 0.0400 17.09360 29.32259
22.0 0.0455 17.08981 29.34689
29.0 0.03448 17.08603 29.36876
38.0 0.02632 17.08224 29.38810
21.0 0.0476 17.07844 29.40479
28.0 0.0357 17.07465 29.41875
25.0 0.0400 17.07085 29.42988
29.0 0.03448 17.06705 29.43814
30.0 0.03333 17.06324 29.44346
30.0 0.03333 17.05944 29.44582
31.0 0.03226 17.05563 29.44520
25.0 0.0400 17.05182 29.44159
27.0 0.0370 17.04800 29.43501
25.0 0.0400 17.04418 29.42549
34.0 0.02941 17.04036 29.41306
27.0 0.0370 17.03654 29.39778
24.0 0.0417 17.03271 29.37973
29.0 0.03448 17.02888 29.35900
29.0 0.03448 17.02505 29.33565
32.0 0.03125 17.02121 29.30982
22.0 0.0455 17.01737 29.28162
26.0 0.0385 17.01352 29.25118
30.0 0.03333 17.00968 29.21863
28.0 0.0357 17.00583 29.18411
29.0 0.03448 17.00197 29.14777
25.0 0.0400 16.99811 29.10978
21.0 0.0476 16.99425 29.07027
20.0 0.0500 16.99039 28.99652
29.0 0.03448 16.98652 28.95459
23.0 0.0435 16.98264 28.91164
26.0 0.0385 16.97876 28.86781
31.0 0.03226 16.97488 28.82329
17.0 0.0588 16.97100 28.77822
24.0 0.0417 16.96711 28.73275
18.0 0.0556 16.96321 28.68702
33.0 0.03030 16.95931 28.64120
23.0 0.0435 16.95541 28.59541
32.0 0.03125 16.95150 28.54980
23.0 0.0435 16.94759 28.50448
31.0 0.03226 16.94368 28.45958
26.0 0.0385 16.93975 28.41521
23.0 0.0435 16.93583 28.37148
21.0 0.0476 16.93190 28.32849
29.0 0.03448 16.92797 28.28633
31.0 0.03226 16.92403 28.24507
27.0 0.0370 16.92008 28.20481
33.0 0.03030 16.91613 28.16560
22.0 0.0455 16.91218 28.12750
30.0 0.03333 16.90822 28.09058
34.0 0.02941 16.90425 28.05487
36.0 0.02778 16.90029 28.02041
33.0 0.03030 16.89631 27.98724
29.0 0.03448 16.89233 27.95538
40.0 0.02500 16.88834 27.92485
26.0 0.0385 16.88435 27.89566
40.0 0.02500 16.88036 27.86784
35.0 0.02857 16.87635 27.84137
28.0 0.0357 16.87235 27.81627
29.0 0.03448 16.86833 27.79253
24.0 0.0417 16.86431 27.77015
30.0 0.03333 16.86029 27.74913
31.0 0.03226 16.85626 27.72945
29.0 0.03448 16.85222 27.71113
26.0 0.0385 16.84818 27.69414
30.0 0.03333 16.84413 27.67848
32.0 0.03125 16.84007 27.66417
30.0 0.03333 16.83601 27.65119
24.0 0.0417 16.83194 27.63956
27.0 0.0370 16.82787 27.66482
24.0 0.0417 16.82379 27.65619
25.0 0.0400 16.81970 27.64896
28.0 0.0357 16.81561 27.64313
23.0 0.0435 16.81151 27.63873
24.0 0.0417 16.80740 27.63579
38.0 0.02632 16.80329 27.63436
33.0 0.03030 16.79917 27.63445
25.0 0.0400 16.79504 27.63612
28.0 0.0357 16.79090 27.63943
32.0 0.03125 16.78676 27.64441
29.0 0.03448 16.78262 27.65113
31.0 0.03226 16.77846 27.65962
36.0 0.02778 16.77430 27.66996
28.0 0.0357 16.77013 27.68220
26.0 0.0385 16.76595 27.69640
29.0 0.03448 16.76176 27.71261
24.0 0.0417 16.75757 27.73091
21.0 0.0476 16.75337 27.75131
33.0 0.03030 16.74916 27.77392
20.0 0.0500 16.74495 27.79876
46.0 0.02174 16.74072 27.82587
35.0 0.02857 16.73649 27.85531
33.0 0.03030 16.73225 27.88712
22.0 0.0455 16.72801 27.92133
25.0 0.0400 16.72375 27.95798
35.0 0.02857 16.71949 27.99708
29.0 0.03448 16.71522 28.03866
30.0 0.03333 16.71094 28.08275
28.0 0.0357 16.70665 28.12934
28.0 0.0357 16.70235 28.17845
29.0 0.03448 16.69805 28.23007
26.0 0.0385 16.69374 28.28418
19.0 0.0526 16.68941 28.34077
25.0 0.0400 16.68508 28.39985
22.0 0.0455 16.68074 28.46135
41.0 0.02439 16.67639 28.52527
32.0 0.03125 16.67204 28.59155
27.0 0.0370 16.66767 28.66016
30.0 0.03333 16.66329 28.73105
36.0 0.02778 16.65891 28.80416
30.0 0.03333 16.65451 28.87942
22.0 0.0455 16.65011 28.95678
27.0 0.0370 16.64570 29.03616
24.0 0.0417 16.64128 29.11750
26.0 0.0385 16.63685 29.20072
34.0 0.02941 16.63240 29.28574
30.0 0.03333 16.62795 29.37255
29.0 0.03448 16.62349 29.46094
29.0 0.03448 16.61902 29.55088
27.0 0.0370 16.61454 29.64230
34.0 0.02941 16.61005 29.73512
31.0 0.03226 16.60555 29.82926
39.0 0.02564 16.60104 29.92464
21.0 0.0476 16.59652 30.02121
30.0 0.03333 16.59199 30.11888
33.0 0.03030 16.58745 30.21758
34.0 0.02941 16.58290 30.31724
31.0 0.03226 16.57833 30.41784
22.0 0.0455 16.57376 30.51930
32.0 0.03125 16.56918 30.62157
25.0 0.0400 16.56458 30.72462
38.0 0.02632 16.55998 30.82838
32.0 0.03125 16.55536 30.93283
28.0 0.0357 16.55074 31.03791
33.0 0.03030 16.54610 31.14362
24.0 0.0417 16.54145 31.24990
30.0 0.03333 16.53679 31.35673
34.0 0.02941 16.53212 31.46406
28.0 0.0357 16.52744 31.57186
29.0 0.03448 16.52275 31.68008
25.0 0.0400 16.51804 31.78868
24.0 0.0417 16.51332 31.89759
32.0 0.03125 16.50859 32.00678
37.0 0.02703 16.50385 32.03269
34.0 0.02941 16.49910 32.14257
32.0 0.03125 16.49434 32.25249
29.0 0.03448 16.48956 32.36235
44.0 0.02273 16.48477 32.47204
34.0 0.02941 16.47997 32.58147
31.0 0.03226 16.47516 32.69048
33.0 0.03030 16.47033 32.79893
30.0 0.03333 16.46549 32.90667
28.0 0.0357 16.46064 33.01352
32.0 0.03125 16.45578 33.11930
35.0 0.02857 16.45091 33.22750
23.0 0.0435 16.44602 33.33052
29.0 0.03448 16.44112 33.43182
30.0 0.03333 16.43620 33.53112
34.0 0.02941 16.43128 33.62821
25.0 0.0400 16.42634 33.72276
27.0 0.0370 16.42138 33.81451
37.0 0.02703 16.41642 33.90314
35.0 0.02857 16.41144 33.98835
36.0 0.02778 16.40645 34.06979
32.0 0.03125 16.40144 34.14715
31.0 0.03226 16.39642 34.22006
32.0 0.03125 16.39139 34.28818
39.0 0.02564 16.38634 34.35115
34.0 0.02941 16.38128 34.40861
31.0 0.03226 16.37621 34.46022
30.0 0.03333 16.37112 34.50560
38.0 0.02632 16.36601 34.54443
34.0 0.02941 16.36090 34.57634
30.0 0.03333 16.35576 34.60102
31.0 0.03226 16.35062 34.61818
35.0 0.02857 16.34546 34.62747
38.0 0.02632 16.34028 34.62867
37.0 0.02703 16.33509 34.62153
30.0 0.03333 16.32989 34.60581
23.0 0.0435 16.32467 34.58132
19.0 0.0526 16.31944 34.54792
26.0 0.0385 16.31419 34.50549
33.0 0.03030 16.30893 34.45394
25.0 0.0400 16.30365 34.39324
34.0 0.02941 16.29836 34.32335
36.0 0.02778 16.29305 34.24434
24.0 0.0417 16.28772 34.15626
31.0 0.03226 16.28238 34.05922
33.0 0.03030 16.27703 33.95338
34.0 0.02941 16.27166 33.83893
43.0 0.02326 16.26627 33.71608
35.0 0.02857 16.26087 33.58508
37.0 0.02703 16.25545 33.44621
34.0 0.02941 16.25002 33.29979
28.0 0.0357 16.24457 33.14613
26.0 0.0385 16.23910 32.98562
37.0 0.02703 16.23362 32.81859
39.0 0.02564 16.22812 32.64545
41.0 0.02439 16.22260 32.46660
45.0 0.02222 16.21707 32.28241
33.0 0.03030 16.21152 32.09332
30.0 0.03333 16.20596 31.89973
40.0 0.02500 16.20038 31.70205
36.0 0.02778 16.19478 31.50069
35.0 0.02857 16.18916 31.29605
27.0 0.0370 16.18353 31.08853
32.0 0.03125 16.17788 30.87852
29.0 0.03448 16.17221 30.66638
28.0 0.0357 16.16653 30.45250
26.0 0.0385 16.16082 30.23722
37.0 0.02703 16.15510 30.02089
37.0 0.02703 16.14937 29.80384
36.0 0.02778 16.14361 29.61045
31.0 0.03226 16.13784 29.39297
26.0 0.0385 16.13205 29.17568
28.0 0.0357 16.12624 28.95884
28.0 0.0357 16.12041 28.74269
30.0 0.03333 16.11457 28.52749
29.0 0.03448 16.10870 28.31348
36.0 0.02778 16.10282 28.10086
26.0 0.0385 16.09692 27.88984
35.0 0.02857 16.09100 27.68061
38.0 0.02632 16.08506 27.47335
22.0 0.0455 16.07911 27.26822
33.0 0.03030 16.07313 27.06538
32.0 0.03125 16.06714 26.86497
31.0 0.03226 16.06112 26.66712
39.0 0.02564 16.05509 26.47196
29.0 0.03448 16.04904 26.27961
34.0 0.02941 16.04297 26.09016
35.0 0.02857 16.03688 25.90370
37.0 0.02703 16.03077 25.76021
29.0 0.03448 16.02464 25.58021
22.0 0.0455 16.01849 25.40346
35.0 0.02857 16.01232 25.23000
32.0 0.03125 16.00613 25.05988
27.0 0.0370 15.99992 24.89315
40.0 0.02500 15.99370 24.72985
20.0 0.0500 15.98745 24.57002
28.0 0.0357 15.98118 24.41369
23.0 0.0435 15.97489 24.26087
21.0 0.0476 15.96857 24.11159
26.0 0.0385 15.96224 23.96583
24.0 0.0417 15.95589 23.82362
28.0 0.0357 15.94952 23.68496
27.0 0.0370 15.94313 23.54983
29.0 0.03448 15.93671 23.41822
24.0 0.0417 15.93027 23.29013
29.0 0.03448 15.92382 23.16551
29.0 0.03448 15.91734 23.04435
18.0 0.0556 15.91084 22.92662
24.0 0.0417 15.90432 22.81229
28.0 0.0357 15.89777 22.70133
22.0 0.0455 15.89121 22.59368
23.0 0.0435 15.88462 22.48929
25.0 0.0400 15.87801 22.38814
19.0 0.0526 15.87138 22.29014
30.0 0.03333 15.86473 22.19527
24.0 0.0417 15.85806 22.10344
11.0 0.0909 15.85136 22.01460
16.0 0.0625 15.84464 21.92869
29.0 0.03448 15.83790 21.84562
27.0 0.0370 15.83113 21.76534
23.0 0.0435 15.82435 21.68777
30.0 0.03333 15.81753 21.61284
30.0 0.03333 15.81070 21.54045
23.0 0.0435 15.80384 21.47053
21.0 0.0476 15.79696 21.40300
17.0 0.0588 15.79006 21.33776
14.0 0.0714 15.78313 21.27475
17.0 0.0588 15.77618 21.21384
24.0 0.0417 15.76921 21.15496
24.0 0.0417 15.76221 21.09803
34.0 0.02941 15.75519 21.04294
31.0 0.03226 15.74815 20.98960
22.0 0.0455 15.74108 20.93791
17.0 0.0588 15.73398 20.88778
29.0 0.03448 15.72687 20.83910
25.0 0.0400 15.71973 20.79179
30.0 0.03333 15.71256 20.74573
17.0 0.0588 15.70537 20.70085
30.0 0.03333 15.69815 20.65704
20.0 0.0500 15.69091 20.61421
19.0 0.0526 15.68365 20.57226
19.0 0.0526 15.67636 20.53111
23.0 0.0435 15.66904 20.49066
28.0 0.0357 15.66170 20.37261
27.0 0.0370 15.65434 20.33368
22.0 0.0455 15.64695 20.29521
26.0 0.0385 15.63953 20.25711
14.0 0.0714 15.63209 20.21932
19.0 0.0526 15.62462 20.18176
24.0 0.0417 15.61712 20.14436
21.0 0.0476 15.60960 20.10709
25.0 0.0400 15.60206 20.06987
18.0 0.0556 15.59449 20.03266
16.0 0.0625 15.58689 19.99540
29.0 0.03448 15.57926 19.95808
27.0 0.0370 15.57161 19.92065
23.0 0.0435 15.56393 19.91152
15.0 0.0667 15.55623 19.87391
19.0 0.0526 15.54850 19.83611
28.0 0.0357 15.54074 19.79813
20.0 0.0500 15.53295 19.75994
17.0 0.0588 15.52514 19.72156
16.0 0.0625 15.51730 19.68296
23.0 0.0435 15.50943 19.64418
18.0 0.0556 15.50153 19.60520
19.0 0.0526 15.49361 19.56604
20.0 0.0500 15.48566 19.52671
18.0 0.0556 15.47768 19.48725
21.0 0.0476 15.46968 19.44765
20.0 0.0500 15.46164 19.40793
26.0 0.0385 15.45358 19.36814
17.0 0.0588 15.44549 19.32826
25.0 0.0400 15.43737 19.28836
25.0 0.0400 15.42922 19.24844
17.0 0.0588 15.42104 19.20853
23.0 0.0435 15.41284 19.16866
20.0 0.0500 15.40460 19.12884
20.0 0.0500 15.39633 19.19027
21.0 0.0476 15.38804 19.15118
14.0 0.0714 15.37972 19.11223
18.0 0.0556 15.37137 19.07345
19.0 0.0526 15.36299 19.03485
20.0 0.0500 15.35458 18.99644
23.0 0.0435 15.34613 18.95827
21.0 0.0476 15.33766 18.92035
21.0 0.0476 15.32916 18.88269
21.0 0.0476 15.32063 18.84531
11.0 0.0909 15.31207 18.80823
18.0 0.0556 15.30348 18.77147
21.0 0.0476 15.29486 18.73503
12.0 0.0833 15.28621 18.75180
21.0 0.0476 15.27752 18.71647
11.0 0.0909 15.26881 18.68149
24.0 0.0417 15.26006 18.64690
23.0 0.0435 15.25129 18.61268
13.0 0.0769 15.24248 18.57887
26.0 0.0385 15.23364 18.54545
22.0 0.0455 15.22477 18.51242
19.0 0.0526 15.21587 18.47981
16.0 0.0625 15.20694 18.44760
17.0 0.0588 15.19798 18.32658
17.0 0.0588 15.18898 18.29558
25.0 0.0400 15.17995 18.26499
21.0 0.0476 15.17089 18.23481
13.0 0.0769 15.16179 18.20503
22.0 0.0455 15.15267 18.17566
17.0 0.0588 15.14351 18.14667
15.0 0.0667 15.13432 18.11809
18.0 0.0556 15.12510 18.08990
16.0 0.0625 15.11584 18.06209
18.0 0.0556 15.10655 18.03465
17.0 0.0588 15.09723 18.00759
18.0 0.0556 15.08787 17.98090
15.0 0.0667 15.07849 17.95455
17.0 0.0588 15.06906 17.92855
16.0 0.0625 15.05961 17.91409
12.0 0.0833 15.05012 17.88879
18.0 0.0556 15.04059 17.86382
14.0 0.0714 15.03103 17.83916
21.0 0.0476 15.02144 17.81478
22.0 0.0455 15.01182 17.79070
19.0 0.0526 15.00216 17.76688
15.0 0.0667 14.99246 17.74333
8.0 0.1250 14.98273 17.72002
18.0 0.0556 14.97296 17.69696
18.0 0.0556 14.96317 17.67411
17.0 0.0588 14.95333 17.65148
17.0 0.0588 14.94346 17.62906
15.0 0.0667 14.93356 17.60682
11.0 0.0909 14.92362 17.58475
22.0 0.0455 14.91364 17.56286
15.0 0.0667 14.90363 17.54112
21.0 0.0476 14.89358 17.51952
13.0 0.0769 14.88350 17.49805
23.0 0.0435 14.87338 17.47669
20.0 0.0500 14.86322 17.45547
19.0 0.0526 14.85303 17.43432
18.0 0.0556 14.84280 17.41328
17.0 0.0588 14.83254 17.39231
19.0 0.0526 14.82224 17.37141
15.0 0.0667 14.81190 17.35058
14.0 0.0714 14.80152 17.32981
15.0 0.0667 14.79111 17.30908
17.0 0.0588 14.78066 17.28840
15.0 0.0667 14.77017 17.26776
21.0 0.0476 14.75965 17.24714
17.0 0.0588 14.74909 17.22654
13.0 0.0769 14.73849 17.20597
15.0 0.0667 14.72785 17.22618
12.0 0.0833 14.71717 17.20596
15.0 0.0667 14.70646 17.18575
14.0 0.0714 14.69571 17.16555
18.0 0.0556 14.68491 17.14537
17.0 0.0588 14.67408 17.12519
21.0 0.0476 14.66321 17.10502
14.0 0.0714 14.65231 17.08487
24.0 0.0417 14.64137 17.06473
11.0 0.0909 14.63038 17.04460
25.0 0.0400 14.61935 17.02448
22.0 0.0455 14.60829 17.00438
12.0 0.0833 14.59719 16.98429
24.0 0.0417 14.58605 16.96423
16.0 0.0625 14.57486 16.94419
17.0 0.0588 14.56364 16.92418
10.0 0.1000 14.55238 16.90420
17.0 0.0588 14.54108 16.88427
15.0 0.0667 14.52973 16.86437
17.0 0.0588 14.51835 16.84452
22.0 0.0455 14.50692 16.82472
16.0 0.0625 14.49546 16.80498
14.0 0.0714 14.48396 16.78529
16.0 0.0625 14.47241 16.76569
15.0 0.0667 14.46082 16.74614
16.0 0.0625 14.44919 16.72669
22.0 0.0455 14.43752 16.70732
16.0 0.0625 14.42581 16.68805
15.0 0.0667 14.41405 16.66888
22.0 0.0455 14.40226 16.64981
23.0 0.0435 14.39042 16.63086
20.0 0.0500 14.37854 16.61202
13.0 0.0769 14.36662 16.59332
14.0 0.0714 14.35466 16.57474
18.0 0.0556 14.34265 16.55631
9.0 0.1111 14.33060 16.53802
16.0 0.0625 14.31850 16.51990
20.0 0.0500 14.30637 16.50193
28.0 0.0357 14.29419 16.48413
17.0 0.0588 14.28197 16.46651
18.0 0.0556 14.26970 16.44907
14.0 0.0714 14.25739 16.43181
16.0 0.0625 14.24504 16.41476
21.0 0.0476 14.23265 16.39791
19.0 0.0526 14.22021 16.38127
13.0 0.0769 14.20772 16.36484
20.0 0.0500 14.19519 16.34864
7.0 0.1429 14.18262 16.33268
19.0 0.0526 14.17000 16.31695
19.0 0.0526 14.15734 16.30147
12.0 0.0833 14.14463 16.28624
20.0 0.0500 14.13188 16.27127
18.0 0.0556 14.11908 16.25657
23.0 0.0435 14.10624 16.24213
24.0 0.0417 14.09335 16.22799
14.0 0.0714 14.08042 16.21413
20.0 0.0500 14.06744 16.20056
11.0 0.0909 14.05442 16.18730
16.0 0.0625 14.04134 16.17434
14.0 0.0714 14.02823 16.16171
21.0 0.0476 14.01506 16.14940
23.0 0.0435 14.00185 16.13741
16.0 0.0625 13.98860 16.12577
10.0 0.1000 13.97529 16.11448
11.0 0.0909 13.96194 16.10353
14.0 0.0714 13.94854 16.09295
13.0 0.0769 13.93510 16.08273
19.0 0.0526 13.92161 16.07290
11.0 0.0909 13.90807 16.06344
18.0 0.0556 13.89448 16.05438
16.0 0.0625 13.88085 16.04571
22.0 0.0455 13.86716 16.03746
20.0 0.0500 13.85344 16.02962
15.0 0.0667 13.83966 16.02220
23.0 0.0435 13.82583 16.01521
21.0 0.0476 13.81195 16.00867
16.0 0.0625 13.79803 16.00256
17.0 0.0588 13.78406 15.99692
16.0 0.0625 13.77003 15.99173
12.0 0.0833 13.75596 15.98702
16.0 0.0625 13.74184 15.98279
23.0 0.0435 13.72767 15.97904
20.0 0.0500 13.71345 15.97578
25.0 0.0400 13.69918 15.97304
18.0 0.0556 13.68486 15.97080
19.0 0.0526 13.67049 15.96909
17.0 0.0588 13.65607 15.96790
16.0 0.0625 13.64160 15.96725
16.0 0.0625 13.62708 15.96714
16.0 0.0625 13.61251 15.96759
18.0 0.0556 13.59789 15.96860
22.0 0.0455 13.58321 15.97018
15.0 0.0667 13.56849 15.97234
17.0 0.0588 13.55372 15.97507
14.0 0.0714 13.53889 15.97841
18.0 0.0556 13.52401 15.98234
20.0 0.0500 13.50908 15.98688
27.0 0.0370 13.49410 15.99204
21.0 0.0476 13.47906 15.99783
26.0 0.0385 13.46398 16.00424
23.0 0.0435 13.44884 16.01129
20.0 0.0500 13.43365 16.01898
17.0 0.0588 13.41840 16.02733
18.0 0.0556 13.40311 16.03633
9.0 0.1111 13.38776 16.04600
19.0 0.0526 13.37235 16.05634
17.0 0.0588 13.35689 16.06735
22.0 0.0455 13.34139 16.07906
29.0 0.03448 13.32582 16.09144
24.0 0.0417 13.31020 16.10452
21.0 0.0476 13.29453 16.11829
17.0 0.0588 13.27880 16.13277
12.0 0.0833 13.26303 16.14795
16.0 0.0625 13.24719 16.16384
19.0 0.0526 13.23130 16.18045
15.0 0.0667 13.21536 16.19777
18.0 0.0556 13.19936 16.21580
20.0 0.0500 13.18331 16.23457
12.0 0.0833 13.16720 16.25405
18.0 0.0556 13.15103 16.27425
27.0 0.0370 13.13481 16.29517
11.0 0.0909 13.11854 16.31682
12.0 0.0833 13.10221 16.23689
22.0 0.0455 13.08582 16.26041
22.0 0.0455 13.06937 16.28463
14.0 0.0714 13.05287 16.30957
20.0 0.0500 13.03631 16.33523
23.0 0.0435 13.01970 16.36159
16.0 0.0625 13.00303 16.38865
21.0 0.0476 12.98630 16.41640
24.0 0.0417 12.96952 16.44485
22.0 0.0455 12.95267 16.47397
18.0 0.0556 12.93578 16.50378
24.0 0.0417 12.91882 16.53424
15.0 0.0667 12.90180 16.56536
25.0 0.0400 12.88473 16.59713
10.0 0.1000 12.86760 16.62952
19.0 0.0526 12.85041 16.66254
23.0 0.0435 12.83316 16.69616
26.0 . . .
loop_
_refln_index_h
_refln_index_k
_refln_index_l
_refln_observed_status
_refln_F_squared_meas
_refln_F_squared_calc
_refln_phase_calc
_refln_d_spacing
_gsas_i100_meas
1 1 0 o 1107.698 919.377 180.00 6.95154 20.98
0 2 0 o 804.864 1129.924 180.00 4.91548 7.00
2 2 0 o 7245.880 6135.936 0.00 3.47577 34.62
1 3 0 o 27039.580 22009.748 0.00 3.10883 100.00
3 1 0 o 8838.279 7187.637 0.00 3.10883 32.82
0 4 0 o 5293.379 5881.693 180.00 2.45774 11.12
0 1 1 o 2144.932 2350.973 0.00 2.75694 12.70
3 3 0 o 1388.343 1420.632 180.00 2.31718 2.56
2 4 0 o 6647.518 5464.986 0.00 2.19827 11.51
4 2 0 o 5094.902 4204.865 0.00 2.19827 8.66
2 1 1 o 20056.646 21150.877 0.00 2.40456 82.95
1 2 1 o 1310.088 1376.705 180.00 2.40456 5.05
0 3 1 o 1442.423 1109.211 180.00 2.15997 4.90
1 5 0 o 235.499 223.428 180.00 1.92801 0.26
5 1 0 o 5388.927 5070.413 0.00 1.92801 6.97
3 2 1 o 320.208 294.807 0.00 1.97747 0.97
2 3 1 o 1917.776 1780.985 0.00 1.97747 5.22
4 4 0 o 3908.601 3261.894 0.00 1.73789 3.79
4 1 1 o 1818.294 2061.479 180.00 1.83458 3.73
1 4 1 o 16012.856 18322.682 0.00 1.83458 35.41
5 3 0 o 2395.486 2058.528 0.00 1.68600 2.20
3 5 0 o 4773.229 4114.131 0.00 1.68600 4.30
0 6 0 o 29809.182 27111.324 0.00 1.63849 24.89
2 6 0 o 320.528 297.903 0.00 1.55441 0.25
6 2 0 o 3159.163 2960.062 180.00 1.55441 2.22
3 4 1 o 9031.156 8402.412 0.00 1.62245 14.90
4 3 1 o 1238.398 1150.519 0.00 1.62245 2.08
0 5 1 o 4728.530 4399.767 0.00 1.62245 7.79
5 2 1 o 13586.547 13869.944 0.00 1.54069 19.43
2 5 1 o 9793.092 9992.105 180.00 1.54069 13.64
5 5 0 o 1195.225 1032.387 0.00 1.39031 0.69
7 1 0 o 210.691 180.027 0.00 1.39031 0.13
1 7 0 o 4547.479 3965.162 180.00 1.39031 2.48
4 6 0 o 2905.295 2337.558 180.00 1.36331 1.50
6 4 0 o 947.295 762.201 180.00 1.36331 0.49
1 6 1 o 1317.119 1316.455 0.00 1.40852 1.55
6 1 1 o 1.762 1.751 0.00 1.40852 0.02
0 0 2 o 38732.65 34515.313 0.00 1.43610 11.73
1 1 2 o 237.337 258.824 180.00 1.40640 0.24
5 4 1 o 12176.953 9668.615 180.00 1.35403 12.58
4 5 1 o 9469.202 7470.930 0.00 1.35403 10.02
7 3 0 o 11816.666 11795.951 0.00 1.29087 5.54
3 7 0 o 2913.102 2907.964 0.00 1.29087 1.38
0 2 2 o 634.668 452.901 180.00 1.37847 0.66
3 6 1 o 134.839 136.342 0.00 1.30540 0.14
6 3 1 o 229.129 231.594 0.00 1.30540 0.24
2 2 2 o 1805.475 1852.545 0.00 1.32727 1.85
0 8 0 o 124.570 108.206 0.00 1.22887 0.06
0 7 1 o 151.138 155.516 0.00 1.26167 0.17
3 1 2 o 2652.914 2730.270 0.00 1.30372 2.57
1 3 2 o 7708.511 7931.447 0.00 1.30372 7.40
8 2 0 o 253.453 193.686 0.00 1.19218 0.11
2 8 0 o 2801.966 2151.471 0.00 1.19218 1.17
7 2 1 o 32.423 20.615 0.00 1.22206 0.06
2 7 1 o 7671.699 6348.410 0.00 1.22206 6.44
0 4 2 o 2357.582 2429.290 180.00 1.23994 1.95
6 6 0 o 11935.132 9895.175 0.00 1.15859 4.56
3 3 2 o 1697.667 1341.348 180.00 1.22067 1.40
5 7 0 o 2082.750 1882.758 0.00 1.14283 0.80
7 5 0 o 1608.457 1464.916 180.00 1.14283 0.58
4 2 2 o 2650.206 1994.580 0.00 1.20228 2.18
2 4 2 o 2371.204 1775.499 0.00 1.20228 1.98
5 6 1 o 376.647 320.922 0.00 1.15288 0.30
6 5 1 o 6450.929 5536.239 0.00 1.15288 4.93
8 4 0 o 2325.334 2210.883 0.00 1.09914 0.87
4 8 0 o 1980.441 1886.737 0.00 1.09914 0.71
1 8 1 o 337.539 334.853 180.00 1.12242 0.23
4 7 1 o 44.756 44.053 0.00 1.12242 0.06
7 4 1 o 3711.658 3679.889 0.00 1.12242 2.72
8 1 1 o 5239.198 5194.654 0.00 1.12242 3.82
1 5 2 o 127.172 113.112 180.00 1.15171 0.09
5 1 2 o 1735.445 1510.545 0.00 1.15171 1.38
9 1 0 o 157.563 146.317 0.00 1.08565 0.06
1 9 0 o 9959.591 9295.786 0.00 1.08565 3.49
4 4 2 o 1582.939 1534.652 0.00 1.10703 1.15
3 8 1 o 501.940 424.535 180.00 1.06811 0.33
8 3 1 o 82.612 70.695 180.00 1.06811 0.05
5 3 2 o 807.841 799.477 0.00 1.09326 0.59
3 5 2 o 1887.833 1868.714 0.00 1.09326 1.34
3 9 0 o 2039.331 1748.108 180.00 1.03628 0.67
9 3 0 o 2188.941 1876.188 180.00 1.03628 0.72
0 6 2 o 12508.916 11746.929 0.00 1.07998 8.73
2 6 2 o 124.560 100.082 0.00 1.05482 0.09
6 2 2 o 1899.733 1567.676 180.00 1.05482 1.26
0 9 1 o 2.180 0.285 0.00 1.02099 0.00
