#------------------------------------------------------------------------------
#$Date: 2016-03-24 02:52:30 +0200 (Thu, 24 Mar 2016) $
#$Revision: 179601 $
#$URL: svn://www.crystallography.net/cod/cif/4/50/65/4506592.cif $
#------------------------------------------------------------------------------
#
# This file is available in the Crystallography Open Database (COD),
# http://www.crystallography.net/
#
# All data on this site have been placed in the public domain by the
# contributors.
#
data_4506592
loop_
_publ_author_name
'Takeuchi, Kenneth J.'
'Yau, Shali Z.'
'Menard, Melissa C.'
'Marschilok, Amy C.'
'Takeuchi, Esther S.'
_publ_section_title
;
 Synthetic control of composition and crystallite size of silver
 hollandite, Ag(x)Mn8O16: impact on electrochemistry.
;
_journal_issue                   10
_journal_name_full               'ACS applied materials &amp; interfaces'
_journal_page_first              5547
_journal_page_last               5554
_journal_paper_doi               10.1021/am301443g
_journal_volume                  4
_journal_year                    2012
_chemical_formula_sum            'Ag1.56 Mn8 O16'
_chemical_formula_weight         863.80
_chemical_name_systematic        ' ?'
_space_group_IT_number           87
_symmetry_cell_setting           tetragonal
_symmetry_space_group_name_Hall  '-I 4'
_symmetry_space_group_name_H-M   'I 4/m'
_audit_creation_date             2012-02-18T22:06
_audit_creation_method           'from EXP file using GSAS2CIF'
_audit_update_record
' 2012-02-18T22:06  Initial CIF as created by GSAS2CIF'
_cell_angle_alpha                90.0
_cell_angle_beta                 90.0
_cell_angle_gamma                90.0
_cell_formula_units_Z            1
_cell_length_a                   9.756(10)
_cell_length_b                   9.756
_cell_length_c                   2.858(6)
_cell_measurement_temperature    25
_cell_volume                     272.0(6)
_computing_structure_refinement  GSAS
_diffrn_ambient_temperature      25
_diffrn_radiation_polarisn_ratio 0.5
_diffrn_radiation_probe          x-ray
_diffrn_radiation_wavelength     1.5406
_exptl_absorpt_correction_T_max  1.00000
_exptl_absorpt_correction_T_min  1.00000
_exptl_absorpt_process_details
;   GSAS Absorption/surface roughness correction: function number 0
 No correction is applied.
;
_pd_block_id
2012-02-18T22:06|MM3955B_2|mmenard|Rigaku_Ultima_IV
_pd_calc_method                  'Rietveld Refinement'
_pd_instr_location               ' ?'
_pd_meas_2theta_range_inc        0.02
_pd_meas_2theta_range_max        100.0
_pd_meas_2theta_range_min        10.0
_pd_meas_number_of_points        4501
_pd_phase_name
'from F:/Ag-Hollandite/XRD/Ag Hollandite_Rietvled/mm3955B/Ag1.8Mn8O'
_pd_proc_2theta_range_inc        0.02
_pd_proc_2theta_range_max        99.94982
_pd_proc_2theta_range_min        9.94982
_pd_proc_info_datetime           2012-02-18T22:06:25
_pd_proc_info_excluded_regions   ' ?'
_pd_proc_ls_background_function
;   GSAS Background function number 1 with  6 terms.
 Shifted Chebyshev function of 1st kind
      1:    21.6876     2:   -15.7470     3:    4.01597     4:  -0.456393    
      5:    1.44971     6:  -0.277835    
;
_pd_proc_ls_peak_cutoff          0.02500
_pd_proc_ls_profile_function
;
 CW Profile function number 2 with  18 terms
 Profile coefficients for Simpson's rule integration of pseudovoigt function
 C.J. Howard (1982). J. Appl. Cryst.,15,615-620.
 P. Thompson, D.E. Cox & J.B. Hastings (1987). J. Appl. Cryst.,20,79-83.
 Peak tails are ignored  where the intensity is below 0.0250 times the peak
   Aniso. broadening axis   0.0   0.0   1.0
;
_pd_proc_ls_prof_R_factor        0.1647
_pd_proc_ls_prof_wR_expected     0.1617
_pd_proc_ls_prof_wR_factor       0.2097
_pd_proc_number_of_points        4501
_pd_spec_mounting                ' ?'
_refine_ls_goodness_of_fit_all   1.30
_refine_ls_matrix_type           full
_refine_ls_number_parameters     14
_refine_ls_number_restraints     0
_refine_ls_R_Fsqd_factor         0.15335
_refine_ls_shift/su_max          0.00
_refine_ls_shift/su_mean         0.00
_reflns_d_resolution_high        1.014
_reflns_d_resolution_low         6.899
_reflns_limit_h_max              10
_reflns_limit_h_min              0
_reflns_limit_k_max              10
_reflns_limit_k_min              0
_reflns_limit_l_max              3
_reflns_limit_l_min              0
_reflns_number_total             85
_cod_data_source_file            am301443g_si_002.cif
_cod_data_source_block           MM3955B_2_publ
_cod_depositor_comments
;
The following automatic conversions were performed:

'_geom_bond_publ_flag' value 'N' changed to 'n' according to
/home/saulius/struct/CIF-dictionaries/cif_core.dic dictionary named
'cif_core.dic' version 2.4.2 from 2011-04-26 (23
times).

'_geom_angle_publ_flag' value 'N' changed to 'n' according
to /home/saulius/struct/CIF-dictionaries/cif_core.dic dictionary
named 'cif_core.dic' version 2.4.2 from 2011-04-26 (22 times).

Automatic conversion script
Id: cif_fix_values 1891 2012-01-12 08:04:46Z andrius 
;
_cod_original_cell_volume        272.0(8)
_cod_database_code               4506592
#BEGIN Tags that were not found in dictionaries:
_gsas_exptl_extinct_corr_t_min   1.00000
_gsas_exptl_extinct_corr_t_max   1.00000
#END Tags that were not found in dictionaries
loop_
_symmetry_equiv_pos_site_id
_symmetry_equiv_pos_as_xyz
1 +x,+y,+z
2 -y,+x,+z
3 -x,-y,+z
4 +y,-x,+z
-1 -x,-y,-z
-2 +y,-x,-z
-3 +x,+y,-z
-4 -y,+x,-z
101 +x+1/2,+y+1/2,+z+1/2
102 -y+1/2,+x+1/2,+z+1/2
103 -x+1/2,-y+1/2,+z+1/2
104 +y+1/2,-x+1/2,+z+1/2
-101 -x+1/2,-y+1/2,-z+1/2
-102 +y+1/2,-x+1/2,-z+1/2
-103 +x+1/2,+y+1/2,-z+1/2
-104 -y+1/2,+x+1/2,-z+1/2
loop_
_atom_site_type_symbol
_atom_site_label
_atom_site_fract_x
_atom_site_fract_y
_atom_site_fract_z
_atom_site_occupancy
_atom_site_thermal_displace_type
_atom_site_U_iso_or_equiv
_atom_site_symmetry_multiplicity
Ag Ag1 0.0 0.0 0.0 0.78 Uiso 0.0273 2
Mn Mn1 0.1493 0.3321 0.5 1.0 Uiso 0.0068 8
O O1 0.15991 0.20745 0.0 1.0 Uiso 0.0095 8
O O2 0.13106 0.47081 0.0 1.0 Uiso 0.0094 8
loop_
_atom_type_symbol
_atom_type_number_in_cell
_atom_type_scat_dispersion_real
_atom_type_scat_dispersion_imag
_atom_type_scat_Cromer_Mann_a1
_atom_type_scat_Cromer_Mann_a2
_atom_type_scat_Cromer_Mann_a3
_atom_type_scat_Cromer_Mann_a4
_atom_type_scat_Cromer_Mann_b1
_atom_type_scat_Cromer_Mann_b2
_atom_type_scat_Cromer_Mann_b3
_atom_type_scat_Cromer_Mann_b4
_atom_type_scat_Cromer_Mann_c
_atom_type_scat_source
Ag 1.56 0.000 0.000 19.2808 0.64460 16.6885 7.47260 4.80450 24.6605 1.04630
99.8156 5.17900 International_Tables_Vol_C
Mn 8.0 0.000 0.000 11.2819 5.34090 7.35730 0.34320 3.01930 17.8674 2.24410
83.7543 1.08960 International_Tables_Vol_C
O 16.0 0.000 0.000 3.04850 13.2771 2.28680 5.70110 1.54630 0.32390 0.86700
32.9089 0.25080 International_Tables_Vol_C
loop_
_geom_angle_atom_site_label_1
_geom_angle_atom_site_label_2
_geom_angle_atom_site_label_3
_geom_angle
_geom_angle_site_symmetry_1
_geom_angle_site_symmetry_3
_geom_angle_publ_flag
Ag1 Ag1 Ag1 180.0 1_554 1_556 n
O1 Mn1 O1 98.99(17) 1_555 1_556 n
O1 Mn1 O1 79.321(18) 1_555 103_555 n
O1 Mn1 O2 84.17(17) 1_555 1_555 n
O1 Mn1 O2 176.3618(22) 1_555 1_556 n
O1 Mn1 O2 100.648(18) 1_555 104_455 n
O1 Mn1 O1 79.321(18) 1_556 103_555 n
O1 Mn1 O2 176.3619(22) 1_556 1_555 n
O1 Mn1 O2 84.17(17) 1_556 1_556 n
O1 Mn1 O2 100.648(18) 1_556 104_455 n
O1 Mn1 O2 103.132(21) 103_555 1_555 n
O1 Mn1 O2 103.132(21) 103_555 1_556 n
O1 Mn1 O2 180.0 103_555 104_455 n
O2 Mn1 O2 92.62(17) 1_555 1_556 n
O2 Mn1 O2 76.901(20) 1_555 104_455 n
O2 Mn1 O2 76.901(20) 1_556 104_455 n
Mn1 O1 Mn1 98.99(17) 1_554 1_555 n
Mn1 O1 Mn1 100.679(18) 1_554 103_554 n
Mn1 O1 Mn1 100.679(18) 1_555 103_554 n
Mn1 O2 Mn1 92.62(17) 1_554 1_555 n
Mn1 O2 Mn1 130.73(8) 1_554 102_554 n
Mn1 O2 Mn1 130.73(8) 1_555 102_554 n
loop_
_geom_bond_atom_site_label_1
_geom_bond_atom_site_label_2
_geom_bond_distance
_geom_bond_site_symmetry_2
_geom_bond_publ_flag
Ag1 Ag1 2.858(6) 1_554 n
Ag1 Ag1 2.858(6) 1_556 n
Ag1 O1 2.555(5) 1_555 n
Ag1 O1 2.555(5) 2_555 n
Ag1 O1 2.555(5) 3_555 n
Ag1 O1 2.555(5) 4_555 n
Mn1 Mn1 2.858(6) 1_554 n
Mn1 Mn1 2.858(6) 1_556 n
Mn1 Mn1 2.910(5) 103_554 n
Mn1 Mn1 2.910(5) 103_555 n
Mn1 O1 1.8791(28) 1_555 n
Mn1 O1 1.8791(28) 1_556 n
Mn1 O1 1.901(4) 103_555 n
Mn1 O2 1.9760(29) 1_555 n
Mn1 O2 1.9760(29) 1_556 n
Mn1 O2 1.778(4) 104_455 n
O1 Ag1 2.555(5) 1_555 n
O1 Mn1 1.8791(28) 1_554 n
O1 Mn1 1.8791(28) 1_555 n
O1 Mn1 1.901(4) 103_554 n
O2 Mn1 1.9760(29) 1_554 n
O2 Mn1 1.9760(29) 1_555 n
O2 Mn1 1.778(4) 102_554 n
loop_
_pd_meas_counts_total
_pd_proc_ls_weight
_pd_proc_intensity_bkg_calc
_pd_calc_intensity_total
54.0 0.01852 43.63451 44.06517
39.0 0.02564 43.60516 44.04122
60.0 0.01667 43.57586 44.01740
55.0 0.01818 43.54659 43.99371
57.0 0.01754 43.51735 43.97017
42.0 0.02381 43.48816 43.94678
49.0 0.02041 43.45901 43.92352
65.0 0.01538 43.42990 43.90042
61.0 0.01639 43.40083 43.87746
58.0 0.01724 43.37179 43.85467
61.0 0.01639 43.34280 43.83203
59.0 0.01695 43.31384 43.80954
49.0 0.02041 43.28492 43.78722
39.0 0.02564 43.25604 43.76506
42.0 0.02381 43.22720 43.74308
49.0 0.02041 43.19840 43.72125
53.0 0.01887 43.16964 43.69961
52.0 0.01923 43.14091 43.67814
49.0 0.02041 43.11222 43.65686
39.0 0.02564 43.08358 43.63575
55.0 0.01818 43.05497 43.61483
51.0 0.01961 43.02639 43.59411
60.0 0.01667 42.99786 43.57358
44.0 0.02273 42.96936 43.55325
48.0 0.02083 42.94091 43.53312
52.0 0.01923 42.91249 43.51320
44.0 0.02273 42.88411 43.49349
53.0 0.01887 42.85577 43.47400
56.0 0.01786 42.82746 43.45472
57.0 0.01754 42.79919 43.43567
45.0 0.02222 42.77097 43.41684
45.0 0.02222 42.74278 43.39825
47.0 0.02128 42.71463 43.37991
60.0 0.01667 42.68651 43.36180
30.0 0.03333 42.65843 43.34394
50.0 0.02000 42.63039 43.32634
40.0 0.02500 42.60239 43.30900
57.0 0.01754 42.57442 43.29192
67.0 0.01493 42.54650 43.27512
49.0 0.02041 42.51861 43.25859
48.0 0.02083 42.49076 43.24235
49.0 0.02041 42.46294 43.22640
52.0 0.01923 42.43517 43.21074
52.0 0.01923 42.40743 43.19539
33.0 0.03030 42.37972 43.18035
61.0 0.01639 42.35206 43.16563
40.0 0.02500 42.32443 43.15123
48.0 0.02083 42.29684 43.13716
54.0 0.01852 42.26929 43.12344
45.0 0.02222 42.24177 43.11006
47.0 0.02128 42.21429 43.09703
39.0 0.02564 42.18685 43.08438
55.0 0.01818 42.15944 43.07209
47.0 0.02128 42.13207 43.06018
42.0 0.02381 42.10474 43.04867
49.0 0.02041 42.07745 43.03756
50.0 0.02000 42.05019 43.02686
62.0 0.01613 42.02296 43.01657
49.0 0.02041 41.99578 43.00671
44.0 0.02273 41.96863 42.99729
40.0 0.02500 41.94152 42.98832
52.0 0.01923 41.91444 42.97980
38.0 0.02632 41.88741 42.97176
34.0 0.02941 41.86040 42.96419
36.0 0.02778 41.83344 42.95712
51.0 0.01961 41.80651 42.95054
54.0 0.01852 41.77961 42.94449
47.0 0.02128 41.75276 42.93896
49.0 0.02041 41.72594 42.93396
34.0 0.02941 41.69915 42.92951
48.0 0.02083 41.67241 42.92562
40.0 0.02500 41.64569 42.92231
49.0 0.02041 41.61901 42.91958
51.0 0.01961 41.59238 42.91745
41.0 0.02439 41.56577 42.91592
39.0 0.02564 41.53920 42.91502
40.0 0.02500 41.51267 42.91475
36.0 0.02778 41.48618 42.91512
35.0 0.02857 41.45971 42.91615
37.0 0.02703 41.43329 42.91785
41.0 0.02439 41.40690 42.92024
55.0 0.01818 41.38055 42.92332
43.0 0.02326 41.35423 42.92710
30.0 0.03333 41.32795 42.93159
49.0 0.02041 41.30170 42.93681
51.0 0.01961 41.27549 42.94276
43.0 0.02326 41.24931 42.94946
38.0 0.02632 41.22317 42.95690
50.0 0.02000 41.19707 42.96511
46.0 0.02174 41.17100 42.97408
36.0 0.02778 41.14496 42.98381
43.0 0.02326 41.11896 42.99433
48.0 0.02083 41.09300 43.00563
39.0 0.02564 41.06707 43.01770
52.0 0.01923 41.04117 43.03055
29.0 0.03448 41.01532 43.04418
28.0 0.0357 40.98949 43.05858
45.0 0.02222 40.96370 43.07375
39.0 0.02564 40.93795 43.08967
42.0 0.02381 40.91223 43.10635
52.0 0.01923 40.88654 43.12375
53.0 0.01887 40.86090 43.14187
42.0 0.02381 40.83528 43.16069
60.0 0.01667 40.80970 43.18017
42.0 0.02381 40.78416 43.20030
46.0 0.02174 40.75864 43.22104
41.0 0.02439 40.73317 43.24236
51.0 0.01961 40.70773 43.26422
40.0 0.02500 40.68232 43.28657
43.0 0.02326 40.65695 43.30936
50.0 0.02000 40.63161 43.33253
46.0 0.02174 40.60631 43.35604
47.0 0.02128 40.58104 43.37981
49.0 0.02041 40.55580 43.40376
43.0 0.02326 40.53060 43.42783
49.0 0.02041 40.50544 43.45193
54.0 0.01852 40.48030 43.47598
53.0 0.01887 40.45520 43.49986
45.0 0.02222 40.43014 43.52350
50.0 0.02000 40.40511 43.54679
54.0 0.01852 40.38012 43.56960
41.0 0.02439 40.35515 43.59184
46.0 0.02174 40.33022 43.61337
45.0 0.02222 40.30533 43.63408
59.0 0.01695 40.28047 43.65383
36.0 0.02778 40.25564 43.67249
47.0 0.02128 40.23085 43.68993
36.0 0.02778 40.20609 43.70602
42.0 0.02381 40.18136 43.72062
47.0 0.02128 40.15667 43.73359
44.0 0.02273 40.13201 43.74480
42.0 0.02381 40.10739 43.75412
39.0 0.02564 40.08280 43.76141
38.0 0.02632 40.05824 43.76656
55.0 0.01818 40.03371 43.76945
38.0 0.02632 40.00922 43.76995
48.0 0.02083 39.98476 43.76797
44.0 0.02273 39.96034 43.76341
42.0 0.02381 39.93595 43.75618
38.0 0.02632 39.91159 43.74621
41.0 0.02439 39.88726 43.73343
46.0 0.02174 39.86297 43.71779
54.0 0.01852 39.83871 43.69926
43.0 0.02326 39.81449 43.67780
39.0 0.02564 39.79029 43.65340
45.0 0.02222 39.76614 43.62606
48.0 0.02083 39.74201 43.59580
38.0 0.02632 39.71791 43.56265
50.0 0.02000 39.69386 43.52665
44.0 0.02273 39.66983 43.56634
38.0 0.02632 39.64583 43.52538
38.0 0.02632 39.62186 43.48177
48.0 0.02083 39.59793 43.43560
40.0 0.02500 39.57404 43.38696
44.0 0.02273 39.55017 43.33597
40.0 0.02500 39.52634 43.28273
40.0 0.02500 39.50254 43.22737
47.0 0.02128 39.47877 43.17000
49.0 0.02041 39.45504 43.11077
60.0 0.01667 39.43133 43.04980
38.0 0.02632 39.40766 42.98723
37.0 0.02703 39.38403 42.92319
27.0 0.0370 39.36042 42.85783
40.0 0.02500 39.33685 42.79126
47.0 0.02128 39.31330 42.72364
42.0 0.02381 39.28979 42.65508
36.0 0.02778 39.26632 42.58572
35.0 0.02857 39.24287 42.51568
44.0 0.02273 39.21946 42.44509
39.0 0.02564 39.19608 42.37405
39.0 0.02564 39.17273 42.30267
37.0 0.02703 39.14941 42.23106
41.0 0.02439 39.12613 42.15932
45.0 0.02222 39.10287 42.08754
39.0 0.02564 39.07965 42.01582
33.0 0.03030 39.05646 41.94422
50.0 0.02000 39.03330 41.87283
41.0 0.02439 39.01017 41.80172
30.0 0.03333 38.98708 41.73096
31.0 0.03226 38.96401 41.66059
39.0 0.02564 38.94098 41.59068
42.0 0.02381 38.91798 41.52128
34.0 0.02941 38.89501 41.45243
33.0 0.03030 38.87207 41.38416
40.0 0.02500 38.84916 41.31652
43.0 0.02326 38.82629 41.24955
45.0 0.02222 38.80344 41.18324
37.0 0.02703 38.78063 41.11765
28.0 0.0357 38.75785 41.05278
39.0 0.02564 38.73510 40.98866
40.0 0.02500 38.71238 40.92529
32.0 0.03125 38.68969 40.86268
42.0 0.02381 38.66703 40.80086
33.0 0.03030 38.64441 40.73981
27.0 0.0370 38.62181 40.67956
43.0 0.02326 38.59925 40.62009
34.0 0.02941 38.57671 40.56141
40.0 0.02500 38.55421 40.50351
43.0 0.02326 38.53174 40.44640
44.0 0.02273 38.50930 40.39006
43.0 0.02326 38.48689 40.33450
40.0 0.02500 38.46450 40.27971
37.0 0.02703 38.44216 40.22567
35.0 0.02857 38.41984 40.17239
28.0 0.0357 38.39755 40.11985
46.0 0.02174 38.37529 40.06805
29.0 0.03448 38.35307 40.01696
34.0 0.02941 38.33087 39.96659
39.0 0.02564 38.30870 39.91692
41.0 0.02439 38.28657 39.86794
44.0 0.02273 38.26446 39.81964
32.0 0.03125 38.24239 39.77201
30.0 0.03333 38.22034 39.72503
32.0 0.03125 38.19833 39.67870
42.0 0.02381 38.17634 39.63299
39.0 0.02564 38.15438 39.58790
35.0 0.02857 38.13246 39.54343
42.0 0.02381 38.11057 39.49955
41.0 0.02439 38.08870 39.45625
35.0 0.02857 38.06687 39.41352
42.0 0.02381 38.04507 39.37136
33.0 0.03030 38.02329 39.32973
41.0 0.02439 38.00154 39.28865
28.0 0.0357 37.97983 39.24810
36.0 0.02778 37.95815 39.20807
38.0 0.02632 37.93649 39.16853
45.0 0.02222 37.91486 39.12949
39.0 0.02564 37.89327 39.09093
29.0 0.03448 37.87170 39.05285
37.0 0.02703 37.85017 39.01522
41.0 0.02439 37.82866 38.97805
37.0 0.02703 37.80718 38.94133
39.0 0.02564 37.78573 38.90504
38.0 0.02632 37.76431 38.86917
35.0 0.02857 37.74292 38.83372
44.0 0.02273 37.72156 38.79868
33.0 0.03030 37.70023 38.76404
35.0 0.02857 37.67893 38.72979
41.0 0.02439 37.65766 38.69592
36.0 0.02778 37.63641 38.66243
35.0 0.02857 37.61520 38.62931
39.0 0.02564 37.59402 38.59654
39.0 0.02564 37.57286 38.56413
28.0 0.0357 37.55173 38.53206
39.0 0.02564 37.53064 38.50034
32.0 0.03125 37.50957 38.46895
42.0 0.02381 37.48853 38.43788
33.0 0.03030 37.46751 38.40714
38.0 0.02632 37.44653 38.37671
36.0 0.02778 37.42558 38.34659
38.0 0.02632 37.40466 38.31677
35.0 0.02857 37.38375 38.28725
41.0 0.02439 37.36289 38.25803
32.0 0.03125 37.34205 38.22909
43.0 0.02326 37.32124 38.20044
45.0 0.02222 37.30046 38.17206
41.0 0.02439 37.27971 38.14396
35.0 0.02857 37.25898 38.11613
57.0 0.01754 37.23829 38.08856
44.0 0.02273 37.21762 38.06126
33.0 0.03030 37.19698 38.03421
31.0 0.03226 37.17637 38.00743
36.0 0.02778 37.15578 37.98089
43.0 0.02326 37.13523 37.95459
45.0 0.02222 37.11471 37.92855
37.0 0.02703 37.09421 37.90274
47.0 0.02128 37.07374 37.87717
32.0 0.03125 37.05330 37.85184
33.0 0.03030 37.03288 37.82674
32.0 0.03125 37.01250 37.80187
33.0 0.03030 36.99214 37.77723
49.0 0.02041 36.97181 37.75281
44.0 0.02273 36.95151 37.72862
39.0 0.02564 36.93124 37.70465
31.0 0.03226 36.91099 37.68090
46.0 0.02174 36.89077 37.65737
29.0 0.03448 36.87058 37.63406
41.0 0.02439 36.85042 37.61095
38.0 0.02632 36.83028 37.58807
35.0 0.02857 36.81018 37.56540
40.0 0.02500 36.79010 37.54293
29.0 0.03448 36.77005 37.52068
35.0 0.02857 36.75002 37.49863
36.0 0.02778 36.73002 37.47680
24.0 0.0417 36.71006 37.45517
32.0 0.03125 36.69011 37.43375
33.0 0.03030 36.67020 37.41254
35.0 0.02857 36.65031 37.39154
27.0 0.0370 36.63045 37.37074
41.0 0.02439 36.61062 37.35015
40.0 0.02500 36.59081 37.32976
35.0 0.02857 36.57104 37.30958
36.0 0.02778 36.55128 37.28961
36.0 0.02778 36.53156 37.26985
38.0 0.02632 36.51186 37.25029
42.0 0.02381 36.49220 37.23094
34.0 0.02941 36.47255 37.21180
21.0 0.0476 36.45294 37.19287
35.0 0.02857 36.43335 37.17415
40.0 0.02500 36.41379 37.15565
51.0 0.01961 36.39425 37.13735
47.0 0.02128 36.37474 37.11927
38.0 0.02632 36.35526 37.10141
31.0 0.03226 36.33581 37.08377
37.0 0.02703 36.31638 37.06634
31.0 0.03226 36.29698 37.04913
35.0 0.02857 36.27761 37.03215
40.0 0.02500 36.25826 37.01539
33.0 0.03030 36.23894 36.99886
35.0 0.02857 36.21964 36.98256
26.0 0.0385 36.20037 36.96649
30.0 0.03333 36.18113 36.95065
48.0 0.02083 36.16192 36.93506
33.0 0.03030 36.14273 36.91970
41.0 0.02439 36.12357 36.90458
48.0 0.02083 36.10443 36.88971
35.0 0.02857 36.08532 36.87509
36.0 0.02778 36.06624 36.86072
45.0 0.02222 36.04718 36.84661
46.0 0.02174 36.02815 36.83276
31.0 0.03226 36.00915 36.81917
37.0 0.02703 35.99017 36.80585
35.0 0.02857 35.97121 36.79279
41.0 0.02439 35.95229 36.78002
42.0 0.02381 35.93339 36.76752
31.0 0.03226 35.91452 36.75531
40.0 0.02500 35.89566 36.74338
45.0 0.02222 35.87684 36.73175
41.0 0.02439 35.85805 36.72042
40.0 0.02500 35.83928 36.70938
40.0 0.02500 35.82053 36.69866
29.0 0.03448 35.80181 36.68825
45.0 0.02222 35.78312 36.67816
32.0 0.03125 35.76445 36.66839
28.0 0.0357 35.74581 36.65895
38.0 0.02632 35.72719 36.64985
35.0 0.02857 35.70860 36.64108
38.0 0.02632 35.69003 36.63266
34.0 0.02941 35.67149 36.62459
49.0 0.02041 35.65298 36.61688
45.0 0.02222 35.63449 36.60954
35.0 0.02857 35.61603 36.60256
32.0 0.03125 35.59759 36.59596
34.0 0.02941 35.57917 36.58974
34.0 0.02941 35.56079 36.58390
29.0 0.03448 35.54242 36.57846
25.0 0.0400 35.52409 36.57343
34.0 0.02941 35.50578 36.56879
37.0 0.02703 35.48749 36.56456
34.0 0.02941 35.46923 36.56075
33.0 0.03030 35.45099 36.55736
40.0 0.02500 35.43278 36.55439
35.0 0.02857 35.41459 36.55185
37.0 0.02703 35.39643 36.54975
38.0 0.02632 35.37829 36.54809
43.0 0.02326 35.36018 36.54687
34.0 0.02941 35.34209 36.54609
41.0 0.02439 35.32403 36.54576
42.0 0.02381 35.30599 36.54588
50.0 0.02000 35.28798 36.54644
37.0 0.02703 35.26999 36.54746
26.0 0.0385 35.25203 36.54893
30.0 0.03333 35.23409 36.55084
41.0 0.02439 35.21618 36.55320
37.0 0.02703 35.19829 36.55600
43.0 0.02326 35.18042 36.55924
41.0 0.02439 35.16258 36.56290
33.0 0.03030 35.14476 36.56699
32.0 0.03125 35.12698 36.57150
31.0 0.03226 35.10921 36.57640
36.0 0.02778 35.09146 36.58169
39.0 0.02564 35.07375 36.58735
33.0 0.03030 35.05605 36.59337
26.0 0.0385 35.03838 36.59973
35.0 0.02857 35.02074 36.60640
30.0 0.03333 35.00312 36.61337
30.0 0.03333 34.98552 36.62059
31.0 0.03226 34.96795 36.62806
33.0 0.03030 34.95040 36.63572
35.0 0.02857 34.93287 36.64355
33.0 0.03030 34.91537 36.65152
31.0 0.03226 34.89790 36.65957
40.0 0.02500 34.88044 36.66766
37.0 0.02703 34.86301 36.67576
29.0 0.03448 34.84561 36.68380
40.0 0.02500 34.82823 36.69174
33.0 0.03030 34.81087 36.69951
40.0 0.02500 34.79354 36.70707
30.0 0.03333 34.77623 36.71434
26.0 0.0385 34.75894 36.72127
36.0 0.02778 34.74168 36.72779
34.0 0.02941 34.72444 36.73382
37.0 0.02703 34.70723 36.73930
41.0 0.02439 34.69003 36.74416
37.0 0.02703 34.67287 36.74833
43.0 0.02326 34.65572 36.75172
40.0 0.02500 34.63860 36.75428
31.0 0.03226 34.62150 36.75592
43.0 0.02326 34.60443 36.75658
33.0 0.03030 34.58738 36.75618
24.0 0.0417 34.57035 36.75466
36.0 0.02778 34.55334 36.75195
24.0 0.0417 34.53637 36.74799
28.0 0.0357 34.51941 36.74272
44.0 0.02273 34.50247 36.73609
40.0 0.02500 34.48556 36.72806
40.0 0.02500 34.46867 36.71857
38.0 0.02632 34.45181 36.56913
32.0 0.03125 34.43497 36.55764
44.0 0.02273 34.41815 36.54459
29.0 0.03448 34.40135 36.52996
36.0 0.02778 34.38458 36.51376
38.0 0.02632 34.36783 36.49597
32.0 0.03125 34.35110 36.47660
45.0 0.02222 34.33440 36.45566
31.0 0.03226 34.31772 36.43317
33.0 0.03030 34.30106 36.40916
41.0 0.02439 34.28442 36.38366
38.0 0.02632 34.26781 36.35670
33.0 0.03030 34.25122 36.32835
42.0 0.02381 34.23465 36.29862
41.0 0.02439 34.21811 36.26759
35.0 0.02857 34.20158 36.23532
27.0 0.0370 34.18509 36.20187
40.0 0.02500 34.16861 36.16730
41.0 0.02439 34.15215 36.13169
45.0 0.02222 34.13572 36.09509
48.0 0.02083 34.11931 36.05758
40.0 0.02500 34.10292 36.01925
53.0 0.01887 34.08656 35.98015
38.0 0.02632 34.07022 35.94037
27.0 0.0370 34.05389 35.89997
41.0 0.02439 34.03760 35.85902
28.0 0.0357 34.02132 35.81760
41.0 0.02439 34.00507 35.77576
35.0 0.02857 33.98883 35.73359
43.0 0.02326 33.97263 35.69113
40.0 0.02500 33.95644 35.64846
50.0 0.02000 33.94027 35.60562
40.0 0.02500 33.92413 35.56268
47.0 0.02128 33.90801 35.51968
37.0 0.02703 33.89191 35.47667
43.0 0.02326 33.87584 35.43371
52.0 0.01923 33.85978 35.39082
37.0 0.02703 33.84375 35.34807
37.0 0.02703 33.82773 35.30547
37.0 0.02703 33.81174 35.26306
39.0 0.02564 33.79577 35.22088
37.0 0.02703 33.77983 35.17895
37.0 0.02703 33.76390 35.13729
57.0 0.01754 33.74800 35.09594
27.0 0.0370 33.73212 35.05491
36.0 0.02778 33.71626 35.01422
41.0 0.02439 33.70042 34.97389
29.0 0.03448 33.68460 34.93392
37.0 0.02703 33.66881 34.89434
44.0 0.02273 33.65304 34.85515
40.0 0.02500 33.63728 34.81636
43.0 0.02326 33.62156 34.77798
31.0 0.03226 33.60584 34.74001
46.0 0.02174 33.59016 34.70245
41.0 0.02439 33.57449 34.66532
38.0 0.02632 33.55885 34.62861
42.0 0.02381 33.54322 34.59233
47.0 0.02128 33.52762 34.55647
45.0 0.02222 33.51204 34.52103
37.0 0.02703 33.49648 34.48601
37.0 0.02703 33.48094 34.45141
39.0 0.02564 33.46542 34.41722
31.0 0.03226 33.44992 34.38345
33.0 0.03030 33.43444 34.35008
38.0 0.02632 33.41899 34.31712
41.0 0.02439 33.40356 34.28455
31.0 0.03226 33.38814 34.25238
38.0 0.02632 33.37275 34.22059
32.0 0.03125 33.35738 34.18918
35.0 0.02857 33.34203 34.15815
42.0 0.02381 33.32669 34.12749
34.0 0.02941 33.31139 34.09719
34.0 0.02941 33.29610 34.06725
29.0 0.03448 33.28083 34.03765
36.0 0.02778 33.26559 34.00841
37.0 0.02703 33.25036 33.97950
35.0 0.02857 33.23515 33.95092
40.0 0.02500 33.21997 33.92266
28.0 0.0357 33.20480 33.89472
34.0 0.02941 33.18966 33.86709
47.0 0.02128 33.17454 33.83977
47.0 0.02128 33.15944 33.81274
33.0 0.03030 33.14435 33.78601
48.0 0.02083 33.12929 33.75956
38.0 0.02632 33.11425 33.73339
27.0 0.0370 33.09922 33.70749
33.0 0.03030 33.08422 33.68186
24.0 0.0417 33.06924 33.65649
36.0 0.02778 33.05428 33.63137
24.0 0.0417 33.03934 33.60651
42.0 0.02381 33.02442 33.58189
36.0 0.02778 33.00952 33.55750
40.0 0.02500 32.99464 33.53336
42.0 0.02381 32.97978 33.50943
34.0 0.02941 32.96494 33.48573
35.0 0.02857 32.95012 33.46224
29.0 0.03448 32.93532 33.43897
29.0 0.03448 32.92054 33.41590
41.0 0.02439 32.90578 33.39304
37.0 0.02703 32.89104 33.37038
40.0 0.02500 32.87632 33.34791
34.0 0.02941 32.86162 33.32563
31.0 0.03226 32.84694 33.30354
28.0 0.0357 32.83228 33.28162
26.0 0.0385 32.81764 33.25988
38.0 0.02632 32.80302 33.23831
27.0 0.0370 32.78841 33.21692
24.0 0.0417 32.77383 33.19568
31.0 0.03226 32.75927 33.17461
44.0 0.02273 32.74472 33.15370
36.0 0.02778 32.73020 33.13294
22.0 0.0455 32.71570 33.11233
44.0 0.02273 32.70121 33.09187
36.0 0.02778 32.68675 33.07155
35.0 0.02857 32.67230 33.05138
30.0 0.03333 32.65788 33.03133
30.0 0.03333 32.64347 33.01143
31.0 0.03226 32.62909 32.99166
31.0 0.03226 32.61472 32.97202
27.0 0.0370 32.60036 32.95250
30.0 0.03333 32.58604 32.93311
34.0 0.02941 32.57173 32.91384
20.0 0.0500 32.55744 32.89468
28.0 0.0357 32.54316 32.87564
33.0 0.03030 32.52891 32.85672
37.0 0.02703 32.51468 34.30911
31.0 0.03226 32.50046 34.30133
36.0 0.02778 32.48627 34.29378
48.0 0.02083 32.47209 34.28645
30.0 0.03333 32.45793 34.27935
37.0 0.02703 32.44379 34.27248
30.0 0.03333 32.42968 34.26583
27.0 0.0370 32.41557 34.25941
26.0 0.0385 32.40149 34.25322
32.0 0.03125 32.38743 34.24725
31.0 0.03226 32.37338 34.24151
21.0 0.0476 32.35936 34.23599
24.0 0.0417 32.34535 34.23071
36.0 0.02778 32.33136 34.22564
36.0 0.02778 32.31739 34.22081
31.0 0.03226 32.30344 34.21621
25.0 0.0400 32.28951 34.21183
33.0 0.03030 32.27560 34.20769
28.0 0.0357 32.26170 34.20377
37.0 0.02703 32.24782 34.20009
35.0 0.02857 32.23397 34.19665
34.0 0.02941 32.22013 34.19343
33.0 0.03030 32.20631 34.19045
36.0 0.02778 32.19250 34.18771
31.0 0.03226 32.17872 34.18520
29.0 0.03448 32.16495 34.18294
33.0 0.03030 32.15120 34.18092
26.0 0.0385 32.13747 34.17913
32.0 0.03125 32.12376 34.17760
28.0 0.0357 32.11007 34.17631
40.0 0.02500 32.09639 34.17526
31.0 0.03226 32.08274 34.17447
37.0 0.02703 32.06910 34.17393
35.0 0.02857 32.05548 34.17364
40.0 0.02500 32.04188 34.17361
34.0 0.02941 32.02829 34.17383
51.0 0.01961 32.01472 34.17432
32.0 0.03125 32.00118 34.17507
34.0 0.02941 31.98765 34.17609
31.0 0.03226 31.97413 34.17737
32.0 0.03125 31.96064 34.17892
28.0 0.0357 31.94716 34.18075
34.0 0.02941 31.93370 34.18286
29.0 0.03448 31.92026 34.18524
40.0 0.02500 31.90684 34.18791
21.0 0.0476 31.89343 34.19086
38.0 0.02632 31.88005 34.19410
43.0 0.02326 31.86668 34.19764
30.0 0.03333 31.85332 34.20147
42.0 0.02381 31.83999 34.20559
28.0 0.0357 31.82667 34.21003
41.0 0.02439 31.81337 34.21477
42.0 0.02381 31.80009 34.21982
37.0 0.02703 31.78683 34.22519
31.0 0.03226 31.77358 34.23087
32.0 0.03125 31.76035 34.23688
25.0 0.0400 31.74714 34.24321
24.0 0.0417 31.73394 34.24988
30.0 0.03333 31.72077 34.25689
45.0 0.02222 31.70761 34.26423
32.0 0.03125 31.69446 34.27192
21.0 0.0476 31.68134 34.27996
26.0 0.0385 31.66823 34.28836
40.0 0.02500 31.65514 34.29712
34.0 0.02941 31.64207 34.30625
31.0 0.03226 31.62901 34.31575
32.0 0.03125 31.61597 34.32563
42.0 0.02381 31.60295 34.33590
32.0 0.03125 31.58994 34.34654
33.0 0.03030 31.57695 34.35759
33.0 0.03030 31.56398 34.36904
31.0 0.03226 31.55103 34.38090
33.0 0.03030 31.53809 34.39318
35.0 0.02857 31.52517 34.40587
36.0 0.02778 31.51227 34.41900
33.0 0.03030 31.49938 34.43256
42.0 0.02381 31.48651 34.44657
37.0 0.02703 31.47366 34.46102
39.0 0.02564 31.46082 34.47594
43.0 0.02326 31.44801 34.49132
26.0 0.0385 31.43520 34.50717
31.0 0.03226 31.42242 34.52351
43.0 0.02326 31.40965 34.54034
37.0 0.02703 31.39690 34.55767
44.0 0.02273 31.38416 34.57551
39.0 0.02564 31.37144 34.59386
41.0 0.02439 31.35874 34.61275
35.0 0.02857 31.34605 34.63217
40.0 0.02500 31.33339 34.65214
34.0 0.02941 31.32073 34.67266
44.0 0.02273 31.30810 34.69376
45.0 0.02222 31.29548 34.71543
32.0 0.03125 31.28287 34.73769
36.0 0.02778 31.27029 34.76055
33.0 0.03030 31.25772 34.78402
49.0 0.02041 31.24516 34.80812
45.0 0.02222 31.23262 34.83285
42.0 0.02381 31.22010 34.85823
47.0 0.02128 31.20759 34.88428
42.0 0.02381 31.19510 34.91099
33.0 0.03030 31.18263 34.93840
34.0 0.02941 31.17018 34.96651
28.0 0.0357 31.15774 34.99533
41.0 0.02439 31.14531 35.02488
33.0 0.03030 31.13290 35.05518
41.0 0.02439 31.12051 35.08624
46.0 0.02174 31.10813 35.11808
30.0 0.03333 31.09577 35.15070
37.0 0.02703 31.08343 35.18414
37.0 0.02703 31.07110 35.21841
36.0 0.02778 31.05878 35.25351
34.0 0.02941 31.04649 35.28948
39.0 0.02564 31.03421 35.32634
36.0 0.02778 31.02194 35.36409
48.0 0.02083 31.00969 35.40276
28.0 0.0357 30.99746 35.44236
47.0 0.02128 30.98524 35.48293
32.0 0.03125 30.97304 35.52448
34.0 0.02941 30.96085 35.56703
51.0 0.01961 30.94868 35.61061
42.0 0.02381 30.93653 35.65523
32.0 0.03125 30.92439 35.70093
39.0 0.02564 30.91226 35.74772
44.0 0.02273 30.90015 35.79563
45.0 0.02222 30.88806 35.84468
33.0 0.03030 30.87598 35.89492
41.0 0.02439 30.86392 35.94634
31.0 0.03226 30.85188 35.99900
37.0 0.02703 30.83984 36.05291
45.0 0.02222 30.82783 36.10811
44.0 0.02273 30.81583 36.16462
44.0 0.02273 30.80384 36.22247
29.0 0.03448 30.79188 36.28171
38.0 0.02632 30.77992 36.34235
51.0 0.01961 30.76798 36.40444
30.0 0.03333 30.75606 36.46801
31.0 0.03226 30.74415 36.53309
33.0 0.03030 30.73226 36.59972
45.0 0.02222 30.72038 36.66794
37.0 0.02703 30.70851 36.73778
40.0 0.02500 30.69666 36.80929
36.0 0.02778 30.68483 36.88251
36.0 0.02778 30.67302 36.95747
42.0 0.02381 30.66121 37.03423
39.0 0.02564 30.64942 37.03619
36.0 0.02778 30.63765 37.11722
47.0 0.02128 30.62589 37.20016
41.0 0.02439 30.61415 37.28508
35.0 0.02857 30.60242 37.37202
43.0 0.02326 30.59071 37.46102
34.0 0.02941 30.57901 37.55214
44.0 0.02273 30.56733 37.64544
44.0 0.02273 30.55566 37.74096
40.0 0.02500 30.54400 37.83877
50.0 0.02000 30.53236 37.93892
36.0 0.02778 30.52074 38.04147
39.0 0.02564 30.50913 42.29309
49.0 0.02041 30.49753 42.43147
49.0 0.02041 30.48595 42.57278
38.0 0.02632 30.47439 42.71708
36.0 0.02778 30.46283 42.86446
41.0 0.02439 30.45130 43.01498
45.0 0.02222 30.43978 43.16872
40.0 0.02500 30.42827 43.32576
51.0 0.01961 30.41677 43.48617
25.0 0.0400 30.40529 43.65005
64.0 0.01563 30.39383 43.81746
52.0 0.01923 30.38238 43.98851
38.0 0.02632 30.37094 44.16326
36.0 0.02778 30.35952 44.34182
47.0 0.02128 30.34811 44.52427
32.0 0.03125 30.33672 44.71071
34.0 0.02941 30.32534 44.90123
40.0 0.02500 30.31398 45.09593
51.0 0.01961 30.30263 45.29490
41.0 0.02439 30.29129 45.49825
46.0 0.02174 30.27997 45.70609
50.0 0.02000 30.26866 45.91850
53.0 0.01887 30.25737 46.13560
42.0 0.02381 30.24609 46.35750
39.0 0.02564 30.23482 46.58431
51.0 0.01961 30.22357 46.81614
41.0 0.02439 30.21233 47.05309
45.0 0.02222 30.20111 47.29530
41.0 0.02439 30.18990 47.54286
59.0 0.01695 30.17870 47.79589
42.0 0.02381 30.16752 48.05453
38.0 0.02632 30.15635 48.31887
52.0 0.01923 30.14520 48.58905
45.0 0.02222 30.13406 48.86517
37.0 0.02703 30.12293 49.14736
41.0 0.02439 30.11182 49.43575
54.0 0.01852 30.10072 49.73043
59.0 0.01695 30.08963 50.03154
61.0 0.01639 30.07856 50.33920
56.0 0.01786 30.06750 50.65350
44.0 0.02273 30.05646 50.97457
53.0 0.01887 30.04543 51.30252
61.0 0.01639 30.03441 51.63746
49.0 0.02041 30.02341 51.97947
59.0 0.01695 30.01242 52.32868
52.0 0.01923 30.00144 52.68517
47.0 0.02128 29.99048 53.04901
51.0 0.01961 29.97953 53.42030
47.0 0.02128 29.96859 53.79911
55.0 0.01818 29.95767 54.18549
49.0 0.02041 29.94676 54.57951
72.0 0.01389 29.93586 54.98121
61.0 0.01639 29.92498 55.39061
58.0 0.01724 29.91411 55.80773
80.0 0.01250 29.90326 56.23257
57.0 0.01754 29.89241 56.66512
65.0 0.01538 29.88158 57.10534
80.0 0.01250 29.87077 57.55318
60.0 0.01667 29.85996 58.00857
62.0 0.01613 29.84917 58.47140
67.0 0.01493 29.83840 58.94157
55.0 0.01818 29.82763 59.41890
61.0 0.01639 29.81688 59.90323
64.0 0.01563 29.80614 60.39435
63.0 0.01587 29.79542 60.89201
57.0 0.01754 29.78471 61.39595
61.0 0.01639 29.77401 61.90583
66.0 0.01515 29.76333 62.42131
71.0 0.01408 29.75265 62.94200
63.0 0.01587 29.74199 63.46746
83.0 0.01205 29.73135 63.99719
62.0 0.01613 29.72071 64.53069
64.0 0.01563 29.71009 65.06737
85.0 0.01176 29.69948 65.60660
69.0 0.01449 29.68889 66.14772
68.0 0.01471 29.67830 66.68999
67.0 0.01493 29.66774 67.23266
66.0 0.01515 29.65718 67.77489
92.0 0.01087 29.64663 68.31580
76.0 0.01316 29.63610 68.85447
87.0 0.01149 29.62558 69.38993
85.0 0.01176 29.61508 69.92117
62.0 0.01613 29.60458 70.44715
74.0 0.01351 29.59410 70.96675
76.0 0.01316 29.58363 71.47887
88.0 0.01136 29.57318 71.98232
77.0 0.01299 29.56273 72.47596
89.0 0.01124 29.55230 72.95857
71.0 0.01408 29.54188 73.42896
71.0 0.01408 29.53148 73.88593
66.0 0.01515 29.52108 74.32826
94.0 0.01064 29.51070 74.75479
93.0 0.01075 29.50033 75.16434
88.0 0.01136 29.48997 75.55581
81.0 0.01235 29.47963 75.92809
90.0 0.01111 29.46930 76.28016
89.0 0.01124 29.45898 76.61107
97.0 0.01031 29.44867 76.91991
73.0 0.01370 29.43837 77.20586
66.0 0.01515 29.42809 77.46820
88.0 0.01136 29.41782 77.70632
87.0 0.01149 29.40756 77.91969
86.0 0.01163 29.39731 78.10788
98.0 0.01020 29.38708 78.27061
71.0 0.01408 29.37685 78.40767
80.0 0.01250 29.36664 78.51904
97.0 0.01031 29.35645 78.60477
68.0 0.01471 29.34626 78.66502
76.0 0.01316 29.33608 78.70013
86.0 0.01163 29.32592 78.71050
94.0 0.01064 29.31577 78.69666
85.0 0.01176 29.30563 78.65928
93.0 0.01075 29.29550 78.59908
83.0 0.01205 29.28539 78.51692
94.0 0.01064 29.27528 78.41372
61.0 0.01639 29.26519 78.29050
75.0 0.01333 29.25511 78.14833
79.0 0.01266 29.24504 77.98836
77.0 0.01299 29.23499 77.81176
73.0 0.01370 29.22495 77.61978
83.0 0.01205 29.21491 77.41368
79.0 0.01266 29.20489 77.19476
101.0 0.00990 29.19488 76.96429
79.0 0.01266 29.18488 76.72359
74.0 0.01351 29.17490 76.47398
70.0 0.01429 29.16492 76.21673
81.0 0.01235 29.15496 75.95313
75.0 0.01333 29.14501 75.68443
66.0 0.01515 29.13507 75.41187
90.0 0.01111 29.12514 75.13660
81.0 0.01235 29.11522 74.85982
79.0 0.01266 29.10532 74.58263
85.0 0.01176 29.09542 74.30608
75.0 0.01333 29.08554 74.03121
71.0 0.01408 29.07566 73.75902
72.0 0.01389 29.06581 73.49040
73.0 0.01370 29.05596 73.22626
56.0 0.01786 29.04612 72.96745
64.0 0.01563 29.03629 72.71471
80.0 0.01250 29.02648 72.46882
95.0 0.01053 29.01667 72.23046
89.0 0.01124 29.00688 72.00028
71.0 0.01408 28.99710 71.77889
76.0 0.01316 28.98733 71.56686
67.0 0.01493 28.97757 71.36469
83.0 0.01205 28.96782 71.17290
86.0 0.01163 28.95809 70.99192
74.0 0.01351 28.94836 70.82220
70.0 0.01429 28.93865 70.66409
78.0 0.01282 28.92894 70.51797
86.0 0.01163 28.91925 70.38417
87.0 0.01149 28.90957 70.26300
64.0 0.01563 28.89990 70.15475
69.0 0.01449 28.89024 70.05967
67.0 0.01493 28.88059 69.97800
86.0 0.01163 28.87095 70.09541
77.0 0.01299 28.86132 70.04255
72.0 0.01389 28.85171 70.00375
83.0 0.01205 28.84210 69.97922
76.0 0.01316 28.83250 69.96912
56.0 0.01786 28.82292 69.97363
71.0 0.01408 28.81335 69.99291
90.0 0.01111 28.80379 70.02711
81.0 0.01235 28.79424 70.07637
77.0 0.01299 28.78469 70.14085
77.0 0.01299 28.77516 70.22069
87.0 0.01149 28.76564 70.31600
93.0 0.01075 28.75613 70.42696
70.0 0.01429 28.74664 70.55368
74.0 0.01351 28.73715 70.69632
80.0 0.01250 28.72767 70.85498
92.0 0.01087 28.71820 71.02985
77.0 0.01299 28.70875 71.22103
80.0 0.01250 28.69930 71.42869
68.0 0.01471 28.68987 71.65297
87.0 0.01149 28.68044 71.89400
96.0 0.01042 28.67103 72.15199
90.0 0.01111 28.66162 72.42704
98.0 0.01020 28.65223 72.71934
86.0 0.01163 28.64285 73.02905
74.0 0.01351 28.63347 73.35634
89.0 0.01124 28.62411 73.70140
83.0 0.01205 28.61476 74.06437
85.0 0.01176 28.60542 74.44546
104.0 0.00962 28.59608 74.84483
77.0 0.01299 28.58676 75.26272
87.0 0.01149 28.57745 75.69927
84.0 0.01190 28.56815 76.15467
91.0 0.01099 28.55886 76.62914
104.0 0.00962 28.54958 77.12286
77.0 0.01299 28.54031 77.63605
87.0 0.01149 28.53105 78.16888
79.0 0.01266 28.52180 78.72153
98.0 0.01020 28.51256 79.29423
98.0 0.01020 28.50333 79.88713
89.0 0.01124 28.49410 80.50043
100.0 0.01000 28.48489 81.13429
92.0 0.01087 28.47569 81.78890
92.0 0.01087 28.46650 82.46441
98.0 0.01020 28.45732 83.16097
108.0 0.00926 28.44815 83.87868
114.0 0.00877 28.43899 84.61770
104.0 0.00962 28.42984 85.37811
108.0 0.00926 28.42070 86.15999
96.0 0.01042 28.41157 86.96339
89.0 0.01124 28.40244 87.78834
95.0 0.01053 28.39334 88.63486
102.0 0.00980 28.38423 89.50288
101.0 0.00990 28.37514 90.39236
110.0 0.00909 28.36606 91.30318
110.0 0.00909 28.35699 92.23520
117.0 0.00855 28.34792 93.18820
108.0 0.00926 28.33887 94.16194
107.0 0.00935 28.32982 95.15611
113.0 0.00885 28.32079 96.17033
83.0 0.01205 28.31177 97.20417
103.0 0.00971 28.30275 98.25711
99.0 0.01010 28.29374 99.32858
105.0 0.00952 28.28475 100.41788
119.0 0.00840 28.27576 101.52429
126.0 0.00794 28.26678 102.64694
114.0 0.00877 28.25782 103.78487
115.0 0.00870 28.24886 104.93704
110.0 0.00909 28.23991 106.10229
101.0 0.00990 28.23097 107.27934
138.0 0.00725 28.22204 108.46680
117.0 0.00855 28.21312 109.66315
130.0 0.00769 28.20421 110.86673
122.0 0.00820 28.19530 112.07579
124.0 0.00806 28.18641 113.28841
130.0 0.00769 28.17753 114.50257
144.0 0.00694 28.16866 115.71606
114.0 0.00877 28.15979 116.92663
140.0 0.00714 28.15093 118.13179
137.0 0.00730 28.14209 119.32900
120.0 0.00833 28.13325 120.51557
148.0 0.00676 28.12442 121.68866
114.0 0.00877 28.11560 122.84538
138.0 0.00725 28.10679 123.98271
125.0 0.00800 28.09799 125.09753
132.0 0.00758 28.08920 126.18662
141.0 0.00709 28.08042 127.24677
134.0 0.00746 28.07164 128.27464
128.0 0.00781 28.06288 129.26694
130.0 0.00769 28.05412 130.22034
146.0 0.00685 28.04538 131.13148
144.0 0.00694 28.03664 131.99710
131.0 0.00763 28.02791 132.81398
126.0 0.00794 28.01919 133.57893
156.0 0.00641 28.01048 134.28899
136.0 0.00735 28.00178 134.94119
125.0 0.00800 27.99308 135.53288
122.0 0.00820 27.98440 136.06145
140.0 0.00714 27.97572 136.52455
117.0 0.00855 27.96705 136.92010
149.0 0.00671 27.95840 137.24625
127.0 0.00787 27.94975 137.50134
163.0 0.00613 27.94110 137.68416
137.0 0.00730 27.93247 137.79364
142.0 0.00704 27.92385 137.82910
126.0 0.00794 27.91524 137.79016
121.0 0.00826 27.90663 137.67680
145.0 0.00690 27.89803 137.48923
148.0 0.00676 27.88944 137.22810
139.0 0.00719 27.88086 136.89424
138.0 0.00725 27.87229 136.48886
144.0 0.00694 27.86373 136.01349
129.0 0.00775 27.85517 135.46985
141.0 0.00709 27.84663 134.85997
133.0 0.00752 27.83809 134.18610
151.0 0.00662 27.82956 133.45074
138.0 0.00725 27.82104 132.65651
134.0 0.00746 27.81252 131.80626
148.0 0.00676 27.80402 130.90295
148.0 0.00676 27.79552 129.94965
151.0 0.00662 27.78704 128.94957
134.0 0.00746 27.77856 127.90593
146.0 0.00685 27.77009 126.82200
151.0 0.00662 27.76163 125.70111
143.0 0.00699 27.75317 124.54654
127.0 0.00787 27.74473 123.36156
147.0 0.00680 27.73629 122.14941
129.0 0.00775 27.72786 120.91327
139.0 0.00719 27.71944 119.65623
140.0 0.00714 27.71103 118.38131
143.0 0.00699 27.70262 117.09142
128.0 0.00781 27.69423 115.78937
148.0 0.00676 27.68583 114.47784
116.0 0.00862 27.67745 113.15939
135.0 0.00741 27.66908 111.83646
135.0 0.00741 27.66072 110.51134
143.0 0.00699 27.65236 109.18621
134.0 0.00746 27.64401 107.86311
131.0 0.00763 27.63567 106.54393
130.0 0.00769 27.62734 105.23042
105.0 0.00952 27.61902 103.92424
133.0 0.00752 27.61070 102.62688
106.0 0.00943 27.60239 101.33974
129.0 0.00775 27.59409 100.06406
127.0 0.00787 27.58580 98.80100
119.0 0.00840 27.57752 97.55160
117.0 0.00855 27.56924 96.31676
130.0 0.00769 27.56097 95.09734
127.0 0.00787 27.55271 93.89404
96.0 0.01042 27.54446 92.70753
121.0 0.00826 27.53621 91.53836
125.0 0.00800 27.52797 90.38699
113.0 0.00885 27.51974 89.25383
106.0 0.00943 27.51152 88.13924
98.0 0.01020 27.50331 87.04346
104.0 0.00962 27.49510 85.96671
97.0 0.01031 27.48690 84.90912
91.0 0.01099 27.47871 83.87084
98.0 0.01020 27.47052 82.85190
97.0 0.01031 27.46235 81.85233
97.0 0.01031 27.45418 80.87209
108.0 0.00926 27.44602 79.91115
85.0 0.01176 27.43786 78.96941
100.0 0.01000 27.42972 78.04674
94.0 0.01064 27.42158 77.14301
101.0 0.00990 27.41345 76.25806
105.0 0.00952 27.40532 75.39170
61.0 0.01639 27.39721 74.54372
90.0 0.01111 27.38910 73.71394
92.0 0.01087 27.38100 72.90208
108.0 0.00926 27.37291 72.10794
98.0 0.01020 27.36482 71.33125
88.0 0.01136 27.35674 70.57174
101.0 0.00990 27.34867 69.82915
105.0 0.00952 27.34060 69.10324
83.0 0.01205 27.33255 68.39370
88.0 0.01136 27.32450 67.70026
92.0 0.01087 27.31645 67.02265
93.0 0.01075 27.30842 66.36058
80.0 0.01250 27.30039 65.71377
84.0 0.01190 27.29237 65.08195
73.0 0.01370 27.28436 64.46483
91.0 0.01099 27.27635 63.86214
87.0 0.01149 27.26835 63.27361
90.0 0.01111 27.26036 62.69896
81.0 0.01235 27.25237 62.13793
81.0 0.01235 27.24440 61.59025
64.0 0.01563 27.23643 61.05568
73.0 0.01370 27.22846 60.53396
86.0 0.01163 27.22050 60.02483
79.0 0.01266 27.21255 59.52806
65.0 0.01538 27.20461 59.04342
85.0 0.01176 27.19668 58.57065
66.0 0.01515 27.18875 58.10955
68.0 0.01471 27.18083 57.65990
72.0 0.01389 27.17291 57.22149
78.0 0.01282 27.16500 56.79409
65.0 0.01538 27.15710 56.37754
67.0 0.01493 27.14921 55.97162
86.0 0.01163 27.14132 55.57615
70.0 0.01429 27.13344 55.19096
72.0 0.01389 27.12557 54.81586
67.0 0.01493 27.11770 54.45073
73.0 0.01370 27.10984 54.09537
75.0 0.01333 27.10199 53.74965
69.0 0.01449 27.09414 53.41343
75.0 0.01333 27.08630 53.08658
50.0 0.02000 27.07847 52.76898
47.0 0.02128 27.07064 52.46051
63.0 0.01587 27.06283 52.16106
68.0 0.01471 27.05501 51.87053
65.0 0.01538 27.04721 51.58884
69.0 0.01449 27.03941 51.31591
46.0 0.02174 27.03161 51.05166
65.0 0.01538 27.02383 50.92441
61.0 0.01639 27.01605 49.26279
67.0 0.01493 27.00828 49.03537
72.0 0.01389 27.00051 48.81635
65.0 0.01538 26.99275 48.60574
66.0 0.01515 26.98500 48.40352
50.0 0.02000 26.97725 48.20971
56.0 0.01786 26.96951 48.02433
64.0 0.01563 26.96178 47.84741
68.0 0.01471 26.95405 47.67902
58.0 0.01724 26.94633 47.51924
47.0 0.02128 26.93861 47.36814
60.0 0.01667 26.93091 47.22584
56.0 0.01786 26.92320 47.09246
57.0 0.01754 26.91551 46.96818
64.0 0.01563 26.90782 46.85315
58.0 0.01724 26.90014 46.74761
50.0 0.02000 26.89246 46.65176
51.0 0.01961 26.88479 46.56588
51.0 0.01961 26.87713 46.49027
51.0 0.01961 26.86947 46.42526
65.0 0.01538 26.86182 46.37124
68.0 0.01471 26.85417 46.32863
58.0 0.01724 26.84653 46.29789
54.0 0.01852 26.83890 46.27953
53.0 0.01887 26.83127 46.27414
49.0 0.02041 26.82365 46.28233
63.0 0.01587 26.81604 46.30482
38.0 0.02632 26.80843 46.34234
50.0 0.02000 26.80083 46.39574
57.0 0.01754 26.79323 46.46591
54.0 0.01852 26.78564 46.55384
44.0 0.02273 26.77806 46.66059
53.0 0.01887 26.77048 46.78730
50.0 0.02000 26.76291 46.93520
60.0 0.01667 26.75535 48.28259
48.0 0.02083 26.74779 48.48508
62.0 0.01613 26.74023 48.71310
49.0 0.02041 26.73269 48.96826
37.0 0.02703 26.72514 49.25224
64.0 0.01563 26.71761 49.56683
61.0 0.01639 26.71008 49.91392
49.0 0.02041 26.70255 50.29546
54.0 0.01852 26.69504 50.71348
67.0 0.01493 26.68752 51.17010
50.0 0.02000 26.68002 51.66747
46.0 0.02174 26.67252 52.20781
42.0 0.02381 26.66502 52.79335
53.0 0.01887 26.65753 53.42633
55.0 0.01818 26.65005 54.10896
50.0 0.02000 26.64257 54.84340
51.0 0.01961 26.63510 55.63171
48.0 0.02083 26.62763 56.47577
45.0 0.02222 26.62017 57.37724
56.0 0.01786 26.61272 58.33746
53.0 0.01887 26.60527 59.35737
49.0 0.02041 26.59783 60.43731
35.0 0.02857 26.59039 61.57699
44.0 0.02273 26.58296 62.77514
44.0 0.02273 26.57553 64.02945
61.0 0.01639 26.56811 65.33624
43.0 0.02326 26.56069 66.69025
43.0 0.02326 26.55328 68.08424
56.0 0.01786 26.54588 69.50889
54.0 0.01852 26.53848 70.95231
49.0 0.02041 26.53109 72.40003
46.0 0.02174 26.52370 73.83474
56.0 0.01786 26.51632 75.23634
58.0 0.01724 26.50894 76.58216
61.0 0.01639 26.50157 77.84736
62.0 0.01613 26.49420 79.00567
42.0 0.02381 26.48684 80.03028
43.0 0.02326 26.47949 80.89515
61.0 0.01639 26.47214 81.57629
59.0 0.01695 26.46479 82.05327
46.0 0.02174 26.45745 82.31049
56.0 0.01786 26.45012 82.33836
65.0 0.01538 26.44279 82.13389
50.0 0.02000 26.43547 81.70105
59.0 0.01695 26.42815 81.05036
67.0 0.01493 26.42084 80.19814
63.0 0.01587 26.41353 79.16543
60.0 0.01667 26.40623 77.97658
50.0 0.02000 26.39893 76.65781
50.0 0.02000 26.39164 75.23586
57.0 0.01754 26.38436 73.73685
53.0 0.01887 26.37708 72.18530
49.0 0.02041 26.36980 70.60348
59.0 0.01695 26.36253 69.01102
56.0 0.01786 26.35526 67.42477
49.0 0.02041 26.34800 65.85880
62.0 0.01613 26.34075 64.32450
63.0 0.01587 26.33350 62.83088
54.0 0.01852 26.32625 61.38475
49.0 0.02041 26.31901 59.99112
51.0 0.01961 26.31177 58.65339
38.0 0.02632 26.30454 57.37367
51.0 0.01961 26.29732 56.15298
48.0 0.02083 26.29010 54.99150
44.0 0.02273 26.28288 53.88871
63.0 0.01587 26.27567 52.84360
58.0 0.01724 26.26847 51.85469
42.0 0.02381 26.26127 50.92027
53.0 0.01887 26.25407 50.03834
56.0 0.01786 26.24688 49.20680
35.0 0.02857 26.23969 48.42344
51.0 0.01961 26.23252 47.68599
46.0 0.02174 26.22534 46.99214
53.0 0.01887 26.21817 46.33962
49.0 0.02041 26.21100 45.72618
43.0 0.02326 26.20384 45.14960
41.0 0.02439 26.19668 44.60775
49.0 0.02041 26.18953 44.09854
42.0 0.02381 26.18238 43.61996
45.0 0.02222 26.17524 43.17012
40.0 0.02500 26.16810 42.74715
41.0 0.02439 26.16097 42.38414
40.0 0.02500 26.15384 42.01006
49.0 0.02041 26.14672 41.65794
33.0 0.03030 26.13960 41.32631
37.0 0.02703 26.13248 41.01377
39.0 0.02564 26.12537 40.71908
33.0 0.03030 26.11827 40.44100
43.0 0.02326 26.11117 40.17842
36.0 0.02778 26.10407 39.93031
28.0 0.0357 26.09698 39.69571
42.0 0.02381 26.08989 39.47372
37.0 0.02703 26.08281 39.26352
36.0 0.02778 26.07573 39.06435
29.0 0.03448 26.06866 38.87550
39.0 0.02564 26.06159 38.69636
38.0 0.02632 26.05453 38.52630
33.0 0.03030 26.04747 38.36479
33.0 0.03030 26.04041 38.21134
45.0 0.02222 26.03336 38.06548
29.0 0.03448 26.02632 37.92679
34.0 0.02941 26.01927 37.79489
35.0 0.02857 26.01224 37.66941
36.0 0.02778 26.00520 37.55004
39.0 0.02564 25.99817 37.43647
36.0 0.02778 25.99115 37.32843
37.0 0.02703 25.98413 37.22565
33.0 0.03030 25.97711 37.12791
43.0 0.02326 25.97010 37.03499
40.0 0.02500 25.96309 36.94669
28.0 0.0357 25.95609 36.86283
35.0 0.02857 25.94909 36.78323
40.0 0.02500 25.94210 36.70774
28.0 0.0357 25.93511 36.63620
37.0 0.02703 25.92812 36.56850
32.0 0.03125 25.92114 36.50449
48.0 0.02083 25.91416 36.44405
30.0 0.03333 25.90719 36.38709
26.0 0.0385 25.90022 36.33351
36.0 0.02778 25.89326 36.28320
41.0 0.02439 25.88630 36.23610
31.0 0.03226 25.87934 36.19210
39.0 0.02564 25.87239 32.20391
38.0 0.02632 25.86544 32.19429
30.0 0.03333 25.85849 32.18726
38.0 0.02632 25.85155 32.18280
34.0 0.02941 25.84462 32.18082
42.0 0.02381 25.83768 32.18131
31.0 0.03226 25.83076 32.18422
25.0 0.0400 25.82383 32.18950
45.0 0.02222 25.81691 32.19713
31.0 0.03226 25.80999 32.20707
30.0 0.03333 25.80308 32.21930
40.0 0.02500 25.79617 32.23380
34.0 0.02941 25.78927 32.25053
22.0 0.0455 25.78237 32.26950
27.0 0.0370 25.77547 32.29069
37.0 0.02703 25.76858 32.31408
38.0 0.02632 25.76169 32.33966
33.0 0.03030 25.75481 32.36744
24.0 0.0417 25.74792 32.39740
31.0 0.03226 25.74105 32.42955
29.0 0.03448 25.73417 32.46390
29.0 0.03448 25.72730 32.50043
31.0 0.03226 25.72044 32.53917
39.0 0.02564 25.71358 32.58012
32.0 0.03125 25.70672 32.62329
37.0 0.02703 25.69986 32.66870
33.0 0.03030 25.69301 32.71637
27.0 0.0370 25.68616 32.76632
32.0 0.03125 25.67932 32.81855
31.0 0.03226 25.67248 32.87311
27.0 0.0370 25.66565 32.93002
30.0 0.03333 25.65881 32.98930
41.0 0.02439 25.65199 33.05098
33.0 0.03030 25.64516 33.11512
36.0 0.02778 25.63834 33.18172
32.0 0.03125 25.63152 33.25083
33.0 0.03030 25.62471 33.32251
44.0 0.02273 25.61790 33.39678
36.0 0.02778 25.61109 33.47370
37.0 0.02703 25.60429 33.55331
32.0 0.03125 25.59749 33.63567
30.0 0.03333 25.59069 33.72082
27.0 0.0370 25.58390 33.80883
25.0 0.0400 25.57711 33.89976
32.0 0.03125 25.57032 33.99366
22.0 0.0455 25.56354 34.09061
29.0 0.03448 25.55676 34.19067
44.0 0.02273 25.54999 34.29393
34.0 0.02941 25.54322 34.40043
39.0 0.02564 25.53645 34.51028
28.0 0.0357 25.52968 34.62355
37.0 0.02703 25.52292 34.74034
24.0 0.0417 25.51616 34.86072
31.0 0.03226 25.50941 34.98478
42.0 0.02381 25.50266 35.11264
31.0 0.03226 25.49591 35.24439
30.0 0.03333 25.48916 35.38015
26.0 0.0385 25.48242 35.52000
29.0 0.03448 25.47569 35.66409
34.0 0.02941 25.46895 35.81252
36.0 0.02778 25.46222 35.96541
28.0 0.0357 25.45549 36.12291
29.0 0.03448 25.44877 36.28515
31.0 0.03226 25.44205 36.45227
20.0 0.0500 25.43533 36.62440
38.0 0.02632 25.42861 36.80173
35.0 0.02857 25.42190 36.98441
26.0 0.0385 25.41519 37.17259
38.0 0.02632 25.40849 37.36646
35.0 0.02857 25.40178 37.56620
30.0 0.03333 25.39508 38.30354
32.0 0.03125 25.38839 38.51921
35.0 0.02857 25.38169 38.74140
36.0 0.02778 25.37500 38.97031
35.0 0.02857 25.36832 39.20618
37.0 0.02703 25.36164 39.44923
40.0 0.02500 25.35495 39.69973
36.0 0.02778 25.34828 39.95793
44.0 0.02273 25.34160 40.22411
27.0 0.0370 25.33493 40.49857
38.0 0.02632 25.32826 40.78160
39.0 0.02564 25.32160 41.07352
34.0 0.02941 25.31493 41.37467
28.0 0.0357 25.30828 41.68540
35.0 0.02857 25.30162 42.00608
38.0 0.02632 25.29497 42.33712
41.0 0.02439 25.28831 42.67892
44.0 0.02273 25.28167 43.03192
38.0 0.02632 25.27502 43.39659
34.0 0.02941 25.26838 43.77342
36.0 0.02778 25.26174 44.16293
53.0 0.01887 25.25511 44.56569
37.0 0.02703 25.24847 44.98227
48.0 0.02083 25.24184 45.41331
36.0 0.02778 25.23522 45.85949
31.0 0.03226 25.22859 46.32149
40.0 0.02500 25.22197 46.80009
46.0 0.02174 25.21535 47.29609
43.0 0.02326 25.20873 47.81036
46.0 0.02174 25.20212 48.34383
50.0 0.02000 25.19551 48.89746
31.0 0.03226 25.18891 49.47232
36.0 0.02778 25.18230 50.08569
49.0 0.02041 25.17570 50.70657
45.0 0.02222 25.16910 51.35227
46.0 0.02174 25.16250 52.02416
36.0 0.02778 25.15591 52.72372
39.0 0.02564 25.14932 53.45248
45.0 0.02222 25.14273 54.21212
40.0 0.02500 25.13614 55.00439
47.0 0.02128 25.12956 55.83117
53.0 0.01887 25.12298 56.69447
35.0 0.02857 25.11640 57.59640
42.0 0.02381 25.10983 58.53920
59.0 0.01695 25.10325 59.52526
58.0 0.01724 25.09668 60.55711
63.0 0.01587 25.09012 61.63739
66.0 0.01515 25.08355 62.76892
57.0 0.01754 25.07699 63.95464
65.0 0.01538 25.07043 65.19765
58.0 0.01724 25.06387 66.50119
67.0 0.01493 25.05732 67.86868
66.0 0.01515 25.05076 69.30368
52.0 0.01923 25.04422 70.80986
61.0 0.01639 25.03767 72.39106
69.0 0.01449 25.03112 74.05130
74.0 0.01351 25.02458 75.79465
83.0 0.01205 25.01804 77.62537
81.0 0.01235 25.01151 79.54779
69.0 0.01449 25.00497 81.56635
73.0 0.01370 24.99844 83.68556
89.0 0.01124 24.99191 85.90997
86.0 0.01163 24.98538 88.24416
102.0 0.00980 24.97886 90.69270
87.0 0.01149 24.97233 93.26009
78.0 0.01282 24.96581 95.95068
87.0 0.01149 24.95929 98.76867
95.0 0.01053 24.95278 101.71800
102.0 0.00980 24.94626 104.80225
124.0 0.00806 24.93975 108.02457
102.0 0.00980 24.93324 111.38742
107.0 0.00935 24.92674 114.89262
146.0 0.00685 24.92023 118.54099
130.0 0.00769 24.91373 122.33226
127.0 0.00787 24.90723 126.26475
146.0 0.00685 24.90073 130.33516
146.0 0.00685 24.89424 134.53822
142.0 0.00704 24.88774 138.86650
167.0 0.00599 24.88125 143.30986
173.0 0.00578 24.87477 147.85509
160.0 0.00625 24.86828 152.48586
189.0 0.00529 24.86180 157.18187
168.0 0.00595 24.85531 161.91899
175.0 0.00571 24.84883 166.66862
210.0 0.00476 24.84236 171.39780
184.0 0.00543 24.83588 176.06900
204.0 0.00490 24.82941 180.64037
238.0 0.00420 24.82294 185.06598
202.0 0.00495 24.81647 189.29663
238.0 0.00420 24.81000 193.28046
264.0 0.00379 24.80353 196.96428
266.0 0.00376 24.79707 200.29498
226.0 0.00442 24.79061 203.22108
273.0 0.00366 24.78415 205.69456
260.0 0.00385 24.77769 207.67270
232.0 0.00431 24.77124 209.11984
287.0 0.003484 24.76479 210.00891
281.0 0.00356 24.75834 210.32272
252.0 0.00397 24.75189 210.05476
271.0 0.00369 24.74544 209.20947
247.0 0.00405 24.73900 207.80208
252.0 0.00397 24.73255 205.85783
258.0 0.00388 24.72611 203.41100
219.0 0.00457 24.71967 200.50304
251.0 0.00398 24.71324 197.18124
221.0 0.00452 24.70680 193.49661
234.0 0.00427 24.70037 189.50215
217.0 0.00461 24.69394 185.25128
216.0 0.00463 24.68751 180.79633
205.0 0.00488 24.68108 176.18719
202.0 0.00495 24.67465 171.47064
172.0 0.00581 24.66823 166.68941
155.0 0.00645 24.66181 161.88205
162.0 0.00617 24.65539 157.08249
154.0 0.00649 24.64897 152.32033
146.0 0.00685 24.64255 147.62067
122.0 0.00820 24.63614 143.00459
125.0 0.00800 24.62972 138.48938
130.0 0.00769 24.62331 134.08887
118.0 0.00847 24.61690 129.81386
126.0 0.00794 24.61050 125.67244
107.0 0.00935 24.60409 121.67041
105.0 0.00952 24.59769 117.81149
77.0 0.01299 24.59128 114.09779
80.0 0.01250 24.58488 110.52993
91.0 0.01099 24.57848 107.10734
77.0 0.01299 24.57209 103.82854
70.0 0.01429 24.56569 100.69123
78.0 0.01282 24.55930 97.69244
96.0 0.01042 24.55290 94.82878
77.0 0.01299 24.54651 92.09644
77.0 0.01299 24.54012 89.49127
74.0 0.01351 24.53374 87.00902
70.0 0.01429 24.52735 84.64523
75.0 0.01333 24.52097 82.39537
52.0 0.01923 24.51459 80.25490
48.0 0.02083 24.50820 78.21925
63.0 0.01587 24.50183 76.28389
48.0 0.02083 24.49545 74.25784
50.0 0.02000 24.48907 72.51100
66.0 0.01515 24.48270 70.85130
57.0 0.01754 24.47632 69.27452
60.0 0.01667 24.46995 67.77662
47.0 0.02128 24.46358 66.35365
57.0 0.01754 24.45721 65.00180
42.0 0.02381 24.45084 63.71741
45.0 0.02222 24.44448 62.49695
56.0 0.01786 24.43811 61.33705
64.0 0.01563 24.43175 60.23446
54.0 0.01852 24.42539 59.18610
41.0 0.02439 24.41903 58.18900
45.0 0.02222 24.41267 57.24037
54.0 0.01852 24.40631 56.33754
46.0 0.02174 24.39996 55.47796
54.0 0.01852 24.39361 54.65923
44.0 0.02273 24.38725 53.87909
50.0 0.02000 24.38090 53.13539
35.0 0.02857 24.37455 52.42608
44.0 0.02273 24.36820 51.74927
59.0 0.01695 24.36186 51.10315
38.0 0.02632 24.35551 50.48602
42.0 0.02381 24.34916 49.89629
40.0 0.02500 24.34282 49.33246
39.0 0.02564 24.33648 48.79314
46.0 0.02174 24.33014 48.27700
45.0 0.02222 24.32380 47.78281
36.0 0.02778 24.31746 47.30941
43.0 0.02326 24.31113 46.85572
36.0 0.02778 24.30479 46.42073
35.0 0.02857 24.29846 46.00351
44.0 0.02273 24.29212 45.60315
42.0 0.02381 24.28579 45.21884
37.0 0.02703 24.27946 44.84980
38.0 0.02632 24.27313 44.49533
48.0 0.02083 24.26680 44.15474
36.0 0.02778 24.26048 43.82740
44.0 0.02273 24.25415 43.51275
48.0 0.02083 24.24783 43.21023
28.0 0.0357 24.24150 42.91933
37.0 0.02703 24.23518 42.63958
29.0 0.03448 24.22886 42.37054
37.0 0.02703 24.22254 42.11180
34.0 0.02941 24.21622 41.86296
37.0 0.02703 24.20991 41.62369
49.0 0.02041 24.20359 41.39365
45.0 0.02222 24.19727 41.17252
39.0 0.02564 24.19096 40.96003
33.0 0.03030 24.18465 40.75588
53.0 0.01887 24.17834 40.55984
44.0 0.02273 24.17202 40.37168
43.0 0.02326 24.16571 40.19118
25.0 0.0400 24.15940 40.01811
35.0 0.02857 24.15310 39.85232
33.0 0.03030 24.14679 39.69361
42.0 0.02381 24.14048 39.54182
44.0 0.02273 24.13418 39.39679
38.0 0.02632 24.12788 39.25838
41.0 0.02439 24.12157 39.12646
25.0 0.0400 24.11527 39.00090
32.0 0.03125 24.10897 38.88157
39.0 0.02564 24.10267 38.76837
38.0 0.02632 24.09637 38.66121
45.0 0.02222 24.09007 38.55997
44.0 0.02273 24.08378 38.46458
39.0 0.02564 24.07748 38.37492
33.0 0.03030 24.07119 38.29095
42.0 0.02381 24.06489 38.21258
53.0 0.01887 24.05860 38.13973
37.0 0.02703 24.05231 38.07234
45.0 0.02222 24.04602 38.01035
45.0 0.02222 24.03973 37.95369
41.0 0.02439 24.03344 37.90232
48.0 0.02083 24.02715 37.85617
46.0 0.02174 24.02086 37.81521
47.0 0.02128 24.01457 37.77937
49.0 0.02041 24.00829 37.74862
30.0 0.03333 24.00200 37.72291
51.0 0.01961 23.99572 37.70219
48.0 0.02083 23.98943 37.68644
41.0 0.02439 23.98315 37.67561
49.0 0.02041 23.97687 37.66965
49.0 0.02041 23.97059 37.66853
35.0 0.02857 23.96431 37.67222
46.0 0.02174 23.95803 37.68067
37.0 0.02703 23.95175 37.69385
44.0 0.02273 23.94547 37.71173
60.0 0.01667 23.93919 37.73425
51.0 0.01961 23.93291 37.76138
47.0 0.02128 23.92664 37.79307
42.0 0.02381 23.92036 37.82928
44.0 0.02273 23.91409 37.86996
54.0 0.01852 23.90781 37.91507
41.0 0.02439 23.90154 37.96455
57.0 0.01754 23.89527 38.01834
64.0 0.01563 23.88900 38.07637
38.0 0.02632 23.88272 38.13859
56.0 0.01786 23.87645 38.20491
41.0 0.02439 23.87018 38.44361
47.0 0.02128 23.86391 38.51907
49.0 0.02041 23.85765 38.59840
46.0 0.02174 23.85138 38.68148
46.0 0.02174 23.84511 38.76823
39.0 0.02564 23.83884 38.85852
62.0 0.01613 23.83258 38.95222
50.0 0.02000 23.82631 39.04921
43.0 0.02326 23.82005 39.14932
58.0 0.01724 23.81378 39.25240
62.0 0.01613 23.80752 39.35828
43.0 0.02326 23.80125 39.46679
62.0 0.01613 23.79499 39.57771
48.0 0.02083 23.78873 39.69086
56.0 0.01786 23.78247 39.80598
55.0 0.01818 23.77621 39.92288
49.0 0.02041 23.76994 40.04128
47.0 0.02128 23.76369 40.16091
57.0 0.01754 23.75743 40.28151
43.0 0.02326 23.75117 40.40278
44.0 0.02273 23.74491 40.52442
59.0 0.01695 23.73865 40.64610
54.0 0.01852 23.73239 40.76749
57.0 0.01754 23.72613 40.88824
54.0 0.01852 23.71988 41.00799
43.0 0.02326 23.71362 41.12639
52.0 0.01923 23.70737 41.24305
52.0 0.01923 23.70111 41.35759
52.0 0.01923 23.69485 41.46961
52.0 0.01923 23.68860 41.57873
54.0 0.01852 23.68234 41.68454
65.0 0.01538 23.67609 41.78665
55.0 0.01818 23.66984 41.88466
52.0 0.01923 23.66358 41.97818
50.0 0.02000 23.65733 42.06683
50.0 0.02000 23.65108 42.15023
53.0 0.01887 23.64482 42.22802
52.0 0.01923 23.63857 42.29985
70.0 0.01429 23.63232 42.36540
47.0 0.02128 23.62607 42.42436
56.0 0.01786 23.61982 42.47643
64.0 0.01563 23.61357 42.52137
48.0 0.02083 23.60732 42.55894
50.0 0.02000 23.60107 42.58895
36.0 0.02778 23.59482 42.61121
55.0 0.01818 23.58857 42.62559
48.0 0.02083 23.58232 42.63199
54.0 0.01852 23.57607 42.63035
64.0 0.01563 23.56982 42.62063
49.0 0.02041 23.56358 42.60284
63.0 0.01587 23.55733 42.57701
36.0 0.02778 23.55108 42.54322
67.0 0.01493 23.54483 42.50158
51.0 0.01961 23.53859 42.45222
44.0 0.02273 23.53234 42.39531
36.0 0.02778 23.52609 42.33104
64.0 0.01563 23.51984 42.25963
48.0 0.02083 23.51360 42.18131
54.0 0.01852 23.50735 42.09633
47.0 0.02128 23.50111 42.00496
53.0 0.01887 23.49486 41.90745
57.0 0.01754 23.48861 41.80410
56.0 0.01786 23.48237 41.69516
64.0 0.01563 23.47612 41.58090
53.0 0.01887 23.46988 41.46157
45.0 0.02222 23.46363 41.33741
64.0 0.01563 23.45739 41.20864
44.0 0.02273 23.45114 41.07545
62.0 0.01613 23.44490 40.93800
53.0 0.01887 23.43865 41.03834
50.0 0.02000 23.43241 40.89443
41.0 0.02439 23.42616 40.74660
54.0 0.01852 23.41992 40.59492
47.0 0.02128 23.41368 40.43943
55.0 0.01818 23.40743 40.28010
54.0 0.01852 23.40119 40.11695
59.0 0.01695 23.39494 39.94995
57.0 0.01754 23.38870 39.77906
46.0 0.02174 23.38245 39.60428
49.0 0.02041 23.37621 39.42560
39.0 0.02564 23.36997 39.24305
46.0 0.02174 23.36372 39.05667
52.0 0.01923 23.35748 38.86655
54.0 0.01852 23.35123 38.67284
45.0 0.02222 23.34499 38.47569
61.0 0.01639 23.33875 38.27535
57.0 0.01754 23.33250 38.07210
48.0 0.02083 23.32626 37.86624
52.0 0.01923 23.32001 37.65814
59.0 0.01695 23.31377 37.44818
59.0 0.01695 23.30753 37.23679
57.0 0.01754 23.30128 37.02439
58.0 0.01724 23.29504 36.81142
40.0 0.02500 23.28879 36.59835
51.0 0.01961 23.28255 36.38558
38.0 0.02632 23.27631 36.17354
48.0 0.02083 23.27006 35.96262
40.0 0.02500 23.26382 35.75320
47.0 0.02128 23.25757 35.54562
43.0 0.02326 23.25133 35.34020
47.0 0.02128 23.24508 35.13721
36.0 0.02778 23.23884 34.93690
32.0 0.03125 23.23259 34.73950
36.0 0.02778 23.22635 34.54517
47.0 0.02128 23.22010 34.35409
38.0 0.02632 23.21386 34.16637
43.0 0.02326 23.20761 33.98214
42.0 0.02381 23.20136 33.80145
31.0 0.03226 23.19512 33.62437
37.0 0.02703 23.18887 33.45096
42.0 0.02381 23.18263 33.28120
31.0 0.03226 23.17638 33.11515
28.0 0.0357 23.17013 32.95278
31.0 0.03226 23.16389 32.79408
28.0 0.0357 23.15764 32.63901
41.0 0.02439 23.15139 32.36610
35.0 0.02857 23.14514 32.21902
38.0 0.02632 23.13890 32.07545
30.0 0.03333 23.13265 31.93535
26.0 0.0385 23.12640 31.79867
32.0 0.03125 23.12015 31.66534
28.0 0.0357 23.11390 31.53531
33.0 0.03030 23.10765 31.40851
40.0 0.02500 23.10140 31.28489
42.0 0.02381 23.09516 31.16438
35.0 0.02857 23.08891 31.04691
27.0 0.0370 23.08266 30.93243
45.0 0.02222 23.07641 30.82086
36.0 0.02778 23.07016 30.71214
27.0 0.0370 23.06390 30.60620
30.0 0.03333 23.05765 30.50299
30.0 0.03333 23.05140 30.40245
35.0 0.02857 23.04515 30.30450
26.0 0.0385 23.03890 30.20909
34.0 0.02941 23.03265 30.11616
24.0 0.0417 23.02639 30.02566
38.0 0.02632 23.02014 29.93752
28.0 0.0357 23.01389 29.85168
29.0 0.03448 23.00763 29.76811
32.0 0.03125 23.00138 29.68674
18.0 0.0556 22.99512 29.60752
34.0 0.02941 22.98887 29.53041
32.0 0.03125 22.98261 29.45535
32.0 0.03125 22.97636 29.38230
27.0 0.0370 22.97010 29.31121
39.0 0.02564 22.96384 29.24204
26.0 0.0385 22.95759 29.17475
33.0 0.03030 22.95133 29.10930
24.0 0.0417 22.94507 29.04564
29.0 0.03448 22.93881 28.98375
28.0 0.0357 22.93256 27.75308
42.0 0.02381 22.92630 27.70258
25.0 0.0400 22.92004 27.65366
24.0 0.0417 22.91378 27.60628
27.0 0.0370 22.90752 27.56041
25.0 0.0400 22.90126 27.51604
22.0 0.0455 22.89500 27.47312
24.0 0.0417 22.88873 27.43164
29.0 0.03448 22.88247 27.39158
26.0 0.0385 22.87621 27.35290
39.0 0.02564 22.86995 27.31559
25.0 0.0400 22.86368 27.27963
17.0 0.0588 22.85742 27.24500
27.0 0.0370 22.85115 27.21167
33.0 0.03030 22.84489 27.17965
24.0 0.0417 22.83862 27.14890
28.0 0.0357 22.83236 27.11942
18.0 0.0556 22.82609 27.09118
24.0 0.0417 22.81983 27.06419
26.0 0.0385 22.81356 27.03842
29.0 0.03448 22.80729 27.01387
28.0 0.0357 22.80102 26.99054
34.0 0.02941 22.79475 26.96840
32.0 0.03125 22.78848 26.94745
23.0 0.0435 22.78221 26.92770
22.0 0.0455 22.77594 26.90913
30.0 0.03333 22.76967 26.89175
31.0 0.03226 22.76340 26.87554
37.0 0.02703 22.75712 26.86052
22.0 0.0455 22.75085 26.84667
24.0 0.0417 22.74458 26.83400
30.0 0.03333 22.73830 26.82251
27.0 0.0370 22.73203 26.81222
25.0 0.0400 22.72575 26.80311
21.0 0.0476 22.71947 26.79521
26.0 0.0385 22.71320 26.78851
25.0 0.0400 22.70692 26.78302
31.0 0.03226 22.70064 26.77876
35.0 0.02857 22.69436 26.77574
32.0 0.03125 22.68808 26.77396
27.0 0.0370 22.68180 26.77345
30.0 0.03333 22.67552 26.77423
21.0 0.0476 22.66924 27.52622
25.0 0.0400 22.66296 27.53478
24.0 0.0417 22.65668 27.54474
25.0 0.0400 22.65039 27.55611
27.0 0.0370 22.64411 27.56893
21.0 0.0476 22.63783 27.58322
18.0 0.0556 22.63154 27.59901
36.0 0.02778 22.62525 27.61635
29.0 0.03448 22.61897 27.63525
31.0 0.03226 22.61268 27.65576
28.0 0.0357 22.60639 27.67792
27.0 0.0370 22.60010 27.70177
30.0 0.03333 22.59381 27.72736
29.0 0.03448 22.58752 27.75472
27.0 0.0370 22.58123 27.78392
29.0 0.03448 22.57494 27.81501
29.0 0.03448 22.56865 27.84804
27.0 0.0370 22.56235 27.88308
30.0 0.03333 22.55606 27.92018
33.0 0.03030 22.54976 27.95942
20.0 0.0500 22.54347 28.00086
29.0 0.03448 22.53717 28.04459
25.0 0.0400 22.53087 28.09067
34.0 0.02941 22.52458 28.13920
16.0 0.0625 22.51828 28.19025
29.0 0.03448 22.51198 28.24392
29.0 0.03448 22.50568 28.30030
20.0 0.0500 22.49938 28.35950
30.0 0.03333 22.49308 28.42160
18.0 0.0556 22.48677 28.48674
17.0 0.0588 22.48047 28.55501
15.0 0.0667 22.47416 28.62654
29.0 0.03448 22.46786 28.70145
24.0 0.0417 22.46156 28.77986
28.0 0.0357 22.45525 28.86191
32.0 0.03125 22.44894 28.94774
25.0 0.0400 22.44263 29.03748
27.0 0.0370 22.43632 29.13129
26.0 0.0385 22.43001 29.22932
30.0 0.03333 22.42370 29.29882
29.0 0.03448 22.41739 29.40597
25.0 0.0400 22.41108 29.51782
33.0 0.03030 22.40476 29.63453
31.0 0.03226 22.39845 29.75630
34.0 0.02941 22.39214 29.88328
25.0 0.0400 22.38582 30.01568
33.0 0.03030 22.37950 30.15366
28.0 0.0357 22.37318 30.29742
37.0 0.02703 22.36687 30.44715
43.0 0.02326 22.36054 30.60305
30.0 0.03333 22.35423 30.76530
30.0 0.03333 22.34790 30.93410
31.0 0.03226 22.34158 31.10966
34.0 0.02941 22.33526 31.29214
32.0 0.03125 22.32893 31.48175
26.0 0.0385 22.32261 31.67867
32.0 0.03125 22.31628 31.88308
28.0 0.0357 22.30996 32.09514
30.0 0.03333 22.30363 32.31503
31.0 0.03226 22.29730 32.54286
35.0 0.02857 22.29097 32.77879
32.0 0.03125 22.28464 33.02292
35.0 0.02857 22.27831 33.27534
31.0 0.03226 22.27197 33.53610
30.0 0.03333 22.26564 33.80523
29.0 0.03448 22.25931 34.08271
25.0 0.0400 22.25297 34.36848
35.0 0.02857 22.24664 34.66246
28.0 0.0357 22.24030 34.96445
20.0 0.0500 22.23396 35.27423
38.0 0.02632 22.22762 35.59149
34.0 0.02941 22.22128 35.91584
36.0 0.02778 22.21494 36.24680
31.0 0.03226 22.20860 36.58376
34.0 0.02941 22.20225 36.92604
29.0 0.03448 22.19591 37.27283
24.0 0.0417 22.18956 37.62317
36.0 0.02778 22.18322 37.97597
40.0 0.02500 22.17687 38.33002
39.0 0.02564 22.17052 38.68395
26.0 0.0385 22.16417 39.03625
36.0 0.02778 22.15782 39.38525
35.0 0.02857 22.15147 39.72919
33.0 0.03030 22.14512 40.06615
33.0 0.03030 22.13876 40.39411
42.0 0.02381 22.13241 40.71097
25.0 0.0400 22.12605 41.01459
38.0 0.02632 22.11970 41.30278
33.0 0.03030 22.11334 41.57339
54.0 0.01852 22.10698 41.82431
33.0 0.03030 22.10062 42.05354
37.0 0.02703 22.09426 42.25922
36.0 0.02778 22.08790 42.43970
38.0 0.02632 22.08153 42.59354
38.0 0.02632 22.07517 42.71960
30.0 0.03333 22.06880 42.81701
39.0 0.02564 22.06244 42.88528
27.0 0.0370 22.05607 42.92424
37.0 0.02703 22.04970 42.93406
47.0 0.02128 22.04333 42.91528
46.0 0.02174 22.03696 42.86877
33.0 0.03030 22.03059 42.79571
32.0 0.03125 22.02422 42.69751
35.0 0.02857 22.01784 42.57588
38.0 0.02632 22.01147 42.43267
27.0 0.0370 22.00509 42.26994
35.0 0.02857 21.99871 42.08977
28.0 0.0357 21.99233 41.89437
35.0 0.02857 21.98596 41.68591
27.0 0.0370 21.97957 41.46657
38.0 0.02632 21.97319 41.23847
29.0 0.03448 21.96681 41.00362
39.0 0.02564 21.96043 40.76394
36.0 0.02778 21.95404 40.52124
32.0 0.03125 21.94765 40.27717
37.0 0.02703 21.94127 40.03323
36.0 0.02778 21.93488 39.79082
34.0 0.02941 21.92849 39.55111
50.0 0.02000 21.92210 39.31522
25.0 0.0400 21.91570 39.08405
46.0 0.02174 21.90931 38.85841
30.0 0.03333 21.90292 38.63898
33.0 0.03030 21.89652 38.42632
37.0 0.02703 21.89012 38.22087
32.0 0.03125 21.88372 38.02298
28.0 0.0357 21.87733 37.83293
44.0 0.02273 21.87093 37.65089
41.0 0.02439 21.86452 37.47696
29.0 0.03448 21.85812 37.31121
45.0 0.02222 21.85172 37.15362
41.0 0.02439 21.84531 37.00411
33.0 0.03030 21.83890 36.86259
31.0 0.03226 21.83249 36.72892
36.0 0.02778 21.82609 36.60291
49.0 0.02041 21.81968 36.48434
33.0 0.03030 21.81327 36.37300
29.0 0.03448 21.80685 36.26862
46.0 0.02174 21.80044 36.17093
29.0 0.03448 21.79402 36.07963
26.0 0.0385 21.78761 35.99443
37.0 0.02703 21.78119 35.91504
30.0 0.03333 21.77477 35.84109
40.0 0.02500 21.76835 35.77230
31.0 0.03226 21.76193 35.70832
37.0 0.02703 21.75551 35.64883
39.0 0.02564 21.74908 35.59349
34.0 0.02941 21.74266 35.54199
48.0 0.02083 21.73623 35.49400
33.0 0.03030 21.72980 35.44920
40.0 0.02500 21.72338 34.90518
27.0 0.0370 21.71695 34.86913
37.0 0.02703 21.71051 34.83535
39.0 0.02564 21.70408 34.80354
30.0 0.03333 21.69765 34.77345
31.0 0.03226 21.69121 34.74480
33.0 0.03030 21.68478 34.80372
32.0 0.03125 21.67834 34.77789
45.0 0.02222 21.67190 34.75285
27.0 0.0370 21.66546 34.72842
49.0 0.02041 21.65902 34.70444
33.0 0.03030 21.65257 34.68075
35.0 0.02857 21.64613 34.65722
38.0 0.02632 21.63968 34.63374
38.0 0.02632 21.63324 34.61022
31.0 0.03226 21.62679 34.58661
43.0 0.02326 21.62034 34.56283
37.0 0.02703 21.61389 34.53886
30.0 0.03333 21.60744 34.51471
42.0 0.02381 21.60098 34.49036
37.0 0.02703 21.59453 34.46585
33.0 0.03030 21.58807 34.44122
27.0 0.0370 21.58162 34.41655
38.0 0.02632 21.57516 34.39190
36.0 0.02778 21.56870 34.36736
30.0 0.03333 21.56223 34.34304
36.0 0.02778 21.55577 34.31907
37.0 0.02703 21.54931 34.29557
33.0 0.03030 21.54284 34.27270
38.0 0.02632 21.53638 34.25059
35.0 0.02857 21.52991 34.22941
43.0 0.02326 21.52344 34.20934
38.0 0.02632 21.51697 34.17461
40.0 0.02500 21.51050 34.15739
37.0 0.02703 21.50402 34.14182
38.0 0.02632 21.49755 34.12808
36.0 0.02778 21.49107 34.11639
44.0 0.02273 21.48460 34.10693
26.0 0.0385 21.47812 34.09991
39.0 0.02564 21.47164 34.09555
29.0 0.03448 21.46515 34.09403
42.0 0.02381 21.45867 34.09558
34.0 0.02941 21.45219 34.10040
43.0 0.02326 21.44570 34.10871
37.0 0.02703 21.43921 34.12072
34.0 0.02941 21.43273 34.13664
42.0 0.02381 21.42624 34.15669
24.0 0.0417 21.41974 34.18109
36.0 0.02778 21.41325 34.21006
41.0 0.02439 21.40676 34.24382
42.0 0.02381 21.40026 34.28259
42.0 0.02381 21.39377 34.32661
34.0 0.02941 21.38727 34.37609
40.0 0.02500 21.38077 34.43129
39.0 0.02564 21.37427 34.49243
37.0 0.02703 21.36777 34.55975
34.0 0.02941 21.36126 34.63351
35.0 0.02857 21.35476 34.71397
42.0 0.02381 21.34825 34.80136
49.0 0.02041 21.34174 34.89596
35.0 0.02857 21.33523 34.99804
33.0 0.03030 21.32872 35.10789
38.0 0.02632 21.32221 35.22578
40.0 0.02500 21.31569 35.35201
36.0 0.02778 21.30918 35.48689
39.0 0.02564 21.30266 35.63072
27.0 0.0370 21.29614 35.78383
41.0 0.02439 21.28963 35.94655
33.0 0.03030 21.28311 36.11922
42.0 0.02381 21.27658 36.30220
31.0 0.03226 21.27006 36.49584
34.0 0.02941 21.26353 36.70052
42.0 0.02381 21.25701 36.91663
38.0 0.02632 21.25048 37.14455
31.0 0.03226 21.24395 37.38471
50.0 0.02000 21.23742 37.63750
45.0 0.02222 21.23089 37.90339
40.0 0.02500 21.22435 38.18278
39.0 0.02564 21.21782 38.47615
35.0 0.02857 21.21128 38.78395
39.0 0.02564 21.20474 39.10667
37.0 0.02703 21.19820 39.44477
49.0 0.02041 21.19166 39.79877
49.0 0.02041 21.18512 40.16915
44.0 0.02273 21.17858 40.55645
49.0 0.02041 21.17203 40.96116
34.0 0.02941 21.16548 41.38382
39.0 0.02564 21.15894 41.82496
53.0 0.01887 21.15239 42.28511
46.0 0.02174 21.14583 42.76480
46.0 0.02174 21.13928 43.26458
42.0 0.02381 21.13273 43.78496
41.0 0.02439 21.12617 44.32648
28.0 0.0357 21.11961 44.88964
51.0 0.01961 21.11305 45.70544
53.0 0.01887 21.10649 46.31495
44.0 0.02273 21.09993 46.94759
54.0 0.01852 21.09337 47.60378
46.0 0.02174 21.08681 48.28394
48.0 0.02083 21.08024 48.98841
65.0 0.01538 21.07367 49.71751
46.0 0.02174 21.06710 50.47152
49.0 0.02041 21.06053 51.25060
50.0 0.02000 21.05396 52.05487
60.0 0.01667 21.04739 52.88435
48.0 0.02083 21.04081 53.73896
49.0 0.02041 21.03424 54.61847
55.0 0.01818 21.02766 55.52254
46.0 0.02174 21.02108 56.45069
42.0 0.02381 21.01450 57.40221
49.0 0.02041 21.00791 58.37627
53.0 0.01887 21.00133 59.37174
51.0 0.01961 20.99474 60.38732
50.0 0.02000 20.98816 61.42141
38.0 0.02632 20.98157 62.47213
49.0 0.02041 20.97498 63.53730
46.0 0.02174 20.96839 64.61439
52.0 0.01923 20.96179 65.70052
58.0 0.01724 20.95520 66.79247
55.0 0.01818 20.94860 67.88662
57.0 0.01754 20.94201 68.97892
49.0 0.02041 20.93541 70.06499
64.0 0.01563 20.92880 71.14001
49.0 0.02041 20.92220 72.19881
77.0 0.01299 20.91560 73.23587
43.0 0.02326 20.90899 74.24535
53.0 0.01887 20.90239 75.22112
70.0 0.01429 20.89578 76.15687
62.0 0.01613 20.88917 77.04615
54.0 0.01852 20.88256 77.88246
65.0 0.01538 20.87594 78.65932
60.0 0.01667 20.86933 79.37045
64.0 0.01563 20.86271 80.00979
60.0 0.01667 20.85610 80.57166
65.0 0.01538 20.84948 81.05090
58.0 0.01724 20.84286 81.44293
86.0 0.01163 20.83624 81.74391
72.0 0.01389 20.82961 81.95073
76.0 0.01316 20.82299 82.06122
71.0 0.01408 20.81636 82.07410
81.0 0.01235 20.80973 81.98904
75.0 0.01333 20.80310 81.80668
87.0 0.01149 20.79647 81.52861
67.0 0.01493 20.78984 81.15734
50.0 0.02000 20.78320 80.69621
65.0 0.01538 20.77657 80.14932
74.0 0.01351 20.76993 79.52145
67.0 0.01493 20.76329 78.81796
72.0 0.01389 20.75665 78.04465
70.0 0.01429 20.75001 77.20763
69.0 0.01449 20.74336 76.31331
73.0 0.01370 20.73672 75.36812
64.0 0.01563 20.73007 74.37857
65.0 0.01538 20.72342 73.35104
67.0 0.01493 20.71677 72.29180
72.0 0.01389 20.71012 71.20685
76.0 0.01316 20.70347 70.10191
67.0 0.01493 20.69682 68.98239
68.0 0.01471 20.69016 67.85330
45.0 0.02222 20.68350 66.71932
56.0 0.01786 20.67684 65.58471
65.0 0.01538 20.67018 64.45332
71.0 0.01408 20.66352 63.32864
69.0 0.01449 20.65686 62.21376
60.0 0.01667 20.65019 61.11142
62.0 0.01613 20.64352 60.02401
65.0 0.01538 20.63685 58.95359
56.0 0.01786 20.63018 57.90192
62.0 0.01613 20.62351 56.87049
49.0 0.02041 20.61684 55.86053
57.0 0.01754 20.61016 54.87303
66.0 0.01515 20.60349 53.90877
62.0 0.01613 20.59681 52.96837
49.0 0.02041 20.59013 52.05224
56.0 0.01786 20.58345 51.16066
44.0 0.02273 20.57677 50.29380
46.0 0.02174 20.57008 49.45169
44.0 0.02273 20.56340 48.63425
48.0 0.02083 20.55671 48.21879
46.0 0.02174 20.55002 47.45253
52.0 0.01923 20.54333 46.71029
39.0 0.02564 20.53664 46.66241
38.0 0.02632 20.52995 45.97169
37.0 0.02703 20.52325 45.30385
52.0 0.01923 20.51655 44.65845
42.0 0.02381 20.50986 44.03502
42.0 0.02381 20.50315 43.43302
33.0 0.03030 20.49645 42.85194
38.0 0.02632 20.48975 42.29125
48.0 0.02083 20.48305 41.75040
49.0 0.02041 20.47634 41.22886
41.0 0.02439 20.46963 40.72607
56.0 0.01786 20.46292 40.24147
48.0 0.02083 20.45621 39.77452
38.0 0.02632 20.44950 39.32471
51.0 0.01961 20.44279 38.89145
33.0 0.03030 20.43607 38.47425
35.0 0.02857 20.42935 38.07257
48.0 0.02083 20.42263 37.68591
41.0 0.02439 20.41591 37.31376
38.0 0.02632 20.40919 36.95563
33.0 0.03030 20.40247 36.61103
29.0 0.03448 20.39574 36.27949
54.0 0.01852 20.38902 35.96058
36.0 0.02778 20.38229 35.65382
35.0 0.02857 20.37556 35.35879
42.0 0.02381 20.36883 35.07508
39.0 0.02564 20.36209 34.80226
43.0 0.02326 20.35536 34.53996
42.0 0.02381 20.34862 34.28777
53.0 0.01887 20.34189 34.04535
29.0 0.03448 20.33515 33.81232
35.0 0.02857 20.32841 33.58834
32.0 0.03125 20.32166 33.37308
46.0 0.02174 20.31492 33.16621
32.0 0.03125 20.30817 32.96745
30.0 0.03333 20.30143 32.77648
38.0 0.02632 20.29468 32.59302
43.0 0.02326 20.28793 32.41680
43.0 0.02326 20.28118 32.24755
31.0 0.03226 20.27442 32.08503
34.0 0.02941 20.26767 31.92898
39.0 0.02564 20.26091 31.77919
37.0 0.02703 20.25415 31.63544
39.0 0.02564 20.24739 31.49749
38.0 0.02632 20.24063 31.36517
37.0 0.02703 20.23387 31.23827
26.0 0.0385 20.22710 31.11661
31.0 0.03226 20.22034 31.00000
29.0 0.03448 20.21357 30.88829
31.0 0.03226 20.20680 30.78131
32.0 0.03125 20.20003 30.67890
30.0 0.03333 20.19326 30.58092
28.0 0.0357 20.18648 30.48723
35.0 0.02857 20.17971 30.39769
28.0 0.0357 20.17293 30.31217
32.0 0.03125 20.16615 30.23056
39.0 0.02564 20.15937 30.15273
27.0 0.0370 20.15259 29.91360
37.0 0.02703 20.14581 29.84412
33.0 0.03030 20.13902 29.77807
33.0 0.03030 20.13223 29.71537
29.0 0.03448 20.12544 29.65592
34.0 0.02941 20.11866 29.59962
36.0 0.02778 20.11186 29.54639
21.0 0.0476 20.10507 29.49614
50.0 0.02000 20.09828 29.44878
34.0 0.02941 20.09148 29.40423
35.0 0.02857 20.08468 29.36242
34.0 0.02941 20.07788 29.32325
34.0 0.02941 20.07108 29.28667
28.0 0.0357 20.06428 29.25260
31.0 0.03226 20.05748 29.22095
38.0 0.02632 20.05067 29.19167
31.0 0.03226 20.04387 29.16467
28.0 0.0357 20.03706 29.13989
35.0 0.02857 20.03024 29.11726
32.0 0.03125 20.02343 29.09672
41.0 0.02439 20.01662 29.07818
29.0 0.03448 20.00981 29.06159
35.0 0.02857 20.00299 29.04687
33.0 0.03030 19.99617 29.03395
31.0 0.03226 19.98935 29.02278
23.0 0.0435 19.98253 29.01328
39.0 0.02564 19.97571 29.00539
29.0 0.03448 19.96888 28.99902
32.0 0.03125 19.96206 28.99413
30.0 0.03333 19.95523 28.99064
22.0 0.0455 19.94840 28.98849
32.0 0.03125 19.94157 28.98760
28.0 0.0357 19.93474 28.98792
24.0 0.0417 19.92790 28.98936
26.0 0.0385 19.92107 28.99188
44.0 0.02273 19.91423 28.99542
34.0 0.02941 19.90739 28.99989
36.0 0.02778 19.90055 29.00524
31.0 0.03226 19.89371 29.01142
27.0 0.0370 19.88687 29.01837
32.0 0.03125 19.88002 29.02602
42.0 0.02381 19.87318 29.03433
33.0 0.03030 19.86633 29.04326
28.0 0.0357 19.85948 29.05273
33.0 0.03030 19.85263 29.06273
36.0 0.02778 19.84578 29.07319
28.0 0.0357 19.83892 29.08410
35.0 0.02857 19.83207 29.09541
37.0 0.02703 19.82521 29.10709
37.0 0.02703 19.81835 29.11913
29.0 0.03448 19.81149 29.13151
26.0 0.0385 19.80463 29.14419
30.0 0.03333 19.79777 29.15719
30.0 0.03333 19.79090 29.17050
34.0 0.02941 19.78403 29.18410
34.0 0.02941 19.77717 29.19802
37.0 0.02703 19.77030 29.21225
31.0 0.03226 19.76343 29.22682
35.0 0.02857 19.75656 29.24175
35.0 0.02857 19.74968 29.25705
30.0 0.03333 19.74281 29.27275
24.0 0.0417 19.73593 29.28890
40.0 0.02500 19.72905 29.30553
33.0 0.03030 19.72217 29.32268
36.0 0.02778 19.71529 29.34039
30.0 0.03333 19.70840 29.35871
37.0 0.02703 19.70152 29.37768
27.0 0.0370 19.69463 29.39738
38.0 0.02632 19.68774 29.41784
37.0 0.02703 19.68085 29.21211
35.0 0.02857 19.67396 29.23576
34.0 0.02941 19.66707 29.26033
45.0 0.02222 19.66018 29.28591
22.0 0.0455 19.65328 29.31252
32.0 0.03125 19.64639 29.34024
36.0 0.02778 19.63949 29.36914
31.0 0.03226 19.63259 29.39926
39.0 0.02564 19.62568 29.43067
35.0 0.02857 19.61878 29.46343
36.0 0.02778 19.61188 29.49760
41.0 0.02439 19.60497 29.53322
36.0 0.02778 19.59806 29.57035
25.0 0.0400 19.59115 29.60905
37.0 0.02703 19.58424 29.69390
40.0 0.02500 19.57733 29.73614
41.0 0.02439 19.57042 29.78007
37.0 0.02703 19.56350 29.82576
26.0 0.0385 19.55658 29.87322
30.0 0.03333 19.54967 29.92250
28.0 0.0357 19.54275 29.97363
35.0 0.02857 19.53582 30.02664
20.0 0.0500 19.52890 30.08154
43.0 0.02326 19.52198 30.13836
36.0 0.02778 19.51505 30.19712
37.0 0.02703 19.50812 30.25784
27.0 0.0370 19.50119 30.32051
29.0 0.03448 19.49426 30.38516
38.0 0.02632 19.48733 30.45176
37.0 0.02703 19.48040 30.52033
30.0 0.03333 19.47346 30.59086
45.0 0.02222 19.46653 30.66333
34.0 0.02941 19.45959 30.73773
33.0 0.03030 19.45265 30.81403
35.0 0.02857 19.44571 30.89221
49.0 0.02041 19.43877 30.97225
44.0 0.02273 19.43182 31.05410
25.0 0.0400 19.42488 31.13773
42.0 0.02381 19.41793 31.74786
30.0 0.03333 19.41098 31.83818
31.0 0.03226 19.40403 31.93017
29.0 0.03448 19.39708 32.02375
35.0 0.02857 19.39013 32.11889
41.0 0.02439 19.38317 32.21548
38.0 0.02632 19.37622 32.31349
29.0 0.03448 19.36926 32.41283
41.0 0.02439 19.36230 32.51341
35.0 0.02857 19.35534 32.61517
30.0 0.03333 19.34838 32.71800
34.0 0.02941 19.34142 32.82184
36.0 0.02778 19.33445 32.92659
47.0 0.02128 19.32749 33.03216
33.0 0.03030 19.32052 33.13847
28.0 0.0357 19.31355 33.24539
50.0 0.02000 19.30658 33.35287
32.0 0.03125 19.29961 33.46081
39.0 0.02564 19.29263 33.56910
36.0 0.02778 19.28566 33.67767
43.0 0.02326 19.27868 33.78643
28.0 0.0357 19.27171 33.89531
45.0 0.02222 19.26473 34.00421
47.0 0.02128 19.25775 34.11308
26.0 0.0385 19.25076 34.22185
38.0 0.02632 19.24378 34.33045
41.0 0.02439 19.23680 34.43885
33.0 0.03030 19.22981 34.54699
26.0 0.0385 19.22282 34.65485
36.0 0.02778 19.21583 34.76240
42.0 0.02381 19.20884 34.86963
40.0 0.02500 19.20185 34.97654
53.0 0.01887 19.19486 35.08313
33.0 0.03030 19.18786 35.18944
48.0 0.02083 19.18087 35.29548
35.0 0.02857 19.17387 35.40132
42.0 0.02381 19.16687 35.50699
44.0 0.02273 19.15987 35.61258
35.0 0.02857 19.15287 35.71818
36.0 0.02778 19.14586 35.82387
38.0 0.02632 19.13886 35.92975
37.0 0.02703 19.13185 36.03595
36.0 0.02778 19.12484 36.14260
45.0 0.02222 19.11783 36.24984
27.0 0.0370 19.11082 36.35781
38.0 0.02632 19.10381 36.46667
30.0 0.03333 19.09680 36.57660
39.0 0.02564 19.08978 36.68777
42.0 0.02381 19.08277 36.80037
44.0 0.02273 19.07575 36.91455
46.0 0.02174 19.06873 37.03056
53.0 0.01887 19.06171 37.14856
50.0 0.02000 19.05469 37.26878
43.0 0.02326 19.04767 37.39140
44.0 0.02273 19.04064 37.51664
41.0 0.02439 19.03362 37.64471
41.0 0.02439 19.02659 37.77582
40.0 0.02500 19.01956 37.91018
32.0 0.03125 19.01253 38.04800
42.0 0.02381 19.00550 38.18950
34.0 0.02941 18.99847 38.33486
38.0 0.02632 18.99143 38.48429
32.0 0.03125 18.98440 38.63801
54.0 0.01852 18.97736 38.79619
47.0 0.02128 18.97032 38.95904
35.0 0.02857 18.96328 39.12673
49.0 0.02041 18.95624 39.29945
43.0 0.02326 18.94920 39.47738
41.0 0.02439 18.94215 39.66068
68.0 0.01471 18.93511 39.84951
51.0 0.01961 18.92806 40.04402
45.0 0.02222 18.92101 40.24437
42.0 0.02381 18.91397 40.45069
39.0 0.02564 18.90692 40.66311
38.0 0.02632 18.89986 40.88176
39.0 0.02564 18.89281 41.10673
43.0 0.02326 18.88576 41.33814
41.0 0.02439 18.87870 41.57608
46.0 0.02174 18.87164 41.82064
54.0 0.01852 18.86458 42.07188
51.0 0.01961 18.85752 42.32986
36.0 0.02778 18.85046 42.59465
44.0 0.02273 18.84340 42.86626
43.0 0.02326 18.83634 43.14474
44.0 0.02273 18.82927 43.43009
42.0 0.02381 18.82221 42.98930
37.0 0.02703 18.81514 43.29334
33.0 0.03030 18.80807 43.60418
48.0 0.02083 18.80100 43.92178
53.0 0.01887 18.79393 44.24609
53.0 0.01887 18.78686 44.57705
45.0 0.02222 18.77978 44.91459
47.0 0.02128 18.77271 45.25862
47.0 0.02128 18.76563 45.60904
48.0 0.02083 18.75855 45.96575
55.0 0.01818 18.75147 46.32859
43.0 0.02326 18.74439 46.69746
49.0 0.02041 18.73731 47.07217
51.0 0.01961 18.73022 47.45258
38.0 0.02632 18.72314 47.83851
39.0 0.02564 18.71605 48.22975
45.0 0.02222 18.70897 48.62611
51.0 0.01961 18.70188 49.02737
38.0 0.02632 18.69479 49.43332
56.0 0.01786 18.68770 49.84370
55.0 0.01818 18.68060 50.25826
33.0 0.03030 18.67351 50.67674
44.0 0.02273 18.66642 51.09887
48.0 0.02083 18.65932 51.52434
56.0 0.01786 18.65222 51.95285
50.0 0.02000 18.64512 52.38408
53.0 0.01887 18.63802 52.81768
56.0 0.01786 18.63092 53.25328
42.0 0.02381 18.62382 53.69051
50.0 0.02000 18.61672 54.12896
51.0 0.01961 18.60961 54.56818
65.0 0.01538 18.60251 55.00769
64.0 0.01563 18.59540 55.44701
47.0 0.02128 18.58829 55.88559
60.0 0.01667 18.58118 56.32280
44.0 0.02273 18.57407 56.75804
41.0 0.02439 18.56696 57.19059
45.0 0.02222 18.55984 57.61969
45.0 0.02222 18.55273 58.04451
56.0 0.01786 18.54561 58.46418
52.0 0.01923 18.53850 58.87769
59.0 0.01695 18.53138 59.28403
46.0 0.02174 18.52426 59.68203
48.0 0.02083 18.51714 60.07050
59.0 0.01695 18.51002 60.44811
40.0 0.02500 18.50289 60.81347
65.0 0.01538 18.49577 61.16512
55.0 0.01818 18.48864 61.50150
60.0 0.01667 18.48152 61.82100
44.0 0.02273 18.47439 62.12193
49.0 0.02041 18.46726 62.40257
43.0 0.02326 18.46013 62.66116
48.0 0.02083 18.45300 62.89593
62.0 0.01613 18.44587 63.10512
50.0 0.02000 18.43873 63.28699
54.0 0.01852 18.43160 63.43986
62.0 0.01613 18.42446 63.56213
41.0 0.02439 18.41732 63.65233
64.0 0.01563 18.41018 63.70911
57.0 0.01754 18.40305 63.73125
62.0 0.01613 18.39590 63.71780
48.0 0.02083 18.38876 63.66793
60.0 0.01667 18.38162 63.58108
50.0 0.02000 18.37448 63.45695
47.0 0.02128 18.36733 63.29546
56.0 0.01786 18.36018 63.09683
57.0 0.01754 18.35303 62.86152
60.0 0.01667 18.34589 62.59025
58.0 0.01724 18.33874 62.28399
47.0 0.02128 18.33158 61.94396
57.0 0.01754 18.32443 61.57161
55.0 0.01818 18.31728 61.16855
59.0 0.01695 18.31013 60.73658
56.0 0.01786 18.30297 60.27766
57.0 0.01754 18.29581 59.79383
54.0 0.01852 18.28866 59.28728
57.0 0.01754 18.28150 58.76019
47.0 0.02128 18.27434 58.21482
59.0 0.01695 18.26718 57.65342
60.0 0.01667 18.26002 57.07823
54.0 0.01852 18.25285 56.49143
58.0 0.01724 18.24569 55.89516
48.0 0.02083 18.23852 55.29148
43.0 0.02326 18.23136 54.68236
48.0 0.02083 18.22419 54.06966
43.0 0.02326 18.21702 53.45516
44.0 0.02273 18.20985 52.84050
48.0 0.02083 18.20268 52.22720
54.0 0.01852 18.19551 51.61668
52.0 0.01923 18.18833 51.01024
42.0 0.02381 18.18116 50.40905
58.0 0.01724 18.17398 49.81417
45.0 0.02222 18.16681 49.22657
37.0 0.02703 18.15963 48.64708
55.0 0.01818 18.15245 48.07646
52.0 0.01923 18.14527 47.51538
48.0 0.02083 18.13810 46.96440
46.0 0.02174 18.13091 46.42400
29.0 0.03448 18.12373 45.89462
48.0 0.02083 18.11655 45.37659
37.0 0.02703 18.10936 44.87019
39.0 0.02564 18.10218 44.37568
47.0 0.02128 18.09499 43.89320
42.0 0.02381 18.08780 43.42290
39.0 0.02564 18.08062 42.96486
42.0 0.02381 18.07343 42.51913
39.0 0.02564 18.06624 42.08574
53.0 0.01887 18.05904 41.66466
43.0 0.02326 18.05185 41.25589
44.0 0.02273 18.04466 40.85933
64.0 0.01563 18.03746 40.47491
37.0 0.02703 18.03027 40.10256
49.0 0.02041 18.02307 39.74216
57.0 0.01754 18.01587 39.39359
54.0 0.01852 18.00868 39.05671
38.0 0.02632 18.00148 38.73140
48.0 0.02083 17.99428 38.41751
44.0 0.02273 17.98707 38.11489
33.0 0.03030 17.97987 37.82338
37.0 0.02703 17.97267 37.54284
52.0 0.01923 17.96547 37.27311
52.0 0.01923 17.95826 37.01403
40.0 0.02500 17.95106 36.76544
48.0 0.02083 17.94385 36.52719
41.0 0.02439 17.93664 36.29914
42.0 0.02381 17.92943 36.08113
37.0 0.02703 17.92222 35.87301
39.0 0.02564 17.91501 35.67465
45.0 0.02222 17.90780 35.48591
41.0 0.02439 17.90059 35.30666
35.0 0.02857 17.89337 35.13675
44.0 0.02273 17.88616 34.97608
29.0 0.03448 17.87894 34.82454
32.0 0.03125 17.87173 34.68199
39.0 0.02564 17.86451 34.54835
52.0 0.01923 17.85729 34.42351
33.0 0.03030 17.85007 34.30739
44.0 0.02273 17.84285 34.19989
43.0 0.02326 17.83563 34.10093
42.0 0.02381 17.82841 34.01046
30.0 0.03333 17.82119 33.92840
47.0 0.02128 17.81396 33.85470
41.0 0.02439 17.80674 33.78930
35.0 0.02857 17.79951 33.73217
38.0 0.02632 17.79229 33.68326
44.0 0.02273 17.78506 33.64256
38.0 0.02632 17.77783 33.61003
49.0 0.02041 17.77061 33.67382
38.0 0.02632 17.76337 33.65815
47.0 0.02128 17.75615 33.65066
50.0 0.02000 17.74891 33.65134
43.0 0.02326 17.74168 33.66020
35.0 0.02857 17.73445 33.67728
41.0 0.02439 17.72721 33.70259
48.0 0.02083 17.71998 33.73618
46.0 0.02174 17.71275 33.69654
56.0 0.01786 17.70551 33.74733
42.0 0.02381 17.69827 33.80654
41.0 0.02439 17.69103 33.87422
38.0 0.02632 17.68380 33.95045
40.0 0.02500 17.67656 34.03528
43.0 0.02326 17.66932 34.12881
49.0 0.02041 17.66208 34.23111
37.0 0.02703 17.65483 34.34227
45.0 0.02222 17.64759 34.46238
41.0 0.02439 17.64035 34.59154
48.0 0.02083 17.63310 34.72985
49.0 0.02041 17.62586 34.87743
40.0 0.02500 17.61861 35.03435
42.0 0.02381 17.61137 35.20075
36.0 0.02778 17.60412 35.37673
34.0 0.02941 17.59687 35.56240
34.0 0.02941 17.58962 35.75789
39.0 0.02564 17.58237 35.96329
45.0 0.02222 17.57512 36.17872
49.0 0.02041 17.56787 36.40431
37.0 0.02703 17.56062 36.64015
36.0 0.02778 17.55337 36.88636
51.0 0.01961 17.54611 37.14303
47.0 0.02128 17.53886 37.41027
37.0 0.02703 17.53161 37.68816
38.0 0.02632 17.52435 37.97680
46.0 0.02174 17.51710 38.27623
31.0 0.03226 17.50984 38.58654
38.0 0.02632 17.50258 38.90776
39.0 0.02564 17.49532 39.23994
34.0 0.02941 17.48806 39.58308
29.0 0.03448 17.48080 39.93718
42.0 0.02381 17.47354 40.30220
36.0 0.02778 17.46628 40.67811
49.0 0.02041 17.45902 41.06480
40.0 0.02500 17.45176 41.46217
43.0 0.02326 17.44450 41.87005
54.0 0.01852 17.43723 42.28826
45.0 0.02222 17.42997 42.71655
41.0 0.02439 17.42270 43.15462
32.0 0.03125 17.41544 43.60216
48.0 0.02083 17.40817 44.05873
38.0 0.02632 17.40090 44.52387
31.0 0.03226 17.39364 44.99704
53.0 0.01887 17.38637 45.47763
52.0 0.01923 17.37910 45.96492
33.0 0.03030 17.37183 46.45814
47.0 0.02128 17.36456 46.95640
48.0 0.02083 17.35729 47.45873
41.0 0.02439 17.35002 47.96405
48.0 0.02083 17.34274 48.47117
41.0 0.02439 17.33547 48.97880
43.0 0.02326 17.32820 49.48553
51.0 0.01961 17.32092 49.98985
50.0 0.02000 17.31365 50.49012
36.0 0.02778 17.30638 50.98462
54.0 0.01852 17.29910 51.47150
55.0 0.01818 17.29183 51.94884
43.0 0.02326 17.28455 52.41461
47.0 0.02128 17.27727 52.86671
56.0 0.01786 17.26999 53.30297
48.0 0.02083 17.26271 53.72121
43.0 0.02326 17.25544 54.11917
54.0 0.01852 17.24816 54.49463
48.0 0.02083 17.24088 54.84537
54.0 0.01852 17.23360 55.16920
58.0 0.01724 17.22631 55.46403
47.0 0.02128 17.21903 55.72784
55.0 0.01818 17.21175 55.95934
38.0 0.02632 17.20447 56.15564
54.0 0.01852 17.19718 56.31576
40.0 0.02500 17.18990 56.43837
46.0 0.02174 17.18262 56.52234
43.0 0.02326 17.17533 56.56680
55.0 0.01818 17.16805 56.57114
45.0 0.02222 17.16076 56.53501
66.0 0.01515 17.15347 56.45834
63.0 0.01587 17.14619 56.38692
43.0 0.02326 17.13890 56.23038
52.0 0.01923 17.13161 56.03475
54.0 0.01852 17.12432 55.80103
47.0 0.02128 17.11703 55.53049
48.0 0.02083 17.10975 55.22457
52.0 0.01923 17.10246 54.88492
40.0 0.02500 17.09517 54.51337
59.0 0.01695 17.08788 54.11187
47.0 0.02128 17.08058 53.68250
54.0 0.01852 17.07329 53.00893
51.0 0.01961 17.06600 52.53177
59.0 0.01695 17.05871 52.03336
46.0 0.02174 17.05142 51.51592
37.0 0.02703 17.04412 50.98171
38.0 0.02632 17.03683 50.43294
46.0 0.02174 17.02954 49.87172
42.0 0.02381 17.02224 49.30016
55.0 0.01818 17.01494 48.72024
48.0 0.02083 17.00765 48.13385
47.0 0.02128 17.00035 47.54279
38.0 0.02632 16.99306 46.94873
42.0 0.02381 16.98576 46.35327
45.0 0.02222 16.97846 45.75785
44.0 0.02273 16.97117 45.16384
45.0 0.02222 16.96387 44.57244
51.0 0.01961 16.95657 43.98480
49.0 0.02041 16.94927 43.40192
51.0 0.01961 16.94197 42.82471
43.0 0.02326 16.93468 42.25399
44.0 0.02273 16.92738 41.69048
36.0 0.02778 16.92008 41.13481
28.0 0.0357 16.91278 40.58752
45.0 0.02222 16.90548 40.04909
37.0 0.02703 16.89817 39.51992
39.0 0.02564 16.89087 39.00035
34.0 0.02941 16.88357 38.49065
49.0 0.02041 16.87627 37.99104
48.0 0.02083 16.86897 37.50169
35.0 0.02857 16.86167 37.02273
44.0 0.02273 16.85436 36.55423
46.0 0.02174 16.84706 36.09625
33.0 0.03030 16.83976 35.64880
33.0 0.03030 16.83245 35.21185
35.0 0.02857 16.82515 34.78538
45.0 0.02222 16.81785 34.36930
40.0 0.02500 16.81054 33.96354
33.0 0.03030 16.80324 33.56799
34.0 0.02941 16.79593 33.18252
47.0 0.02128 16.78863 32.80702
30.0 0.03333 16.78132 32.44131
32.0 0.03125 16.77402 32.08527
31.0 0.03226 16.76671 31.73870
51.0 0.01961 16.75940 31.40146
41.0 0.02439 16.75210 31.14326
37.0 0.02703 16.74479 30.82453
30.0 0.03333 16.73748 30.51456
34.0 0.02941 16.73018 30.21319
31.0 0.03226 16.72287 29.92019
42.0 0.02381 16.71556 29.63539
26.0 0.0385 16.70826 29.35859
35.0 0.02857 16.70095 29.08961
28.0 0.0357 16.69364 28.82823
47.0 0.02128 16.68633 28.57428
36.0 0.02778 16.67902 28.32755
39.0 0.02564 16.67171 28.08787
28.0 0.0357 16.66441 27.85504
28.0 0.0357 16.65710 27.62887
40.0 0.02500 16.64979 27.41055
27.0 0.0370 16.64248 27.19718
22.0 0.0455 16.63517 26.98993
37.0 0.02703 16.62786 26.78863
22.0 0.0455 16.62055 26.59310
29.0 0.03448 16.61324 26.40318
26.0 0.0385 16.60593 26.21872
33.0 0.03030 16.59862 26.03953
28.0 0.0357 16.59131 25.86546
22.0 0.0455 16.58400 25.69637
25.0 0.0400 16.57669 25.53209
38.0 0.02632 16.56938 25.37249
28.0 0.0357 16.56207 25.21741
29.0 0.03448 16.55476 25.06673
33.0 0.03030 16.54745 24.92030
23.0 0.0435 16.54014 24.77800
40.0 0.02500 16.53283 24.63968
23.0 0.0435 16.52551 24.50524
25.0 0.0400 16.51820 24.37455
33.0 0.03030 16.51089 24.24749
24.0 0.0417 16.50358 24.12395
21.0 0.0476 16.49627 24.00381
25.0 0.0400 16.48896 23.88698
25.0 0.0400 16.48165 23.77335
21.0 0.0476 16.47434 23.66282
20.0 0.0500 16.46702 23.55529
31.0 0.03226 16.45971 23.45069
36.0 0.02778 16.45240 23.34890
32.0 0.03125 16.44509 23.24985
28.0 0.0357 16.43778 23.15346
25.0 0.0400 16.43047 23.05964
25.0 0.0400 16.42316 22.96832
26.0 0.0385 16.41584 22.87942
21.0 0.0476 16.40853 22.79288
20.0 0.0500 16.40122 22.70862
24.0 0.0417 16.39391 22.62659
26.0 0.0385 16.38660 22.54671
32.0 0.03125 16.37929 22.46894
27.0 0.0370 16.37198 22.39320
24.0 0.0417 16.36467 22.31945
25.0 0.0400 16.35736 22.24763
24.0 0.0417 16.35004 22.17770
21.0 0.0476 16.34273 22.10960
28.0 0.0357 16.33542 22.04329
26.0 0.0385 16.32811 21.97873
17.0 0.0588 16.32080 21.91588
22.0 0.0455 16.31349 21.85468
27.0 0.0370 16.30618 21.79513
28.0 0.0357 16.29887 21.73715
18.0 0.0556 16.29156 21.68074
17.0 0.0588 16.28425 21.62585
27.0 0.0370 16.27694 21.57246
29.0 0.03448 16.26963 21.52054
29.0 0.03448 16.26232 21.47006
28.0 0.0357 16.25501 21.42100
20.0 0.0500 16.24770 21.37333
27.0 0.0370 16.24039 21.32702
22.0 0.0455 16.23308 21.28207
31.0 0.03226 16.22577 21.23844
20.0 0.0500 16.21846 21.19614
33.0 0.03030 16.21115 21.15513
20.0 0.0500 16.20384 21.11539
18.0 0.0556 16.19653 21.09549
23.0 0.0435 16.18922 21.05840
24.0 0.0417 16.18192 21.02256
20.0 0.0500 16.17461 20.98796
27.0 0.0370 16.16730 20.95460
24.0 0.0417 16.15999 20.92245
29.0 0.03448 16.15269 20.89154
15.0 0.0667 16.14538 20.86184
24.0 0.0417 16.13807 20.83335
21.0 0.0476 16.13076 20.80608
17.0 0.0588 16.12346 20.78004
23.0 0.0435 16.11615 20.75521
24.0 0.0417 16.10884 20.73161
17.0 0.0588 16.10154 20.70925
19.0 0.0526 16.09423 20.68813
22.0 0.0455 16.08693 20.66826
17.0 0.0588 16.07962 20.64966
15.0 0.0667 16.07232 20.63234
21.0 0.0476 16.06501 20.61633
22.0 0.0455 16.05771 19.76884
17.0 0.0588 16.05041 19.76036
29.0 0.03448 16.04310 19.75319
21.0 0.0476 16.03580 19.74739
22.0 0.0455 16.02850 20.02329
18.0 0.0556 16.02119 20.02204
25.0 0.0400 16.01389 20.02227
32.0 0.03125 16.00659 20.02402
27.0 0.0370 15.99929 20.02736
19.0 0.0526 15.99199 20.03233
11.0 0.0909 15.98468 20.03899
23.0 0.0435 15.97738 20.04741
20.0 0.0500 15.97008 20.05766
11.0 0.0909 15.96278 20.06982
26.0 0.0385 15.95548 20.08398
27.0 0.0370 15.94818 20.10023
18.0 0.0556 15.94089 20.11867
17.0 0.0588 15.93359 20.13941
19.0 0.0526 15.92629 20.16258
15.0 0.0667 15.91899 20.18830
25.0 0.0400 15.91169 20.21671
17.0 0.0588 15.90440 20.24797
22.0 0.0455 15.89710 20.28223
17.0 0.0588 15.88980 20.31969
19.0 0.0526 15.88251 20.36050
14.0 0.0714 15.87521 20.40489
21.0 0.0476 15.86792 20.45306
17.0 0.0588 15.86062 20.50524
23.0 0.0435 15.85333 20.56166
29.0 0.03448 15.84604 20.62259
20.0 0.0500 15.83874 20.68830
20.0 0.0500 15.83145 20.75907
22.0 0.0455 15.82416 20.83519
20.0 0.0500 15.81686 20.91698
26.0 0.0385 15.80957 21.00476
19.0 0.0526 15.80228 21.09888
16.0 0.0625 15.79499 21.19967
16.0 0.0625 15.78770 21.30751
20.0 0.0500 15.78041 21.42276
26.0 0.0385 15.77312 21.54581
23.0 0.0435 15.76584 21.67706
18.0 0.0556 15.75855 21.81690
18.0 0.0556 15.75126 21.98992
21.0 0.0476 15.74398 22.14828
22.0 0.0455 15.73669 22.31644
22.0 0.0455 15.72940 22.49482
17.0 0.0588 15.72212 22.68380
19.0 0.0526 15.71484 22.88380
13.0 0.0769 15.70755 23.09518
16.0 0.0625 15.70027 23.31833
15.0 0.0667 15.69298 23.55359
20.0 0.0500 15.68570 23.80131
23.0 0.0435 15.67842 24.06178
20.0 0.0500 15.67114 24.33530
30.0 0.03333 15.66386 24.62212
27.0 0.0370 15.65658 24.92244
19.0 0.0526 15.64930 25.23642
28.0 0.0357 15.64202 25.56417
27.0 0.0370 15.63474 25.90576
20.0 0.0500 15.62747 26.26116
24.0 0.0417 15.62019 26.63028
23.0 0.0435 15.61292 27.01295
19.0 0.0526 15.60564 27.40889
21.0 0.0476 15.59836 27.81771
18.0 0.0556 15.59109 28.23890
29.0 0.03448 15.58382 28.67182
26.0 0.0385 15.57654 29.11564
26.0 0.0385 15.56927 29.56939
12.0 0.0833 15.56200 30.03189
26.0 0.0385 15.55473 30.50171
30.0 0.03333 15.54746 30.97725
26.0 0.0385 15.54019 31.45659
44.0 0.02273 15.53292 31.93759
27.0 0.0370 15.52565 32.41779
25.0 0.0400 15.51839 32.89443
28.0 0.0357 15.51112 33.36448
29.0 0.03448 15.50386 33.82462
36.0 0.02778 15.49659 34.27122
41.0 0.02439 15.48933 34.70049
35.0 0.02857 15.48206 35.10839
39.0 0.02564 15.47480 35.49081
44.0 0.02273 15.46754 35.84358
53.0 0.01887 15.46028 36.16259
60.0 0.01667 15.45302 36.44392
50.0 0.02000 15.44576 36.68395
53.0 0.01887 15.43850 36.87943
38.0 0.02632 15.43124 37.02767
72.0 0.01389 15.42398 37.12656
69.0 0.01449 15.41673 37.17476
60.0 0.01667 15.40947 37.17159
62.0 0.01613 15.40222 37.11728
52.0 0.01923 15.39496 37.01274
65.0 0.01538 15.38771 36.85966
80.0 0.01250 15.38046 36.66040
47.0 0.02128 15.37321 36.41790
53.0 0.01887 15.36596 36.13560
58.0 0.01724 15.35871 35.81726
44.0 0.02273 15.35146 35.46694
63.0 0.01587 15.34421 35.08878
53.0 0.01887 15.33697 34.68698
48.0 0.02083 15.32972 34.26563
42.0 0.02381 15.32247 33.82872
48.0 0.02083 15.31523 33.38000
42.0 0.02381 15.30799 32.92299
38.0 0.02632 15.30075 32.46094
34.0 0.02941 15.29350 31.99679
29.0 0.03448 15.28626 31.53320
29.0 0.03448 15.27902 31.07251
34.0 0.02941 15.27178 30.61683
24.0 0.0417 15.26454 30.16794
40.0 0.02500 15.25731 29.72740
35.0 0.02857 15.25007 29.29657
24.0 0.0417 15.24284 28.87654
25.0 0.0400 15.23561 28.46825
26.0 0.0385 15.22837 28.07248
23.0 0.0435 15.22114 27.68983
38.0 0.02632 15.21391 27.32078
28.0 0.0357 15.20668 27.06999
23.0 0.0435 15.19945 26.72968
26.0 0.0385 15.19222 26.40374
24.0 0.0417 15.18500 26.09223
29.0 0.03448 15.17777 25.79515
23.0 0.0435 15.17054 25.51243
23.0 0.0435 15.16332 25.24394
18.0 0.0556 15.15610 24.98952
19.0 0.0526 15.14888 24.76771
22.0 0.0455 15.14166 24.54079
19.0 0.0526 15.13444 24.32715
22.0 0.0455 15.12722 24.12646
25.0 0.0400 15.12000 23.93837
18.0 0.0556 15.11278 23.76248
21.0 0.0476 15.10557 23.59843
24.0 0.0417 15.09835 23.44580
15.0 0.0667 15.09114 23.30416
22.0 0.0455 15.08393 23.17309
18.0 0.0556 15.07672 23.05214
17.0 0.0588 15.06951 22.94087
17.0 0.0588 15.06230 22.83883
20.0 0.0500 15.05509 22.74557
30.0 0.03333 15.04788 22.66064
24.0 0.0417 15.04068 22.58357
22.0 0.0455 15.03348 22.51395
21.0 0.0476 15.02627 22.40873
20.0 0.0500 15.01907 22.35288
21.0 0.0476 15.01187 22.30315
19.0 0.0526 15.00467 22.25910
19.0 0.0526 14.99747 22.22030
25.0 0.0400 14.99028 22.18635
24.0 0.0417 14.98308 22.15683
14.0 0.0714 14.97589 22.13135
17.0 0.0588 14.96869 22.10951
17.0 0.0588 14.96150 22.09094
22.0 0.0455 14.95431 22.07527
24.0 0.0417 14.94712 22.06212
29.0 0.03448 14.93993 22.05115
17.0 0.0588 14.93274 22.04203
27.0 0.0370 14.92556 22.03443
25.0 0.0400 14.91837 22.02802
24.0 0.0417 14.91119 22.02254
23.0 0.0435 14.90401 22.01766
21.0 0.0476 14.89683 22.01316
30.0 0.03333 14.88965 22.00877
15.0 0.0667 14.88247 22.00427
19.0 0.0526 14.87529 21.99946
21.0 0.0476 14.86812 21.99414
23.0 0.0435 14.86094 21.98816
28.0 0.0357 14.85377 21.98139
23.0 0.0435 14.84660 21.45674
17.0 0.0588 14.83943 21.45123
21.0 0.0476 14.83226 21.44461
28.0 0.0357 14.82509 21.43686
26.0 0.0385 14.81793 21.42793
27.0 0.0370 14.81076 21.41784
22.0 0.0455 14.80360 21.40659
24.0 0.0417 14.79644 21.39423
30.0 0.03333 14.78927 21.38080
19.0 0.0526 14.78212 21.36637
18.0 0.0556 14.77496 21.55772
26.0 0.0385 14.76780 21.54269
28.0 0.0357 14.76065 21.52692
24.0 0.0417 14.75349 21.51051
26.0 0.0385 14.74634 21.49357
23.0 0.0435 14.73919 21.47621
24.0 0.0417 14.73204 21.45853
27.0 0.0370 14.72489 21.44065
23.0 0.0435 14.71774 21.42267
30.0 0.03333 14.71060 21.40471
26.0 0.0385 14.70346 21.38684
19.0 0.0526 14.69631 21.36920
19.0 0.0526 14.68917 21.35185
22.0 0.0455 14.68203 21.33490
24.0 0.0417 14.67490 21.31842
21.0 0.0476 14.66776 21.30250
20.0 0.0500 14.66063 21.28720
30.0 0.03333 14.65349 21.27260
27.0 0.0370 14.64636 21.25875
20.0 0.0500 14.63923 21.24571
26.0 0.0385 14.63210 21.23353
26.0 0.0385 14.62497 21.22225
26.0 0.0385 14.61785 21.21190
22.0 0.0455 14.61072 21.20254
18.0 0.0556 14.60360 21.19419
22.0 0.0455 14.59648 21.18685
27.0 0.0370 14.58936 21.18058
32.0 0.03125 14.58225 21.17538
23.0 0.0435 14.57513 21.17126
25.0 0.0400 14.56802 21.16825
17.0 0.0588 14.56090 21.16634
23.0 0.0435 14.55379 21.16556
33.0 0.03030 14.54668 21.16591
30.0 0.03333 14.53957 21.16740
26.0 0.0385 14.53247 21.17004
32.0 0.03125 14.52536 21.17382
20.0 0.0500 14.51826 21.17876
34.0 0.02941 14.51116 21.18487
32.0 0.03125 14.50406 21.19213
28.0 0.0357 14.49696 21.20058
20.0 0.0500 14.48986 21.21021
26.0 0.0385 14.48277 21.22104
30.0 0.03333 14.47568 21.23307
28.0 0.0357 14.46859 21.24630
26.0 0.0385 14.46149 21.26076
37.0 0.02703 14.45441 21.27646
21.0 0.0476 14.44732 21.29339
19.0 0.0526 14.44024 21.31158
25.0 0.0400 14.43315 21.33105
27.0 0.0370 14.42607 21.35180
38.0 0.02632 14.41899 21.37385
39.0 0.02564 14.41191 21.39721
37.0 0.02703 14.40484 21.42189
30.0 0.03333 14.39776 21.44790
36.0 0.02778 14.39069 21.47526
39.0 0.02564 14.38362 21.50399
30.0 0.03333 14.37655 21.53409
37.0 0.02703 14.36948 21.56558
24.0 0.0417 14.36242 21.59848
30.0 0.03333 14.35536 21.63280
35.0 0.02857 14.34830 21.66856
40.0 0.02500 14.34124 21.70579
29.0 0.03448 14.33418 21.74450
36.0 0.02778 14.32712 21.78476
35.0 0.02857 14.32007 21.82656
44.0 0.02273 14.31302 21.86999
44.0 0.02273 14.30597 21.91508
39.0 0.02564 14.29892 21.96189
32.0 0.03125 14.29187 22.01049
31.0 0.03226 14.28483 22.06096
31.0 0.03226 14.27778 22.11337
38.0 0.02632 14.27074 22.16782
32.0 0.03125 14.26370 22.22440
27.0 0.0370 14.25667 22.28321
38.0 0.02632 14.24963 22.34434
48.0 0.02083 14.24260 22.40792
44.0 0.02273 14.23557 22.47403
34.0 0.02941 14.22854 22.54279
35.0 0.02857 14.22151 22.61430
36.0 0.02778 14.21448 22.68867
33.0 0.03030 14.20746 22.76599
38.0 0.02632 14.20044 22.84636
45.0 0.02222 14.19342 22.92988
43.0 0.02326 14.18640 23.01663
35.0 0.02857 14.17939 23.10670
40.0 0.02500 14.17237 23.20015
40.0 0.02500 14.16536 23.29706
28.0 0.0357 14.15835 23.39750
36.0 0.02778 14.15134 23.50155
34.0 0.02941 14.14434 23.60921
39.0 0.02564 14.13733 23.72058
43.0 0.02326 14.13033 23.83566
38.0 0.02632 14.12333 23.95451
38.0 0.02632 14.11633 24.07714
52.0 0.01923 14.10934 24.20356
46.0 0.02174 14.10235 24.33558
38.0 0.02632 14.09535 24.46964
42.0 0.02381 14.08837 24.60750
44.0 0.02273 14.08138 24.74914
41.0 0.02439 14.07439 24.89454
39.0 0.02564 14.06741 25.04366
40.0 0.02500 14.06043 25.19643
44.0 0.02273 14.05345 25.35281
53.0 0.01887 14.04647 25.51271
49.0 0.02041 14.03950 25.67605
36.0 0.02778 14.03253 25.84271
39.0 0.02564 14.02556 26.01258
41.0 0.02439 14.01859 26.18550
43.0 0.02326 14.01162 26.36134
46.0 0.02174 14.00466 26.53990
39.0 0.02564 13.99770 26.72098
44.0 0.02273 13.99074 26.90438
36.0 0.02778 13.98378 27.08984
48.0 0.02083 13.97683 27.27710
44.0 0.02273 13.96987 27.46587
41.0 0.02439 13.96292 27.65583
39.0 0.02564 13.95598 27.84665
51.0 0.01961 13.94903 28.03794
50.0 0.02000 13.94209 28.22933
47.0 0.02128 13.93514 28.42038
32.0 0.03125 13.92821 28.61066
54.0 0.01852 13.92127 28.79968
29.0 0.03448 13.91433 28.98696
37.0 0.02703 13.90740 29.17196
39.0 0.02564 13.90047 29.35416
36.0 0.02778 13.89354 29.53298
37.0 0.02703 13.88662 29.70784
44.0 0.02273 13.87969 29.87816
34.0 0.02941 13.87277 30.04332
45.0 0.02222 13.86585 30.20274
46.0 0.02174 13.85894 30.35577
41.0 0.02439 13.85202 30.50183
35.0 0.02857 13.84511 30.64031
34.0 0.02941 13.83820 30.77062
39.0 0.02564 13.83130 30.89220
43.0 0.02326 13.82439 31.00451
44.0 0.02273 13.81749 31.10703
43.0 0.02326 13.81059 31.19930
40.0 0.02500 13.80369 31.28088
40.0 0.02500 13.79679 31.35140
38.0 0.02632 13.78990 31.41052
36.0 0.02778 13.78301 31.45798
39.0 0.02564 13.77612 31.49356
38.0 0.02632 13.76924 31.51713
30.0 0.03333 13.76236 31.52860
40.0 0.02500 13.75548 31.52798
47.0 0.02128 13.74860 31.51532
29.0 0.03448 13.74172 31.49075
33.0 0.03030 13.73485 31.45447
34.0 0.02941 13.72798 31.40675
42.0 0.02381 13.72111 31.34790
39.0 0.02564 13.71424 31.27833
40.0 0.02500 13.70738 31.19846
31.0 0.03226 13.70052 31.10880
29.0 0.03448 13.69366 31.00987
27.0 0.0370 13.68680 30.90226
38.0 0.02632 13.67995 30.78656
13.0 0.0769 13.67310 30.66343
23.0 0.0435 13.66625 30.53349
30.0 0.03333 13.65941 30.39745
30.0 0.03333 13.65257 30.26486
29.0 0.03448 13.64573 30.11869
36.0 0.02778 13.63889 29.96846
32.0 0.03125 13.63205 29.81485
24.0 0.0417 13.62522 29.65853
31.0 0.03226 13.61839 29.50016
28.0 0.0357 13.61156 29.34038
23.0 0.0435 13.60474 29.17981
35.0 0.02857 13.59791 29.01905
23.0 0.0435 13.59109 28.85866
23.0 0.0435 13.58428 28.69921
23.0 0.0435 13.57746 28.54121
26.0 0.0385 13.57065 28.38515
22.0 0.0455 13.56384 28.23150
25.0 0.0400 13.55703 28.08070
35.0 0.02857 13.55023 27.93314
28.0 0.0357 13.54343 27.78921
29.0 0.03448 13.53663 27.64924
34.0 0.02941 13.52983 27.51357
29.0 0.03448 13.52304 27.38249
19.0 0.0526 13.51625 27.25625
21.0 0.0476 13.50946 27.13510
31.0 0.03226 13.50268 27.01924
27.0 0.0370 13.49590 26.90886
21.0 0.0476 13.48912 26.80412
19.0 0.0526 13.48234 26.70515
24.0 0.0417 13.47557 26.61205
26.0 0.0385 13.46879 26.52491
19.0 0.0526 13.46203 26.44380
24.0 0.0417 13.45526 26.36872
26.0 0.0385 13.44850 26.29970
23.0 0.0435 13.44174 26.23672
32.0 0.03125 13.43498 26.17972
30.0 0.03333 13.42822 26.12862
19.0 0.0526 13.42147 26.08332
21.0 0.0476 13.41472 26.04368
24.0 0.0417 13.40798 26.00953
18.0 0.0556 13.40123 25.98067
18.0 0.0556 13.39449 25.95685
23.0 0.0435 13.38775 25.93780
26.0 0.0385 13.38102 25.92321
12.0 0.0833 13.37429 25.91273
21.0 0.0476 13.36756 25.90596
21.0 0.0476 13.36083 25.90249
27.0 0.0370 13.35411 25.90186
13.0 0.0769 13.34739 25.90357
22.0 0.0455 13.34067 25.90709
21.0 0.0476 13.33396 25.91190
23.0 0.0435 13.32724 25.91742
18.0 0.0556 13.32054 25.92307
20.0 0.0500 13.31383 25.92830
20.0 0.0500 13.30713 25.93254
27.0 0.0370 13.30043 25.93525
19.0 0.0526 13.29373 25.93593
25.0 0.0400 13.28704 25.93413
13.0 0.0769 13.28035 25.92946
26.0 0.0385 13.27366 25.92160
26.0 0.0385 13.26697 25.91031
23.0 0.0435 13.26029 25.89545
20.0 0.0500 13.25361 25.88226
25.0 0.0400 13.24694 25.86025
25.0 0.0400 13.24026 25.73882
27.0 0.0370 13.23359 25.71086
21.0 0.0476 13.22692 25.68011
26.0 0.0385 13.22026 25.64700
22.0 0.0455 13.21360 25.61205
23.0 0.0435 13.20694 25.57584
15.0 0.0667 13.20029 25.53903
17.0 0.0588 13.19363 25.50228
25.0 0.0400 13.18699 25.46632
20.0 0.0500 13.18034 25.43188
17.0 0.0588 13.17370 25.39969
20.0 0.0500 13.16706 25.37049
31.0 0.03226 13.16042 25.35194
33.0 0.03030 13.15379 25.33093
27.0 0.0370 13.14716 25.31502
27.0 0.0370 13.14053 25.30486
21.0 0.0476 13.13391 25.30107
22.0 0.0455 13.12729 25.30426
19.0 0.0526 13.12067 25.31495
11.0 0.0909 13.11406 25.33368
17.0 0.0588 13.10745 25.48163
21.0 0.0476 13.10084 25.51852
25.0 0.0400 13.09424 25.56479
15.0 0.0667 13.08763 25.62080
25.0 0.0400 13.08103 25.68694
23.0 0.0435 13.07444 25.76349
19.0 0.0526 13.06785 25.85077
17.0 0.0588 13.06126 25.94900
23.0 0.0435 13.05467 26.05846
18.0 0.0556 13.04809 26.17932
28.0 0.0357 13.04151 26.31176
19.0 0.0526 13.03494 26.45593
25.0 0.0400 13.02836 26.61196
13.0 0.0769 13.02180 26.77992
31.0 0.03226 13.01523 26.95989
21.0 0.0476 13.00867 27.15190
29.0 0.03448 13.00211 27.35591
14.0 0.0714 12.99555 27.57191
32.0 0.03125 12.98900 27.79982
34.0 0.02941 12.98245 28.03950
29.0 0.03448 12.97590 28.29081
23.0 0.0435 12.96936 28.55351
24.0 0.0417 12.96282 28.82733
28.0 0.0357 12.95629 29.11196
29.0 0.03448 12.94975 29.40700
25.0 0.0400 12.94323 29.71198
27.0 0.0370 12.93670 30.02639
33.0 0.03030 12.93018 30.34959
24.0 0.0417 12.92366 30.68088
20.0 0.0500 12.91714 31.01945
26.0 0.0385 12.91063 31.36439
37.0 0.02703 12.90412 31.71469
21.0 0.0476 12.89761 32.06921
27.0 0.0370 12.89111 32.42669
22.0 0.0455 12.88462 32.78575
19.0 0.0526 12.87812 33.14487
36.0 0.02778 12.87163 33.50243
25.0 0.0400 12.86514 33.85662
23.0 0.0435 12.85866 34.20560
32.0 0.03125 12.85217 34.54735
25.0 0.0400 12.84570 34.87977
38.0 0.02632 12.83922 35.20068
33.0 0.03030 12.83275 35.50788
33.0 0.03030 12.82629 35.79908
34.0 0.02941 12.81982 36.07206
29.0 0.03448 12.81336 36.32460
20.0 0.0500 12.80690 36.55457
31.0 0.03226 12.80045 36.75999
31.0 0.03226 12.79400 36.93900
31.0 0.03226 12.78756 37.08998
25.0 0.0400 12.78112 37.21157
24.0 0.0417 12.77468 37.30265
23.0 0.0435 12.76824 37.36240
36.0 0.02778 12.76181 37.39040
29.0 0.03448 12.75538 37.38647
39.0 0.02564 12.74896 37.35083
27.0 0.0370 12.74254 37.28402
33.0 0.03030 12.73612 37.18689
35.0 0.02857 12.72971 37.05995
36.0 0.02778 12.72330 36.90587
33.0 0.03030 12.71689 36.72563
40.0 0.02500 12.71049 36.52102
26.0 0.0385 12.70409 36.29403
29.0 0.03448 12.69769 36.04664
21.0 0.0476 12.69130 35.81797
30.0 0.03333 12.68491 35.53636
30.0 0.03333 12.67853 35.24070
20.0 0.0500 12.67215 34.88771
32.0 0.03125 12.66577 34.57030
32.0 0.03125 12.65940 34.24477
33.0 0.03030 12.65303 33.91290
29.0 0.03448 12.64667 33.57634
35.0 0.02857 12.64030 33.23666
24.0 0.0417 12.63395 32.89524
24.0 0.0417 12.62759 32.55339
34.0 0.02941 12.62124 32.21224
33.0 0.03030 12.61489 31.87283
24.0 0.0417 12.60855 31.53605
18.0 0.0556 12.60221 31.20272
23.0 0.0435 12.59588 30.87351
29.0 0.03448 12.58955 30.54902
26.0 0.0385 12.58322 30.22972
25.0 0.0400 12.57689 29.91606
20.0 0.0500 12.57057 29.60836
30.0 0.03333 12.56426 29.30689
15.0 0.0667 12.55795 29.01185
30.0 0.03333 12.55164 28.72338
25.0 0.0400 12.54533 28.44160
25.0 0.0400 12.53903 28.16655
28.0 0.0357 12.53273 27.89824
28.0 0.0357 12.52644 27.63665
24.0 0.0417 12.52015 27.38173
36.0 0.02778 12.51387 27.13339
33.0 0.03030 12.50759 26.89153
20.0 0.0500 12.50131 26.65601
30.0 0.03333 12.49504 26.42671
22.0 0.0455 12.48877 26.20346
24.0 0.0417 12.48250 25.98610
24.0 0.0417 12.47624 25.77444
23.0 0.0435 12.46998 25.56829
37.0 0.02703 12.46373 25.36747
29.0 0.03448 12.45748 25.17177
22.0 0.0455 12.45124 24.98099
32.0 0.03125 12.44499 24.79494
20.0 0.0500 12.43876 24.61342
18.0 0.0556 12.43252 24.43623
29.0 0.03448 12.42629 24.26316
20.0 0.0500 12.42007 24.09404
21.0 0.0476 12.41385 23.92868
22.0 0.0455 12.40763 23.76689
19.0 0.0526 12.40141 23.60848
28.0 0.0357 12.39521 23.45332
30.0 0.03333 12.38900 23.30121
27.0 0.0370 12.38280 23.15202
23.0 0.0435 12.37660 23.00559
28.0 0.0357 12.37041 22.86178
20.0 0.0500 12.36422 22.72047
17.0 0.0588 12.35804 22.58153
27.0 0.0370 12.35186 22.44485
30.0 0.03333 12.34568 22.31031
18.0 0.0556 12.33951 22.17783
21.0 0.0476 12.33334 21.97946
17.0 0.0588 12.32717 21.88882
21.0 0.0476 12.32101 21.76258
27.0 0.0370 12.31486 21.63806
26.0 0.0385 12.30871 21.51521
18.0 0.0556 12.30256 21.39396
23.0 0.0435 12.29642 21.27426
18.0 0.0556 12.29028 21.15608
15.0 0.0667 12.28414 21.03938
25.0 0.0400 12.27801 20.92410
21.0 0.0476 12.27188 20.81024
16.0 0.0625 12.26576 20.69775
25.0 0.0400 12.25964 20.58663
25.0 0.0400 12.25353 20.47684
27.0 0.0370 12.24742 20.36689
20.0 0.0500 12.24132 20.25975
18.0 0.0556 12.23521 20.15390
14.0 0.0714 12.22912 20.04936
16.0 0.0625 12.22303 19.94610
16.0 0.0625 12.21694 19.84414
19.0 0.0526 12.21085 19.74344
15.0 0.0667 12.20477 19.64402
19.0 0.0526 12.19870 19.54589
28.0 0.0357 12.19263 19.44902
27.0 0.0370 12.18656 19.35343
23.0 0.0435 12.18050 19.25912
14.0 0.0714 12.17444 19.16610
23.0 0.0435 12.16839 19.07434
20.0 0.0500 12.16234 18.98388
12.0 0.0833 12.15630 18.89469
24.0 0.0417 12.15026 18.80679
14.0 0.0714 12.14422 18.72017
18.0 0.0556 12.13819 18.63484
21.0 0.0476 12.13216 18.55079
22.0 0.0455 12.12614 18.46803
15.0 0.0667 12.12012 18.38655
17.0 0.0588 12.11411 18.30635
17.0 0.0588 12.10810 18.22743
14.0 0.0714 12.10209 18.14978
23.0 0.0435 12.09609 18.07341
20.0 0.0500 12.09010 17.99831
20.0 0.0500 12.08411 17.92448
26.0 0.0385 12.07812 17.85192
24.0 0.0417 12.07214 17.78059
28.0 0.0357 12.06616 17.71053
19.0 0.0526 12.06018 17.64171
11.0 0.0909 12.05422 17.57414
16.0 0.0625 12.04825 17.50779
18.0 0.0556 12.04229 17.44267
15.0 0.0667 12.03634 17.37876
22.0 0.0455 12.03039 17.31606
24.0 0.0417 12.02444 17.25456
15.0 0.0667 12.01850 17.19425
17.0 0.0588 12.01256 17.13513
14.0 0.0714 12.00663 17.07718
14.0 0.0714 12.00070 17.02039
17.0 0.0588 11.99478 16.96475
24.0 0.0417 11.98886 16.91026
15.0 0.0667 11.98295 16.85690
26.0 0.0385 11.97703 16.80467
16.0 0.0625 11.97113 16.75356
23.0 0.0435 11.96523 16.70355
21.0 0.0476 11.95934 16.65463
15.0 0.0667 11.95345 16.60680
22.0 0.0455 11.94756 16.56005
21.0 0.0476 11.94168 16.51437
22.0 0.0455 11.93580 16.46974
18.0 0.0556 11.92993 16.42616
18.0 0.0556 11.92406 16.38363
16.0 0.0625 11.91820 16.34213
23.0 0.0435 11.91234 16.30166
19.0 0.0526 11.90649 16.26221
14.0 0.0714 11.90064 16.22378
13.0 0.0769 11.89479 16.18635
15.0 0.0667 11.88896 16.14993
16.0 0.0625 11.88312 16.11450
20.0 0.0500 11.87729 16.06194
18.0 0.0556 11.87147 16.02861
18.0 0.0556 11.86565 15.99627
15.0 0.0667 11.85983 15.96493
27.0 0.0370 11.85402 15.93457
16.0 0.0625 11.84822 15.90520
15.0 0.0667 11.84241 15.87681
14.0 0.0714 11.83662 15.84942
18.0 0.0556 11.83083 15.82303
20.0 0.0500 11.82504 15.79763
12.0 0.0833 11.81926 15.77323
21.0 0.0476 11.81348 15.74984
13.0 0.0769 11.80771 15.72747
14.0 0.0714 11.80195 15.70611
15.0 0.0667 11.79618 15.68578
21.0 0.0476 11.79043 15.66649
24.0 0.0417 11.78467 15.64824
15.0 0.0667 11.77893 15.63104
18.0 0.0556 11.77319 15.61490
14.0 0.0714 11.76745 15.59983
13.0 0.0769 11.76171 15.58585
14.0 0.0714 11.75599 15.57297
18.0 0.0556 11.75027 15.27857
25.0 0.0400 11.74455 15.26964
14.0 0.0714 11.73883 15.26182
10.0 0.1000 11.73313 15.25513
17.0 0.0588 11.72742 15.24957
19.0 0.0526 11.72173 15.24516
12.0 0.0833 11.71604 15.24191
11.0 0.0909 11.71035 15.23982
12.0 0.0833 11.70467 15.23891
20.0 0.0500 11.69899 15.23920
8.0 0.1250 11.69331 15.24069
20.0 0.0500 11.68765 15.24338
20.0 0.0500 11.68198 15.24731
17.0 0.0588 11.67632 15.25245
14.0 0.0714 11.67067 15.25884
17.0 0.0588 11.66503 15.26647
22.0 0.0455 11.65938 15.27536
25.0 0.0400 11.65375 15.28550
17.0 0.0588 11.64811 15.29690
16.0 0.0625 11.64249 15.30956
20.0 0.0500 11.63687 15.32347
13.0 0.0769 11.63125 15.33865
18.0 0.0556 11.62564 15.35509
17.0 0.0588 11.62003 15.37277
22.0 0.0455 11.61443 15.39170
12.0 0.0833 11.60883 15.41185
21.0 0.0476 11.60324 15.43322
7.0 0.1429 11.59766 15.45579
24.0 0.0417 11.59208 15.47953
18.0 0.0556 11.58650 15.51955
24.0 0.0417 11.58093 15.54563
16.0 0.0625 11.57537 15.57280
18.0 0.0556 11.56981 15.60100
17.0 0.0588 11.56425 15.63021
19.0 0.0526 11.55870 15.66036
21.0 0.0476 11.55316 15.69140
15.0 0.0667 11.54762 15.72327
23.0 0.0435 11.54209 15.82835
32.0 0.03125 11.53656 15.86203
16.0 0.0625 11.53103 15.89633
20.0 0.0500 11.52552 15.93116
16.0 0.0625 11.52000 15.96642
17.0 0.0588 11.51450 16.00203
21.0 0.0476 11.50899 16.03788
20.0 0.0500 11.50350 16.07390
19.0 0.0526 11.49801 16.10997
11.0 0.0909 11.49252 16.22939
12.0 0.0833 11.48704 16.26576
24.0 0.0417 11.48156 16.30191
15.0 0.0667 11.47610 16.33777
18.0 0.0556 11.47063 16.37325
24.0 0.0417 11.46517 16.40831
10.0 0.1000 11.45972 16.44287
22.0 0.0455 11.45427 16.47691
18.0 0.0556 11.44882 16.51039
15.0 0.0667 11.44339 16.54332
12.0 0.0833 11.43796 16.57568
19.0 0.0526 11.43253 16.60751
15.0 0.0667 11.42711 16.63883
21.0 0.0476 11.42169 16.66970
26.0 0.0385 11.41628 16.70019
24.0 0.0417 11.41088 16.73038
25.0 0.0400 11.40548 16.76035
20.0 0.0500 11.40008 16.79021
18.0 0.0556 11.39469 16.82009
16.0 0.0625 11.38931 16.85007
9.0 0.1111 11.38393 16.88030
20.0 0.0500 11.37856 16.91089
22.0 0.0455 11.37319 16.94198
33.0 0.03030 11.36783 16.97368
23.0 0.0435 11.36248 17.00613
26.0 0.0385 11.35713 17.03945
30.0 0.03333 11.35178 17.07374
26.0 0.0385 11.34645 17.10912
19.0 0.0526 11.34111 17.14570
28.0 0.0357 11.33578 17.18357
23.0 0.0435 11.33046 17.22281
19.0 0.0526 11.32514 17.26351
19.0 0.0526 11.31983 17.30574
19.0 0.0526 11.31453 17.34956
22.0 0.0455 11.30923 17.39503
14.0 0.0714 11.30394 17.44220
14.0 0.0714 11.29865 17.49109
22.0 0.0455 11.29336 17.54174
16.0 0.0625 11.28809 17.59416
14.0 0.0714 11.28281 17.64837
19.0 0.0526 11.27755 17.70436
21.0 0.0476 11.27229 17.78114
21.0 0.0476 11.26703 17.84076
14.0 0.0714 11.26178 17.90213
20.0 0.0500 11.25654 17.96519
20.0 0.0500 11.25130 18.02991
20.0 0.0500 11.24607 18.09624
23.0 0.0435 11.24085 18.16411
26.0 0.0385 11.23563 18.23345
28.0 0.0357 11.23041 18.30418
22.0 0.0455 11.22520 18.34961
19.0 0.0526 11.22000 18.42299
20.0 0.0500 11.21480 18.49745
22.0 0.0455 11.20961 18.57287
28.0 0.0357 11.20442 18.64913
15.0 0.0667 11.19925 18.72608
27.0 0.0370 11.19407 18.80356
21.0 0.0476 11.18890 18.88142
17.0 0.0588 11.18374 18.95949
15.0 0.0667 11.17858 19.03757
22.0 0.0455 11.17343 19.11548
28.0 0.0357 11.16829 19.19303
24.0 0.0417 11.16315 19.26999
20.0 0.0500 11.15801 19.34614
25.0 0.0400 11.15289 19.42128
24.0 0.0417 11.14777 19.49516
26.0 0.0385 11.14265 19.56754
23.0 0.0435 11.13754 19.63818
27.0 0.0370 11.13244 19.70686
14.0 0.0714 11.12734 19.77331
20.0 0.0500 11.12225 19.83731
27.0 0.0370 11.11716 19.89860
19.0 0.0526 11.11208 19.95696
19.0 0.0526 11.10701 20.01218
20.0 0.0500 11.10194 20.06402
25.0 0.0400 11.09687 20.11230
10.0 0.1000 11.09182 20.15684
19.0 0.0526 11.08677 20.19745
26.0 0.0385 11.08172 20.23401
23.0 0.0435 11.07668 20.26637
24.0 0.0417 11.07165 20.29445
18.0 0.0556 11.06662 20.31816
18.0 0.0556 11.06161 20.33747
22.0 0.0455 11.05659 20.35236
31.0 0.03226 11.05158 20.36283
21.0 0.0476 11.04658 20.36892
16.0 0.0625 11.04158 20.37069
18.0 0.0556 11.03659 20.36825
17.0 0.0588 11.03161 20.36170
19.0 0.0526 11.02663 20.35119
21.0 0.0476 11.02166 20.33690
12.0 0.0833 11.01669 20.31901
16.0 0.0625 11.01173 20.29772
12.0 0.0833 11.00678 20.27327
27.0 0.0370 11.00183 20.24588
15.0 0.0667 10.99689 20.21582
16.0 0.0625 10.99195 20.18333
21.0 0.0476 10.98702 20.14870
27.0 0.0370 10.98210 20.11219
17.0 0.0588 10.97718 20.07407
17.0 0.0588 10.97227 20.03461
17.0 0.0588 10.96737 19.99409
19.0 0.0526 10.96247 19.95279
21.0 0.0476 10.95758 19.91096
16.0 0.0625 10.95269 19.86885
19.0 0.0526 10.94781 19.82673
11.0 0.0909 10.94294 19.78483
19.0 0.0526 10.93807 19.74339
13.0 0.0769 10.93321 19.70262
25.0 0.0400 10.92835 19.66273
24.0 0.0417 10.92351 19.62393
25.0 0.0400 10.91866 19.58640
17.0 0.0588 10.91383 19.55030
16.0 0.0625 10.90900 19.51581
23.0 0.0435 10.90417 19.48305
18.0 0.0556 10.89936 19.45217
21.0 0.0476 10.89455 19.42329
21.0 0.0476 10.88974 19.39649
19.0 0.0526 10.88494 19.37186
19.0 0.0526 10.88015 19.34949
18.0 0.0556 10.87536 19.32942
20.0 0.0500 10.87059 19.31169
25.0 0.0400 10.86581 19.29632
18.0 0.0556 10.86104 19.28332
18.0 0.0556 10.85628 19.27267
22.0 0.0455 10.85153 19.14975
25.0 0.0400 10.84678 19.14437
19.0 0.0526 10.84204 19.14120
20.0 0.0500 10.83731 19.14013
14.0 0.0714 10.83258 19.14106
21.0 0.0476 10.82786 19.14388
20.0 0.0500 10.82314 19.14842
17.0 0.0588 10.81843 19.15451
13.0 0.0769 10.81373 19.27393
17.0 0.0588 10.80903 19.28332
15.0 0.0667 10.80434 19.29362
19.0 0.0526 10.79966 19.30458
23.0 0.0435 10.79498 19.31593
20.0 0.0500 10.79031 19.32737
18.0 0.0556 10.78565 19.33859
20.0 0.0500 10.78099 19.34926
14.0 0.0714 10.77634 19.35905
19.0 0.0526 10.77170 19.36758
19.0 0.0526 10.76706 19.37453
16.0 0.0625 10.76243 19.37950
20.0 0.0500 10.75780 19.38216
23.0 0.0435 10.75318 19.38216
28.0 0.0357 10.74857 19.37914
21.0 0.0476 10.74397 19.37277
23.0 0.0435 10.73937 19.36276
22.0 0.0455 10.73478 19.34882
18.0 0.0556 10.73019 19.33070
25.0 0.0400 10.72561 19.30820
11.0 0.0909 10.72104 19.28112
11.0 0.0909 10.71647 19.24935
13.0 0.0769 10.71192 19.21278
19.0 0.0526 10.70736 19.17137
11.0 0.0909 10.70282 19.12512
19.0 0.0526 10.69828 19.07408
17.0 0.0588 10.69375 19.01834
15.0 0.0667 10.68922 18.95804
17.0 0.0588 10.68470 18.89332
19.0 0.0526 10.68019 18.82442
10.0 0.1000 10.67568 18.75157
15.0 0.0667 10.67118 18.67500
11.0 0.0909 10.66669 18.59503
21.0 0.0476 10.66221 18.51196
16.0 0.0625 10.65773 18.42607
7.0 0.1429 10.65325 18.33770
15.0 0.0667 10.64879 18.24717
17.0 0.0588 10.64433 18.15479
19.0 0.0526 10.63988 18.06088
21.0 0.0476 10.63543 17.96574
15.0 0.0667 10.63100 17.86967
12.0 0.0833 10.62656 17.77294
15.0 0.0667 10.62214 17.67583
17.0 0.0588 10.61772 17.57857
19.0 0.0526 10.61331 17.48141
15.0 0.0667 10.60891 17.38457
13.0 0.0769 10.60451 17.28822
15.0 0.0667 10.60012 17.19257
21.0 0.0476 10.59573 17.09776
13.0 0.0769 10.59136 17.00395
12.0 0.0833 10.58699 16.91126
22.0 0.0455 10.58262 16.81981
19.0 0.0526 10.57827 16.52455
17.0 0.0588 10.57392 16.43702
19.0 0.0526 10.56958 16.35097
11.0 0.0909 10.56524 16.26648
17.0 0.0588 10.56091 16.18361
20.0 0.0500 10.55659 16.10239
17.0 0.0588 10.55227 16.02286
15.0 0.0667 10.54796 15.94505
13.0 0.0769 10.54366 15.86897
15.0 0.0667 10.53937 15.79464
15.0 0.0667 10.53508 15.72205
20.0 0.0500 10.53080 15.66206
15.0 0.0667 10.52653 15.59304
15.0 0.0667 10.52226 15.52577
17.0 0.0588 10.51800 15.46023
13.0 0.0769 10.51375 15.39642
16.0 0.0625 10.50950 15.33430
21.0 0.0476 10.50527 15.27388
14.0 0.0714 10.50104 15.21512
15.0 0.0667 10.49681 15.15800
13.0 0.0769 10.49259 15.10251
14.0 0.0714 10.48838 15.04860
20.0 0.0500 10.48418 14.99627
22.0 0.0455 10.47998 14.94548
16.0 0.0625 10.47580 14.89620
15.0 0.0667 10.47161 14.84842
20.0 0.0500 10.46744 14.80210
20.0 0.0500 10.46327 14.75721
14.0 0.0714 10.45911 14.71373
17.0 0.0588 10.45496 14.67163
15.0 0.0667 10.45081 14.63089
18.0 0.0556 10.44667 14.59148
16.0 0.0625 10.44254 14.55337
18.0 0.0556 10.43841 14.51654
11.0 0.0909 10.43430 14.48097
9.0 0.1111 10.43018 14.44663
13.0 0.0769 10.42608 14.41349
25.0 0.0400 10.42198 14.38155
15.0 0.0667 10.41790 14.35076
9.0 0.1111 10.41381 14.32113
16.0 0.0625 10.40974 14.29262
9.0 0.1111 10.40567 14.26520
18.0 0.0556 10.40161 14.23889
12.0 0.0833 10.39756 14.21364
12.0 0.0833 10.39351 14.18944
14.0 0.0714 10.38947 14.16628
18.0 0.0556 10.38544 14.14415
17.0 0.0588 10.38142 14.12302
16.0 0.0625 10.37740 14.10289
21.0 0.0476 10.37339 14.08375
12.0 0.0833 10.36939 14.06557
12.0 0.0833 10.36539 14.04836
17.0 0.0588 10.36141 14.03209
11.0 0.0909 10.35742 14.01677
16.0 0.0625 10.35345 14.00238
16.0 0.0625 10.34949 13.98891
18.0 0.0556 10.34553 13.97636
21.0 0.0476 10.34158 13.96473
14.0 0.0714 10.33763 13.95399
16.0 0.0625 10.33370 13.94416
19.0 0.0526 10.32977 13.93523
15.0 0.0667 10.32585 13.92718
18.0 0.0556 10.32193 13.92002
18.0 0.0556 10.31802 13.91375
21.0 0.0476 10.31413 13.90837
24.0 0.0417 10.31023 13.90386
16.0 0.0625 10.30635 13.90024
19.0 0.0526 10.30247 13.89749
19.0 0.0526 10.29860 13.92458
19.0 0.0526 10.29474 13.92375
15.0 0.0667 10.29088 13.92380
6.0 0.1667 10.28704 13.92473
21.0 0.0476 10.28320 13.92655
17.0 0.0588 10.27936 13.92927
15.0 0.0667 10.27554 13.93288
12.0 0.0833 10.27172 13.93738
15.0 0.0667 10.26791 13.94279
14.0 0.0714 10.26411 13.94910
18.0 0.0556 10.26031 13.95632
12.0 0.0833 10.25653 13.96446
12.0 0.0833 10.25275 13.97351
19.0 0.0526 10.24897 13.98350
18.0 0.0556 10.24521 14.02161
28.0 0.0357 10.24145 14.03361
17.0 0.0588 10.23770 14.04655
19.0 0.0526 10.23396 14.06044
13.0 0.0769 10.23023 14.07530
14.0 0.0714 10.22650 14.09113
16.0 0.0625 10.22278 14.10793
24.0 0.0417 10.21907 14.12572
9.0 0.1111 10.21536 14.14451
24.0 0.0417 10.21167 14.16429
19.0 0.0526 10.20798 14.18509
13.0 0.0769 10.20430 14.20691
9.0 0.1111 10.20062 14.22975
17.0 0.0588 10.19696 14.25180
16.0 0.0625 10.19330 14.27675
19.0 0.0526 10.18965 14.30276
22.0 0.0455 10.18600 14.32983
10.0 0.1000 10.18237 14.35797
19.0 0.0526 10.17874 14.38720
14.0 0.0714 10.17512 14.41753
20.0 0.0500 10.17151 14.44896
27.0 0.0370 10.16790 14.48150
15.0 0.0667 10.16431 14.51517
21.0 0.0476 10.16072 14.54996
16.0 0.0625 10.15714 14.58590
18.0 0.0556 10.15356 14.62298
14.0 0.0714 10.15000 14.66122
9.0 0.1111 10.14644 14.70063
20.0 0.0500 10.14289 14.74120
19.0 0.0526 10.13935 14.78295
15.0 0.0667 10.13581 14.82588
16.0 0.0625 10.13228 14.87001
22.0 0.0455 10.12876 14.91533
15.0 0.0667 10.12525 14.96184
23.0 0.0435 10.12175 15.00956
23.0 0.0435 10.11825 15.05848
19.0 0.0526 10.11477 15.10861
20.0 0.0500 10.11129 15.15994
17.0 0.0588 10.10781 15.21249
18.0 0.0556 10.10435 15.26624
21.0 0.0476 10.10089 15.32119
13.0 0.0769 10.09744 15.37734
18.0 0.0556 10.09400 15.43469
25.0 0.0400 10.09057 15.49322
13.0 0.0769 10.08715 15.55294
20.0 0.0500 10.08373 15.61383
14.0 0.0714 10.08032 15.67587
16.0 0.0625 10.07692 15.73907
13.0 0.0769 10.07353 15.80340
20.0 0.0500 10.07014 15.86884
14.0 0.0714 10.06676 15.93539
12.0 0.0833 10.06339 16.00301
16.0 0.0625 10.06003 16.07169
17.0 0.0588 10.05668 16.14140
19.0 0.0526 10.05333 16.21211
21.0 0.0476 10.05000 16.28379
18.0 0.0556 10.04667 16.35642
18.0 0.0556 10.04335 16.49424
17.0 0.0588 10.04003 16.56896
23.0 0.0435 10.03673 16.64450
20.0 0.0500 10.03343 16.72082
18.0 0.0556 10.03014 16.79787
16.0 0.0625 10.02686 16.87560
21.0 0.0476 10.02359 16.95396
17.0 0.0588 10.02032 17.03289
19.0 0.0526 10.01707 17.11232
18.0 0.0556 10.01381 17.19217
12.0 0.0833 10.01057 17.27240
12.0 0.0833 10.00734 17.35290
24.0 0.0417 10.00412 17.43360
15.0 0.0667 10.00090 17.60153
15.0 0.0667 9.99769 17.68280
20.0 0.0500 9.99449 17.76402
16.0 0.0625 9.99130 17.84505
17.0 0.0588 9.98812 17.92579
24.0 0.0417 9.98494 18.00612
15.0 0.0667 9.98177 18.08594
21.0 0.0476 9.97861 18.16510
18.0 0.0556 9.97546 18.24347
18.0 0.0556 9.97232 18.31103
26.0 0.0385 9.96918 18.38745
16.0 0.0625 9.96606 18.46266
24.0 0.0417 9.96294 18.53647
27.0 0.0370 9.95983 18.60873
13.0 0.0769 9.95672 18.67927
21.0 0.0476 9.95363 18.74790
20.0 0.0500 9.95055 18.81447
19.0 0.0526 9.94747 18.87878
20.0 0.0500 9.94440 18.94065
8.0 0.1250 9.94134 18.99989
24.0 0.0417 9.93829 19.05632
22.0 0.0455 9.93524 19.10976
23.0 0.0435 9.93221 19.16002
21.0 0.0476 9.92918 19.20693
19.0 0.0526 9.92616 19.25032
18.0 0.0556 9.92315 19.29002
11.0 0.0909 9.92014 19.32588
14.0 0.0714 9.91715 19.35778
15.0 0.0667 9.91416 19.38556
19.0 0.0526 9.91119 19.40913
20.0 0.0500 9.90822 19.42837
26.0 0.0385 9.90525 19.44323
17.0 0.0588 9.90230 19.45363
24.0 0.0417 9.89936 19.45953
16.0 0.0625 9.89642 19.46094
15.0 0.0667 9.89349 19.45783
20.0 0.0500 9.89058 19.45023
18.0 0.0556 9.88766 19.43820
30.0 0.03333 9.88476 19.42180
19.0 0.0526 9.88187 19.40112
21.0 0.0476 9.87898 19.37626
17.0 0.0588 9.87611 19.34736
30.0 0.03333 9.87324 19.31454
17.0 0.0588 9.87038 19.27798
18.0 0.0556 9.86752 19.23783
21.0 0.0476 9.86468 19.19429
17.0 0.0588 9.86185 19.14754
22.0 0.0455 9.85902 19.09778
20.0 0.0500 9.85620 19.04522
23.0 0.0435 9.85339 18.99006
18.0 0.0556 9.85059 18.93254
15.0 0.0667 9.84780 18.87284
16.0 0.0625 9.84502 18.81118
22.0 0.0455 9.84224 18.74779
19.0 0.0526 9.83947 18.68286
22.0 0.0455 9.83672 18.61660
15.0 0.0667 9.83397 18.54921
15.0 0.0667 9.83123 18.48088
14.0 0.0714 9.82849 18.41179
19.0 0.0526 9.82577 18.34213
28.0 0.0357 9.82305 18.27207
18.0 0.0556 9.82035 18.20176
23.0 0.0435 9.81765 18.13138
17.0 0.0588 9.81496 18.06106
22.0 0.0455 9.81228 17.99095
14.0 0.0714 9.80961 17.92118
22.0 0.0455 9.80694 17.85188
20.0 0.0500 9.80429 17.77781
10.0 0.1000 9.80164 17.70981
19.0 0.0526 9.79900 17.64261
12.0 0.0833 9.79638 17.57631
23.0 0.0435 9.79376 17.51097
23.0 0.0435 9.79114 17.44671
24.0 0.0417 9.78854 17.38359
18.0 0.0556 9.78595 17.32169
17.0 0.0588 9.78336 17.26106
19.0 0.0526 9.78078 17.20177
23.0 0.0435 9.77822 17.14388
17.0 0.0588 9.77566 17.09184
12.0 0.0833 9.77311 17.03691
22.0 0.0455 9.77056 16.98352
25.0 0.0400 9.76803 16.92395
23.0 0.0435 9.76551 16.87380
13.0 0.0769 9.76299 16.82529
16.0 0.0625 9.76049 16.77846
20.0 0.0500 9.75799 16.73333
26.0 0.0385 9.75550 16.68994
25.0 0.0400 9.75302 16.64828
14.0 0.0714 9.75055 16.60840
18.0 0.0556 9.74808 16.44556
11.0 0.0909 9.74563 16.40998
19.0 0.0526 9.74318 16.37620
21.0 0.0476 9.74075 16.34425
16.0 0.0625 9.73832 16.31414
12.0 0.0833 9.73590 16.28587
16.0 0.0625 9.73349 16.25945
23.0 0.0435 9.73109 16.23490
18.0 0.0556 9.72870 16.21221
12.0 0.0833 9.72632 16.19139
26.0 0.0385 9.72394 16.17245
16.0 0.0625 9.72158 16.15539
19.0 0.0526 9.71922 16.14021
22.0 0.0455 9.71687 16.12691
21.0 0.0476 9.71453 16.11550
17.0 0.0588 9.71220 16.10596
23.0 0.0435 9.70988 16.09832
19.0 0.0526 9.70757 16.09255
20.0 0.0500 9.70527 16.08867
12.0 0.0833 9.70297 16.08666
21.0 0.0476 9.70069 16.08652
14.0 0.0714 9.69841 16.09638
20.0 0.0500 9.69615 16.10001
21.0 0.0476 9.69389 16.10550
15.0 0.0667 9.69164 16.11283
14.0 0.0714 9.68940 16.12199
13.0 0.0769 9.68717 16.13299
18.0 0.0556 9.68495 16.14581
24.0 0.0417 9.68273 16.16044
16.0 0.0625 9.68053 16.17685
27.0 0.0370 9.67834 16.19505
18.0 0.0556 9.67615 16.21501
17.0 0.0588 9.67397 16.23672
14.0 0.0714 9.67181 16.26014
16.0 0.0625 9.66965 16.28528
14.0 0.0714 9.66750 16.31210
13.0 0.0769 9.66536 16.34059
12.0 0.0833 9.66323 16.37070
13.0 0.0769 9.66110 16.40242
21.0 0.0476 9.65899 16.43571
8.0 0.1250 9.65689 16.47054
20.0 0.0500 9.65479 16.50687
17.0 0.0588 9.65271 16.54468
22.0 0.0455 9.65063 16.58390
17.0 0.0588 9.64856 16.62450
15.0 0.0667 9.64650 16.66643
19.0 0.0526 9.64445 16.70963
22.0 0.0455 9.64242 16.75407
17.0 0.0588 9.64038 16.79967
12.0 0.0833 9.63836 16.84637
25.0 0.0400 9.63635 16.89410
19.0 0.0526 9.63435 16.94281
16.0 0.0625 9.63235 16.99240
18.0 0.0556 9.63037 17.04281
27.0 0.0370 9.62839 17.09395
19.0 0.0526 9.62643 17.14572
13.0 0.0769 9.62447 17.19806
12.0 0.0833 9.62252 17.25084
16.0 0.0625 9.62058 17.30398
18.0 0.0556 9.61866 17.35736
10.0 0.1000 9.61673 17.41088
18.0 0.0556 9.61482 17.46443
13.0 0.0769 9.61292 17.51789
15.0 0.0667 9.61103 17.57113
19.0 0.0526 9.60915 17.58234
17.0 0.0588 9.60727 17.63503
13.0 0.0769 9.60541 17.68712
18.0 0.0556 9.60356 17.73847
21.0 0.0476 9.60171 17.78896
21.0 0.0476 9.59987 17.83845
14.0 0.0714 9.59805 17.88679
27.0 0.0370 9.59623 17.93387
22.0 0.0455 9.59442 17.97952
19.0 0.0526 9.59262 18.02362
15.0 0.0667 9.59083 18.06605
20.0 0.0500 9.58905 18.10665
15.0 0.0667 9.58728 18.14531
14.0 0.0714 9.58552 18.18190
14.0 0.0714 9.58377 18.21631
18.0 0.0556 9.58203 18.24842
18.0 0.0556 9.58029 18.27812
24.0 0.0417 9.57857 18.30532
21.0 0.0476 9.57686 18.32991
25.0 0.0400 9.57515 18.35183
17.0 0.0588 9.57346 18.37100
13.0 0.0769 9.57177 18.38735
16.0 0.0625 9.57010 18.40083
18.0 0.0556 9.56843 18.41140
17.0 0.0588 9.56677 18.41903
12.0 0.0833 9.56512 18.42370
11.0 0.0909 9.56349 18.42541
18.0 0.0556 9.56186 18.42416
18.0 0.0556 9.56024 18.41995
10.0 0.1000 9.55863 18.41284
15.0 0.0667 9.55703 18.40284
17.0 0.0588 9.55544 18.39003
15.0 0.0667 9.55386 18.37444
17.0 0.0588 9.55229 18.35616
26.0 0.0385 9.55072 18.33527
22.0 0.0455 9.54917 18.31186
13.0 0.0769 9.54763 18.28603
7.0 0.1429 9.54609 18.25788
20.0 0.0500 9.54457 18.22753
16.0 0.0625 9.54306 18.19510
18.0 0.0556 9.54155 18.16070
15.0 0.0667 9.54006 18.12447
22.0 0.0455 9.53857 18.08655
19.0 0.0526 9.53710 18.04707
13.0 0.0769 9.53563 18.00616
17.0 0.0588 9.53417 17.96396
22.0 0.0455 9.53273 17.92061
16.0 0.0625 9.53129 17.87626
12.0 0.0833 9.52986 17.83103
19.0 0.0526 9.52844 17.78506
24.0 0.0417 9.52704 17.73849
12.0 0.0833 9.52564 17.69144
16.0 0.0625 9.52425 17.64405
19.0 0.0526 9.52287 17.59643
17.0 0.0588 9.52150 17.54871
17.0 0.0588 9.52014 17.50099
16.0 0.0625 9.51879 17.45339
19.0 0.0526 9.51745 17.40601
15.0 0.0667 9.51612 17.32046
13.0 0.0769 9.51480 17.27403
22.0 0.0455 9.51349 17.22809
15.0 0.0667 9.51219 17.18273
17.0 0.0588 9.51090 17.13803
18.0 0.0556 9.50961 17.09405
16.0 0.0625 9.50834 17.05085
19.0 0.0526 9.50708 17.00849
13.0 0.0769 9.50583 16.96702
16.0 0.0625 9.50459 16.92649
13.0 0.0769 9.50335 16.88693
18.0 0.0556 9.50213 16.84837
22.0 0.0455 9.50092 16.81083
16.0 0.0625 9.49971 16.77435
19.0 0.0526 9.49852 16.73892
19.0 0.0526 9.49734 16.70457
17.0 0.0588 9.49616 16.67128
9.0 0.1111 9.49500 16.63906
18.0 0.0556 9.49384 16.60790
21.0 0.0476 9.49270 16.57780
19.0 0.0526 9.49157 16.54871
16.0 0.0625 9.49044 16.52065
22.0 0.0455 9.48933 16.49356
23.0 0.0435 9.48822 16.46745
16.0 0.0625 9.48713 16.44226
18.0 0.0556 9.48604 16.41798
15.0 0.0667 9.48497 16.39456
15.0 0.0667 9.48390 16.38931
19.0 0.0526 9.48285 16.36761
12.0 0.0833 9.48180 16.34669
15.0 0.0667 9.48077 16.32652
15.0 0.0667 9.47974 16.30704
23.0 0.0435 9.47873 16.28827
17.0 0.0588 9.47772 16.27014
16.0 0.0625 9.47673 16.25267
11.0 0.0909 9.47574 16.23583
15.0 0.0667 9.47477 16.21960
21.0 0.0476 9.47380 16.20398
17.0 0.0588 9.47285 16.18897
21.0 0.0476 9.47190 16.17458
13.0 0.0769 9.47097 16.16081
22.0 0.0455 9.47004 16.14768
15.0 0.0667 9.46912 16.13521
15.0 0.0667 9.46822 16.12341
19.0 0.0526 9.46732 16.11233
19.0 0.0526 9.46644 16.10200
21.0 0.0476 9.46556 16.09244
22.0 0.0455 9.46470 16.08371
16.0 0.0625 9.46384 16.07585
10.0 0.1000 9.46300 16.06890
20.0 0.0500 9.46216 16.06291
23.0 0.0435 9.46134 16.05793
20.0 0.0500 9.46053 16.05400
14.0 0.0714 9.45972 16.05119
17.0 0.0588 9.45893 16.04954
26.0 0.0385 9.45814 16.04909
27.0 0.0370 9.45737 16.04989
14.0 0.0714 9.45661 16.05199
10.0 0.1000 9.45585 16.05544
13.0 0.0769 9.45511 16.06026
17.0 0.0588 9.45438 16.06651
10.0 0.1000 9.45365 16.07422
17.0 0.0588 9.45294 16.08342
20.0 0.0500 9.45224 16.09414
15.0 0.0667 9.45154 16.10640
13.0 0.0769 9.45086 16.12022
19.0 0.0526 9.45019 16.13563
22.0 0.0455 9.44953 16.15265
20.0 0.0500 9.44887 16.17126
20.0 0.0500 9.44823 16.19149
17.0 0.0588 9.44760 16.21334
23.0 0.0435 9.44698 16.23681
17.0 0.0588 9.44637 16.26188
18.0 0.0556 9.44577 16.28856
19.0 0.0526 9.44518 16.31682
25.0 0.0400 9.44460 16.34664
12.0 0.0833 9.44403 16.37799
16.0 0.0625 9.44347 16.41087
15.0 0.0667 9.44292 16.44522
12.0 0.0833 9.44238 16.48101
24.0 0.0417 9.44185 16.51819
24.0 0.0417 9.44133 16.55673
28.0 0.0357 9.44082 16.59656
16.0 0.0625 9.44033 16.63762
19.0 0.0526 9.43984 16.67986
15.0 0.0667 9.43936 16.72321
24.0 0.0417 9.43890 16.76760
15.0 0.0667 9.43844 16.81294
15.0 0.0667 9.43799 16.85915
22.0 0.0455 9.43756 16.90615
20.0 0.0500 9.43713 16.95386
20.0 0.0500 9.43672 17.00217
16.0 0.0625 9.43631 17.05101
21.0 0.0476 9.43592 17.10025
24.0 0.0417 9.43553 17.14982
13.0 0.0769 9.43516 17.19961
25.0 0.0400 9.43480 17.24953
21.0 0.0476 9.43445 17.29946
17.0 0.0588 9.43410 17.34933
22.0 0.0455 9.43377 17.39905
22.0 0.0455 9.43345 17.44851
22.0 0.0455 9.43314 17.49765
15.0 0.0667 9.43284 17.54638
19.0 0.0526 9.43255 17.59465
19.0 0.0526 9.43227 17.64240
14.0 0.0714 9.43200 17.68956
28.0 0.0357 9.43174 17.73611
18.0 0.0556 9.43149 17.78203
19.0 0.0526 9.43126 17.82729
23.0 0.0435 9.43103 17.87189
20.0 0.0500 9.43081 17.91584
21.0 0.0476 9.43061 17.95917
27.0 0.0370 9.43041 18.00189
15.0 0.0667 9.43023 18.04407
18.0 0.0556 9.43005 18.08576
23.0 0.0435 9.42989 18.12702
22.0 0.0455 9.42973 18.16793
17.0 0.0588 9.42959 18.20858
10.0 0.1000 9.42946 18.24905
34.0 0.02941 9.42934 18.28945
17.0 0.0588 9.42923 18.33057
21.0 0.0476 9.42912 18.37115
23.0 0.0435 9.42904 18.41199
24.0 0.0417 9.42896 18.45319
18.0 0.0556 9.42889 18.49487
14.0 0.0714 9.42883 18.53715
19.0 0.0526 9.42878 18.58012
16.0 0.0625 9.42874 18.62390
28.0 0.0357 9.42872 18.66859
18.0 0.0556 9.42870 18.71429
14.0 0.0714 9.42870 18.76109
20.0 0.0500 9.42870 18.80906
17.0 0.0588 9.42872 18.85829
29.0 0.03448 9.42875 18.90883
15.0 0.0667 9.42878 18.96075
22.0 0.0455 9.42883 19.01410
28.0 0.0357 9.42889 19.06891
22.0 0.0455 9.42896 19.12520
20.0 0.0500 9.42904 19.18300
19.0 0.0526 9.42913 19.24230
20.0 0.0500 9.42923 19.30311
12.0 0.0833 9.42934 19.36538
20.0 0.0500 9.42947 19.42910
25.0 0.0400 9.42960 19.49422
20.0 0.0500 9.42975 19.56068
21.0 0.0476 9.42990 19.62841
17.0 0.0588 9.43007 19.69731
25.0 0.0400 9.43024 19.76730
19.0 0.0526 9.43043 19.83824
24.0 0.0417 9.43063 19.91002
21.0 0.0476 9.43084 19.98249
14.0 0.0714 9.43106 20.05549
24.0 0.0417 9.43129 20.12884
19.0 0.0526 9.43153 20.20235
15.0 0.0667 9.43178 20.27582
21.0 0.0476 9.43204 20.34903
21.0 0.0476 9.43232 20.42174
23.0 0.0435 9.43260 20.49370
15.0 0.0667 9.43290 20.56465
13.0 0.0769 9.43321 20.63431
23.0 0.0435 9.43352 20.70238
22.0 0.0455 9.43385 20.76857
20.0 0.0500 9.43419 20.83257
15.0 0.0667 9.43454 20.89405
30.0 0.03333 9.43490 20.95271
21.0 0.0476 9.43527 21.00819
26.0 0.0385 9.43565 21.06016
28.0 0.0357 9.43605 21.10830
23.0 0.0435 9.43645 21.15228
23.0 0.0435 9.43686 21.19177
16.0 0.0625 9.43729 21.22646
15.0 0.0667 9.43773 21.25603
19.0 0.0526 9.43817 21.28022
20.0 0.0500 9.43863 21.29874
22.0 0.0455 9.43910 21.31133
17.0 0.0588 9.43958 21.31779
19.0 0.0526 9.44007 21.31790
20.0 0.0500 9.44058 21.31151
24.0 0.0417 9.44109 21.29846
25.0 0.0400 9.44161 21.27865
25.0 0.0400 9.44215 21.25201
23.0 0.0435 9.44269 21.21850
18.0 0.0556 9.44325 21.17813
17.0 0.0588 9.44382 21.13093
15.0 0.0667 9.44440 21.07696
22.0 0.0455 9.44499 21.01633
16.0 0.0625 9.44559 20.94919
20.0 0.0500 9.44620 20.85851
24.0 0.0417 9.44682 20.77896
22.0 0.0455 9.44746 20.69350
19.0 0.0526 9.44810 20.60235
8.0 0.1250 9.44876 20.50582
21.0 0.0476 9.44943 20.40416
10.0 0.1000 9.45010 20.29770
21.0 0.0476 9.45079 20.04381
21.0 0.0476 9.45149 19.92942
15.0 0.0667 9.45220 19.81120
29.0 0.03448 9.45293 19.68948
14.0 0.0714 9.45366 19.56459
26.0 0.0385 9.45440 19.43688
23.0 0.0435 9.45516 19.30666
14.0 0.0714 9.45593 19.17426
23.0 0.0435 9.45670 19.04000
23.0 0.0435 9.45749 18.90418
22.0 0.0455 9.45829 18.76710
18.0 0.0556 9.45910 18.62904
20.0 0.0500 9.45993 18.49027
16.0 0.0625 9.46076 18.35105
20.0 0.0500 9.46161 18.21163
23.0 0.0435 9.46246 18.07223
27.0 0.0370 9.46333 17.93307
23.0 0.0435 9.46420 17.79434
15.0 0.0667 9.46509 17.65624
24.0 0.0417 9.46599 17.51894
19.0 0.0526 9.46691 17.38260
22.0 0.0455 9.46783 17.24737
14.0 0.0714 9.46876 17.11338
17.0 0.0588 9.46971 16.98076
18.0 0.0556 9.47066 16.84962
15.0 0.0667 9.47163 16.72006
18.0 0.0556 9.47261 16.59218
17.0 0.0588 9.47360 16.46605
17.0 0.0588 9.47460 16.35599
17.0 0.0588 9.47561 16.23363
19.0 0.0526 9.47664 16.11323
18.0 0.0556 9.47767 15.99482
15.0 0.0667 9.47872 15.87846
18.0 0.0556 9.47977 15.76416
13.0 0.0769 9.48084 15.65198
30.0 0.03333 9.48192 15.54191
18.0 0.0556 9.48301 15.43399
15.0 0.0667 9.48412 15.32824
20.0 0.0500 9.48523 15.22465
15.0 0.0667 9.48635 15.12323
14.0 0.0714 9.48749 15.02400
22.0 0.0455 9.48864 14.92693
17.0 0.0588 9.48980 14.83203
18.0 0.0556 9.49097 14.73930
14.0 0.0714 9.49215 14.64871
20.0 0.0500 9.49334 14.56026
17.0 0.0588 9.49454 14.47393
20.0 0.0500 9.49576 14.38970
22.0 0.0455 9.49699 14.30756
23.0 0.0435 9.49822 14.22749
17.0 0.0588 9.49947 14.12970
18.0 0.0556 9.50073 14.05378
9.0 0.1111 9.50201 13.97986
15.0 0.0667 9.50329 13.90791
20.0 0.0500 9.50459 13.83790
17.0 0.0588 9.50589 13.76980
17.0 0.0588 9.50721 13.70359
19.0 0.0526 9.50854 13.63923
16.0 0.0625 9.50988 13.57671
19.0 0.0526 9.51123 13.51598
15.0 0.0667 9.51259 13.45702
20.0 0.0500 9.51397 13.39980
13.0 0.0769 9.51535 13.34429
21.0 0.0476 9.51675 13.29047
11.0 0.0909 9.51816 13.23828
11.0 0.0909 9.51958 13.18772
18.0 0.0556 9.52101 13.13874
14.0 0.0714 9.52246 13.09133
21.0 0.0476 9.52391 13.04544
13.0 0.0769 9.52538 13.02751
15.0 0.0667 9.52685 12.98472
12.0 0.0833 9.52834 12.94335
5.0 0.2000 9.52984 12.90341
13.0 0.0769 9.53136 12.86484
7.0 0.1429 9.53288 12.82762
10.0 0.1000 9.53442 12.79173
17.0 0.0588 9.53596 12.75713
12.0 0.0833 9.53752 12.72380
23.0 0.0435 9.53909 12.69171
19.0 0.0526 9.54067 12.66083
14.0 0.0714 9.54226 12.63113
15.0 0.0667 9.54387 12.60258
12.0 0.0833 9.54548 12.57516
26.0 0.0385 9.54711 12.54885
15.0 0.0667 9.54875 12.52360
23.0 0.0435 9.55040 12.49939
19.0 0.0526 9.55206 12.47621
11.0 0.0909 9.55374 12.45726
16.0 0.0625 9.55542 12.43604
16.0 0.0625 9.55712 12.41575
21.0 0.0476 9.55883 12.39637
15.0 0.0667 9.56055 12.37786
16.0 0.0625 9.56228 12.36020
14.0 0.0714 9.56402 12.34336
17.0 0.0588 9.56577 12.32731
15.0 0.0667 9.56754 12.31202
15.0 0.0667 9.56932 12.29746
13.0 0.0769 9.57111 12.28360
17.0 0.0588 9.57291 12.27041
18.0 0.0556 9.57472 12.25785
9.0 0.1111 9.57655 12.25234
19.0 0.0526 9.57838 12.24098
18.0 0.0556 9.58023 12.23017
18.0 0.0556 9.58209 12.21985
11.0 0.0909 9.58396 12.21000
11.0 0.0909 9.58584 12.20059
15.0 0.0667 9.58774 12.19157
10.0 0.1000 9.58964 12.18291
12.0 0.0833 9.59156 12.17458
13.0 0.0769 9.59349 12.16652
5.0 0.2000 9.59543 12.15871
13.0 0.0769 9.59738 12.15110
12.0 0.0833 9.59935 12.14367
11.0 0.0909 9.60133 12.13636
12.0 0.0833 9.60331 12.12914
15.0 0.0667 9.60531 12.12198
19.0 0.0526 9.60732 12.11482
18.0 0.0556 9.60935 12.10765
10.0 0.1000 9.61138 12.10041
11.0 0.0909 9.61343 12.09308
11.0 0.0909 9.61549 12.08562
11.0 0.0909 9.61756 12.07800
22.0 0.0455 9.61964 12.07018
14.0 0.0714 9.62173 12.06215
10.0 0.1000 9.62384 12.05387
14.0 0.0714 9.62596 12.04532
21.0 0.0476 9.62808 12.03648
18.0 0.0556 9.63023 12.02733
17.0 0.0588 9.63238 12.01785
13.0 0.0769 9.63454 12.00804
16.0 0.0625 9.63672 11.99788
10.0 0.1000 9.63891 11.98737
18.0 0.0556 9.64111 11.97650
22.0 0.0455 9.64332 11.96527
11.0 0.0909 9.64554 11.95370
21.0 0.0476 9.64778 11.94177
9.0 0.1111 9.65002 11.92950
12.0 0.0833 9.65228 11.91691
15.0 0.0667 9.65455 11.90399
17.0 0.0588 9.65684 11.89078
10.0 0.1000 9.65913 11.87729
15.0 0.0667 9.66144 11.86354
9.0 0.1111 9.66375 11.70883
12.0 0.0833 9.66608 11.69536
17.0 0.0588 9.66843 11.68168
10.0 0.1000 9.67078 11.66782
15.0 0.0667 9.67315 11.65382
12.0 0.0833 9.67552 11.63967
13.0 0.0769 9.67791 11.62543
17.0 0.0588 9.68032 11.61112
9.0 0.1111 9.68273 11.59674
8.0 0.1250 9.68515 11.58234
18.0 0.0556 9.68759 11.56793
14.0 0.0714 9.69004 11.55354
8.0 0.1250 9.69250 11.53919
10.0 0.1000 9.69497 11.52490
8.0 0.1250 9.69746 11.51069
9.0 0.1111 9.69996 11.49658
12.0 0.0833 9.70246 11.48260
15.0 0.0667 9.70499 11.48505
16.0 0.0625 9.70752 11.47143
12.0 0.0833 9.71006 11.45797
12.0 0.0833 9.71262 11.44470
11.0 0.0909 9.71519 11.43163
13.0 0.0769 9.71777 11.41877
11.0 0.0909 9.72036 11.40612
11.0 0.0909 9.72297 11.39372
11.0 0.0909 9.72558 11.38155
7.0 0.1429 9.72821 11.36963
14.0 0.0714 9.73085 11.35797
13.0 0.0769 9.73350 11.34657
6.0 0.1667 9.73617 11.33545
11.0 0.0909 9.73884 11.32459
12.0 0.0833 9.74153 11.31402
14.0 0.0714 9.74423 11.30373
19.0 0.0526 9.74695 11.29373
18.0 0.0556 9.74967 11.28401
23.0 0.0435 9.75241 11.27458
18.0 0.0556 9.75516 11.26544
17.0 0.0588 9.75792 11.25661
13.0 0.0769 9.76069 11.24806
11.0 0.0909 9.76348 11.29189
10.0 0.1000 9.76627 11.28414
11.0 0.0909 9.76908 11.27670
12.0 0.0833 9.77190 11.26954
16.0 0.0625 9.77474 11.26267
11.0 0.0909 9.77758 11.25609
19.0 0.0526 9.78044 11.24980
16.0 0.0625 9.78331 11.24379
18.0 0.0556 9.78619 11.23807
8.0 0.1250 9.78909 11.23262
12.0 0.0833 9.79199 11.22744
10.0 0.1000 9.79491 11.22254
6.0 0.1667 9.79784 11.21791
6.0 0.1667 9.80078 11.21353
9.0 0.1111 9.80374 11.20942
12.0 0.0833 9.80670 11.20556
13.0 0.0769 9.80968 11.20195
16.0 0.0625 9.81267 11.19859
11.0 0.0909 9.81568 11.19547
11.0 0.0909 9.81869 11.19258
18.0 0.0556 9.82172 11.18993
8.0 0.1250 9.82476 11.18750
16.0 0.0625 9.82781 11.18529
12.0 0.0833 9.83087 11.18329
14.0 0.0714 9.83395 11.16892
6.0 0.1667 9.83704 11.16741
12.0 0.0833 9.84014 11.16609
19.0 0.0526 9.84325 11.16496
13.0 0.0769 9.84638 11.16402
15.0 0.0667 9.84951 11.16325
11.0 0.0909 9.85266 11.16265
18.0 0.0556 9.85582 11.16223
10.0 0.1000 9.85900 11.16196
11.0 0.0909 9.86218 11.16184
18.0 0.0556 9.86538 11.16187
17.0 0.0588 9.86859 11.16204
12.0 0.0833 9.87181 11.16234
20.0 0.0500 9.87505 11.16277
8.0 0.1250 9.87830 11.16332
9.0 0.1111 9.88156 11.16398
22.0 0.0455 9.88483 11.16475
14.0 0.0714 9.88811 11.16561
14.0 0.0714 9.89141 11.16657
13.0 0.0769 9.89472 11.16762
7.0 0.1429 9.89804 11.16875
16.0 0.0625 9.90137 11.16996
13.0 0.0769 9.90471 11.17122
7.0 0.1429 9.90807 11.17255
7.0 0.1429 9.91144 11.17394
15.0 0.0667 9.91483 11.17538
9.0 0.1111 9.91822 11.17686
13.0 0.0769 9.92163 11.17837
9.0 0.1111 9.92505 11.17991
14.0 0.0714 9.92848 11.18149
10.0 0.1000 9.93192 11.18307
10.0 0.1000 9.93538 11.18468
13.0 0.0769 9.93885 11.18630
13.0 0.0769 9.94233 11.18792
12.0 0.0833 9.94582 11.18954
16.0 0.0625 9.94932 11.19116
11.0 0.0909 9.95284 11.19277
13.0 0.0769 9.95637 11.19437
13.0 0.0769 9.95991 11.19594
12.0 0.0833 9.96347 11.19750
15.0 0.0667 9.96704 11.19904
9.0 0.1111 9.97062 11.20055
16.0 0.0625 9.97421 11.20203
12.0 0.0833 9.97781 11.20348
13.0 0.0769 9.98143 11.20490
12.0 0.0833 9.98506 11.20627
12.0 0.0833 9.98870 11.20762
9.0 0.1111 9.99235 11.20892
10.0 0.1000 9.99602 11.21019
12.0 0.0833 9.99970 11.21140
11.0 0.0909 10.00339 11.21258
12.0 0.0833 10.00709 11.21372
12.0 0.0833 10.01081 11.21482
10.0 0.1000 10.01454 11.21587
15.0 0.0667 10.01828 11.21689
6.0 0.1667 10.02203 11.21785
19.0 0.0526 10.02580 11.21878
12.0 0.0833 10.02958 11.18881
10.0 0.1000 10.03337 11.18982
11.0 0.0909 10.03717 11.19079
12.0 0.0833 10.04098 11.19174
14.0 0.0714 10.04481 11.19264
11.0 0.0909 10.04865 11.19351
18.0 0.0556 10.05250 11.19435
11.0 0.0909 10.05637 11.19517
13.0 0.0769 10.06025 11.19597
12.0 0.0833 10.06414 11.19674
10.0 0.1000 10.06804 11.19749
11.0 0.0909 10.07196 11.19822
12.0 0.0833 10.07588 11.19894
9.0 0.1111 10.07983 11.19966
12.0 0.0833 10.08378 11.16862
13.0 0.0769 10.08774 11.16949
18.0 0.0556 10.09172 11.17036
14.0 0.0714 10.09571 11.17124
8.0 0.1250 10.09971 11.17211
15.0 0.0667 10.10373 11.17300
19.0 0.0526 10.10776 11.17389
9.0 0.1111 10.11180 11.17480
12.0 0.0833 10.11585 11.17573
16.0 0.0625 10.11992 11.17669
13.0 0.0769 10.12399 11.17766
12.0 0.0833 10.12808 11.17867
8.0 0.1250 10.13219 11.17970
14.0 0.0714 10.13630 11.18077
8.0 0.1250 10.14043 11.18188
15.0 0.0667 10.14457 11.18303
19.0 0.0526 10.14872 11.18423
16.0 0.0625 10.15289 11.18547
13.0 0.0769 10.15707 11.18676
18.0 0.0556 10.16126 11.18810
13.0 0.0769 10.16546 11.18950
20.0 0.0500 10.16968 11.19096
16.0 0.0625 10.17391 11.19248
13.0 0.0769 10.17815 11.19407
8.0 0.1250 10.18240 11.19572
13.0 0.0769 10.18667 11.19744
12.0 0.0833 10.19095 11.19923
13.0 0.0769 10.19524 11.20110
17.0 0.0588 10.19954 11.20304
15.0 0.0667 10.20386 11.23939
11.0 0.0909 10.20819 11.24163
9.0 0.1111 10.21253 11.24396
8.0 0.1250 10.21689 11.24638
11.0 0.0909 10.22126 11.24888
9.0 0.1111 10.22564 11.25146
13.0 0.0769 10.23003 11.25414
15.0 0.0667 10.23444 11.25691
11.0 0.0909 10.23885 11.25978
14.0 0.0714 10.24328 11.26274
10.0 0.1000 10.24773 11.26580
17.0 0.0588 10.25218 11.26896
11.0 0.0909 10.25665 11.27221
11.0 0.0909 10.26113 11.27557
5.0 0.2000 10.26563 11.34724
18.0 0.0556 10.27013 11.35109
10.0 0.1000 10.27465 11.35654
8.0 0.1250 10.27918 11.36062
9.0 0.1111 10.28373 11.36480
12.0 0.0833 10.28829 11.36910
14.0 0.0714 10.29286 11.37351
6.0 0.1667 10.29744 11.37803
5.0 0.2000 10.30204 11.38266
14.0 0.0714 10.30664 11.38741
13.0 0.0769 10.31126 11.39228
12.0 0.0833 10.31590 11.39727
8.0 0.1250 10.32054 11.40237
7.0 0.1429 10.32520 11.40760
14.0 0.0714 10.32988 11.34410
14.0 0.0714 10.33456 11.34993
7.0 0.1429 10.33926 11.35587
13.0 0.0769 10.34397 11.36195
5.0 0.2000 10.34869 11.36814
10.0 0.1000 10.35343 11.37446
11.0 0.0909 10.35818 11.38091
6.0 0.1667 10.36294 11.38749
9.0 0.1111 10.36771 11.39420
15.0 0.0667 10.37250 11.40104
12.0 0.0833 10.37729 11.40801
10.0 0.1000 10.38211 11.41511
12.0 0.0833 10.38693 11.42236
9.0 0.1111 10.39177 11.32658
17.0 0.0588 10.39662 11.33466
12.0 0.0833 10.40148 11.34289
10.0 0.1000 10.40636 11.35125
13.0 0.0769 10.41125 11.35975
10.0 0.1000 10.41615 11.36840
11.0 0.0909 10.42106 11.37720
10.0 0.1000 10.42599 11.38614
15.0 0.0667 10.43093 11.39524
13.0 0.0769 10.43588 11.40449
17.0 0.0588 10.44085 11.41389
8.0 0.1250 10.44583 11.42346
14.0 0.0714 10.45082 11.43319
8.0 0.1250 10.45582 11.44308
15.0 0.0667 10.46084 11.45314
7.0 0.1429 10.46587 11.46337
11.0 0.0909 10.47091 11.47377
12.0 0.0833 10.47596 11.48435
11.0 0.0909 10.48103 11.49510
9.0 0.1111 10.48611 11.50605
14.0 0.0714 10.49121 11.51717
17.0 0.0588 10.49631 11.52849
14.0 0.0714 10.50143 11.54000
9.0 0.1111 10.50656 11.55171
12.0 0.0833 10.51171 11.56361
7.0 0.1429 10.51687 11.57572
11.0 0.0909 10.52204 11.58804
10.0 0.1000 10.52722 11.60056
15.0 0.0667 10.53242 11.61330
14.0 0.0714 10.53763 11.62626
9.0 0.1111 10.54285 11.63945
10.0 0.1000 10.54808 11.65285
9.0 0.1111 10.55333 11.66649
11.0 0.0909 10.55859 11.68036
9.0 0.1111 10.56387 11.69447
12.0 0.0833 10.56915 11.70881
10.0 0.1000 10.57445 11.72341
12.0 0.0833 10.57977 11.73826
15.0 0.0667 10.58509 11.75336
9.0 0.1111 10.59043 11.76872
15.0 0.0667 10.59578 11.78434
9.0 0.1111 10.60114 11.80023
20.0 0.0500 10.60652 11.81639
15.0 0.0667 10.61191 11.83282
12.0 0.0833 10.61731 11.84954
9.0 0.1111 10.62273 11.86654
12.0 0.0833 10.62816 11.88382
13.0 0.0769 10.63360 11.90141
12.0 0.0833 10.63905 11.91928
10.0 0.1000 10.64452 11.93746
13.0 0.0769 10.65000 11.95595
11.0 0.0909 10.65549 11.97474
9.0 0.1111 10.66100 11.99386
16.0 0.0625 10.66652 12.01328
14.0 0.0714 10.67205 12.03304
17.0 . . .
loop_
_refln_index_h
_refln_index_k
_refln_index_l
_refln_observed_status
_refln_F_squared_meas
_refln_F_squared_calc
_refln_phase_calc
_refln_d_spacing
_gsas_i100_meas
1 1 0 o 410.962 285.708 180.00 6.89880 6.11
0 2 0 o 473.597 335.127 180.00 4.87819 3.37
2 2 0 o 12027.726 10520.440 0.00 3.44940 46.95
1 3 0 o 33115.645 28198.529 0.00 3.08524 100.00
3 1 0 o 11401.324 9700.279 0.00 3.08524 34.59
0 1 1 o 2911.500 3706.551 0.00 2.74237 14.15
0 4 0 o 2351.692 2497.635 180.00 2.43909 3.89
1 2 1 o 635.951 615.835 180.00 2.39052 1.95
2 1 1 o 26540.928 25611.656 0.00 2.39052 90.20
3 3 0 o 775.300 728.307 180.00 2.29960 1.19
2 4 0 o 8046.876 5694.910 0.00 2.18159 11.34
4 2 0 o 8972.267 6385.761 0.00 2.18159 12.47
0 3 1 o 546.580 350.379 180.00 2.14663 1.58
2 3 1 o 3012.863 3588.999 0.00 1.96481 6.72
3 2 1 o 647.547 781.894 0.00 1.96481 1.57
1 5 0 o 27.703 27.602 180.00 1.91338 0.02
5 1 0 o 7167.735 7127.626 0.00 1.91338 7.54
4 1 1 o 450.744 468.892 180.00 1.82253 0.73
1 4 1 o 20988.076 21933.168 0.00 1.82253 37.98
4 4 0 o 4197.475 3314.145 0.00 1.72470 3.33
3 5 0 o 7741.714 6515.582 0.00 1.67320 5.69
5 3 0 o 3490.411 2928.381 0.00 1.67320 2.61
0 5 1 o 5596.749 5579.496 0.00 1.61143 7.54
4 3 1 o 1262.483 1258.495 0.00 1.61143 1.74
3 4 1 o 9285.107 9256.488 0.00 1.61143 12.50
0 6 0 o 31268.475 29549.057 0.00 1.62606 21.25
2 6 0 o 655.148 588.686 0.00 1.54262 0.42
6 2 0 o 2342.641 2131.595 180.00 1.54262 1.32
5 2 1 o 16112.827 15279.557 0.00 1.53011 18.84
2 5 1 o 10136.873 9628.267 180.00 1.53011 11.50
0 0 2 o 46929.18 37745.87 0.00 1.42879 11.66
1 1 2 o 95.386 78.560 180.00 1.39910 0.07
1 6 1 o 3049.153 2243.623 0.00 1.39867 2.93
6 1 1 o 164.450 110.100 0.00 1.39867 0.20
5 5 0 o 4411.000 2629.167 0.00 1.37976 2.07
7 1 0 o 135.597 76.165 0.00 1.37976 0.07
1 7 0 o 4117.255 2541.199 180.00 1.37976 1.83
0 2 2 o 344.103 173.990 180.00 1.37118 0.29
4 6 0 o 2057.364 1342.993 180.00 1.35297 0.86
6 4 0 o 317.867 212.646 180.00 1.35297 0.13
4 5 1 o 13247.556 9383.692 0.00 1.34450 11.46
5 4 1 o 9461.163 6790.779 180.00 1.34450 7.92
2 2 2 o 2580.030 3028.396 0.00 1.32003 2.17
3 1 2 o 3031.527 3550.745 0.00 1.29651 2.41
1 3 2 o 8371.076 9789.890 0.00 1.29651 6.59
6 3 1 o 605.732 659.430 0.00 1.29617 0.50
3 6 1 o 569.098 619.704 0.00 1.29617 0.47
7 3 0 o 17146.943 16345.265 0.00 1.28107 6.59
3 7 0 o 4991.171 4756.915 0.00 1.28107 1.93
0 7 1 o 141.081 105.127 0.00 1.25270 0.12
0 4 2 o 1717.320 1235.107 180.00 1.23284 1.16
0 8 0 o 676.722 543.011 0.00 1.21955 0.25
3 3 2 o 1041.344 917.221 180.00 1.21361 0.70
2 7 1 o 10670.998 9179.220 0.00 1.21334 7.35
7 2 1 o 96.160 76.618 0.00 1.21334 0.10
4 2 2 o 2829.567 2805.146 0.00 1.19526 1.91
2 4 2 o 1918.320 1901.432 0.00 1.19526 1.32
2 8 0 o 4563.144 3755.907 0.00 1.18313 1.56
8 2 0 o 480.924 394.633 0.00 1.18313 0.17
1 5 2 o 25.864 23.472 180.00 1.14482 0.01
5 1 2 o 2490.921 2157.565 0.00 1.14482 1.62
6 5 1 o 7204.330 6142.761 0.00 1.14459 4.52
5 6 1 o 770.636 652.751 0.00 1.14459 0.50
6 6 0 o 12023.895 9952.313 0.00 1.14980 3.77
5 7 0 o 2019.805 1743.345 0.00 1.13416 0.64
7 5 0 o 1087.318 951.424 180.00 1.13416 0.31
8 1 1 o 6496.575 6043.547 0.00 1.11433 3.90
1 8 1 o 28.347 25.417 180.00 1.11433 0.03
4 7 1 o 261.849 238.994 0.00 1.11433 0.20
7 4 1 o 6574.731 6111.978 0.00 1.11433 3.98
4 4 2 o 1818.706 1576.816 0.00 1.10028 1.09
4 8 0 o 2276.529 1871.701 0.00 1.09080 0.68
8 4 0 o 2682.192 2191.781 0.00 1.09080 0.82
5 3 2 o 1371.586 1124.567 0.00 1.08654 0.82
3 5 2 o 3399.420 2798.411 0.00 1.08654 2.00
1 9 0 o 11163.331 8825.813 0.00 1.07741 3.23
9 1 0 o 647.339 506.460 0.00 1.07741 0.19
0 6 2 o 15318.875 12688.446 0.00 1.07331 8.84
8 3 1 o 28.193 20.153 180.00 1.06037 0.01
3 8 1 o 658.092 442.447 180.00 1.06037 0.36
2 6 2 o 371.697 205.152 0.00 1.04824 0.22
6 2 2 o 2017.384 1186.415 180.00 1.04824 1.11
9 3 0 o 2363.115 1346.271 180.00 1.02841 0.65
3 9 0 o 3027.229 1722.150 180.00 1.02841 0.83
0 9 1 o 87.931 55.800 0.00 1.01356 0.06
