#------------------------------------------------------------------------------
#$Date: 2016-03-24 02:47:15 +0200 (Thu, 24 Mar 2016) $
#$Revision: 179596 $
#$URL: svn://www.crystallography.net/cod/cif/4/50/60/4506051.cif $
#------------------------------------------------------------------------------
#
# This file is available in the Crystallography Open Database (COD),
# http://www.crystallography.net/
#
# All data on this site have been placed in the public domain by the
# contributors.
#
data_4506051
loop_
_publ_author_name
'Jarzembska, Katarzyna N.'
'Kubsik, Marcin'
'Kami\'nski, Rados\/law'
'Wo\'zniak, Krzysztof'
'Dominiak, Paulina M.'
_publ_section_title
;
 From a Single Molecule to Molecular Crystal Architectures: Structural and
 Energetic Studies of Selected Uracil Derivatives
;
_journal_issue                   5
_journal_name_full               'Crystal Growth &amp; Design'
_journal_page_first              2508
_journal_paper_doi               10.1021/cg300129z
_journal_volume                  12
_journal_year                    2012
_chemical_formula_moiety         'C6 H8 N2 O2'
_chemical_formula_sum            'C6 H8 N2 O2'
_chemical_formula_weight         140.14
_space_group_IT_number           14
_symmetry_cell_setting           monoclinic
_symmetry_Int_Tables_number      14
_symmetry_space_group_name_Hall  '-P 2ybc'
_symmetry_space_group_name_H-M   'P 1 21/c 1'
_cell_angle_alpha                90.0
_cell_angle_beta                 91.743(7)
_cell_angle_gamma                90.0
_cell_formula_units_Z            4
_cell_length_a                   7.1769(5)
_cell_length_b                   12.1325(7)
_cell_length_c                   7.5571(6)
_cell_measurement_temperature    100(2)
_cell_volume                     657.72(8)
_diffrn_ambient_temperature      100(1)
_diffrn_measured_fraction_theta_full 0.996
_diffrn_measured_fraction_theta_max 0.969
_diffrn_measurement_device
'Agilent Technologies KM4CCD \k-axis diffractometer'
_diffrn_measurement_device_type  'Opal CCD detector'
_diffrn_measurement_method       \w-scans
_diffrn_radiation_monochromator  graphite
_diffrn_radiation_source         'sealed tube'
_diffrn_radiation_type           Mo-K\a
_diffrn_radiation_wavelength     0.71073
_diffrn_reflns_av_R_equivalents  0.0234
_diffrn_reflns_av_sigmaI/netI    0.0310
_diffrn_reflns_limit_h_max       14
_diffrn_reflns_limit_h_min       -14
_diffrn_reflns_limit_k_max       19
_diffrn_reflns_limit_k_min       -24
_diffrn_reflns_limit_l_max       12
_diffrn_reflns_limit_l_min       -15
_diffrn_reflns_number            11143
_diffrn_reflns_theta_full        25.00
_diffrn_reflns_theta_max         45.786
_diffrn_reflns_theta_min         3.299
_exptl_absorpt_coefficient_mu    0.108
_exptl_absorpt_correction_T_max  0.993
_exptl_absorpt_correction_T_min  0.979
_exptl_absorpt_correction_type   multi-scan
_exptl_absorpt_process_details
;
 Absorption correction done by SORTAV
 Blessing, R. H.: (1995) Acta Cryst. A51, 33-38
;
_exptl_crystal_colour            colourless
_exptl_crystal_density_diffrn    1.415
_exptl_crystal_description       unspecified
_exptl_crystal_F_000             296
_exptl_crystal_size_max          0.31
_exptl_crystal_size_mid          0.24
_exptl_crystal_size_min          0.16
_refine_diff_density_max         +0.23
_refine_diff_density_min         -0.31
_refine_ls_extinction_method     none
_refine_ls_goodness_of_fit_ref   1.389
_refine_ls_hydrogen_treatment    mixed
_refine_ls_number_constraints    0
_refine_ls_number_parameters     123
_refine_ls_number_reflns         3592
_refine_ls_number_restraints     16
_refine_ls_R_factor_all          0.0281
_refine_ls_R_factor_gt           0.0281
_refine_ls_shift/su_max          0.001
_refine_ls_shift/su_mean         0.000
_refine_ls_structure_factor_coef F
_refine_ls_weighting_details
;
w=1/[\s^2^(Fo)]
;
_refine_ls_weighting_scheme      sigma
_refine_ls_wR_factor_gt          0.0308
_refine_ls_wR_factor_ref         0.0308
_reflns_number_gt                3592
_reflns_number_total             5486
_reflns_threshold_expression     I>3\s(I)
_iucr_refine_instructions_details
;
TAAM refinement with MOPRO program
;
_cod_data_source_file            cg300129z_si_012.cif
_cod_data_source_block           15dmU
_cod_original_sg_symbol_H-M      'P 21/c'
_cod_database_code               4506051
loop_
_symmetry_equiv_pos_as_xyz
'x, y, z'
'-x, y+1/2, -z+1/2'
'-x, -y, -z'
'x, -y-1/2, z-1/2'
loop_
_atom_site_type_symbol
_atom_site_label
_atom_site_fract_x
_atom_site_fract_y
_atom_site_fract_z
_atom_site_U_iso_or_equiv
_atom_site_adp_type
_atom_site_occupancy
_atom_site_calc_flag
_atom_site_refinement_flags_posn
_atom_site_refinement_flags_adp
N N3 0.70121(5) 0.06252(3) 0.89249(5) 0.01582(4) Uani 1 d . .
H H3 0.6544(10) -0.0133(3) 0.9330(9) 0.0238(3) Uiso 1 d D U
N N1 0.93271(5) 0.16529(3) 0.75709(5) 0.01735(4) Uani 1 d . .
C C2 0.86895(6) 0.06242(3) 0.80786(5) 0.01702(5) Uani 1 d . .
C C6 0.83344(6) 0.25915(3) 0.79295(5) 0.01599(5) Uani 1 d . .
H H6 0.8944(8) 0.3359(3) 0.7499(8) 0.0196(3) Uiso 1 d D U
C C4 0.59364(6) 0.15364(3) 0.92865(5) 0.01378(4) Uani 1 d . .
C C5 0.66833(6) 0.25833(3) 0.87660(5) 0.01462(4) Uani 1 d . .
O O2 0.95265(5) -0.02340(3) 0.77853(5) 0.02620(5) Uani 1 d . .
O O4 0.44238(4) 0.14273(2) 1.00090(4) 0.01756(4) Uani 1 d . .
C C8 0.56263(7) 0.36141(3) 0.91575(6) 0.02077(6) Uani 1 d . .
H H8A 0.6393(8) 0.4319(3) 0.8709(8) 0.0258(3) Uiso 1 d D U
H H8B 0.5410(10) 0.3666(6) 1.0559(3) 0.0257(3) Uiso 1 d D U
H H8C 0.4275(4) 0.3593(5) 0.8500(8) 0.0258(3) Uiso 1 d D U
C C7 1.10972(6) 0.17057(4) 0.66440(6) 0.02285(5) Uani 1 d . .
H H7A 1.1372(9) 0.2552(2) 0.6312(9) 0.0282(4) Uiso 1 d D U
H H7B 1.099(1) 0.1229(4) 0.5443(5) 0.0282(4) Uiso 1 d D U
H H7C 1.2210(6) 0.1385(5) 0.7482(7) 0.0285(4) Uiso 1 d D U
loop_
_atom_site_aniso_label
_atom_site_aniso_U_11
_atom_site_aniso_U_22
_atom_site_aniso_U_33
_atom_site_aniso_U_12
_atom_site_aniso_U_13
_atom_site_aniso_U_23
N3 0.0179(1) 0.0103(1) 0.0194(1) 0.0007(1) 0.0018(1) 0.0006(1)
N1 0.0164(1) 0.0157(1) 0.0199(1) -0.0010(1) 0.0009(1) 0.0014(1)
C2 0.0176(2) 0.0130(1) 0.0205(2) 0.0022(1) 0.0020(1) 0.0002(1)
C6 0.0183(2) 0.0125(1) 0.0172(1) -0.0027(1) -0.0002(1) 0.0009(1)
C4 0.0169(1) 0.0100(1) 0.0145(1) 0.0002(1) 0.0004(1) 0.0003(1)
C5 0.0190(2) 0.0098(1) 0.0151(1) -0.0001(1) 0.0004(1) 0.00002(10)
O2 0.0266(2) 0.0167(1) 0.0358(2) 0.0071(1) 0.0084(1) 0.0006(1)
O4 0.0193(1) 0.0122(1) 0.0214(1) 0.00054(9) 0.00443(10) 0.00158(10)
C8 0.0288(2) 0.0133(1) 0.0202(2) 0.0034(1) 0.0018(1) -0.0009(1)
C7 0.0167(2) 0.0273(2) 0.0246(2) -0.0009(1) 0.0021(1) 0.0033(2)
loop_
_atom_type_symbol
_atom_type_description
_atom_type_scat_dispersion_real
_atom_type_scat_dispersion_imag
_atom_type_scat_source
C C 0.0033 0.0016 'Su & Coppens, Acta. Cryst. (1997) A53, 749'
H H 0.0000 0.0000 'Su & Coppens, Acta. Cryst. (1997) A53, 749'
N N 0.0061 0.0033 'Su & Coppens, Acta. Cryst. (1997) A53, 749'
O O 0.0106 0.0060 'Su & Coppens, Acta. Cryst. (1997) A53, 749'
loop_
_geom_angle_atom_site_label_1
_geom_angle_atom_site_label_2
_geom_angle_atom_site_label_3
_geom_angle
N3 C2 O2 121.58(4)
N3 C2 N1 115.28(4)
N3 C4 O4 120.34(4)
N3 C4 C5 115.97(3)
H3 N3 C2 115.7(4)
H3 N3 C4 117.9(4)
N1 C2 O2 123.14(5)
N1 C6 C5 123.34(5)
N1 C6 H6 115.9(3)
N1 C7 H7C 109.9(4)
N1 C7 H7B 109.7(4)
N1 C7 H7A 108.7(4)
C2 N1 C6 120.89(3)
C2 N1 C7 117.89(4)
C2 N3 C4 126.39(4)
C6 N1 C7 121.21(4)
C6 C5 C4 118.10(4)
C6 C5 C8 122.66(4)
H6 C6 C5 120.8(3)
C4 C5 C8 119.24(3)
C5 C4 O4 123.69(4)
C5 C8 H8C 110.1(4)
C5 C8 H8B 109.4(4)
C5 C8 H8A 109.5(3)
H8A C8 H8C 109.6(5)
H8A C8 H8B 110.7(5)
H8B C8 H8C 107.5(5)
H7A C7 H7C 110.1(5)
H7A C7 H7B 108.9(5)
H7B C7 H7C 109.5(5)
loop_
_geom_bond_atom_site_label_1
_geom_bond_atom_site_label_2
_geom_bond_distance
N3 C2 1.3803(5)
N3 C4 1.3805(5)
N3 H3 1.029(1)
N1 C2 1.3874(5)
N1 C6 1.3746(5)
N1 C7 1.4706(6)
C2 O2 1.2256(5)
C6 C5 1.3600(6)
C6 H6 1.083(1)
C4 O4 1.2370(5)
C4 C5 1.4381(5)
C5 C8 1.4969(6)
C8 H8C 1.077(1)
C8 H8B 1.077(1)
C8 H8A 1.077(1)
C7 H7C 1.076(1)
C7 H7B 1.077(1)
C7 H7A 1.077(1)
loop_
_geom_hbond_atom_site_label_D
_geom_hbond_atom_site_label_H
_geom_hbond_atom_site_label_A
_geom_hbond_distance_DH
_geom_hbond_distance_HA
_geom_hbond_distance_DA
_geom_hbond_angle_DHA
_geom_hbond_site_symmetry_A
N3 H3 O4 1.029(1) 1.794(2) 2.8218(5) 176.2(1) 3_657
loop_
_geom_torsion_atom_site_label_1
_geom_torsion_atom_site_label_2
_geom_torsion_atom_site_label_3
_geom_torsion_atom_site_label_4
_geom_torsion
N3 C2 N1 C6 0.87(3)
N3 C2 N1 C7 -179.30(4)
N3 C4 C5 C6 1.77(3)
N3 C4 C5 C8 -178.31(4)
H3 N3 C2 O2 2.3(4)
H3 N3 C2 N1 -178.7(1)
H3 N3 C4 O4 -3.0(4)
H3 N3 C4 C5 177.4(1)
N1 C2 N3 C4 0.55(3)
N1 C6 C5 C4 -0.52(3)
N1 C6 C5 C8 179.57(4)
C2 N1 C6 C5 -0.88(4)
C2 N1 C6 H6 179.3(2)
C2 N1 C7 H7C -61.1(4)
C2 N1 C7 H7B 59.4(3)
C2 N1 C7 H7A 178.4(2)
C2 N3 C4 O4 177.80(4)
C2 N3 C4 C5 -1.87(3)
C6 N1 C2 O2 179.92(4)
C6 N1 C7 H7C 118.7(4)
C6 N1 C7 H7B -120.8(4)
C6 N1 C7 H7A -1.8(4)
C6 C5 C4 O4 -177.89(4)
C6 C5 C8 H8C 119.2(3)
C6 C5 C8 H8B -122.9(4)
C6 C5 C8 H8A -1.4(3)
H6 C6 N1 C7 -0.5(3)
H6 C6 C5 C4 179.3(1)
H6 C6 C5 C8 -0.6(3)
C4 N3 C2 O2 -178.50(4)
C4 C5 C8 H8C -60.7(4)
C4 C5 C8 H8B 57.2(4)
C4 C5 C8 H8A 178.7(2)
C5 C6 N1 C7 179.30(4)
O2 C2 N1 C7 -0.26(4)
O4 C4 C5 C8 2.03(3)
loop_
_refln_index_h
_refln_index_k
_refln_index_l
_refln_F_squared_calc
_refln_F_squared_meas
_refln_F_squared_sigma
_refln_observed_status
-14 1 2 4.73 4.04 1.27 o
-14 2 1 8.79 8.86 1.72 o
-13 0 4 4.50 4.49 1.17 o
-13 0 6 8.15 5.49 1.67 o
-13 1 1 4.39 3.22 0.69 o
-13 1 2 1.99 1.89 0.57 o
-13 1 3 2.80 3.96 0.77 o
-13 1 4 5.39 6.28 1.32 o
-13 2 1 5.03 5.96 0.91 o
-13 2 3 10.08 11.25 1.65 o
-13 2 7 10.45 5.99 1.30 o
-13 3 5 7.29 6.37 1.11 o
-13 3 6 5.62 4.72 1.06 o
-13 4 1 15.12 14.97 1.34 o
-13 4 2 3.30 3.87 0.72 o
-13 4 4 3.24 3.18 1.05 o
-13 4 5 3.33 3.03 0.84 o
-13 5 2 21.16 20.16 1.58 o
-13 6 1 16.32 16.91 1.65 o
-13 6 4 5.43 6.10 1.07 o
-13 8 1 6.77 7.56 1.11 o
-13 8 2 4.61 4.12 0.87 o
-13 8 3 4.80 5.61 1.05 o
-12 0 6 12.22 10.52 2.35 o
-12 1 1 39.05 39.92 1.58 o
-12 1 2 7.01 7.00 0.78 o
-12 1 3 3.25 3.73 0.63 o
-12 1 5 6.70 6.81 0.74 o
-12 1 6 3.15 2.78 0.71 o
-12 1 7 3.06 1.97 0.65 o
-12 2 1 7.77 9.04 0.75 o
-12 2 2 3.19 3.32 0.61 o
-12 2 3 6.22 7.33 1.27 o
-12 2 4 3.79 3.67 0.75 o
-12 2 6 2.89 2.29 0.74 o
-12 2 7 2.80 3.10 0.66 o
-12 3 1 3.74 2.87 0.53 o
-12 3 2 14.79 14.81 1.16 o
-12 3 3 7.24 6.76 1.19 o
-12 3 5 2.65 2.29 0.71 o
-12 3 7 3.91 4.18 0.77 o
-12 4 1 4.32 5.04 0.76 o
-12 4 3 23.22 25.30 2.18 o
-12 4 6 7.84 6.87 1.28 o
-12 4 7 4.96 5.22 1.15 o
-12 5 4 34.33 32.10 5.47 o
-12 6 1 18.00 16.44 2.45 o
-12 6 2 10.97 9.90 1.04 o
-12 6 3 14.52 15.08 1.09 o
-12 6 4 4.19 4.19 1.24 o
-12 6 6 9.96 9.84 1.22 o
-12 7 1 2.50 3.67 0.99 o
-12 7 2 10.12 10.68 1.63 o
-12 7 3 13.36 13.02 1.47 o
-12 7 5 12.01 12.52 1.33 o
-12 8 1 29.39 32.11 2.07 o
-12 8 3 5.92 6.97 0.80 o
-12 8 4 6.72 6.31 0.79 o
-12 8 5 3.00 3.25 0.79 o
-12 9 1 18.24 18.12 1.47 o
-12 9 2 39.04 39.26 1.82 o
-12 9 6 6.84 7.25 1.20 o
-12 10 1 3.57 3.42 0.76 o
-12 10 2 5.95 5.69 0.79 o
-12 10 6 5.95 7.03 1.86 o
-12 11 1 4.21 3.98 0.80 o
-12 11 4 3.77 4.26 0.95 o
-12 12 3 2.00 2.55 0.70 o
-11 0 2 17.32 16.32 1.57 o
-11 0 4 3.27 3.57 0.56 o
-11 0 6 2.95 3.08 0.70 o
-11 1 1 3.50 3.11 0.77 o
-11 1 2 85.63 91.47 2.65 o
-11 1 3 69.27 74.19 2.34 o
-11 1 4 6.20 4.77 0.48 o
-11 1 5 2.04 1.56 0.34 o
-11 1 7 9.00 7.85 1.67 o
-11 1 9 4.14 3.39 0.71 o
-11 2 1 72.86 75.51 3.41 o
-11 2 2 60.20 62.37 1.89 o
-11 2 3 1.33 1.48 0.37 o
-11 2 4 12.41 12.05 0.95 o
-11 2 5 3.08 3.50 0.54 o
-11 2 7 2.79 2.79 0.79 o
-11 2 8 3.06 1.83 0.53 o
-11 3 1 21.45 23.82 1.27 o
-11 3 3 9.80 9.71 1.00 o
-11 3 4 8.39 8.90 1.19 o
-11 3 5 21.99 21.49 1.14 o
-11 3 6 8.53 8.55 1.50 o
-11 3 7 4.69 6.03 0.75 o
-11 4 2 7.82 8.28 0.81 o
-11 4 5 24.21 24.58 1.99 o
-11 4 8 12.09 10.84 1.12 o
-11 4 9 4.48 2.94 0.85 o
-11 5 1 9.67 9.76 0.85 o
-11 5 2 10.62 11.74 0.78 o
-11 5 4 10.38 9.81 1.08 o
-11 5 5 2.48 2.43 0.78 o
-11 5 6 36.61 35.46 5.15 o
-11 6 2 6.95 5.69 1.03 o
-11 6 3 22.34 24.14 1.18 o
-11 6 4 19.41 19.03 1.08 o
-11 6 5 6.88 6.91 0.90 o
-11 6 6 12.95 12.68 2.76 o
-11 6 8 12.55 13.00 1.41 o
-11 7 1 15.75 17.35 1.46 o
-11 7 2 4.55 6.61 1.17 o
-11 7 4 4.45 4.39 0.60 o
-11 7 5 25.23 25.16 4.28 o
-11 7 7 13.57 13.54 1.32 o
-11 8 1 2.71 2.56 0.81 o
-11 8 2 42.78 40.78 1.88 o
-11 8 3 29.48 31.40 1.43 o
-11 8 4 5.53 4.69 0.78 o
-11 8 5 1.92 1.96 0.65 o
-11 8 6 8.75 9.65 1.14 o
-11 9 1 34.51 38.78 2.10 o
-11 9 2 5.77 5.55 0.91 o
-11 9 3 33.86 34.38 1.81 o
-11 9 4 41.24 42.47 2.09 o
-11 10 1 5.44 3.98 0.78 o
-11 10 3 6.12 7.21 0.93 o
-11 10 4 15.16 14.30 1.26 o
-11 11 1 13.38 13.85 1.03 o
-11 11 2 62.64 64.33 2.47 o
-11 11 3 8.90 7.62 0.98 o
-11 11 4 4.28 3.36 0.88 o
-11 11 6 3.34 3.29 0.83 o
-11 11 7 3.51 2.71 0.84 o
-11 12 1 83.00 83.74 3.76 o
-11 12 2 1.89 1.91 0.54 o
-11 12 5 2.10 2.69 0.85 o
-11 13 3 4.36 3.64 0.75 o
-11 14 2 11.27 8.80 1.82 o
-11 15 1 11.83 9.53 1.28 o
-10 0 2 91.58 93.42 3.55 o
-10 0 4 79.33 86.94 2.44 o
-10 0 6 11.69 10.93 1.57 o
-10 0 8 4.76 4.00 0.98 o
-10 0 10 16.47 13.31 1.96 o
-10 1 1 2.27 2.52 0.35 o
-10 1 2 37.44 39.70 2.00 o
-10 1 4 122.24 129.32 3.05 o
-10 1 5 86.62 90.63 2.51 o
-10 1 6 1.89 1.71 0.32 o
-10 1 9 8.10 6.95 1.40 o
-10 2 1 20.69 21.64 1.72 o
-10 2 3 114.16 119.97 3.34 o
-10 2 4 37.56 38.34 1.23 o
-10 2 5 2.15 1.54 0.41 o
-10 2 6 21.07 19.11 1.22 o
-10 3 1 42.09 40.42 2.36 o
-10 3 2 71.98 75.86 2.05 o
-10 3 3 4.42 6.33 0.53 o
-10 3 4 5.00 5.46 0.63 o
-10 3 5 11.94 13.03 0.94 o
-10 3 6 1.62 2.38 0.56 o
-10 3 7 32.35 35.62 1.90 o
-10 3 8 5.62 4.38 0.72 o
-10 4 2 15.31 16.38 1.33 o
-10 4 4 6.42 6.68 0.79 o
-10 4 7 17.27 19.35 1.31 o
-10 4 8 14.51 13.01 1.15 o
-10 4 10 11.14 7.92 1.73 o
-10 5 1 7.72 8.85 1.01 o
-10 5 2 18.22 18.34 0.88 o
-10 5 3 14.79 15.94 0.87 o
-10 5 4 4.32 4.72 0.70 o
-10 5 6 28.19 26.35 1.49 o
-10 5 8 21.74 22.96 1.59 o
-10 6 4 11.00 11.42 0.90 o
-10 6 5 15.05 16.69 1.14 o
-10 6 6 16.46 17.19 1.38 o
-10 6 8 23.41 23.15 4.69 o
-10 6 10 10.26 8.31 1.84 o
-10 7 1 36.40 34.74 1.30 o
-10 7 2 2.50 2.44 0.48 o
-10 7 3 7.75 8.40 0.77 o
-10 7 7 26.65 27.23 1.65 o
-10 7 9 10.91 8.18 1.72 o
-10 8 1 6.23 5.90 0.55 o
-10 8 3 14.92 14.73 1.04 o
-10 8 4 42.67 44.48 1.88 o
-10 8 5 15.54 17.58 1.64 o
-10 8 6 15.63 16.07 1.26 o
-10 8 8 9.28 9.17 1.12 o
-10 9 2 8.44 7.50 0.79 o
-10 9 3 30.66 31.31 1.55 o
-10 9 4 16.32 15.89 1.18 o
-10 9 5 46.14 49.86 2.15 o
-10 9 6 28.34 27.95 1.81 o
-10 10 1 19.04 18.64 2.16 o
-10 10 2 17.98 16.38 1.12 o
-10 10 3 31.83 32.48 1.65 o
-10 10 4 6.53 6.34 0.82 o
-10 10 5 7.82 8.98 1.34 o
-10 10 6 24.63 22.17 1.57 o
-10 11 1 7.02 7.19 0.87 o
-10 11 3 37.12 38.65 1.86 o
-10 11 4 81.87 84.57 2.94 o
-10 11 5 11.25 10.59 1.11 o
-10 11 6 10.31 11.24 1.14 o
-10 11 8 2.39 2.51 0.80 o
-10 12 1 1.90 1.56 0.50 o
-10 12 2 11.18 11.71 1.04 o
-10 12 3 83.55 85.92 3.04 o
-10 12 5 6.84 6.50 0.93 o
-10 13 1 6.73 6.78 1.17 o
-10 13 2 51.54 51.49 3.12 o
-10 13 3 7.02 7.21 1.64 o
-10 13 4 3.34 3.36 0.99 o
-10 14 2 2.97 3.74 1.09 o
-10 14 4 7.86 8.27 1.61 o
-10 15 1 10.21 8.14 1.54 o
-10 15 3 18.68 19.93 2.32 o
-10 15 5 6.61 5.99 1.54 o
-9 0 2 26.70 25.92 1.05 o
-9 0 4 201.52 206.90 5.29 o
-9 0 6 188.68 201.28 4.39 o
-9 0 8 19.36 17.75 1.77 o
-9 0 12 7.44 5.01 1.44 o
-9 1 1 1.13 1.31 0.27 o
-9 1 2 0.83 1.15 0.27 o
-9 1 4 12.03 13.58 0.67 o
-9 1 5 6.89 6.47 0.61 o
-9 1 6 112.54 119.33 2.91 o
-9 1 7 72.56 76.91 2.33 o
-9 1 11 5.38 4.06 0.88 o
-9 2 1 4.17 3.36 0.67 o
-9 2 2 2.06 1.61 0.49 o
-9 2 3 12.39 13.99 0.60 o
-9 2 4 2.23 2.39 0.29 o
-9 2 5 104.57 110.52 2.81 o
-9 2 6 9.63 10.48 0.81 o
-9 2 7 15.77 14.04 1.00 o
-9 2 8 20.14 18.93 1.20 o
-9 3 1 35.59 37.03 1.31 o
-9 3 2 4.45 4.38 0.34 o
-9 3 3 83.74 86.37 3.31 o
-9 3 4 64.62 66.83 3.55 o
-9 3 6 10.35 10.25 0.77 o
-9 3 7 6.15 7.04 0.72 o
-9 3 9 30.19 27.51 4.26 o
-9 3 11 4.17 4.33 1.37 o
-9 4 1 10.35 9.80 0.65 o
-9 4 2 10.15 10.03 1.90 o
-9 4 3 3.25 3.24 0.64 o
-9 4 4 23.87 24.72 2.03 o
-9 4 5 2.30 2.08 0.43 o
-9 4 6 3.18 3.99 0.88 o
-9 4 9 8.53 7.75 0.95 o
-9 4 10 23.50 19.18 2.13 o
-9 5 1 3.58 4.29 0.46 o
-9 5 2 44.19 43.10 1.50 o
-9 5 3 9.17 9.48 0.72 o
-9 5 4 30.85 31.54 1.33 o
-9 5 5 15.85 15.91 0.98 o
-9 5 6 0.98 1.52 0.43 o
-9 5 7 2.63 2.63 0.65 o
-9 5 8 39.63 40.52 1.87 o
-9 5 10 4.75 4.47 1.17 o
-9 6 1 33.67 35.32 2.04 o
-9 6 2 4.15 4.70 0.54 o
-9 6 6 8.28 9.29 0.86 o
-9 6 7 4.55 5.55 0.98 o
-9 6 10 27.06 24.71 2.48 o
-9 7 2 24.63 24.91 1.15 o
-9 7 3 63.80 62.06 1.98 o
-9 7 4 1.65 2.51 0.47 o
-9 7 7 14.80 15.11 1.11 o
-9 7 9 17.96 16.80 1.91 o
-9 7 11 6.89 7.79 1.20 o
-9 8 1 3.32 2.09 0.37 o
-9 8 2 53.99 54.55 2.67 o
-9 8 3 2.37 3.30 0.55 o
-9 8 5 26.16 28.11 1.75 o
-9 8 6 23.79 25.76 1.42 o
-9 8 7 2.37 2.55 0.59 o
-9 8 8 21.14 19.93 1.41 o
-9 8 10 6.98 7.31 1.64 o
-9 9 1 25.68 27.77 1.26 o
-9 9 2 5.62 4.71 0.93 o
-9 9 4 2.11 2.15 0.49 o
-9 9 5 11.17 12.87 0.98 o
-9 9 6 22.95 22.15 1.34 o
-9 9 7 46.18 49.13 2.14 o
-9 9 8 9.78 9.01 1.29 o
-9 10 2 2.74 2.50 0.69 o
-9 10 3 33.89 34.34 1.52 o
-9 10 4 36.68 37.04 2.09 o
-9 10 5 82.75 83.27 4.45 o
-9 10 6 30.63 31.19 1.65 o
-9 10 7 8.41 8.06 0.93 o
-9 10 8 26.73 23.17 3.90 o
-9 11 5 50.79 53.56 2.16 o
-9 11 6 70.82 70.61 2.92 o
-9 11 7 7.93 8.64 1.00 o
-9 11 8 16.95 14.20 1.85 o
-9 12 1 1.73 1.77 0.57 o
-9 12 3 4.36 4.22 0.62 o
-9 12 4 28.19 29.69 3.62 o
-9 12 5 50.78 51.94 2.66 o
-9 12 6 8.22 8.76 0.99 o
-9 12 7 12.60 11.28 1.17 o
-9 13 1 3.88 3.42 1.00 o
-9 13 2 23.56 24.60 2.15 o
-9 13 3 3.14 3.71 1.07 o
-9 13 4 38.49 43.50 2.01 o
-9 13 5 17.34 16.61 1.87 o
-9 13 6 2.19 2.38 0.61 o
-9 14 2 4.27 3.78 0.94 o
-9 14 4 9.91 9.22 1.45 o
-9 15 1 14.50 12.25 1.67 o
-9 15 3 10.23 10.59 1.66 o
-9 15 5 21.75 22.76 2.43 o
-9 15 7 11.48 10.54 1.93 o
-9 16 3 5.01 5.20 1.39 o
-9 17 2 8.16 7.19 1.56 o
-9 18 2 16.91 13.62 2.11 o
-9 18 3 5.92 4.38 1.45 o
-8 0 4 25.24 26.30 1.08 o
-8 0 6 240.11 255.72 6.02 o
-8 0 8 284.65 301.55 7.13 o
-8 0 10 16.55 12.13 1.52 o
-8 1 1 8.65 7.47 0.46 o
-8 1 2 66.08 62.63 1.85 o
-8 1 4 0.95 1.00 0.22 o
-8 1 7 16.09 14.80 0.87 o
-8 1 8 57.13 58.76 1.95 o
-8 1 9 41.41 39.18 2.45 o
-8 1 10 5.86 4.65 0.57 o
-8 2 1 6.79 5.98 0.35 o
-8 2 2 14.44 14.42 0.64 o
-8 2 4 1.54 2.05 0.36 o
-8 2 6 10.07 10.59 0.76 o
-8 2 7 62.96 66.93 4.53 o
-8 2 9 26.44 24.40 1.36 o
-8 2 10 10.91 9.07 0.87 o
-8 3 1 11.03 11.52 0.57 o
-8 3 2 9.88 10.38 0.55 o
-8 3 3 24.44 24.73 0.83 o
-8 3 4 1.87 1.77 0.52 o
-8 3 5 96.70 97.48 2.52 o
-8 3 6 37.95 40.01 1.48 o
-8 3 7 10.56 9.81 1.04 o
-8 3 8 9.41 9.45 0.80 o
-8 3 11 19.67 17.74 1.17 o
-8 4 1 7.48 8.27 1.27 o
-8 4 2 33.14 32.17 1.57 o
-8 4 3 34.46 34.21 1.11 o
-8 4 4 8.59 8.30 0.74 o
-8 4 5 19.92 20.06 0.99 o
-8 4 6 24.90 24.36 1.16 o
-8 4 12 19.85 17.67 2.26 o
-8 5 1 4.25 3.47 0.75 o
-8 5 2 40.89 41.53 1.97 o
-8 5 3 9.45 10.28 0.68 o
-8 5 4 53.57 51.94 2.47 o
-8 5 5 8.75 8.75 1.78 o
-8 5 6 37.33 39.57 1.50 o
-8 5 7 10.90 10.49 2.10 o
-8 5 9 2.68 2.10 0.52 o
-8 5 10 31.58 28.52 1.67 o
-8 6 1 17.93 21.72 1.53 o
-8 6 3 43.66 44.77 1.51 o
-8 6 4 23.20 23.46 1.08 o
-8 6 5 11.26 10.27 1.12 o
-8 6 8 2.96 2.97 0.42 o
-8 6 12 20.65 17.18 2.32 o
-8 7 2 11.95 10.51 1.47 o
-8 7 3 1.80 2.28 0.44 o
-8 7 4 39.42 40.09 2.03 o
-8 7 5 72.01 73.00 2.15 o
-8 7 8 9.33 8.07 0.66 o
-8 7 9 10.55 9.87 0.95 o
-8 7 10 6.38 6.17 0.90 o
-8 7 11 8.23 7.07 0.99 o
-8 8 1 6.51 7.27 0.61 o
-8 8 2 2.90 3.28 0.47 o
-8 8 4 27.41 29.48 1.56 o
-8 8 7 25.14 26.15 1.35 o
-8 8 8 5.32 5.50 0.60 o
-8 8 10 16.14 12.37 3.16 o
-8 9 2 29.54 29.42 1.22 o
-8 9 3 33.14 34.80 1.37 o
-8 9 4 18.49 19.08 1.02 o
-8 9 5 2.68 1.85 0.61 o
-8 9 8 15.41 14.42 0.94 o
-8 9 9 33.81 33.12 1.84 o
-8 10 1 34.62 34.11 1.60 o
-8 10 5 31.36 33.11 1.45 o
-8 10 6 39.66 39.01 2.80 o
-8 10 7 120.73 124.44 5.77 o
-8 10 8 62.94 61.45 2.14 o
-8 10 9 8.77 7.92 1.00 o
-8 10 10 18.47 15.13 3.25 o
-8 11 2 9.31 9.79 1.80 o
-8 11 3 6.41 6.48 1.59 o
-8 11 5 2.48 2.33 0.66 o
-8 11 6 11.08 10.37 0.95 o
-8 11 7 35.55 35.94 1.77 o
-8 11 8 37.72 34.89 1.85 o
-8 11 10 19.53 17.42 2.25 o
-8 12 1 25.84 25.05 1.96 o
-8 12 2 3.73 4.47 0.55 o
-8 12 3 4.24 4.86 0.83 o
-8 12 5 2.55 3.39 0.58 o
-8 12 6 37.77 40.10 2.80 o
-8 12 7 16.67 16.80 1.26 o
-8 12 8 16.93 16.86 1.37 o
-8 12 9 13.04 11.04 1.23 o
-8 13 3 3.82 3.91 0.99 o
-8 13 4 21.38 22.18 1.99 o
-8 13 6 18.14 19.07 3.02 o
-8 13 7 21.08 20.39 2.38 o
-8 14 2 11.20 11.89 1.49 o
-8 14 4 9.83 10.61 1.48 o
-8 14 6 15.13 11.52 1.64 o
-8 15 2 11.84 11.54 1.56 o
-8 15 3 24.92 22.36 2.08 o
-8 15 5 8.76 8.35 1.46 o
-8 15 7 17.44 16.05 2.01 o
-8 16 2 15.65 14.60 1.73 o
-8 16 4 8.95 6.12 1.23 o
-8 17 3 3.19 3.72 1.08 o
-8 17 4 12.74 11.34 1.59 o
-8 18 1 14.19 15.47 2.00 o
-8 18 2 6.08 5.30 1.43 o
-8 18 4 7.02 6.57 1.55 o
-8 19 3 4.82 6.35 1.60 o
-8 19 4 9.32 9.15 1.90 o
-8 20 1 12.81 11.65 2.01 o
-7 0 2 221.07 226.52 11.99 o
-7 0 4 29.90 28.86 1.24 o
-7 0 6 10.27 9.03 1.75 o
-7 0 8 165.78 171.24 3.87 o
-7 0 10 281.77 286.40 7.33 o
-7 0 12 6.69 5.20 0.86 o
-7 1 1 150.39 143.80 3.45 o
-7 1 2 152.97 155.91 4.29 o
-7 1 3 5.74 5.08 0.27 o
-7 1 4 89.83 88.42 2.14 o
-7 1 6 4.14 4.05 0.43 o
-7 1 8 27.98 26.00 1.36 o
-7 1 9 17.51 17.71 1.05 o
-7 1 10 10.22 9.76 1.62 o
-7 1 11 16.70 14.14 1.85 o
-7 1 12 12.24 9.07 1.73 o
-7 2 1 105.73 102.06 3.09 o
-7 2 2 2.04 1.55 0.38 o
-7 2 3 8.58 7.56 0.34 o
-7 2 4 8.67 8.87 0.37 o
-7 2 7 5.36 5.55 0.59 o
-7 2 8 9.71 10.25 0.55 o
-7 2 9 25.26 24.35 1.05 o
-7 2 10 4.37 3.17 0.49 o
-7 2 11 22.87 19.65 1.88 o
-7 2 12 2.83 3.01 0.77 o
-7 3 2 16.60 16.33 0.66 o
-7 3 3 21.79 18.79 0.69 o
-7 3 4 15.84 16.73 0.85 o
-7 3 5 7.77 8.17 0.40 o
-7 3 7 63.67 66.66 1.73 o
-7 3 8 13.18 13.38 0.77 o
-7 3 9 13.81 12.75 0.76 o
-7 3 10 4.11 4.19 0.83 o
-7 3 13 9.87 7.32 1.70 o
-7 4 1 17.36 15.30 0.78 o
-7 4 3 9.96 10.66 0.66 o
-7 4 4 6.64 6.94 0.45 o
-7 4 5 55.35 56.71 1.69 o
-7 4 6 3.37 2.68 0.70 o
-7 4 7 39.62 40.12 1.30 o
-7 4 8 16.78 16.77 0.73 o
-7 4 12 10.50 8.91 1.65 o
-7 5 1 5.92 6.28 0.56 o
-7 5 2 41.10 40.73 1.22 o
-7 5 3 5.89 6.06 0.66 o
-7 5 4 56.44 59.32 1.90 o
-7 5 5 12.74 12.83 0.63 o
-7 5 6 48.32 46.19 1.39 o
-7 5 7 6.72 6.36 0.48 o
-7 5 8 34.90 31.88 1.10 o
-7 5 9 5.03 5.31 0.69 o
-7 5 12 13.71 11.23 1.88 o
-7 6 1 14.01 15.50 1.31 o
-7 6 2 10.37 9.99 0.56 o
-7 6 3 26.97 25.93 1.08 o
-7 6 4 19.93 19.77 0.81 o
-7 6 5 26.74 27.94 0.99 o
-7 6 6 52.27 52.30 1.92 o
-7 6 7 21.62 21.31 0.91 o
-7 6 8 1.12 1.60 0.40 o
-7 7 1 13.81 13.46 0.75 o
-7 7 4 10.13 10.81 0.69 o
-7 7 5 9.87 8.85 0.54 o
-7 7 6 32.17 33.33 1.15 o
-7 7 7 50.02 50.29 2.09 o
-7 7 10 6.29 5.23 1.21 o
-7 7 12 6.24 5.57 1.47 o
-7 8 1 26.72 25.92 1.26 o
-7 8 2 79.82 83.65 2.09 o
-7 8 3 4.66 4.90 0.48 o
-7 8 6 4.82 5.23 0.44 o
-7 8 7 2.45 2.45 0.48 o
-7 8 9 14.54 13.71 1.06 o
-7 8 12 6.60 6.92 1.60 o
-7 9 1 88.06 92.00 2.34 o
-7 9 2 19.65 19.52 1.00 o
-7 9 4 40.52 41.23 1.31 o
-7 9 5 28.38 30.16 1.10 o
-7 9 6 19.34 20.05 0.89 o
-7 9 7 9.92 8.69 0.62 o
-7 9 8 8.04 6.88 0.77 o
-7 9 9 9.01 7.55 0.95 o
-7 9 11 17.29 14.25 1.95 o
-7 10 1 4.69 3.91 0.42 o
-7 10 2 66.77 68.19 1.95 o
-7 10 3 43.53 45.46 1.53 o
-7 10 4 3.75 4.97 0.44 o
-7 10 5 9.61 9.72 0.60 o
-7 10 6 2.60 2.65 0.62 o
-7 10 7 14.42 14.35 0.83 o
-7 10 8 21.46 20.96 1.08 o
-7 10 9 109.82 115.29 3.72 o
-7 10 10 75.64 76.03 3.85 o
-7 10 11 8.65 7.99 1.57 o
-7 11 1 7.04 7.42 0.85 o
-7 11 2 137.94 145.38 5.67 o
-7 11 3 1.40 1.56 0.29 o
-7 11 4 9.25 8.85 0.78 o
-7 11 5 11.88 12.24 0.71 o
-7 11 6 3.63 3.31 0.85 o
-7 11 7 7.71 6.90 0.59 o
-7 11 8 33.05 32.41 1.42 o
-7 11 9 11.05 10.16 1.04 o
-7 11 10 9.45 8.00 1.57 o
-7 12 1 53.83 51.93 2.69 o
-7 12 3 27.53 28.17 1.08 o
-7 12 4 3.91 4.01 0.93 o
-7 12 5 3.14 3.16 0.45 o
-7 12 6 1.64 1.86 0.36 o
-7 12 8 29.71 30.60 1.65 o
-7 12 10 17.95 16.61 2.14 o
-7 12 11 8.41 7.89 1.83 o
-7 13 2 35.94 34.15 2.28 o
-7 13 3 2.22 3.61 0.93 o
-7 13 5 2.03 2.49 0.46 o
-7 13 6 10.55 11.07 0.80 o
-7 13 8 3.89 3.86 0.83 o
-7 13 9 14.82 13.38 1.27 o
-7 14 1 2.69 2.58 0.83 o
-7 14 5 1.27 1.42 0.41 o
-7 14 6 13.44 12.88 1.07 o
-7 14 8 14.62 13.82 1.25 o
-7 15 1 4.96 5.22 1.14 o
-7 15 4 11.85 10.96 1.30 o
-7 15 5 26.11 26.32 1.56 o
-7 15 7 7.43 6.68 0.89 o
-7 15 9 9.64 9.76 1.27 o
-7 16 1 4.64 5.74 1.15 o
-7 16 4 18.69 18.33 1.32 o
-7 16 5 8.33 7.51 0.93 o
-7 16 6 15.85 15.79 1.36 o
-7 16 7 1.94 2.63 0.71 o
-7 17 4 5.06 3.24 0.93 o
-7 17 5 4.54 3.91 0.77 o
-7 17 6 9.92 8.12 1.07 o
-7 17 7 3.95 3.07 0.78 o
-7 18 2 21.83 17.55 1.98 o
-7 18 3 17.06 14.70 1.78 o
-7 19 1 9.57 8.92 1.62 o
-7 19 5 5.51 4.69 1.39 o
-7 19 6 6.87 7.30 1.69 o
-7 20 3 14.35 12.56 2.00 o
-7 21 1 12.75 10.81 1.99 o
-6 0 2 324.71 334.60 6.55 o
-6 0 4 83.18 86.38 2.10 o
-6 0 6 91.83 91.29 2.16 o
-6 0 10 55.67 51.74 2.86 o
-6 0 12 187.96 194.45 6.26 o
-6 1 1 7.02 7.31 0.37 o
-6 1 2 7.64 7.71 0.38 o
-6 1 3 137.86 130.79 3.25 o
-6 1 4 242.98 250.05 6.17 o
-6 1 5 5.17 4.43 0.23 o
-6 1 6 65.17 63.35 1.75 o
-6 1 8 2.99 3.12 0.43 o
-6 1 10 56.22 52.07 2.37 o
-6 1 11 11.70 11.46 1.01 o
-6 2 1 101.66 99.79 2.53 o
-6 2 2 7.70 8.40 0.71 o
-6 2 3 168.97 159.58 4.82 o
-6 2 4 2.16 2.31 0.23 o
-6 2 5 12.24 11.63 0.43 o
-6 2 6 2.11 2.39 0.18 o
-6 2 9 15.87 16.36 1.25 o
-6 2 10 2.61 2.58 0.80 o
-6 2 11 7.01 6.70 0.84 o
-6 2 13 12.26 11.17 1.34 o
-6 3 2 224.52 221.77 4.64 o
-6 3 3 3.36 3.53 0.65 o
-6 3 4 15.98 15.81 0.61 o
-6 3 5 18.97 18.05 0.87 o
-6 3 6 12.82 11.94 0.45 o
-6 3 9 20.19 20.19 0.91 o
-6 3 10 2.47 1.79 0.35 o
-6 3 11 8.21 8.91 0.90 o
-6 4 1 554.65 557.38 8.52 o
-6 4 2 30.73 31.33 1.57 o
-6 4 3 18.32 16.39 1.04 o
-6 4 4 7.29 6.95 0.37 o
-6 4 5 12.44 12.90 0.49 o
-6 4 7 54.30 56.40 1.55 o
-6 4 9 44.14 44.02 1.91 o
-6 4 10 8.31 7.89 0.63 o
-6 5 1 105.06 97.62 2.91 o
-6 5 2 86.69 90.55 4.80 o
-6 5 3 6.14 5.74 0.34 o
-6 5 4 53.78 56.02 1.46 o
-6 5 5 4.15 4.12 0.47 o
-6 5 6 37.96 37.33 1.04 o
-6 5 7 7.84 7.05 0.76 o
-6 5 8 30.51 30.17 1.01 o
-6 5 9 4.80 4.47 0.48 o
-6 5 10 24.42 21.41 1.12 o
-6 6 1 158.77 167.98 3.62 o
-6 6 2 80.00 82.25 2.30 o
-6 6 3 16.50 16.93 0.66 o
-6 6 4 3.01 3.22 0.32 o
-6 6 5 31.64 31.84 0.96 o
-6 6 6 47.00 48.49 1.32 o
-6 6 7 6.21 5.84 0.47 o
-6 6 8 66.78 68.95 1.92 o
-6 6 9 23.40 22.62 1.20 o
-6 6 11 4.50 4.48 1.00 o
-6 7 1 125.63 124.16 2.94 o
-6 7 2 38.74 41.12 1.15 o
-6 7 3 11.98 11.66 0.51 o
-6 7 4 1.99 1.77 0.23 o
-6 7 6 4.91 4.52 0.33 o
-6 7 7 11.56 11.62 0.93 o
-6 7 8 12.46 12.66 0.70 o
-6 7 9 19.25 18.09 1.10 o
-6 8 1 38.50 38.70 1.42 o
-6 8 2 1.53 1.63 0.31 o
-6 8 3 71.49 70.89 1.77 o
-6 8 4 41.95 43.90 1.26 o
-6 8 5 3.05 2.57 0.43 o
-6 8 6 1.60 0.94 0.26 o
-6 8 9 3.99 4.53 0.64 o
-6 8 11 4.91 4.29 1.12 o
-6 9 1 1.95 1.61 0.43 o
-6 9 2 43.63 43.45 1.21 o
-6 9 3 84.05 81.76 2.13 o
-6 9 4 67.77 70.72 1.85 o
-6 9 5 9.50 9.67 0.54 o
-6 9 6 28.18 27.23 1.02 o
-6 9 7 14.73 14.74 0.75 o
-6 9 8 7.92 7.83 0.69 o
-6 9 9 15.04 14.20 1.60 o
-6 9 10 11.90 9.26 1.36 o
-6 9 11 22.09 19.89 2.08 o
-6 10 1 23.44 21.96 0.88 o
-6 10 2 164.81 165.96 3.66 o
-6 10 4 14.01 12.78 0.81 o
-6 10 5 32.67 34.85 1.17 o
-6 10 6 17.35 16.97 0.83 o
-6 10 7 21.19 22.23 1.24 o
-6 10 8 8.95 9.04 0.78 o
-6 10 10 3.33 3.86 1.10 o
-6 10 11 64.03 64.44 3.78 o
-6 10 12 57.46 53.13 3.87 o
-6 11 1 58.62 60.10 2.72 o
-6 11 2 46.61 47.57 1.83 o
-6 11 3 15.45 15.42 0.70 o
-6 11 4 181.77 191.75 4.16 o
-6 11 5 4.15 4.80 0.42 o
-6 11 6 5.21 4.35 0.41 o
-6 11 7 9.91 10.03 0.66 o
-6 11 8 2.58 2.22 0.66 o
-6 11 9 6.02 5.32 0.75 o
-6 11 10 44.98 46.16 3.05 o
-6 12 1 33.61 32.96 2.09 o
-6 12 3 34.19 33.18 1.33 o
-6 12 5 27.33 26.74 1.05 o
-6 12 6 3.71 4.26 0.45 o
-6 12 10 13.35 13.04 1.86 o
-6 13 1 40.74 41.68 2.39 o
-6 13 2 57.83 58.94 1.69 o
-6 13 3 1.94 1.62 0.30 o
-6 13 4 45.53 46.84 1.71 o
-6 13 5 3.16 2.94 0.72 o
-6 13 8 2.24 2.72 0.83 o
-6 13 11 6.37 6.07 1.68 o
-6 14 1 130.10 137.15 4.62 o
-6 14 2 79.75 85.11 2.33 o
-6 14 3 1.79 1.32 0.35 o
-6 14 7 7.21 7.34 0.79 o
-6 14 8 11.23 11.10 1.55 o
-6 14 10 9.66 10.38 1.24 o
-6 15 1 20.71 22.21 1.89 o
-6 15 2 113.24 116.20 2.92 o
-6 15 3 6.74 7.15 0.58 o
-6 15 6 6.43 5.98 0.77 o
-6 15 7 13.99 14.64 1.20 o
-6 15 9 6.45 6.58 1.46 o
-6 16 1 2.96 2.49 0.83 o
-6 16 2 70.80 71.22 2.64 o
-6 16 3 8.14 8.78 1.03 o
-6 16 6 16.56 15.83 1.25 o
-6 16 7 19.36 19.30 2.09 o
-6 16 8 17.43 17.27 2.10 o
-6 17 1 11.68 11.32 1.50 o
-6 17 3 1.41 1.40 0.42 o
-6 17 6 8.29 6.89 1.33 o
-6 18 4 12.40 10.07 1.07 o
-6 18 5 12.58 11.96 1.18 o
-6 19 1 3.98 4.03 0.75 o
-6 19 2 5.17 4.38 0.95 o
-6 19 3 9.38 6.26 1.26 o
-6 19 4 8.76 6.35 0.97 o
-6 19 5 8.64 8.97 1.15 o
-6 20 1 30.61 27.35 1.79 o
-6 20 2 15.70 12.98 1.29 o
-6 20 5 8.75 8.32 2.18 o
-6 21 1 15.43 11.85 1.29 o
-6 21 3 22.28 19.85 2.40 o
-6 21 4 5.81 5.06 1.41 o
-6 22 1 7.22 5.15 1.35 o
-5 0 2 36.16 38.07 2.37 o
-5 0 4 317.78 322.94 9.71 o
-5 0 8 124.81 119.20 3.84 o
-5 0 12 4.24 3.67 1.06 o
-5 0 14 81.53 80.59 4.64 o
-5 1 1 62.74 56.24 1.48 o
-5 1 2 99.57 93.86 2.24 o
-5 1 3 24.46 26.23 0.93 o
-5 1 4 14.90 15.75 0.64 o
-5 1 5 85.68 83.98 2.40 o
-5 1 6 257.80 255.63 5.60 o
-5 1 7 4.70 3.99 0.25 o
-5 1 8 19.10 17.98 0.89 o
-5 1 11 4.08 4.57 0.68 o
-5 1 12 47.22 43.58 2.04 o
-5 1 13 6.19 4.41 0.87 o
-5 1 14 9.54 8.45 1.26 o
-5 2 1 5.99 6.86 0.42 o
-5 2 2 24.51 26.52 1.15 o
-5 2 3 47.38 44.40 1.42 o
-5 2 4 40.93 41.95 1.36 o
-5 2 5 165.14 159.62 4.10 o
-5 2 6 16.33 16.87 0.55 o
-5 2 7 11.99 12.90 0.47 o
-5 2 9 2.09 1.90 0.38 o
-5 2 11 12.51 12.00 0.95 o
-5 3 1 271.66 254.44 4.89 o
-5 3 2 41.94 37.38 1.60 o
-5 3 3 38.42 38.99 1.30 o
-5 3 4 207.85 211.78 4.41 o
-5 3 5 7.36 7.22 0.43 o
-5 3 6 13.92 12.78 0.49 o
-5 3 7 8.10 7.16 0.40 o
-5 3 8 4.56 4.07 0.45 o
-5 3 13 3.22 4.78 0.91 o
-5 4 1 21.99 20.63 1.19 o
-5 4 2 471.00 479.48 7.41 o
-5 4 3 462.23 466.25 7.33 o
-5 4 5 16.16 15.53 0.87 o
-5 4 6 33.35 32.87 0.93 o
-5 4 7 11.68 11.44 0.53 o
-5 4 8 9.37 10.81 0.78 o
-5 4 9 36.23 36.26 1.25 o
-5 4 11 31.50 33.46 1.65 o
-5 4 12 2.62 2.68 0.70 o
-5 5 1 408.98 405.71 6.58 o
-5 5 2 1864.61 1927.26 44.30 o
-5 5 3 184.70 169.06 3.84 o
-5 5 4 86.72 88.47 2.14 o
-5 5 5 2.54 1.95 0.20 o
-5 5 6 43.21 43.15 1.14 o
-5 5 7 2.06 2.25 0.23 o
-5 5 8 7.48 7.23 0.49 o
-5 5 9 1.77 1.93 0.37 o
-5 5 10 11.30 10.62 0.83 o
-5 5 11 3.02 2.97 0.97 o
-5 5 12 14.71 14.12 1.74 o
-5 6 1 248.90 247.70 4.83 o
-5 6 2 549.61 548.01 8.38 o
-5 6 3 136.48 137.16 3.49 o
-5 6 4 158.45 160.92 4.15 o
-5 6 5 14.25 14.85 0.57 o
-5 6 7 26.30 27.15 0.95 o
-5 6 8 55.87 56.95 1.77 o
-5 6 10 58.67 61.76 3.18 o
-5 6 11 13.87 12.00 1.50 o
-5 6 13 2.87 4.81 1.50 o
-5 7 1 314.45 303.98 5.66 o
-5 7 2 19.96 21.02 1.29 o
-5 7 3 199.97 213.36 5.76 o
-5 7 4 10.69 12.14 0.51 o
-5 7 5 6.22 6.79 0.37 o
-5 7 6 5.09 4.53 0.67 o
-5 7 9 5.60 5.26 0.99 o
-5 8 1 49.02 47.02 1.35 o
-5 8 2 18.42 17.63 0.71 o
-5 8 3 9.74 9.48 0.48 o
-5 8 5 104.47 104.29 2.43 o
-5 8 6 4.53 4.71 0.51 o
-5 8 7 1.93 2.31 0.35 o
-5 8 8 3.81 3.59 0.69 o
-5 8 12 5.03 3.40 0.98 o
-5 9 1 1.24 1.14 0.21 o
-5 9 2 0.75 0.90 0.17 o
-5 9 3 3.02 3.46 0.24 o
-5 9 4 137.97 140.29 4.12 o
-5 9 5 43.46 43.04 1.21 o
-5 9 6 86.16 86.53 2.26 o
-5 9 7 16.22 16.21 0.74 o
-5 9 8 7.46 7.25 0.62 o
-5 9 9 4.49 2.62 0.83 o
-5 9 11 13.10 11.26 1.54 o
-5 9 12 6.44 5.03 1.34 o
-5 9 13 23.26 18.34 2.52 o
-5 10 1 98.86 98.04 2.30 o
-5 10 2 5.80 5.71 0.31 o
-5 10 3 33.00 33.66 0.96 o
-5 10 4 164.90 165.01 3.84 o
-5 10 5 12.61 12.73 0.56 o
-5 10 6 3.91 4.03 0.37 o
-5 10 7 13.81 14.45 0.96 o
-5 10 8 26.96 25.85 1.92 o
-5 10 9 24.53 24.77 1.50 o
-5 10 10 9.65 8.07 1.33 o
-5 11 1 4.39 5.04 0.33 o
-5 11 2 7.94 7.32 0.40 o
-5 11 3 24.01 23.78 0.82 o
-5 11 4 14.05 14.01 0.86 o
-5 11 5 10.89 11.21 0.60 o
-5 11 6 159.70 170.28 5.38 o
-5 11 7 4.56 5.67 0.57 o
-5 11 9 3.17 4.00 0.85 o
-5 11 12 35.61 33.15 3.04 o
-5 12 1 2.01 2.13 0.28 o
-5 12 2 13.16 12.92 0.63 o
-5 12 3 50.58 49.24 1.45 o
-5 12 4 15.63 17.04 1.19 o
-5 12 5 14.49 14.85 0.87 o
-5 12 7 24.86 25.50 1.24 o
-5 12 8 3.08 2.45 0.66 o
-5 13 1 43.21 43.77 1.33 o
-5 13 2 5.93 5.89 0.45 o
-5 13 3 4.93 4.49 0.41 o
-5 13 4 80.35 83.12 2.32 o
-5 13 5 5.22 3.28 0.62 o
-5 13 6 36.73 37.21 1.52 o
-5 13 7 3.60 3.41 0.79 o
-5 14 1 8.04 8.44 0.55 o
-5 14 2 40.68 40.00 1.31 o
-5 14 3 138.11 140.93 3.29 o
-5 14 4 19.80 21.21 1.24 o
-5 14 6 8.61 7.40 0.73 o
-5 14 9 11.04 10.67 1.50 o
-5 15 1 333.35 345.13 7.68 o
-5 15 2 41.78 40.18 1.69 o
-5 15 3 57.03 55.73 1.74 o
-5 15 4 105.08 105.53 2.73 o
-5 15 5 7.60 7.47 0.74 o
-5 16 1 86.83 84.46 2.29 o
-5 16 2 69.80 67.58 2.18 o
-5 16 3 6.04 5.89 0.56 o
-5 16 4 91.33 93.76 2.59 o
-5 16 5 12.25 12.52 0.99 o
-5 16 6 2.23 2.56 0.76 o
-5 16 8 10.68 9.76 1.56 o
-5 16 9 24.16 25.68 2.63 o
-5 16 10 13.03 10.16 1.35 o
-5 17 1 12.01 12.09 0.75 o
-5 17 2 77.09 79.53 2.30 o
-5 17 3 10.69 9.93 0.83 o
-5 17 4 13.54 13.06 1.43 o
-5 17 8 7.36 8.22 1.52 o
-5 18 1 51.47 51.56 1.81 o
-5 18 3 5.61 6.13 0.63 o
-5 18 5 3.06 3.55 0.62 o
-5 18 7 5.21 5.55 1.34 o
-5 19 1 7.34 5.84 0.78 o
-5 19 2 20.59 20.66 1.18 o
-5 19 3 11.43 10.15 0.89 o
-5 19 4 16.98 16.26 1.32 o
-5 19 6 9.19 7.63 1.55 o
-5 19 7 14.55 17.23 2.36 o
-5 20 1 24.48 22.48 1.57 o
-5 20 3 34.64 30.72 1.60 o
-5 20 4 11.20 9.06 1.09 o
-5 20 5 10.43 11.73 1.90 o
-5 21 2 15.83 13.97 1.38 o
-5 21 3 3.49 1.88 0.51 o
-5 21 5 20.28 19.67 2.48 o
-5 22 3 15.85 12.48 1.44 o
-4 0 2 515.87 504.43 13.05 o
-4 0 4 4.07 5.02 0.62 o
-4 0 6 158.73 154.18 3.39 o
-4 0 8 57.22 54.48 1.64 o
-4 0 10 88.64 86.87 3.58 o
-4 1 1 729.51 753.12 15.22 o
-4 1 2 60.99 75.50 2.05 o
-4 1 3 50.77 42.81 1.61 o
-4 1 4 94.71 88.89 2.18 o
-4 1 5 30.97 27.97 1.12 o
-4 1 6 72.90 72.57 1.76 o
-4 1 7 40.32 38.40 1.10 o
-4 1 8 135.33 132.72 3.00 o
-4 1 9 5.51 5.41 0.52 o
-4 1 13 5.73 6.14 1.13 o
-4 1 14 20.87 19.30 1.90 o
-4 2 1 1406.43 1422.18 31.41 o
-4 2 2 8.27 7.43 0.44 o
-4 2 3 63.37 60.28 1.73 o
-4 2 4 34.27 35.53 1.53 o
-4 2 5 3.98 5.15 0.43 o
-4 2 6 42.13 42.32 1.17 o
-4 2 7 126.63 125.18 3.03 o
-4 2 8 30.66 29.72 1.12 o
-4 2 9 15.98 15.56 0.85 o
-4 2 11 2.05 2.26 0.67 o
-4 2 13 3.44 3.79 0.80 o
-4 3 1 11.66 11.62 0.92 o
-4 3 2 7.77 6.29 0.71 o
-4 3 3 191.41 176.96 3.92 o
-4 3 5 100.98 96.34 5.28 o
-4 3 6 94.85 98.00 2.46 o
-4 3 7 4.84 5.46 0.34 o
-4 3 8 5.38 5.01 0.40 o
-4 4 2 125.50 141.63 3.42 o
-4 4 3 145.83 141.94 3.29 o
-4 4 4 119.77 120.27 2.91 o
-4 4 5 224.58 236.07 4.51 o
-4 4 6 39.56 41.16 1.45 o
-4 4 7 11.76 11.12 0.50 o
-4 4 8 48.23 45.01 1.52 o
-4 4 9 9.17 8.65 0.67 o
-4 4 10 10.09 9.45 0.77 o
-4 4 11 18.82 19.10 1.58 o
-4 4 12 4.05 4.02 0.94 o
-4 4 13 14.73 14.73 1.88 o
-4 5 1 91.42 84.14 2.54 o
-4 5 2 638.93 622.62 9.73 o
-4 5 3 544.89 547.70 8.27 o
-4 5 4 2700.34 2758.05 63.25 o
-4 5 5 172.84 170.05 3.93 o
-4 5 6 33.90 32.87 1.39 o
-4 5 8 11.04 10.90 0.57 o
-4 5 14 7.22 4.98 1.53 o
-4 6 1 33.47 32.48 1.52 o
-4 6 2 228.31 242.94 4.60 o
-4 6 3 202.44 202.10 4.12 o
-4 6 4 163.41 157.19 3.62 o
-4 6 5 83.62 84.34 2.12 o
-4 6 6 200.60 200.88 4.44 o
-4 6 7 5.32 4.94 0.37 o
-4 6 8 1.20 0.94 0.30 o
-4 6 9 21.55 20.04 1.68 o
-4 6 10 36.48 36.80 2.40 o
-4 6 12 36.23 32.40 2.48 o
-4 6 13 4.30 3.58 1.13 o
-4 7 1 2.80 3.65 0.52 o
-4 7 2 50.74 51.04 1.92 o
-4 7 3 179.37 171.63 3.86 o
-4 7 4 82.98 84.26 2.61 o
-4 7 5 195.32 201.92 4.34 o
-4 7 7 1.77 2.24 0.33 o
-4 7 8 2.80 3.00 0.58 o
-4 8 1 238.57 243.04 4.78 o
-4 8 2 189.86 185.07 4.09 o
-4 8 3 77.23 72.57 1.94 o
-4 8 4 3.53 3.34 0.26 o
-4 8 6 11.95 11.64 0.56 o
-4 8 7 98.18 101.15 2.47 o
-4 8 8 2.32 3.33 0.73 o
-4 9 1 5.39 5.86 0.69 o
-4 9 2 232.99 255.18 6.26 o
-4 9 3 0.94 1.04 0.18 o
-4 9 4 3.44 2.91 0.25 o
-4 9 5 7.11 6.95 0.38 o
-4 9 6 184.78 185.97 6.66 o
-4 9 7 10.08 9.32 0.62 o
-4 9 8 43.78 42.10 2.35 o
-4 9 9 17.16 16.92 1.00 o
-4 10 1 17.72 17.45 0.64 o
-4 10 2 23.26 24.17 0.85 o
-4 10 3 82.60 80.93 1.97 o
-4 10 4 1.96 1.73 0.26 o
-4 10 5 28.45 27.72 0.94 o
-4 10 6 83.67 82.38 3.23 o
-4 10 7 19.96 22.17 1.69 o
-4 10 8 39.12 40.45 2.36 o
-4 10 10 20.58 20.56 1.90 o
-4 10 11 16.84 16.93 1.85 o
-4 10 12 5.05 4.03 1.11 o
-4 11 1 4.05 4.23 0.29 o
-4 11 2 2.94 2.73 0.23 o
-4 11 3 22.57 24.98 0.82 o
-4 11 4 4.00 4.03 0.40 o
-4 11 5 3.17 3.23 0.28 o
-4 11 7 2.10 3.64 0.84 o
-4 11 8 93.41 96.96 3.85 o
-4 12 1 63.08 61.32 1.54 o
-4 12 2 24.57 24.63 0.77 o
-4 12 3 5.34 4.71 0.32 o
-4 12 4 11.68 11.56 0.60 o
-4 12 5 36.63 34.93 1.31 o
-4 12 6 38.37 39.01 1.44 o
-4 12 7 5.38 5.95 1.00 o
-4 12 9 20.55 21.85 1.91 o
-4 13 2 0.55 1.12 0.19 o
-4 13 3 38.45 39.63 1.25 o
-4 13 5 3.06 2.93 0.48 o
-4 13 6 55.60 56.40 2.88 o
-4 13 7 4.46 3.34 0.83 o
-4 13 8 15.99 15.45 1.60 o
-4 13 9 3.96 3.22 0.82 o
-4 14 1 36.04 35.49 1.16 o
-4 14 2 25.93 25.71 0.88 o
-4 14 3 11.81 11.79 0.56 o
-4 14 4 15.84 15.60 0.76 o
-4 14 5 91.41 95.05 2.57 o
-4 14 8 15.42 13.43 1.54 o
-4 14 11 8.47 8.04 1.13 o
-4 15 1 9.94 9.36 0.57 o
-4 15 3 443.14 464.91 11.02 o
-4 15 4 95.39 95.45 2.67 o
-4 15 5 97.98 103.15 3.66 o
-4 15 6 60.74 61.95 3.24 o
-4 15 7 5.53 5.84 1.06 o
-4 16 1 56.63 55.05 2.55 o
-4 16 2 95.98 98.77 2.44 o
-4 16 3 26.72 24.33 1.31 o
-4 16 4 24.06 24.59 1.07 o
-4 16 5 4.77 3.81 0.58 o
-4 16 6 83.88 83.13 3.85 o
-4 16 7 15.30 15.32 1.71 o
-4 16 10 4.73 3.55 1.18 o
-4 17 1 10.30 10.24 0.66 o
-4 17 2 72.51 72.49 2.71 o
-4 17 4 83.57 84.67 2.43 o
-4 17 5 5.88 6.79 1.11 o
-4 17 6 21.79 21.99 1.97 o
-4 18 1 1.41 1.24 0.30 o
-4 18 2 19.37 19.57 1.00 o
-4 18 3 39.54 39.18 1.52 o
-4 18 5 7.85 8.45 1.34 o
-4 18 6 5.36 6.96 1.34 o
-4 18 7 4.14 4.40 1.05 o
-4 19 1 26.98 26.95 3.23 o
-4 19 2 18.06 17.03 1.29 o
-4 19 3 8.05 6.62 0.71 o
-4 19 4 23.53 23.88 1.27 o
-4 19 5 16.73 16.44 1.87 o
-4 19 6 23.67 23.07 2.33 o
-4 20 1 9.86 9.43 1.01 o
-4 20 2 4.12 4.13 0.71 o
-4 20 3 24.08 24.06 1.32 o
-4 20 5 24.48 23.12 2.36 o
-4 20 7 15.30 14.14 2.12 o
-4 21 1 7.25 7.91 1.77 o
-4 21 2 7.63 8.11 1.03 o
-4 21 4 20.20 21.18 1.68 o
-4 22 2 9.86 8.66 2.43 o
-3 0 2 862.82 864.53 16.85 o
-3 0 4 501.59 509.88 8.16 o
-3 0 6 1.68 1.58 0.40 o
-3 0 8 37.18 35.69 1.26 o
-3 0 10 90.85 89.84 3.26 o
-3 0 12 35.63 34.65 1.68 o
-3 1 1 890.26 869.97 18.92 o
-3 1 2 807.84 806.37 17.25 o
-3 1 3 1210.01 1212.11 25.90 o
-3 1 4 39.23 48.84 1.49 o
-3 1 5 7.76 6.49 0.45 o
-3 1 6 59.72 55.90 2.05 o
-3 1 7 9.65 9.29 0.38 o
-3 1 8 90.65 89.99 2.10 o
-3 1 9 9.05 8.63 0.38 o
-3 1 10 30.63 30.05 1.01 o
-3 1 11 7.75 6.85 0.54 o
-3 1 12 2.88 3.56 0.51 o
-3 2 1 182.12 187.94 4.30 o
-3 2 2 331.24 341.74 7.22 o
-3 2 3 880.71 864.08 17.53 o
-3 2 5 25.06 25.33 1.57 o
-3 2 6 17.44 17.80 1.12 o
-3 2 7 2.38 2.16 0.21 o
-3 2 8 16.29 15.56 0.68 o
-3 2 9 88.12 85.31 2.02 o
-3 2 10 29.02 27.97 0.97 o
-3 2 11 11.24 11.17 0.63 o
-3 3 1 79.04 94.97 2.83 o
-3 3 2 4.35 2.09 0.41 o
-3 3 3 30.56 27.40 1.29 o
-3 3 4 67.29 65.71 1.82 o
-3 3 5 58.07 57.33 1.62 o
-3 3 6 17.57 18.46 1.18 o
-3 3 7 87.36 89.55 2.10 o
-3 3 8 15.20 15.40 0.57 o
-3 3 9 6.14 6.64 0.75 o
-3 3 10 1.22 0.96 0.25 o
-3 3 11 2.45 2.03 0.38 o
-3 4 2 6.64 6.03 0.67 o
-3 4 3 7.42 9.45 0.79 o
-3 4 4 237.55 251.89 4.56 o
-3 4 5 203.47 210.01 3.90 o
-3 4 6 4.85 5.65 0.69 o
-3 4 7 70.79 74.43 2.22 o
-3 4 8 76.75 77.83 1.98 o
-3 4 9 6.33 7.28 0.54 o
-3 4 10 27.96 27.44 1.24 o
-3 4 11 4.36 4.97 0.55 o
-3 4 13 7.85 5.82 1.19 o
-3 5 1 148.87 145.21 3.59 o
-3 5 2 56.79 51.30 1.93 o
-3 5 3 55.37 52.50 1.86 o
-3 5 4 198.12 194.24 3.80 o
-3 5 5 401.67 416.74 6.42 o
-3 5 7 115.19 115.32 3.71 o
-3 5 12 6.72 6.99 0.85 o
-3 6 1 202.29 222.40 4.62 o
-3 6 2 1.34 1.50 0.40 o
-3 6 3 18.51 17.18 1.05 o
-3 6 4 420.08 433.74 6.66 o
-3 6 5 45.60 48.27 1.78 o
-3 6 7 43.89 43.59 1.27 o
-3 6 8 163.97 161.87 3.69 o
-3 6 11 11.18 10.89 1.70 o
-3 6 12 13.36 12.44 1.07 o
-3 6 14 14.79 10.59 1.94 o
-3 7 1 38.47 32.85 1.50 o
-3 7 2 9.81 11.65 0.89 o
-3 7 3 87.51 90.96 2.50 o
-3 7 4 38.47 35.92 1.55 o
-3 7 5 65.35 70.59 2.27 o
-3 7 6 93.14 94.59 2.31 o
-3 7 7 107.68 109.87 2.60 o
-3 7 11 5.67 4.88 0.81 o
-3 8 1 1.44 1.71 0.40 o
-3 8 2 6.20 5.49 0.62 o
-3 8 3 183.27 182.80 3.94 o
-3 8 4 61.82 55.31 1.55 o
-3 8 5 49.50 49.91 1.31 o
-3 8 7 1.30 1.25 0.29 o
-3 8 8 38.27 38.60 1.37 o
-3 8 9 68.77 70.56 2.31 o
-3 8 10 7.30 7.35 0.83 o
-3 9 1 47.53 44.89 1.83 o
-3 9 2 34.65 32.95 1.56 o
-3 9 3 35.70 35.18 1.22 o
-3 9 4 272.99 286.17 5.90 o
-3 9 5 1.44 1.38 0.21 o
-3 9 6 9.25 8.98 0.43 o
-3 9 7 12.48 11.66 0.69 o
-3 9 8 129.20 138.04 5.62 o
-3 9 10 6.67 5.87 1.10 o
-3 9 11 12.36 12.61 2.33 o
-3 10 1 27.10 28.09 1.51 o
-3 10 2 92.28 90.58 2.20 o
-3 10 3 30.17 31.24 0.90 o
-3 10 4 43.52 45.37 1.23 o
-3 10 5 33.84 32.82 0.97 o
-3 10 7 16.32 15.84 1.41 o
-3 10 8 16.51 16.18 1.57 o
-3 10 9 13.85 12.94 0.86 o
-3 10 10 53.87 55.98 2.25 o
-3 10 12 8.73 7.22 1.42 o
-3 10 13 6.77 5.66 1.60 o
-3 11 1 1.44 2.90 0.27 o
-3 11 2 284.67 296.45 6.97 o
-3 11 3 13.91 14.27 0.52 o
-3 11 4 11.44 10.95 0.67 o
-3 11 5 37.90 39.29 1.83 o
-3 11 8 11.78 11.26 1.29 o
-3 11 10 34.14 33.75 1.64 o
-3 12 1 126.13 129.48 2.92 o
-3 12 2 41.64 40.27 1.07 o
-3 12 3 44.60 40.60 1.11 o
-3 12 4 19.09 18.30 0.64 o
-3 12 5 2.92 3.08 0.29 o
-3 12 6 2.66 2.45 0.69 o
-3 12 7 15.18 13.15 1.35 o
-3 12 8 36.71 37.28 2.37 o
-3 12 9 3.57 4.36 0.93 o
-3 12 11 11.90 11.02 1.35 o
-3 13 1 2.60 2.72 0.21 o
-3 13 2 10.41 9.71 0.41 o
-3 13 4 22.45 22.17 1.03 o
-3 13 5 15.99 14.40 0.63 o
-3 13 6 7.15 6.17 0.95 o
-3 13 7 15.42 15.72 1.54 o
-3 13 8 15.57 14.28 1.52 o
-3 13 10 3.35 3.23 0.94 o
-3 13 11 3.93 3.66 0.74 o
-3 14 1 47.53 48.51 1.33 o
-3 14 3 40.12 39.14 1.17 o
-3 14 4 18.64 17.42 0.71 o
-3 14 5 86.53 84.22 2.76 o
-3 14 7 33.89 34.33 2.38 o
-3 14 8 12.27 10.60 1.38 o
-3 14 10 12.34 12.01 1.62 o
-3 15 1 19.40 22.03 0.85 o
-3 15 2 30.85 28.80 0.95 o
-3 15 4 19.48 20.05 0.99 o
-3 15 5 357.78 354.51 11.53 o
-3 15 6 110.65 110.08 4.27 o
-3 15 7 113.62 118.58 4.56 o
-3 15 8 16.97 17.86 1.85 o
-3 16 1 23.95 22.56 0.92 o
-3 16 2 3.41 3.58 0.33 o
-3 16 3 56.18 56.03 1.81 o
-3 16 4 127.74 129.66 3.08 o
-3 16 8 57.02 56.93 3.27 o
-3 16 9 14.64 13.87 1.78 o
-3 17 1 2.76 1.80 0.45 o
-3 17 3 0.51 0.84 0.24 o
-3 17 4 58.70 59.78 1.89 o
-3 17 5 1.00 1.51 0.39 o
-3 17 6 64.10 71.19 3.59 o
-3 17 7 2.14 3.17 0.78 o
-3 17 8 17.41 18.50 2.02 o
-3 18 2 1.19 0.99 0.26 o
-3 18 4 2.78 2.61 0.77 o
-3 18 5 19.78 19.38 1.29 o
-3 18 7 11.03 12.62 1.69 o
-3 18 8 16.22 17.15 2.08 o
-3 19 1 9.62 9.13 1.14 o
-3 19 2 4.96 5.39 0.48 o
-3 19 3 20.38 20.71 0.98 o
-3 19 4 25.43 24.13 1.61 o
-3 19 5 6.51 6.29 1.18 o
-3 19 6 22.72 21.90 2.17 o
-3 19 7 14.47 14.76 1.91 o
-3 19 8 16.84 12.88 1.96 o
-3 20 1 29.27 28.50 1.61 o
-3 20 2 4.62 3.70 1.07 o
-3 20 3 15.69 15.95 1.03 o
-3 20 5 16.77 18.46 2.06 o
-3 20 7 11.45 8.88 1.67 o
-3 21 1 35.06 32.33 1.85 o
-3 21 2 8.94 7.47 0.93 o
-3 21 3 7.48 7.90 0.96 o
-3 21 4 3.70 3.41 0.80 o
-3 21 6 16.49 18.76 2.42 o
-3 22 4 8.12 7.11 1.11 o
-3 23 1 6.44 6.87 1.07 o
-2 0 2 32.44 32.54 1.43 o
-2 0 4 216.53 207.89 4.07 o
-2 0 6 393.06 383.47 6.22 o
-2 0 8 14.20 13.62 0.61 o
-2 0 10 1.78 1.59 0.37 o
-2 0 12 62.57 59.84 2.27 o
-2 0 14 8.19 7.31 1.07 o
-2 1 1 212.57 221.44 5.44 o
-2 1 2 169.59 138.43 3.51 o
-2 1 3 432.78 425.31 8.85 o
-2 1 4 939.93 943.20 21.00 o
-2 1 5 683.94 699.56 22.10 o
-2 1 6 15.88 15.84 0.99 o
-2 1 7 0.74 1.16 0.18 o
-2 1 8 13.99 14.48 0.68 o
-2 1 10 62.82 63.44 1.68 o
-2 1 13 7.18 6.44 0.63 o
-2 1 14 4.42 4.35 0.78 o
-2 2 1 674.82 731.77 16.01 o
-2 2 2 459.27 444.63 9.46 o
-2 2 3 134.22 134.51 4.69 o
-2 2 4 84.40 85.87 5.34 o
-2 2 5 153.22 155.13 3.82 o
-2 2 7 13.87 15.21 0.58 o
-2 2 8 3.48 3.25 0.24 o
-2 2 9 5.15 4.71 0.34 o
-2 2 11 46.24 45.10 2.02 o
-2 2 12 16.81 15.37 0.96 o
-2 2 13 2.95 3.09 0.55 o
-2 3 1 32.08 26.82 1.38 o
-2 3 2 18.46 19.21 1.12 o
-2 3 3 279.45 291.89 7.71 o
-2 3 5 39.24 37.12 1.10 o
-2 3 6 117.38 114.50 2.93 o
-2 3 7 24.49 23.98 0.77 o
-2 3 8 7.65 7.25 0.35 o
-2 3 9 51.23 51.71 1.54 o
-2 3 11 7.83 7.16 0.77 o
-2 3 13 6.09 4.66 0.79 o
-2 4 1 400.66 384.02 7.73 o
-2 4 2 311.96 322.49 6.76 o
-2 4 4 7.80 7.25 0.49 o
-2 4 5 43.60 44.96 2.28 o
-2 4 6 131.40 144.82 3.54 o
-2 4 7 195.45 206.92 4.75 o
-2 4 8 137.94 139.32 3.65 o
-2 4 9 14.68 13.34 0.57 o
-2 4 10 51.64 50.71 1.54 o
-2 4 11 3.37 3.16 0.62 o
-2 4 12 9.69 9.06 0.73 o
-2 5 1 51.38 49.62 1.45 o
-2 5 2 712.19 684.97 15.90 o
-2 5 3 213.79 212.20 4.52 o
-2 5 4 45.37 40.26 1.28 o
-2 5 5 21.66 20.10 0.82 o
-2 5 6 1.51 1.70 0.50 o
-2 5 7 166.03 166.73 3.65 o
-2 5 9 61.73 63.93 2.87 o
-2 5 10 13.85 13.35 0.80 o
-2 6 1 8.75 4.86 0.82 o
-2 6 2 6.59 4.90 0.45 o
-2 6 3 138.36 145.40 3.26 o
-2 6 5 0.88 1.42 0.31 o
-2 6 6 363.78 381.15 7.34 o
-2 6 7 4.85 5.76 0.55 o
-2 6 8 98.39 102.12 2.52 o
-2 6 9 29.66 28.77 1.19 o
-2 6 10 81.83 80.26 2.33 o
-2 6 13 2.61 2.73 0.65 o
-2 6 14 2.36 2.83 0.90 o
-2 7 1 157.60 160.77 3.49 o
-2 7 2 13.53 15.77 0.70 o
-2 7 3 0.23 0.77 0.18 o
-2 7 4 8.70 10.85 0.59 o
-2 7 5 108.00 115.77 3.27 o
-2 7 6 5.90 4.67 0.42 o
-2 7 7 36.98 37.56 1.79 o
-2 7 8 50.80 48.98 1.57 o
-2 7 9 48.29 48.09 3.98 o
-2 7 10 6.35 5.67 1.11 o
-2 7 11 6.31 6.32 1.90 o
-2 7 13 6.65 5.85 0.93 o
-2 8 1 81.49 75.20 2.36 o
-2 8 2 17.17 10.34 1.02 o
-2 8 4 1.10 1.37 0.25 o
-2 8 5 44.99 46.28 1.79 o
-2 8 6 0.70 0.55 0.17 o
-2 8 7 26.76 28.44 0.97 o
-2 8 8 1.96 1.39 0.37 o
-2 8 10 49.09 49.32 1.87 o
-2 8 11 32.52 33.09 1.58 o
-2 8 12 5.11 4.36 0.74 o
-2 9 1 3.85 4.93 0.60 o
-2 9 2 3.15 3.92 0.55 o
-2 9 3 58.32 56.83 1.57 o
-2 9 4 3.64 3.04 0.27 o
-2 9 5 67.73 69.62 1.75 o
-2 9 6 190.11 190.36 3.91 o
-2 9 7 2.09 1.89 0.63 o
-2 9 8 6.42 6.97 0.48 o
-2 9 9 11.97 10.84 1.26 o
-2 9 10 53.08 52.12 1.68 o
-2 9 13 6.41 5.61 1.16 o
-2 10 1 138.05 136.62 4.70 o
-2 10 2 7.74 5.09 0.69 o
-2 10 3 7.37 7.51 0.43 o
-2 10 4 48.30 46.56 1.51 o
-2 10 5 41.76 39.00 1.33 o
-2 10 6 65.11 61.95 1.59 o
-2 10 7 10.87 10.95 0.69 o
-2 10 8 1.52 1.17 0.34 o
-2 10 9 7.62 8.43 0.71 o
-2 10 11 5.87 5.94 0.98 o
-2 10 12 36.51 36.22 1.98 o
-2 11 1 25.63 29.36 1.11 o
-2 11 2 85.49 79.54 1.98 o
-2 11 3 45.46 48.70 1.27 o
-2 11 4 341.21 340.26 7.55 o
-2 11 5 7.40 7.58 0.53 o
-2 11 6 14.82 14.92 2.19 o
-2 11 7 28.62 28.56 2.02 o
-2 11 10 18.30 18.49 1.40 o
-2 12 2 7.11 6.44 0.39 o
-2 12 3 85.56 87.33 2.22 o
-2 12 4 10.30 9.25 0.41 o
-2 12 5 16.35 14.81 0.61 o
-2 12 6 3.37 3.04 0.57 o
-2 12 9 3.47 2.64 0.83 o
-2 12 10 17.00 17.80 1.78 o
-2 13 1 3.31 3.54 0.26 o
-2 13 2 13.45 13.96 0.50 o
-2 13 4 6.48 6.64 0.35 o
-2 13 6 54.12 51.41 1.74 o
-2 13 9 18.70 18.67 1.83 o
-2 14 1 54.74 55.78 1.46 o
-2 14 2 3.91 3.61 0.30 o
-2 14 3 24.84 23.99 0.82 o
-2 14 4 1.81 1.95 0.29 o
-2 14 5 27.85 27.16 1.13 o
-2 14 7 144.32 144.45 4.89 o
-2 14 8 13.51 14.15 1.56 o
-2 14 9 3.94 3.43 1.01 o
-2 14 10 14.48 12.37 1.60 o
-2 14 11 3.46 2.87 0.94 o
-2 14 12 5.39 4.44 1.25 o
-2 15 1 13.09 12.72 0.77 o
-2 15 2 2.99 3.60 0.32 o
-2 15 3 53.38 55.46 1.51 o
-2 15 4 27.12 26.65 1.02 o
-2 15 5 10.83 11.17 0.78 o
-2 15 6 51.30 51.12 1.86 o
-2 15 7 168.49 171.15 5.52 o
-2 15 8 71.56 71.61 3.58 o
-2 15 9 86.29 90.79 4.15 o
-2 16 1 96.20 97.64 6.19 o
-2 16 2 5.33 5.29 0.44 o
-2 16 3 13.52 12.27 0.64 o
-2 16 5 25.65 27.44 1.13 o
-2 16 6 117.96 119.70 6.24 o
-2 16 7 14.30 15.52 1.67 o
-2 16 8 5.37 6.07 1.08 o
-2 16 10 28.72 25.45 2.55 o
-2 16 11 8.68 7.85 2.06 o
-2 17 1 19.66 20.63 0.89 o
-2 17 2 18.14 18.43 1.12 o
-2 17 6 26.28 25.81 2.39 o
-2 17 8 38.17 40.83 2.82 o
-2 17 10 8.06 6.26 1.43 o
-2 18 1 17.28 17.63 0.88 o
-2 18 7 6.60 6.85 1.35 o
-2 18 9 12.38 12.45 2.02 o
-2 19 1 5.46 5.12 0.64 o
-2 19 2 1.30 0.95 0.31 o
-2 19 3 22.66 22.94 1.12 o
-2 19 5 7.18 7.86 0.77 o
-2 19 6 21.06 20.24 2.14 o
-2 19 8 16.27 14.17 1.99 o
-2 19 9 7.91 6.78 1.67 o
-2 20 1 11.64 10.31 0.99 o
-2 20 3 6.42 6.95 0.82 o
-2 20 4 2.87 2.59 0.53 o
-2 20 5 18.46 17.00 1.14 o
-2 20 7 9.64 9.28 1.69 o
-2 21 2 1.89 1.62 0.51 o
-2 21 3 57.78 56.31 2.49 o
-2 21 4 9.28 8.64 0.96 o
-2 21 5 8.33 8.11 1.09 o
-2 21 7 3.73 3.97 1.22 o
-2 22 2 16.95 15.83 1.96 o
-2 23 3 8.89 8.18 1.16 o
-1 0 2 771.75 719.71 15.41 o
-1 0 4 269.24 247.78 5.18 o
-1 0 6 2.24 3.10 0.33 o
-1 0 8 200.50 202.53 4.18 o
-1 0 10 12.96 13.54 1.14 o
-1 0 12 1.55 1.51 0.46 o
-1 0 14 24.88 23.45 1.66 o
-1 1 1 272.13 281.43 17.90 o
-1 1 2 458.65 474.35 12.03 o
-1 1 3 538.70 547.49 14.37 o
-1 1 4 38.36 32.37 0.99 o
-1 1 5 100.13 103.29 3.22 o
-1 1 6 526.52 517.50 17.41 o
-1 1 7 246.47 262.93 7.92 o
-1 1 10 1.49 1.31 0.31 o
-1 1 12 25.43 23.49 0.98 o
-1 2 1 330.44 337.00 20.34 o
-1 2 2 42.65 51.95 1.92 o
-1 2 3 148.32 150.22 3.56 o
-1 2 4 97.54 88.50 2.24 o
-1 2 5 5.59 7.30 0.53 o
-1 2 7 10.20 10.32 0.46 o
-1 2 8 1.53 1.43 0.19 o
-1 2 9 17.00 17.03 0.65 o
-1 2 11 3.69 3.79 0.37 o
-1 2 12 1.56 1.40 0.33 o
-1 2 13 17.89 16.52 0.91 o
-1 2 14 6.08 4.14 0.83 o
-1 3 1 2669.74 2698.12 90.12 o
-1 3 2 255.54 247.83 5.80 o
-1 3 3 12.39 14.03 0.68 o
-1 3 4 40.93 33.37 1.17 o
-1 3 5 211.66 209.21 4.32 o
-1 3 7 12.10 12.87 0.64 o
-1 3 8 95.90 95.76 2.22 o
-1 3 9 5.10 5.71 0.37 o
-1 3 11 26.44 25.03 0.94 o
-1 3 12 4.47 4.35 0.45 o
-1 3 13 6.97 5.44 1.39 o
-1 4 1 1630.79 1565.07 34.36 o
-1 4 2 746.15 753.95 15.80 o
-1 4 3 266.14 264.64 5.60 o
-1 4 4 6.20 10.53 0.58 o
-1 4 6 2.29 2.20 0.45 o
-1 4 7 54.97 57.40 1.45 o
-1 4 8 43.60 45.70 1.18 o
-1 4 9 157.41 163.06 5.51 o
-1 4 10 196.56 203.34 5.38 o
-1 4 11 1.10 1.43 0.47 o
-1 4 12 15.55 14.29 1.04 o
-1 5 1 66.43 64.45 1.82 o
-1 5 2 341.74 323.06 11.98 o
-1 5 4 275.86 284.63 5.96 o
-1 5 5 149.18 146.92 3.20 o
-1 5 6 28.48 30.48 1.51 o
-1 5 7 4.10 3.77 0.28 o
-1 5 8 22.61 22.33 0.73 o
-1 5 9 44.94 42.65 1.23 o
-1 5 10 331.04 347.54 7.54 o
-1 5 11 23.58 22.14 1.80 o
-1 5 12 26.96 25.89 2.35 o
-1 6 1 602.85 593.07 9.97 o
-1 6 2 2335.69 2303.26 51.00 o
-1 6 3 6.97 8.08 0.51 o
-1 6 4 46.71 41.46 1.30 o
-1 6 5 18.57 18.24 0.77 o
-1 6 7 13.18 12.79 0.60 o
-1 6 8 198.42 205.46 6.39 o
-1 6 9 1.63 1.95 0.33 o
-1 6 10 165.75 169.25 3.82 o
-1 6 11 20.01 18.52 2.07 o
-1 6 12 24.69 24.10 1.41 o
-1 7 1 297.40 293.56 4.94 o
-1 7 2 169.69 173.14 3.48 o
-1 7 3 313.79 309.25 6.62 o
-1 7 4 11.76 10.71 0.81 o
-1 7 5 18.49 18.36 0.78 o
-1 7 6 3.70 3.43 0.36 o
-1 7 7 48.53 49.99 1.41 o
-1 7 8 3.18 3.52 0.43 o
-1 7 9 21.05 21.17 0.88 o
-1 7 10 11.44 10.78 0.67 o
-1 7 11 25.27 25.80 1.34 o
-1 7 12 4.15 3.60 0.66 o
-1 7 13 9.71 8.87 1.03 o
-1 8 1 2.67 4.88 0.37 o
-1 8 2 102.02 98.85 2.36 o
-1 8 3 30.80 29.82 1.06 o
-1 8 6 3.24 3.24 0.32 o
-1 8 8 5.72 5.37 0.50 o
-1 8 9 18.28 18.58 1.30 o
-1 8 12 37.78 37.76 1.87 o
-1 8 13 9.26 8.86 1.33 o
-1 9 1 33.49 30.41 1.45 o
-1 9 2 111.87 113.15 2.46 o
-1 9 3 9.26 8.89 1.69 o
-1 9 4 3.54 3.58 0.37 o
-1 9 5 64.50 61.50 1.62 o
-1 9 6 3.02 3.01 0.27 o
-1 9 7 65.50 66.21 2.00 o
-1 9 8 58.29 56.37 2.68 o
-1 9 10 2.97 3.52 0.45 o
-1 9 11 7.22 6.50 0.78 o
-1 9 12 11.75 12.61 1.13 o
-1 9 13 3.09 2.87 0.77 o
-1 10 1 7.61 8.13 0.76 o
-1 10 2 3.03 2.15 0.41 o
-1 10 3 65.35 65.87 2.03 o
-1 10 4 3.85 3.26 0.26 o
-1 10 5 2.39 2.91 0.45 o
-1 10 6 4.09 3.94 0.33 o
-1 10 7 27.56 25.59 1.08 o
-1 10 8 60.55 60.58 2.94 o
-1 10 10 2.04 2.66 0.40 o
-1 10 11 2.65 3.09 0.84 o
-1 10 12 2.28 1.97 0.66 o
-1 11 1 9.10 10.13 0.93 o
-1 11 2 6.42 7.13 0.77 o
-1 11 3 69.99 74.03 1.87 o
-1 11 4 62.82 61.96 1.64 o
-1 11 5 77.19 77.00 1.93 o
-1 11 6 272.04 268.17 5.29 o
-1 11 8 13.86 12.10 1.27 o
-1 11 9 17.31 16.58 2.69 o
-1 11 12 12.36 11.30 1.17 o
-1 12 1 41.45 41.26 1.14 o
-1 12 2 5.43 5.16 0.32 o
-1 12 3 3.15 3.43 0.24 o
-1 12 4 4.07 4.11 0.37 o
-1 12 5 20.94 21.83 1.37 o
-1 12 7 6.65 5.06 0.53 o
-1 12 10 1.66 1.78 0.51 o
-1 12 12 3.05 3.00 0.83 o
-1 13 1 56.26 57.77 1.49 o
-1 13 2 2.00 2.15 0.21 o
-1 13 3 0.52 0.93 0.14 o
-1 13 4 8.21 8.42 0.40 o
-1 13 6 6.52 6.78 1.07 o
-1 13 8 47.40 45.01 2.52 o
-1 13 9 2.32 2.20 0.44 o
-1 13 11 11.90 10.49 1.06 o
-1 14 2 6.82 6.82 0.35 o
-1 14 3 52.39 53.64 1.50 o
-1 14 5 4.67 3.85 0.62 o
-1 14 6 4.39 4.76 0.56 o
-1 14 7 11.61 9.56 0.97 o
-1 14 8 5.96 6.06 1.09 o
-1 14 9 124.09 115.88 12.21 o
-1 14 10 24.33 22.77 2.10 o
-1 14 12 5.92 5.11 0.97 o
-1 15 1 66.08 70.65 2.83 o
-1 15 2 51.58 51.39 1.65 o
-1 15 3 1.76 1.59 0.24 o
-1 15 4 1.05 1.45 0.28 o
-1 15 5 61.66 61.88 2.78 o
-1 15 6 13.61 12.97 0.89 o
-1 15 7 16.92 14.81 1.80 o
-1 15 8 59.70 60.69 3.27 o
-1 15 9 42.45 41.05 2.74 o
-1 15 10 25.46 24.27 2.30 o
-1 15 11 41.25 39.28 3.16 o
-1 16 1 20.49 19.92 0.95 o
-1 16 2 128.16 130.22 3.00 o
-1 16 3 61.63 62.30 1.77 o
-1 16 4 8.93 9.02 0.58 o
-1 16 7 5.01 4.83 0.67 o
-1 16 8 72.61 73.49 3.70 o
-1 16 9 20.74 22.00 2.11 o
-1 16 10 14.82 15.69 2.01 o
-1 16 11 6.03 5.27 1.07 o
-1 17 1 3.80 4.11 0.48 o
-1 17 3 33.59 34.43 1.33 o
-1 17 4 15.71 15.89 0.83 o
-1 17 8 3.26 4.05 1.02 o
-1 17 10 17.37 16.06 2.19 o
-1 18 1 2.39 1.96 0.34 o
-1 18 2 14.40 14.09 1.11 o
-1 18 3 14.92 15.71 0.84 o
-1 18 5 1.55 1.55 0.39 o
-1 18 8 7.72 8.29 1.42 o
-1 19 1 5.19 5.63 0.54 o
-1 19 2 4.91 4.65 0.66 o
-1 19 3 15.82 14.50 0.88 o
-1 19 4 0.92 1.25 0.42 o
-1 19 5 23.38 24.30 1.26 o
-1 19 8 9.07 8.43 1.62 o
-1 20 1 39.17 38.34 1.52 o
-1 20 2 2.43 2.46 0.56 o
-1 20 3 6.06 6.14 0.80 o
-1 20 7 12.98 12.70 1.91 o
-1 21 1 45.29 45.02 2.51 o
-1 21 5 52.87 51.02 2.16 o
-1 21 6 6.92 6.67 1.03 o
-1 21 7 8.76 9.04 1.79 o
-1 22 2 1.94 2.25 0.65 o
-1 22 4 13.19 12.86 1.39 o
0 0 2 1107.53 1053.10 23.65 o
0 0 4 116.14 107.02 2.92 o
0 0 6 117.10 112.72 3.03 o
0 0 8 19.50 17.82 0.71 o
0 0 10 77.98 79.94 2.16 o
0 0 12 6.71 7.37 0.74 o
0 1 2 2315.53 2446.48 61.69 o
0 1 3 28.85 30.94 0.88 o
0 1 4 77.20 81.16 2.93 o
0 1 5 243.97 231.44 4.90 o
0 1 6 2.08 2.36 0.25 o
0 1 7 43.11 40.68 2.03 o
0 1 8 224.70 229.61 5.42 o
0 1 9 79.02 81.91 1.96 o
0 1 10 6.86 5.95 0.57 o
0 1 11 1.84 1.45 0.41 o
0 1 14 5.58 4.26 0.87 o
0 2 0 583.40 572.75 13.15 o
0 2 1 1847.79 1798.10 38.75 o
0 2 2 45.57 52.32 1.95 o
0 2 3 6.50 5.15 0.42 o
0 2 4 11.10 12.70 0.47 o
0 2 5 14.82 11.22 0.51 o
0 2 6 7.18 6.79 0.77 o
0 2 7 1.09 0.61 0.20 o
0 2 8 12.01 11.01 0.42 o
0 2 9 0.22 0.47 0.13 o
0 2 10 6.21 6.01 0.41 o
0 2 11 11.92 12.35 0.77 o
0 2 14 4.69 4.28 1.27 o
0 3 1 28.05 28.94 1.26 o
0 3 2 194.79 166.55 4.10 o
0 3 3 2270.56 2160.78 141.00 o
0 3 4 131.81 136.06 3.22 o
0 3 5 10.72 11.31 0.90 o
0 3 6 20.98 14.95 1.03 o
0 3 7 39.91 37.91 1.16 o
0 3 9 1.06 0.80 0.21 o
0 3 10 59.74 59.85 1.59 o
0 3 12 9.68 8.99 0.70 o
0 3 13 12.50 9.79 1.43 o
0 4 0 454.66 406.64 8.77 o
0 4 1 118.42 115.78 2.87 o
0 4 2 2192.54 2249.06 49.39 o
0 4 3 465.50 484.26 9.00 o
0 4 4 98.82 92.24 5.32 o
0 4 5 143.25 146.41 3.42 o
0 4 6 1.14 1.27 0.30 o
0 4 8 0.60 0.57 0.17 o
0 4 9 37.93 38.87 1.14 o
0 4 10 3.61 3.28 0.49 o
0 4 11 94.80 97.93 2.69 o
0 4 12 130.11 141.17 5.02 o
0 5 1 27.48 33.07 1.15 o
0 5 2 503.85 518.51 9.57 o
0 5 3 26.73 24.96 1.28 o
0 5 4 438.52 443.12 18.34 o
0 5 5 2.13 1.26 0.37 o
0 5 6 54.77 62.86 2.21 o
0 5 7 56.60 57.87 1.50 o
0 5 8 14.57 14.86 0.55 o
0 5 10 43.13 42.10 1.55 o
0 5 11 5.99 5.67 0.78 o
0 5 12 50.27 51.55 3.00 o
0 5 13 5.59 5.57 1.24 o
0 5 14 19.64 17.67 2.27 o
0 6 0 667.17 595.91 32.47 o
0 6 1 16.92 17.69 0.70 o
0 6 2 2.44 4.78 0.54 o
0 6 3 274.15 269.00 5.14 o
0 6 4 682.43 670.50 10.41 o
0 6 5 69.70 64.63 2.13 o
0 6 6 37.07 34.96 1.69 o
0 6 9 16.85 16.46 0.74 o
0 6 10 67.43 69.18 1.93 o
0 6 11 1.67 1.66 0.44 o
0 6 12 122.17 132.98 4.93 o
0 6 13 10.21 10.16 1.61 o
0 7 1 20.92 26.83 0.90 o
0 7 2 162.00 174.80 3.67 o
0 7 3 346.16 349.90 5.99 o
0 7 4 230.14 233.55 4.39 o
0 7 5 195.14 201.44 4.21 o
0 7 6 3.02 2.27 0.41 o
0 7 7 7.68 7.55 0.65 o
0 7 9 10.09 9.76 0.57 o
0 7 10 16.31 15.93 0.89 o
0 7 11 9.73 9.16 0.68 o
0 7 13 15.94 15.31 1.92 o
0 8 0 115.20 118.20 3.83 o
0 8 1 77.44 73.93 1.87 o
0 8 2 153.65 151.10 3.35 o
0 8 3 7.17 8.53 0.72 o
0 8 4 46.63 44.01 1.69 o
0 8 6 1.19 1.11 0.19 o
0 8 8 9.16 9.51 0.77 o
0 8 9 2.95 2.40 0.31 o
0 8 10 5.58 5.61 0.49 o
0 8 11 12.60 12.92 0.98 o
0 8 14 19.37 19.95 2.60 o
0 9 1 263.08 265.00 5.58 o
0 9 2 92.20 105.98 3.57 o
0 9 3 16.85 16.90 0.75 o
0 9 4 61.18 64.25 2.15 o
0 9 5 7.41 7.25 0.43 o
0 9 6 8.01 7.55 0.39 o
0 9 7 44.39 40.97 1.95 o
0 9 8 6.13 6.20 1.32 o
0 9 9 42.67 42.08 1.55 o
0 9 10 5.98 5.77 0.52 o
0 9 11 1.17 1.33 0.39 o
0 10 0 2279.02 2296.03 54.41 o
0 10 1 1144.60 1170.85 18.70 o
0 10 2 8.93 12.29 1.37 o
0 10 3 14.77 15.42 0.72 o
0 10 4 0.95 1.29 0.19 o
0 10 5 7.23 7.80 0.40 o
0 10 6 16.47 14.47 0.65 o
0 10 7 22.30 21.70 1.17 o
0 10 8 4.18 3.66 0.39 o
0 10 9 8.15 6.68 1.12 o
0 10 10 34.59 34.05 1.75 o
0 11 1 19.53 22.26 1.30 o
0 11 2 472.94 484.84 7.79 o
0 11 3 30.13 31.86 0.93 o
0 11 4 5.54 5.84 0.34 o
0 11 5 60.98 61.48 1.52 o
0 11 6 28.81 27.79 0.99 o
0 11 7 40.82 38.77 1.50 o
0 11 8 146.12 146.91 5.68 o
0 11 10 9.40 8.59 0.86 o
0 12 0 237.79 244.19 5.17 o
0 12 1 84.61 80.65 2.09 o
0 12 2 107.25 107.44 4.47 o
0 12 3 5.85 5.09 0.36 o
0 12 4 1.14 0.63 0.18 o
0 12 5 17.89 17.18 0.64 o
0 12 6 4.87 4.61 0.69 o
0 12 9 5.93 6.27 1.10 o
0 12 10 6.37 5.40 1.03 o
0 13 1 31.40 31.54 0.94 o
0 13 2 112.28 115.55 2.65 o
0 13 3 67.46 70.58 1.82 o
0 13 6 1.73 2.37 0.56 o
0 13 8 6.33 6.68 0.66 o
0 13 10 20.23 15.11 1.74 o
0 13 11 8.87 9.23 1.86 o
0 13 12 5.75 4.15 1.31 o
0 14 0 40.67 40.53 1.98 o
0 14 1 46.76 45.76 1.32 o
0 14 2 237.07 245.29 5.10 o
0 14 3 6.79 7.40 0.47 o
0 14 5 28.71 30.40 1.24 o
0 14 8 3.35 3.50 0.57 o
0 14 10 20.95 20.59 1.93 o
0 14 11 66.24 63.37 3.29 o
0 14 12 16.71 15.05 2.10 o
0 15 1 50.05 52.19 1.59 o
0 15 2 8.31 8.48 0.51 o
0 15 3 50.11 50.35 1.48 o
0 15 4 77.44 79.02 2.07 o
0 15 5 18.42 17.09 0.96 o
0 15 7 35.69 31.65 2.36 o
0 15 8 4.08 2.73 0.85 o
0 15 9 12.37 12.05 1.09 o
0 15 10 40.22 40.10 3.02 o
0 16 0 15.16 14.24 1.35 o
0 16 1 15.29 16.13 0.89 o
0 16 2 2.85 2.07 0.39 o
0 16 3 6.07 6.00 0.53 o
0 16 4 74.39 75.31 2.06 o
0 16 5 14.13 14.15 0.77 o
0 16 6 11.06 10.38 1.37 o
0 16 10 28.70 29.72 2.66 o
0 16 11 11.51 11.60 1.98 o
0 17 1 19.57 18.35 1.27 o
0 17 2 38.58 36.60 2.68 o
0 17 3 3.16 3.96 0.77 o
0 17 4 1.83 1.66 0.35 o
0 17 5 32.25 31.29 1.26 o
0 17 6 11.12 9.63 1.02 o
0 17 7 2.24 2.15 0.53 o
0 18 0 10.97 9.51 1.14 o
0 18 1 14.15 13.43 1.47 o
0 18 2 28.15 28.52 1.43 o
0 18 4 4.89 4.31 0.48 o
0 18 5 10.76 11.18 0.77 o
0 18 7 2.52 2.78 0.63 o
0 18 10 7.62 7.66 1.76 o
0 19 1 49.76 47.89 1.88 o
0 19 2 3.25 2.39 0.50 o
0 19 3 16.89 17.45 1.13 o
0 19 4 3.26 2.36 0.54 o
0 19 5 19.90 17.86 1.06 o
0 19 7 11.39 9.74 2.78 o
0 20 0 10.36 8.73 1.23 o
0 20 1 162.00 163.88 4.17 o
0 20 2 38.62 37.35 1.93 o
0 20 3 14.16 13.75 1.13 o
0 20 7 13.77 11.51 3.19 o
0 21 1 4.47 4.98 1.47 o
0 21 2 48.25 48.69 4.20 o
0 21 3 55.91 56.56 2.45 o
0 21 5 4.06 3.27 0.60 o
0 21 7 26.73 24.25 3.38 o
0 22 0 44.11 41.09 2.90 o
0 22 1 6.29 6.42 0.92 o
0 22 2 29.80 29.04 1.83 o
0 22 3 7.41 9.03 1.09 o
0 22 6 9.24 8.47 1.21 o
0 23 1 16.22 17.14 1.26 o
0 24 0 34.77 31.98 3.11 o
0 24 1 4.16 2.76 0.92 o
0 24 2 6.80 5.80 1.53 o
1 0 4 1076.19 1049.56 20.06 o
1 0 6 4.36 3.45 0.50 o
1 0 8 43.52 44.86 1.21 o
1 0 10 47.90 47.51 2.43 o
1 0 12 22.58 23.45 1.98 o
1 1 0 2680.83 2879.64 61.23 o
1 1 1 1790.67 1605.54 83.51 o
1 1 2 2673.61 2634.95 57.68 o
1 1 3 894.59 884.80 20.91 o
1 1 4 543.54 560.68 11.91 o
1 1 5 5.21 6.12 0.35 o
1 1 6 19.26 21.09 0.88 o
1 1 7 57.22 56.57 1.61 o
1 1 9 22.86 21.19 0.63 o
1 1 10 70.37 72.46 2.06 o
1 1 11 18.72 19.13 1.05 o
1 1 12 8.34 7.89 0.87 o
1 2 0 456.84 507.29 11.44 o
1 2 1 1772.37 1555.58 36.35 o
1 2 2 102.86 101.76 3.65 o
1 2 3 807.69 797.64 16.32 o
1 2 4 0.39 1.00 0.16 o
1 2 5 52.80 52.16 1.99 o
1 2 6 0.45 0.72 0.20 o
1 2 7 24.71 24.81 0.79 o
1 2 10 20.68 19.16 0.76 o
1 2 12 10.62 10.34 1.93 o
1 2 13 5.87 4.71 0.75 o
1 3 0 0.51 0.72 0.14 o
1 3 1 28.07 26.55 0.94 o
1 3 2 2.66 3.30 0.31 o
1 3 4 247.86 219.49 6.60 o
1 3 5 848.69 893.23 17.26 o
1 3 6 57.23 62.13 1.68 o
1 3 8 4.54 3.97 0.24 o
1 3 9 1.92 1.67 0.19 o
1 3 10 2.41 2.20 0.30 o
1 3 12 22.61 24.20 2.05 o
1 3 14 14.83 10.95 1.73 o
1 4 0 2487.88 2315.93 49.32 o
1 4 1 131.42 124.63 3.24 o
1 4 2 60.14 55.78 2.03 o
1 4 3 34.19 25.11 1.33 o
1 4 4 708.18 721.67 12.17 o
1 4 5 31.14 33.25 1.52 o
1 4 6 0.34 1.65 0.41 o
1 4 7 58.43 62.08 1.64 o
1 4 8 3.23 3.41 0.28 o
1 4 11 16.47 16.61 1.06 o
1 4 13 41.57 41.04 2.79 o
1 4 14 47.87 50.09 3.54 o
1 5 0 1592.38 1541.29 33.28 o
1 5 1 30.47 37.46 2.33 o
1 5 2 78.06 76.73 1.94 o
1 5 3 54.80 54.25 2.00 o
1 5 4 49.02 52.11 1.92 o
1 5 5 8.22 8.89 0.81 o
1 5 6 317.31 322.61 5.89 o
1 5 7 2.14 1.74 0.23 o
1 5 8 9.85 9.54 0.46 o
1 5 9 15.62 15.03 0.83 o
1 5 10 6.09 5.69 0.57 o
1 5 12 28.51 29.13 2.29 o
1 6 0 33.78 34.63 1.04 o
1 6 1 8.71 8.33 0.45 o
1 6 2 332.93 308.88 6.58 o
1 6 3 12.63 13.46 0.95 o
1 6 4 42.24 45.65 1.79 o
1 6 5 49.46 51.71 1.91 o
1 6 6 76.97 72.74 1.97 o
1 6 7 59.11 59.13 1.59 o
1 6 8 21.38 20.10 0.72 o
1 6 9 4.12 4.62 0.50 o
1 6 11 8.86 8.59 0.82 o
1 6 12 11.22 12.36 1.52 o
1 6 14 51.37 53.15 3.82 o
1 7 0 95.58 112.77 2.62 o
1 7 1 59.54 67.90 1.81 o
1 7 2 0.98 1.38 0.19 o
1 7 3 26.29 23.49 0.90 o
1 7 4 92.17 91.23 2.54 o
1 7 5 213.34 228.78 4.64 o
1 7 6 136.24 137.66 3.28 o
1 7 7 62.11 63.62 1.69 o
1 7 12 17.58 17.65 1.28 o
1 8 0 387.00 405.08 8.15 o
1 8 1 17.12 15.48 0.63 o
1 8 2 16.45 19.99 0.74 o
1 8 3 108.24 105.47 2.49 o
1 8 4 6.05 5.03 1.12 o
1 8 5 18.79 19.15 1.24 o
1 8 6 21.25 20.79 0.72 o
1 8 7 7.82 8.14 0.42 o
1 8 10 11.26 10.66 0.83 o
1 8 11 5.04 5.81 0.71 o
1 8 13 7.62 7.82 1.59 o
1 9 0 6.20 11.18 0.89 o
1 9 1 555.89 567.22 11.50 o
1 9 2 200.55 206.24 4.29 o
1 9 3 28.64 28.23 1.02 o
1 9 4 99.40 106.18 2.47 o
1 9 5 10.28 9.43 0.50 o
1 9 6 24.43 25.20 0.82 o
1 9 7 5.38 5.10 0.38 o
1 9 8 8.87 9.08 0.55 o
1 9 9 17.78 18.91 1.02 o
1 9 11 18.56 16.91 1.17 o
1 10 0 137.03 148.15 3.24 o
1 10 1 858.66 875.73 16.54 o
1 10 2 1541.17 1585.59 32.37 o
1 10 3 871.10 905.63 16.64 o
1 10 4 23.26 22.01 0.79 o
1 10 5 18.61 19.35 0.68 o
1 10 6 4.53 4.45 0.35 o
1 10 8 14.52 13.68 0.68 o
1 10 9 30.48 29.97 1.33 o
1 10 10 15.74 15.70 1.05 o
1 10 12 12.22 11.48 1.17 o
1 11 0 531.85 541.63 8.54 o
1 11 1 0.26 1.20 0.32 o
1 11 2 127.74 133.33 2.97 o
1 11 3 99.34 99.35 2.30 o
1 11 4 247.41 257.47 5.50 o
1 11 5 25.68 27.51 0.91 o
1 11 6 4.45 4.19 0.35 o
1 11 7 23.59 21.75 1.01 o
1 11 8 6.13 6.08 0.58 o
1 11 9 7.89 8.25 1.32 o
1 11 10 54.01 52.64 5.62 o
1 11 12 3.98 3.85 0.88 o
1 11 13 5.00 4.74 1.46 o
1 12 0 69.11 70.86 1.92 o
1 12 1 99.54 97.07 3.12 o
1 12 2 198.61 204.20 6.18 o
1 12 3 75.72 74.69 1.84 o
1 12 4 75.87 76.84 2.06 o
1 12 5 6.73 6.62 0.38 o
1 12 7 22.49 22.95 1.18 o
1 12 8 5.96 6.28 0.62 o
1 12 10 3.99 3.60 0.95 o
1 12 11 7.03 6.51 1.31 o
1 12 12 8.28 7.11 1.88 o
1 13 0 13.26 13.80 0.61 o
1 13 1 20.45 22.06 0.81 o
1 13 2 1.52 1.64 0.46 o
1 13 3 43.01 43.37 1.27 o
1 13 4 196.17 197.65 6.09 o
1 13 5 36.04 36.66 1.17 o
1 13 6 0.47 0.98 0.31 o
1 13 10 4.72 3.64 1.04 o
1 14 0 269.32 274.84 6.05 o
1 14 1 37.68 36.77 1.25 o
1 14 2 28.49 28.33 1.11 o
1 14 3 39.06 39.94 1.55 o
1 14 4 114.60 115.92 2.79 o
1 14 5 19.89 19.75 0.98 o
1 14 6 8.71 8.74 0.68 o
1 14 7 10.17 9.86 0.80 o
1 14 12 22.79 24.24 1.99 o
1 15 0 43.88 45.06 1.45 o
1 15 1 45.17 47.20 2.33 o
1 15 3 49.39 47.29 1.58 o
1 15 5 24.46 23.75 1.13 o
1 15 6 62.03 67.70 3.18 o
1 15 7 20.87 20.67 1.16 o
1 15 9 10.98 9.55 0.97 o
1 15 11 5.40 4.31 0.90 o
1 16 1 29.14 26.18 1.86 o
1 16 2 11.05 13.14 0.81 o
1 16 3 2.88 2.92 0.42 o
1 16 4 12.44 12.97 0.83 o
1 16 5 2.24 2.55 0.44 o
1 16 6 26.51 25.16 2.04 o
1 16 8 9.98 7.37 1.31 o
1 17 0 18.08 17.91 0.96 o
1 17 1 22.05 20.64 1.71 o
1 17 2 6.12 5.86 0.62 o
1 17 3 10.23 8.78 0.60 o
1 17 4 33.02 33.33 1.24 o
1 17 5 3.46 2.84 0.70 o
1 17 6 5.53 5.35 1.02 o
1 17 7 16.80 15.47 1.78 o
1 17 8 4.70 2.70 0.65 o
1 18 0 60.70 61.91 1.99 o
1 18 2 4.04 3.39 0.51 o
1 18 3 28.23 26.45 1.82 o
1 18 7 6.52 8.24 1.00 o
1 19 0 3.29 2.86 0.81 o
1 19 1 106.70 110.24 4.23 o
1 19 2 5.42 4.02 0.62 o
1 19 3 4.44 3.96 0.89 o
1 19 4 10.65 8.73 0.70 o
1 19 5 20.03 19.67 1.11 o
1 19 7 14.27 13.77 1.81 o
1 20 0 70.95 68.77 3.37 o
1 20 1 88.89 88.58 2.84 o
1 20 2 7.21 6.48 0.81 o
1 20 3 166.37 169.43 4.39 o
1 20 4 11.12 10.34 1.86 o
1 21 0 57.89 56.33 2.63 o
1 21 1 24.66 24.91 1.55 o
1 21 2 2.72 2.85 0.73 o
1 21 4 31.81 31.30 1.85 o
1 21 5 41.72 36.98 2.11 o
1 22 0 26.07 24.45 1.40 o
1 22 1 3.89 3.65 0.76 o
1 22 2 42.03 39.09 2.14 o
1 22 3 2.92 2.80 0.80 o
1 22 4 20.28 18.19 2.57 o
1 22 5 14.49 13.07 1.43 o
1 23 1 7.27 7.29 0.85 o
1 23 3 24.19 24.17 1.85 o
1 23 4 8.09 6.88 1.11 o
1 24 0 8.53 6.65 1.07 o
2 0 0 1854.34 1795.70 48.88 o
2 0 2 65.64 73.23 1.88 o
2 0 4 6132.17 5225.46 544.91 o
2 0 6 533.50 537.31 7.80 o
2 0 8 4.84 4.45 0.44 o
2 0 10 14.29 15.36 1.33 o
2 0 12 42.21 43.50 2.68 o
2 0 14 2.92 3.86 1.24 o
2 1 0 205.32 232.08 5.32 o
2 1 1 483.63 484.23 10.76 o
2 1 2 938.06 931.70 23.01 o
2 1 3 1080.93 1104.23 23.82 o
2 1 4 2172.79 2105.04 47.26 o
2 1 5 214.64 208.06 5.18 o
2 1 6 65.96 71.86 3.92 o
2 1 7 1.75 2.28 0.24 o
2 1 8 3.70 3.92 0.25 o
2 1 9 7.73 7.63 0.38 o
2 1 11 11.63 10.93 0.84 o
2 1 12 9.70 9.79 0.87 o
2 1 13 4.03 3.50 0.98 o
2 1 14 3.91 2.95 0.77 o
2 2 0 38.27 47.22 1.84 o
2 2 1 281.38 267.68 5.75 o
2 2 2 599.78 639.60 13.75 o
2 2 3 220.69 225.92 4.84 o
2 2 4 9.80 9.32 0.58 o
2 2 5 388.61 393.68 7.64 o
2 2 6 7.06 8.72 0.53 o
2 2 7 83.04 85.83 2.22 o
2 2 8 0.48 0.58 0.19 o
2 2 9 22.37 23.91 0.89 o
2 2 12 14.33 14.31 1.06 o
2 2 14 9.72 9.50 1.67 o
2 3 0 20.77 20.61 1.17 o
2 3 1 900.60 927.69 19.47 o
2 3 2 8.42 11.20 0.47 o
2 3 3 206.46 198.10 4.27 o
2 3 4 17.55 17.65 0.61 o
2 3 5 2.09 2.70 0.30 o
2 3 6 164.98 165.88 3.50 o
2 3 7 283.58 299.62 6.15 o
2 3 8 15.10 15.34 0.77 o
2 3 9 2.68 3.36 0.41 o
2 3 10 1.73 1.74 0.31 o
2 3 12 3.16 4.14 1.06 o
2 3 14 4.23 4.10 1.28 o
2 4 0 1315.47 1280.03 29.53 o
2 4 1 1628.82 1677.90 37.65 o
2 4 2 668.08 639.37 13.64 o
2 4 3 18.99 19.89 0.59 o
2 4 4 0.88 1.37 0.19 o
2 4 6 171.60 183.09 4.08 o
2 4 7 1.75 1.58 0.24 o
2 4 8 29.79 28.52 0.90 o
2 4 9 24.63 25.77 1.11 o
2 5 0 10.47 10.27 0.84 o
2 5 1 56.85 50.64 1.55 o
2 5 2 1070.64 1142.55 24.78 o
2 5 3 20.10 22.76 0.75 o
2 5 4 59.41 66.72 1.74 o
2 5 5 30.47 29.80 1.45 o
2 5 7 2.09 2.15 0.55 o
2 5 8 135.72 131.43 3.04 o
2 5 11 2.75 2.94 0.56 o
2 5 14 9.96 10.99 1.90 o
2 6 0 2821.39 2731.38 60.86 o
2 6 1 397.15 390.06 9.37 o
2 6 2 138.44 136.62 3.09 o
2 6 3 20.21 16.60 0.81 o
2 6 4 78.80 80.79 2.01 o
2 6 5 10.77 10.25 0.87 o
2 6 6 51.43 51.65 1.43 o
2 6 7 2.07 2.57 0.29 o
2 6 9 42.59 41.63 1.50 o
2 6 10 9.83 9.67 1.12 o
2 6 11 3.16 3.28 0.58 o
2 7 0 31.82 31.14 1.51 o
2 7 1 147.93 150.41 3.56 o
2 7 2 9.93 11.08 0.55 o
2 7 3 84.52 83.31 2.07 o
2 7 6 15.17 14.98 0.64 o
2 7 7 113.91 117.72 2.73 o
2 7 8 56.64 54.12 1.68 o
2 7 9 7.94 7.68 0.64 o
2 7 14 9.00 9.30 1.90 o
2 8 0 152.44 151.71 3.47 o
2 8 1 7.64 9.40 0.79 o
2 8 2 352.21 371.50 7.64 o
2 8 3 7.84 6.21 0.44 o
2 8 4 12.03 9.80 0.56 o
2 8 5 82.45 83.88 2.16 o
2 8 6 9.44 11.37 0.50 o
2 8 7 20.64 20.51 0.80 o
2 8 8 11.44 12.58 0.77 o
2 8 9 12.10 11.46 0.78 o
2 8 11 1.78 1.86 0.56 o
2 9 0 50.37 53.51 1.95 o
2 9 1 32.04 31.25 1.47 o
2 9 2 14.76 14.01 0.62 o
2 9 3 612.85 639.56 14.01 o
2 9 4 344.36 364.02 6.38 o
2 9 5 5.67 6.05 0.40 o
2 9 6 33.27 33.62 1.00 o
2 9 7 6.20 5.08 0.38 o
2 9 8 5.88 5.49 0.53 o
2 9 9 4.42 4.27 0.51 o
2 9 10 6.65 5.41 0.64 o
2 10 0 13.25 12.95 0.98 o
2 10 1 3.57 3.55 0.34 o
2 10 2 219.54 234.23 4.80 o
2 10 3 402.90 400.75 8.04 o
2 10 4 565.81 585.58 11.56 o
2 10 5 397.21 415.95 8.30 o
2 10 6 70.56 71.49 2.18 o
2 10 7 19.38 19.86 0.79 o
2 10 8 4.31 4.15 0.49 o
2 10 9 2.42 2.13 0.52 o
2 10 10 5.67 5.26 0.67 o
2 10 11 19.86 20.18 1.37 o
2 10 12 14.35 15.28 1.38 o
2 11 0 8.46 7.15 0.78 o
2 11 2 366.46 386.70 7.29 o
2 11 3 0.57 1.21 0.26 o
2 11 4 298.87 302.48 6.82 o
2 11 5 137.30 138.33 4.12 o
2 11 6 85.53 88.27 2.48 o
2 11 7 8.79 8.64 0.66 o
2 11 12 12.32 11.16 1.20 o
2 12 0 8.05 8.60 0.42 o
2 12 1 46.02 46.63 1.48 o
2 12 2 11.28 11.08 0.48 o
2 12 3 78.36 80.70 1.94 o
2 12 4 91.78 92.69 2.19 o
2 12 5 81.71 85.19 2.05 o
2 12 6 32.31 30.97 1.22 o
2 12 7 29.25 29.32 2.27 o
2 12 9 14.86 13.49 1.60 o
2 12 10 5.09 6.15 1.22 o
2 12 12 2.88 3.34 0.88 o
2 13 0 18.25 19.36 0.64 o
2 13 1 23.82 23.52 1.45 o
2 13 2 4.78 5.30 1.01 o
2 13 3 18.86 18.44 1.35 o
2 13 4 7.05 5.97 0.60 o
2 13 5 39.72 40.71 1.26 o
2 13 6 179.77 188.57 4.87 o
2 13 7 7.38 7.87 0.69 o
2 13 9 6.77 6.35 1.16 o
2 14 0 20.37 21.03 1.21 o
2 14 1 13.55 14.02 0.91 o
2 14 2 147.87 150.33 3.34 o
2 14 3 18.59 19.02 1.51 o
2 14 4 15.41 16.42 0.72 o
2 14 5 24.37 24.10 0.94 o
2 14 6 28.68 26.22 1.23 o
2 14 7 20.03 20.53 1.12 o
2 14 8 13.70 13.82 1.03 o
2 15 0 8.88 8.23 1.01 o
2 15 1 45.90 44.76 2.33 o
2 15 2 74.15 73.43 3.08 o
2 15 3 34.94 33.25 1.40 o
2 15 5 32.59 32.24 1.17 o
2 15 6 6.95 6.64 0.65 o
2 15 7 8.51 9.21 0.84 o
2 15 8 31.80 30.50 1.82 o
2 15 9 10.22 10.12 1.43 o
2 16 0 142.15 147.38 4.50 o
2 16 1 44.29 47.09 2.49 o
2 16 2 5.11 5.27 0.94 o
2 16 3 40.80 39.11 1.62 o
2 16 4 4.76 4.41 0.55 o
2 16 6 15.45 14.72 0.98 o
2 16 8 4.44 5.03 0.77 o
2 16 9 2.67 1.84 0.58 o
2 16 10 6.32 4.96 1.37 o
2 17 1 10.05 9.86 1.17 o
2 17 2 1.23 1.43 0.40 o
2 17 3 15.31 13.65 1.30 o
2 17 4 11.05 10.94 1.83 o
2 17 6 12.60 11.15 1.43 o
2 17 7 3.20 3.32 1.01 o
2 17 8 6.55 5.80 1.07 o
2 18 0 24.79 22.58 1.85 o
2 18 1 3.57 2.95 0.89 o
2 18 2 55.29 54.14 1.94 o
2 18 3 10.37 9.90 0.83 o
2 18 5 22.62 20.73 1.90 o
2 18 9 3.02 2.67 0.86 o
2 19 2 34.37 32.79 1.56 o
2 19 3 112.09 108.28 3.17 o
2 19 4 11.16 9.76 1.59 o
2 19 5 4.33 3.69 0.68 o
2 19 6 7.36 7.18 0.93 o
2 19 7 11.72 10.99 1.19 o
2 20 1 48.75 46.05 2.01 o
2 20 2 79.45 75.09 2.66 o
2 20 3 23.50 22.31 1.43 o
2 20 5 100.07 105.31 4.57 o
2 20 7 3.36 2.57 0.73 o
2 21 1 24.36 25.13 1.59 o
2 21 2 50.90 50.19 2.29 o
2 21 3 33.12 33.89 1.90 o
2 21 4 8.52 8.29 1.44 o
2 21 5 16.72 16.52 2.06 o
2 21 6 17.40 17.80 1.58 o
2 21 7 17.03 15.30 1.84 o
2 22 0 3.00 3.01 0.93 o
2 22 2 10.28 9.65 1.16 o
2 22 4 33.99 32.16 2.96 o
2 22 6 9.53 7.64 1.75 o
2 23 2 4.58 4.36 0.73 o
3 0 2 796.44 774.37 13.99 o
3 0 4 122.79 115.00 2.77 o
3 0 6 768.62 833.19 11.04 o
3 0 8 242.17 252.76 5.20 o
3 0 10 2.92 1.57 0.45 o
3 0 12 2.97 3.05 0.87 o
3 0 14 18.05 16.66 2.24 o
3 1 0 32.57 24.44 0.85 o
3 1 1 78.74 82.51 2.16 o
3 1 3 253.87 233.27 4.98 o
3 1 4 123.54 113.12 2.63 o
3 1 5 400.31 404.36 7.74 o
3 1 6 1171.91 1189.77 23.59 o
3 1 7 35.88 35.38 1.05 o
3 1 9 4.67 4.61 0.38 o
3 1 12 1.33 1.72 0.52 o
3 2 0 492.57 462.06 9.07 o
3 2 1 232.80 248.99 5.18 o
3 2 2 7.36 6.37 0.57 o
3 2 3 79.16 74.99 1.81 o
3 2 4 348.59 363.56 7.12 o
3 2 5 30.44 29.68 1.01 o
3 2 6 63.23 63.49 1.67 o
3 2 7 176.84 182.01 3.95 o
3 2 8 4.70 4.89 0.38 o
3 2 9 73.97 76.71 1.98 o
3 2 10 2.06 1.78 0.58 o
3 2 11 10.47 9.67 1.03 o
3 2 14 5.01 3.68 1.20 o
3 3 0 20.71 26.99 1.36 o
3 3 1 2.38 3.74 0.53 o
3 3 2 65.43 66.05 1.91 o
3 3 3 89.86 91.17 2.12 o
3 3 4 2.56 1.97 0.58 o
3 3 5 140.13 141.32 3.32 o
3 3 6 6.45 6.70 0.49 o
3 3 7 7.04 7.06 0.38 o
3 3 8 106.51 110.27 2.55 o
3 3 9 64.79 67.39 1.80 o
3 3 11 9.52 10.06 0.69 o
3 4 0 473.64 479.97 8.86 o
3 4 1 297.93 284.64 5.59 o
3 4 2 444.77 434.51 13.43 o
3 4 3 789.96 792.48 16.19 o
3 4 4 57.06 46.94 1.79 o
3 4 8 29.25 31.72 1.09 o
3 4 9 12.37 12.28 0.77 o
3 4 10 25.65 24.92 1.20 o
3 4 11 8.10 8.74 0.77 o
3 5 0 404.49 378.47 7.03 o
3 5 1 76.16 73.62 2.30 o
3 5 2 309.87 290.25 7.04 o
3 5 3 9.95 7.49 0.40 o
3 5 4 425.36 474.39 7.34 o
3 5 5 3.48 3.67 0.50 o
3 5 6 50.57 53.89 2.29 o
3 5 7 11.13 10.27 0.54 o
3 5 8 2.87 2.80 0.54 o
3 5 10 34.57 34.99 1.47 o
3 6 0 1.42 2.10 0.41 o
3 6 2 1331.08 1373.58 28.56 o
3 6 3 126.04 129.76 3.23 o
3 6 4 128.05 134.94 3.28 o
3 6 5 27.52 25.11 1.01 o
3 6 6 12.87 11.95 0.57 o
3 6 7 4.36 4.95 0.39 o
3 6 8 24.85 23.18 1.03 o
3 6 9 1.76 1.90 0.37 o
3 6 10 6.64 6.89 0.69 o
3 6 11 20.32 20.69 1.25 o
3 6 12 3.56 4.17 0.72 o
3 7 0 4.16 6.45 0.68 o
3 7 1 69.07 67.38 1.85 o
3 7 3 60.45 61.74 1.82 o
3 7 4 11.62 13.71 0.99 o
3 7 5 37.72 39.69 1.33 o
3 7 7 1.80 1.92 0.53 o
3 7 9 39.14 39.66 1.50 o
3 7 10 15.67 14.52 0.97 o
3 8 0 13.47 9.47 0.80 o
3 8 1 47.05 46.93 1.45 o
3 8 2 85.04 85.81 2.09 o
3 8 3 4.32 4.69 0.33 o
3 8 4 202.01 214.22 4.44 o
3 8 5 36.30 33.99 1.16 o
3 8 6 61.04 62.25 1.85 o
3 8 7 42.36 40.70 1.39 o
3 8 8 15.42 16.21 0.86 o
3 8 9 17.43 17.79 1.01 o
3 8 10 10.46 10.94 0.88 o
3 8 11 6.62 6.93 0.84 o
3 9 0 17.53 16.03 1.07 o
3 9 2 4.03 5.08 0.35 o
3 9 3 21.59 22.88 0.80 o
3 9 4 69.94 77.02 1.92 o
3 9 5 444.94 462.73 9.92 o
3 9 6 285.42 295.87 6.64 o
3 9 7 29.85 29.28 1.16 o
3 10 0 25.42 23.15 2.06 o
3 10 1 109.93 109.27 2.79 o
3 10 2 9.75 10.20 0.46 o
3 10 3 1.83 1.81 0.18 o
3 10 4 186.89 198.14 4.22 o
3 10 5 93.47 93.06 2.25 o
3 10 6 102.65 106.38 3.05 o
3 10 7 115.21 116.79 2.82 o
3 10 8 66.59 66.15 2.94 o
3 10 9 14.35 14.16 1.01 o
3 10 10 1.35 1.65 0.46 o
3 10 11 2.26 3.08 0.69 o
3 11 0 78.33 74.38 1.96 o
3 11 1 5.28 5.72 0.33 o
3 11 2 5.90 5.77 0.33 o
3 11 3 3.71 3.66 0.40 o
3 11 4 172.85 176.44 3.82 o
3 11 6 292.34 304.97 8.37 o
3 11 7 104.69 106.82 3.92 o
3 11 8 16.55 15.53 1.61 o
3 12 0 5.77 5.92 0.35 o
3 12 1 0.30 0.40 0.12 o
3 12 2 1.64 1.59 0.24 o
3 12 3 25.93 26.41 0.84 o
3 12 4 2.39 2.24 0.41 o
3 12 5 49.88 50.62 2.04 o
3 12 6 17.25 17.36 0.95 o
3 12 7 89.94 94.66 3.76 o
3 12 8 8.32 8.25 1.23 o
3 12 9 32.22 32.04 2.35 o
3 12 11 4.64 4.66 1.25 o
3 13 0 4.55 4.61 0.33 o
3 13 1 7.84 8.79 0.50 o
3 13 2 46.64 45.46 1.25 o
3 13 3 2.87 2.77 0.25 o
3 13 4 20.06 19.96 0.95 o
3 13 5 19.70 20.33 0.98 o
3 13 6 9.03 8.96 0.66 o
3 13 7 24.66 24.39 1.20 o
3 13 8 108.04 104.97 4.29 o
3 13 11 6.70 6.80 1.45 o
3 14 0 14.00 13.64 0.74 o
3 14 1 28.31 29.00 1.87 o
3 14 2 12.65 13.65 0.87 o
3 14 3 30.12 31.31 1.22 o
3 14 4 35.41 36.22 1.36 o
3 14 5 7.33 7.69 0.64 o
3 14 6 9.17 9.68 0.76 o
3 14 7 10.25 10.98 0.87 o
3 14 9 11.49 10.41 1.56 o
3 14 10 9.37 9.50 1.59 o
3 15 0 2.40 2.04 0.64 o
3 15 1 54.73 54.68 2.66 o
3 15 3 12.10 12.04 0.90 o
3 15 4 63.44 63.17 3.92 o
3 15 5 18.82 17.24 1.88 o
3 15 7 14.16 12.57 2.11 o
3 15 8 10.10 8.55 1.54 o
3 15 9 2.92 3.52 0.98 o
3 15 10 10.60 10.21 1.76 o
3 16 1 70.86 75.72 3.24 o
3 16 2 110.40 112.78 4.07 o
3 16 3 47.46 48.09 2.69 o
3 16 4 7.23 7.28 0.67 o
3 16 5 42.30 41.76 2.38 o
3 16 7 2.95 2.68 0.78 o
3 16 8 8.81 9.38 0.99 o
3 17 0 21.39 21.78 1.81 o
3 17 1 7.24 7.79 1.07 o
3 17 3 23.51 23.71 2.00 o
3 17 4 2.33 2.24 0.74 o
3 17 5 4.12 3.36 0.95 o
3 17 6 6.35 5.41 1.03 o
3 17 10 3.89 4.72 1.45 o
3 18 0 1.63 1.55 0.43 o
3 18 1 15.64 15.51 1.58 o
3 18 2 23.50 22.51 1.60 o
3 18 4 22.46 20.11 1.89 o
3 18 5 33.82 33.47 2.47 o
3 18 6 8.27 8.24 1.30 o
3 18 7 8.78 7.83 1.42 o
3 19 3 3.80 4.04 1.03 o
3 19 4 69.57 68.35 3.60 o
3 19 5 68.43 67.45 3.58 o
3 19 6 7.80 6.25 1.30 o
3 19 7 16.41 15.26 1.97 o
3 20 1 9.04 6.68 1.33 o
3 20 3 37.99 38.99 2.73 o
3 20 4 58.64 55.94 3.30 o
3 20 7 33.27 33.15 2.48 o
3 21 0 4.63 3.66 1.15 o
3 21 3 8.90 10.04 1.66 o
3 21 4 30.44 30.68 2.74 o
3 21 5 22.26 23.09 2.50 o
3 21 6 12.03 10.76 1.88 o
3 22 0 15.82 14.78 1.17 o
3 23 0 3.64 2.72 0.64 o
3 23 1 5.90 4.23 0.84 o
4 0 0 947.20 937.51 19.22 o
4 0 2 5.03 4.73 0.51 o
4 0 4 197.02 190.68 3.65 o
4 0 6 47.42 46.22 1.39 o
4 0 8 32.63 36.46 2.00 o
4 0 10 75.79 78.70 3.35 o
4 1 0 129.61 129.94 3.02 o
4 1 1 515.99 520.70 10.26 o
4 1 2 2.53 1.89 0.27 o
4 1 3 19.84 18.42 0.65 o
4 1 4 15.52 15.40 0.69 o
4 1 5 81.05 77.18 1.92 o
4 1 6 1.08 0.94 0.27 o
4 1 7 188.17 188.76 4.08 o
4 1 8 473.85 482.40 9.97 o
4 1 9 3.70 3.33 0.89 o
4 1 10 6.93 7.19 0.98 o
4 1 11 8.15 7.48 0.79 o
4 2 0 349.27 348.46 6.59 o
4 2 1 119.78 103.35 2.79 o
4 2 2 166.90 160.70 3.41 o
4 2 3 52.33 47.82 1.27 o
4 2 4 0.98 1.26 0.31 o
4 2 5 7.06 7.03 0.70 o
4 2 6 146.62 150.03 3.32 o
4 2 7 1.30 1.12 0.33 o
4 2 8 93.64 94.22 2.24 o
4 2 9 92.07 96.99 2.39 o
4 2 11 36.32 36.94 2.03 o
4 3 0 15.32 14.46 1.00 o
4 3 1 17.00 19.89 1.12 o
4 3 2 5.05 9.16 0.72 o
4 3 4 97.26 98.66 2.62 o
4 3 5 3.02 2.22 0.45 o
4 3 6 1.57 2.85 0.29 o
4 3 7 94.03 95.69 2.25 o
4 3 8 1.41 1.03 0.26 o
4 3 9 8.58 7.91 1.01 o
4 3 10 59.73 60.40 1.79 o
4 3 11 5.25 5.05 0.56 o
4 3 13 8.59 8.85 1.55 o
4 4 0 6.48 4.78 0.61 o
4 4 2 176.53 183.57 3.72 o
4 4 3 111.90 107.96 3.24 o
4 4 4 86.13 92.49 2.62 o
4 4 5 267.79 273.84 5.25 o
4 4 6 5.68 5.66 0.48 o
4 4 7 2.20 2.26 0.30 o
4 4 11 9.71 10.59 0.93 o
4 4 12 11.46 9.72 0.97 o
4 5 0 36.36 30.71 1.49 o
4 5 1 43.40 38.95 1.56 o
4 5 2 115.11 104.76 2.44 o
4 5 3 46.14 45.39 2.02 o
4 5 4 304.61 301.39 5.51 o
4 5 6 147.88 152.00 3.37 o
4 5 8 22.52 22.03 1.77 o
4 5 10 3.48 3.56 0.53 o
4 5 12 6.10 7.19 1.61 o
4 6 0 3.12 3.69 0.54 o
4 6 1 159.01 154.04 3.41 o
4 6 2 1.71 2.57 0.29 o
4 6 3 1.42 2.08 0.28 o
4 6 4 448.91 486.46 7.78 o
4 6 5 28.54 30.47 1.00 o
4 6 6 88.22 90.19 2.20 o
4 6 7 25.57 25.70 0.93 o
4 6 8 0.88 1.05 0.31 o
4 6 9 2.28 1.59 0.31 o
4 6 10 6.82 6.71 0.69 o
4 6 11 2.95 3.44 0.63 o
4 6 12 6.32 6.71 0.88 o
4 6 13 5.09 5.12 0.94 o
4 7 0 3.67 5.86 0.64 o
4 7 1 49.97 46.80 1.75 o
4 7 2 2.43 3.05 0.32 o
4 7 3 16.57 14.01 0.58 o
4 7 4 10.35 10.47 0.64 o
4 7 5 38.01 37.41 1.15 o
4 7 6 47.08 48.27 1.38 o
4 7 7 13.94 13.64 0.93 o
4 7 8 2.73 3.41 0.42 o
4 7 9 6.63 6.12 0.63 o
4 7 10 5.41 5.22 0.66 o
4 7 11 6.66 7.95 0.89 o
4 7 13 3.01 2.76 0.83 o
4 8 0 15.66 14.06 0.99 o
4 8 1 10.07 9.92 0.73 o
4 8 3 11.26 12.61 0.55 o
4 8 4 36.06 38.31 1.30 o
4 8 5 2.57 3.45 0.32 o
4 8 6 58.46 60.57 1.64 o
4 8 7 56.31 57.56 2.44 o
4 8 8 88.00 90.34 2.46 o
4 8 9 16.09 15.11 1.02 o
4 8 10 4.69 4.11 1.13 o
4 8 11 9.20 8.60 0.94 o
4 8 12 7.02 7.22 1.11 o
4 9 0 58.38 55.67 2.10 o
4 9 1 27.85 26.62 1.01 o
4 9 2 15.69 16.91 0.76 o
4 9 3 0.71 0.75 0.15 o
4 9 5 12.35 12.10 0.52 o
4 9 6 112.35 114.00 5.70 o
4 9 7 224.29 235.45 7.91 o
4 9 8 119.55 124.01 3.16 o
4 9 9 30.74 32.83 2.79 o
4 10 0 107.92 106.93 2.51 o
4 10 1 37.49 37.68 1.28 o
4 10 2 21.44 22.26 0.79 o
4 10 3 56.70 56.94 1.45 o
4 10 4 5.08 4.82 0.62 o
4 10 5 0.80 1.47 0.31 o
4 10 6 94.69 96.85 3.56 o
4 10 7 8.57 8.99 0.66 o
4 10 9 15.67 14.86 1.00 o
4 10 10 29.95 29.65 1.58 o
4 10 11 5.74 5.54 0.86 o
4 11 0 150.02 150.43 3.34 o
4 11 1 11.35 11.26 0.49 o
4 11 2 49.93 48.81 1.31 o
4 11 4 4.30 4.37 0.36 o
4 11 5 3.24 2.41 0.40 o
4 11 6 49.51 51.14 1.87 o
4 11 8 169.05 179.91 5.60 o
4 11 9 45.05 46.74 1.89 o
4 11 11 3.49 3.58 0.70 o
4 12 0 69.41 67.15 1.97 o
4 12 1 89.40 90.13 2.82 o
4 12 2 1.35 1.86 0.22 o
4 12 5 6.14 6.90 0.57 o
4 12 6 20.78 20.49 1.02 o
4 12 7 19.97 19.41 1.75 o
4 12 9 80.55 78.77 3.90 o
4 12 11 16.09 14.70 1.98 o
4 13 0 22.08 21.41 0.83 o
4 13 1 6.11 6.06 0.37 o
4 13 3 10.13 10.69 0.56 o
4 13 4 50.82 49.87 1.63 o
4 13 6 12.28 13.29 1.85 o
4 13 7 18.04 17.32 1.69 o
4 13 8 7.11 6.45 1.15 o
4 13 9 7.92 6.23 1.16 o
4 13 10 47.58 47.51 3.20 o
4 14 0 6.07 4.77 0.45 o
4 14 1 52.80 52.95 2.57 o
4 14 2 14.74 16.49 1.46 o
4 14 3 6.23 6.15 0.63 o
4 14 5 27.09 25.80 1.21 o
4 14 7 2.56 3.46 0.94 o
4 14 8 6.68 6.41 1.24 o
4 14 9 2.80 3.85 1.06 o
4 15 0 18.12 18.17 1.10 o
4 15 3 74.48 78.28 2.60 o
4 15 4 15.29 14.32 0.91 o
4 15 6 33.44 33.25 1.83 o
4 15 7 6.27 6.53 0.90 o
4 15 9 3.68 2.10 0.70 o
4 15 10 7.12 7.59 1.65 o
4 16 0 4.39 3.81 0.48 o
4 16 1 16.80 16.50 1.57 o
4 16 3 25.65 25.96 1.87 o
4 16 4 63.09 65.60 2.16 o
4 16 5 26.14 25.82 1.35 o
4 16 6 4.21 3.36 0.60 o
4 16 7 33.42 31.93 1.70 o
4 17 1 7.20 6.17 1.04 o
4 17 2 22.38 23.53 1.94 o
4 17 5 34.41 34.62 2.91 o
4 17 6 6.61 7.07 0.84 o
4 18 0 4.77 3.37 0.81 o
4 18 1 2.59 3.18 0.57 o
4 18 3 10.94 10.70 1.43 o
4 18 4 13.37 13.02 1.57 o
4 18 7 40.99 39.34 2.15 o
4 18 8 12.53 10.79 1.80 o
4 19 0 6.80 7.03 0.80 o
4 19 5 7.21 7.71 1.35 o
4 19 6 72.20 71.00 3.89 o
4 19 7 24.13 23.93 2.49 o
4 20 0 4.83 4.73 0.78 o
4 20 1 38.81 35.49 3.62 o
4 20 2 3.17 2.43 0.64 o
4 20 5 20.58 19.57 2.20 o
4 20 6 28.86 27.64 2.74 o
4 21 0 5.16 3.68 0.71 o
4 21 1 11.12 10.16 1.14 o
4 21 2 7.16 5.31 0.88 o
4 21 6 10.89 11.97 2.09 o
4 22 0 4.43 3.05 0.75 o
4 22 1 2.84 3.08 0.75 o
4 22 2 8.49 7.99 1.36 o
4 23 1 3.34 3.06 0.97 o
4 23 2 7.16 6.17 1.61 o
5 0 0 192.77 183.70 4.16 o
5 0 2 384.99 351.12 5.72 o
5 0 6 35.93 33.13 1.18 o
5 0 8 15.09 15.32 1.34 o
5 0 10 5.44 5.40 1.03 o
5 0 12 13.57 13.05 1.69 o
5 1 0 112.09 121.33 2.76 o
5 1 1 132.72 124.74 3.29 o
5 1 2 6.35 4.36 0.36 o
5 1 3 231.50 225.85 4.61 o
5 1 5 1.97 1.95 0.19 o
5 1 6 16.11 16.12 0.60 o
5 1 7 22.02 21.25 0.96 o
5 1 8 3.36 3.23 0.40 o
5 1 9 76.44 76.57 2.20 o
5 1 10 128.67 136.51 3.42 o
5 1 12 7.31 6.78 0.86 o
5 1 13 6.60 5.57 0.93 o
5 2 0 23.21 23.98 0.97 o
5 2 1 865.88 854.50 13.37 o
5 2 2 141.83 132.83 2.95 o
5 2 3 8.97 5.08 0.47 o
5 2 4 39.57 39.89 1.66 o
5 2 5 2.20 2.38 0.21 o
5 2 6 7.86 7.81 0.36 o
5 2 8 47.06 45.85 1.53 o
5 2 9 6.85 6.11 0.60 o
5 2 10 78.00 77.68 2.38 o
5 2 11 38.59 37.45 1.74 o
5 2 13 10.20 10.32 1.71 o
5 3 1 101.31 102.53 2.67 o
5 3 2 23.36 26.12 1.21 o
5 3 4 4.89 6.70 0.74 o
5 3 5 2.27 1.77 0.24 o
5 3 6 65.60 65.12 1.59 o
5 3 8 17.56 18.66 0.78 o
5 3 9 38.45 39.87 1.39 o
5 3 11 9.07 7.35 0.79 o
5 3 12 24.97 23.15 2.16 o
5 4 0 16.15 17.79 1.09 o
5 4 2 2.85 2.14 0.38 o
5 4 3 1.11 1.23 0.35 o
5 4 4 82.77 82.19 2.59 o
5 4 5 38.81 37.72 1.07 o
5 4 6 4.10 4.28 0.37 o
5 4 7 84.72 83.52 2.02 o
5 4 8 18.41 18.37 0.78 o
5 4 9 8.40 8.85 1.37 o
5 5 0 607.51 614.04 9.06 o
5 5 1 76.06 74.05 2.22 o
5 5 2 7.64 7.41 0.67 o
5 5 4 10.77 10.39 0.53 o
5 5 5 26.26 24.98 0.81 o
5 5 6 208.56 216.39 7.30 o
5 5 8 24.24 24.38 1.13 o
5 5 10 7.78 7.89 2.10 o
5 6 0 48.69 52.44 1.93 o
5 6 1 5.87 6.05 0.65 o
5 6 2 1.73 2.13 0.42 o
5 6 3 46.57 45.54 1.37 o
5 6 4 3.07 3.38 0.26 o
5 6 5 8.63 8.41 0.42 o
5 6 6 105.92 114.24 4.43 o
5 6 7 12.34 11.74 0.73 o
5 6 8 37.75 37.91 1.97 o
5 6 9 24.63 24.78 1.24 o
5 7 0 36.15 38.47 1.72 o
5 7 1 28.32 25.82 1.39 o
5 7 2 1.33 1.94 0.25 o
5 7 3 39.80 40.53 1.28 o
5 7 5 4.12 3.27 0.32 o
5 7 6 18.62 19.13 1.72 o
5 7 7 30.28 27.93 1.17 o
5 7 8 52.35 54.20 1.81 o
5 7 10 6.99 7.43 0.81 o
5 7 11 8.32 8.24 0.93 o
5 8 0 285.84 287.08 5.52 o
5 8 1 154.13 160.01 3.81 o
5 8 2 23.53 21.54 1.64 o
5 8 3 23.92 25.19 0.88 o
5 8 6 15.46 15.10 0.80 o
5 8 8 5.53 5.57 0.59 o
5 8 9 57.18 60.27 2.40 o
5 8 10 60.44 61.17 3.42 o
5 8 11 3.04 2.51 0.78 o
5 8 13 2.97 3.87 0.98 o
5 9 0 147.44 155.18 4.58 o
5 9 1 1.47 1.82 0.35 o
5 9 2 59.72 56.83 1.83 o
5 9 3 7.12 6.76 0.44 o
5 9 4 15.05 15.62 0.67 o
5 9 5 3.83 3.58 0.42 o
5 9 6 2.44 3.02 0.44 o
5 9 7 4.73 5.18 0.54 o
5 9 8 85.71 88.94 2.55 o
5 9 9 78.41 83.09 2.62 o
5 9 10 24.45 25.04 2.09 o
5 9 11 16.40 15.89 1.35 o
5 9 12 5.18 5.52 0.96 o
5 10 0 5.76 6.11 0.47 o
5 10 1 14.64 13.84 0.74 o
5 10 2 82.68 78.76 1.94 o
5 10 3 21.22 20.46 0.78 o
5 10 4 16.18 17.05 0.84 o
5 10 5 16.48 14.45 1.35 o
5 10 8 30.79 30.28 1.42 o
5 10 10 5.35 5.48 0.79 o
5 10 12 7.44 6.54 1.10 o
5 11 2 35.33 34.63 1.03 o
5 11 3 36.19 36.75 1.44 o
5 11 4 22.87 21.82 1.58 o
5 11 6 3.51 2.69 0.67 o
5 11 8 6.66 7.48 1.21 o
5 11 10 63.24 69.48 3.18 o
5 11 11 8.97 7.98 1.09 o
5 12 0 13.14 13.56 0.53 o
5 12 1 56.17 54.47 1.53 o
5 12 2 63.20 60.40 1.63 o
5 12 3 27.45 26.00 1.77 o
5 12 6 5.60 4.87 0.88 o
5 12 8 22.87 22.43 2.03 o
5 12 10 4.18 2.90 0.92 o
5 12 11 48.51 46.65 3.61 o
5 13 0 3.93 3.83 0.35 o
5 13 2 38.17 37.64 2.17 o
5 13 3 6.05 5.36 0.58 o
5 13 4 4.60 5.26 0.68 o
5 13 5 10.07 10.38 0.75 o
5 13 6 28.69 25.03 2.00 o
5 13 9 11.97 10.12 1.50 o
5 14 0 12.71 12.25 0.78 o
5 14 1 17.74 15.49 1.48 o
5 14 2 7.56 7.32 1.08 o
5 14 3 35.98 36.16 1.41 o
5 14 4 7.63 8.27 0.68 o
5 14 6 2.73 2.17 0.44 o
5 14 7 12.20 12.24 1.49 o
5 14 10 5.27 4.35 1.30 o
5 15 0 4.29 4.72 0.54 o
5 15 1 34.23 34.55 1.39 o
5 15 2 5.57 5.20 0.99 o
5 15 3 2.25 2.08 0.42 o
5 15 5 54.97 55.59 4.25 o
5 15 6 18.84 17.44 1.15 o
5 15 7 4.14 4.21 1.06 o
5 15 8 10.59 11.30 1.64 o
5 16 0 49.68 49.48 2.56 o
5 16 1 25.51 24.02 2.50 o
5 16 2 2.99 2.55 0.42 o
5 16 5 3.07 2.72 0.49 o
5 16 6 26.02 25.55 1.50 o
5 16 7 4.92 5.27 1.25 o
5 16 9 18.74 13.94 2.07 o
5 17 0 59.89 58.71 2.08 o
5 17 1 23.27 22.47 1.35 o
5 17 3 6.13 5.31 0.66 o
5 17 4 19.04 20.54 1.29 o
5 17 7 30.96 31.45 2.69 o
5 17 8 4.39 4.23 1.38 o
5 18 0 37.21 37.19 2.70 o
5 18 1 9.74 11.21 0.97 o
5 18 2 8.10 8.88 1.33 o
5 18 3 3.92 3.85 1.00 o
5 18 5 5.42 4.45 0.75 o
5 18 6 4.44 3.55 1.10 o
5 19 0 6.88 5.37 0.74 o
5 19 1 20.92 19.46 1.34 o
5 19 2 5.67 6.01 1.10 o
5 19 7 6.15 5.88 1.15 o
5 20 0 10.16 10.09 1.10 o
5 20 3 26.10 25.63 2.47 o
5 21 0 8.85 8.01 1.08 o
5 21 1 6.64 6.89 1.04 o
5 21 4 7.05 5.34 1.33 o
5 22 0 6.34 4.81 0.98 o
5 22 2 5.43 4.44 1.38 o
6 0 0 117.68 110.33 5.72 o
6 0 2 33.10 33.11 1.44 o
6 0 4 106.60 104.97 2.47 o
6 0 8 3.02 3.07 0.74 o
6 0 10 4.24 4.91 0.98 o
6 0 12 14.40 13.43 1.73 o
6 1 0 43.93 43.02 1.22 o
6 1 1 20.43 21.27 0.88 o
6 1 2 61.58 59.67 1.64 o
6 1 3 1.81 1.61 0.41 o
6 1 4 28.79 25.36 0.88 o
6 1 5 71.90 68.92 2.42 o
6 1 6 5.21 3.86 0.30 o
6 1 7 1.83 1.99 0.30 o
6 1 8 10.41 11.11 0.74 o
6 1 9 6.71 6.52 0.64 o
6 1 10 5.52 5.85 0.68 o
6 1 11 22.11 22.17 1.39 o
6 1 12 20.42 19.19 1.48 o
6 2 0 2.78 3.81 0.54 o
6 2 1 6.34 5.34 0.62 o
6 2 2 39.01 38.93 1.60 o
6 2 3 308.90 305.19 6.81 o
6 2 4 28.47 29.20 0.97 o
6 2 5 13.75 13.36 0.54 o
6 2 6 8.94 9.56 0.68 o
6 2 8 10.15 9.19 1.24 o
6 2 10 8.68 7.84 1.52 o
6 2 11 13.11 13.62 1.09 o
6 2 12 40.24 40.07 2.12 o
6 2 13 10.73 8.00 1.69 o
6 3 0 154.03 149.28 3.53 o
6 3 1 179.12 178.55 3.88 o
6 3 3 129.52 129.92 3.80 o
6 3 4 32.79 33.53 1.06 o
6 3 6 6.17 6.09 0.33 o
6 3 7 8.86 7.99 0.43 o
6 3 8 24.68 25.34 1.14 o
6 3 10 23.33 24.10 1.32 o
6 3 11 7.64 7.43 1.31 o
6 3 13 6.44 5.33 1.65 o
6 4 0 682.11 670.58 9.70 o
6 4 1 4.79 4.59 0.60 o
6 4 2 5.67 7.01 1.50 o
6 4 4 2.87 3.05 1.00 o
6 4 5 4.57 4.11 0.29 o
6 4 6 23.12 21.12 0.69 o
6 4 7 9.13 9.29 0.48 o
6 4 8 4.59 3.73 0.40 o
6 4 9 24.94 22.81 1.50 o
6 4 10 6.35 6.29 1.16 o
6 4 11 9.10 10.63 1.43 o
6 5 0 639.59 674.07 9.84 o
6 5 1 175.48 169.00 3.88 o
6 5 2 365.24 377.87 7.89 o
6 5 3 34.69 33.30 1.73 o
6 5 4 3.98 3.61 0.58 o
6 5 5 1.42 1.55 0.22 o
6 5 7 9.82 9.87 0.70 o
6 5 8 99.29 103.29 2.73 o
6 5 9 3.27 2.63 0.49 o
6 5 12 3.37 3.61 1.13 o
6 6 0 724.49 714.60 10.46 o
6 6 1 172.02 169.16 3.96 o
6 6 3 3.20 3.86 0.67 o
6 6 5 1.17 1.31 0.29 o
6 6 7 8.30 6.55 0.58 o
6 6 8 11.58 12.55 0.83 o
6 6 9 10.05 9.66 0.84 o
6 6 10 6.96 5.29 0.70 o
6 6 11 13.28 12.82 1.20 o
6 7 0 1.88 1.99 0.31 o
6 7 1 336.70 349.59 8.59 o
6 7 2 9.66 10.74 0.62 o
6 7 3 65.60 63.47 2.51 o
6 7 4 0.88 0.88 0.22 o
6 7 5 12.18 11.70 0.59 o
6 7 7 6.65 6.34 0.59 o
6 7 8 13.38 13.90 0.91 o
6 7 9 14.95 14.18 1.05 o
6 7 10 32.15 33.22 1.72 o
6 7 12 7.43 7.39 2.10 o
6 8 0 21.05 22.53 1.46 o
6 8 1 11.74 10.10 0.62 o
6 8 2 278.43 285.43 8.37 o
6 8 3 47.04 48.07 1.36 o
6 8 4 21.97 20.30 1.56 o
6 8 5 32.30 31.76 1.21 o
6 8 8 7.19 7.04 0.69 o
6 8 11 34.28 35.97 2.05 o
6 8 12 24.38 24.08 3.69 o
6 9 1 1.83 1.50 0.38 o
6 9 2 50.16 49.93 1.51 o
6 9 3 12.74 11.48 1.10 o
6 9 4 32.37 31.75 1.26 o
6 9 6 11.74 11.58 0.76 o
6 9 7 5.05 5.11 0.56 o
6 9 9 1.58 1.48 0.48 o
6 9 10 42.02 43.71 2.11 o
6 9 11 17.61 17.24 1.46 o
6 10 0 9.41 8.19 0.52 o
6 10 1 76.89 77.92 2.06 o
6 10 3 12.56 11.27 1.12 o
6 10 4 39.11 38.32 2.23 o
6 10 5 3.93 3.41 0.76 o
6 10 6 6.82 7.14 0.65 o
6 10 7 2.68 2.13 0.50 o
6 11 0 7.90 6.39 0.95 o
6 11 3 2.95 2.50 0.65 o
6 11 4 1.44 1.78 0.37 o
6 11 5 30.73 32.36 2.17 o
6 11 6 8.15 8.35 1.19 o
6 12 0 4.80 2.87 0.76 o
6 12 3 31.20 29.42 1.95 o
6 12 4 29.51 29.62 1.27 o
6 12 8 7.15 5.70 1.22 o
6 12 10 10.90 8.12 1.51 o
6 13 0 34.54 36.04 2.22 o
6 13 1 26.33 26.28 1.88 o
6 13 2 7.15 7.10 1.04 o
6 13 4 48.88 45.84 2.98 o
6 13 5 2.73 2.54 0.81 o
6 13 6 7.81 7.90 1.25 o
6 13 7 6.66 6.08 1.12 o
6 13 8 6.98 7.52 1.36 o
6 14 0 38.84 35.09 2.32 o
6 14 1 49.41 51.29 2.76 o
6 14 4 2.74 2.19 0.49 o
6 14 5 16.74 16.87 1.09 o
6 14 7 2.38 2.61 0.86 o
6 14 8 8.39 8.24 1.57 o
6 15 0 5.26 3.26 0.97 o
6 15 1 145.16 146.18 4.94 o
6 15 2 11.20 10.34 1.35 o
6 15 3 39.23 39.46 1.65 o
6 15 5 4.83 4.00 0.62 o
6 15 7 23.89 25.95 2.28 o
6 15 8 10.33 9.20 1.57 o
6 16 0 98.03 94.36 4.03 o
6 16 1 106.65 111.90 4.36 o
6 16 2 16.47 16.95 1.12 o
6 16 8 7.73 6.53 1.45 o
6 17 0 46.05 44.45 2.83 o
6 17 1 45.61 46.26 2.87 o
6 17 2 34.31 32.36 1.63 o
6 17 3 22.69 21.56 1.35 o
6 17 6 10.97 11.28 1.61 o
6 18 1 42.68 40.39 2.77 o
6 18 2 40.59 41.12 3.34 o
6 18 3 19.78 20.40 2.79 o
6 18 4 7.09 7.47 0.94 o
6 18 5 3.05 2.44 0.72 o
6 19 0 17.98 18.35 1.98 o
6 19 1 4.70 3.13 0.98 o
6 19 3 10.20 10.91 1.61 o
6 19 5 3.37 3.47 0.81 o
6 20 1 16.45 16.54 2.04 o
6 20 2 13.64 13.84 1.88 o
6 20 5 10.06 9.32 1.73 o
6 21 0 8.42 9.75 1.77 o
6 21 2 5.73 3.94 1.30 o
6 21 3 4.91 4.81 1.41 o
7 0 0 171.55 168.93 4.02 o
7 0 2 81.52 75.91 1.98 o
7 0 4 6.98 6.74 0.89 o
7 0 6 27.14 25.18 1.79 o
7 1 0 60.44 56.86 1.53 o
7 1 1 1.49 1.68 0.23 o
7 1 2 10.07 10.62 0.71 o
7 1 3 7.40 8.16 0.76 o
7 1 4 20.21 19.14 0.76 o
7 1 5 4.57 4.62 0.46 o
7 1 6 22.93 22.49 1.11 o
7 1 7 13.98 13.46 0.68 o
7 1 10 5.33 5.26 0.69 o
7 1 12 3.44 2.46 0.72 o
7 2 0 5.86 5.97 0.61 o
7 2 1 96.94 94.51 2.26 o
7 2 2 1.55 1.12 0.20 o
7 2 3 30.42 32.73 1.23 o
7 2 4 41.80 42.72 1.26 o
7 2 5 66.89 64.27 1.71 o
7 2 7 20.38 20.41 0.87 o
7 2 8 2.42 1.55 0.33 o
7 3 0 129.99 130.51 3.51 o
7 3 1 21.37 22.61 0.81 o
7 3 2 226.07 227.15 5.01 o
7 3 3 108.93 108.36 2.62 o
7 3 5 82.10 82.74 2.05 o
7 3 6 24.05 23.83 0.91 o
7 3 8 2.86 2.59 0.83 o
7 3 9 9.47 9.07 2.86 o
7 3 10 3.96 4.24 1.32 o
7 3 12 13.99 15.31 2.14 o
7 4 0 76.47 75.31 2.66 o
7 4 1 420.50 409.88 8.22 o
7 4 2 409.61 406.04 9.43 o
7 4 3 31.33 28.78 1.38 o
7 4 4 38.49 40.95 2.26 o
7 4 5 3.16 2.74 0.48 o
7 4 6 5.80 5.96 0.39 o
7 4 7 3.99 3.80 0.34 o
7 4 8 3.62 4.29 1.23 o
7 4 10 10.65 13.31 1.67 o
7 4 11 6.06 6.85 1.37 o
7 5 0 40.62 40.37 1.43 o
7 5 1 38.47 35.92 1.65 o
7 5 2 83.37 91.32 2.61 o
7 5 3 33.73 31.15 1.78 o
7 5 4 131.97 137.03 5.88 o
7 5 5 10.11 9.79 0.75 o
7 5 6 1.33 1.18 0.26 o
7 5 7 1.47 1.63 0.30 o
7 5 9 2.57 2.90 0.58 o
7 5 10 30.00 29.54 2.36 o
7 6 0 21.09 21.32 0.91 o
7 6 1 132.73 129.42 4.51 o
7 6 2 513.48 516.11 9.40 o
7 6 3 66.04 65.44 2.68 o
7 6 4 14.84 14.22 1.29 o
7 6 5 20.34 19.50 1.00 o
7 6 8 1.32 1.81 0.46 o
7 6 9 2.66 2.68 0.59 o
7 6 11 7.60 7.78 1.51 o
7 7 0 52.13 50.76 1.63 o
7 7 1 34.89 32.76 2.19 o
7 7 2 35.13 34.41 1.08 o
7 7 3 294.73 295.27 6.42 o
7 7 5 44.97 45.22 1.78 o
7 7 9 7.26 6.52 0.79 o
7 7 10 5.19 6.03 0.86 o
7 7 11 4.15 2.86 0.75 o
7 7 12 11.57 12.99 2.11 o
7 8 1 58.41 56.04 2.49 o
7 8 2 18.33 18.38 1.09 o
7 8 4 187.03 185.82 3.96 o
7 8 5 2.77 2.82 0.34 o
7 8 6 13.82 15.37 1.75 o
7 8 7 20.75 20.53 1.64 o
7 9 1 2.30 2.77 0.37 o
7 9 2 2.13 1.61 0.40 o
7 9 3 3.32 2.48 0.59 o
7 9 4 7.12 6.72 0.71 o
7 9 5 13.70 12.57 0.67 o
7 9 6 13.17 13.16 0.88 o
7 10 0 94.64 93.50 4.14 o
7 10 1 7.71 6.31 0.97 o
7 10 2 7.66 6.94 0.94 o
7 10 3 40.40 40.50 1.79 o
7 10 5 8.56 7.25 1.09 o
7 10 6 13.26 12.26 0.86 o
7 10 8 1.89 2.65 0.55 o
7 11 0 56.29 55.72 2.67 o
7 11 1 82.39 80.19 3.30 o
7 11 2 3.94 3.54 0.77 o
7 11 3 3.43 3.12 0.42 o
7 11 5 3.00 2.59 0.68 o
7 11 7 12.11 11.38 1.51 o
7 11 8 2.09 2.37 0.61 o
7 12 0 7.75 8.84 1.18 o
7 12 1 6.39 6.72 1.04 o
7 12 3 4.63 4.82 0.53 o
7 12 5 10.30 9.33 1.26 o
7 12 6 5.89 5.07 0.97 o
7 12 8 3.37 3.30 1.07 o
7 13 0 17.40 18.84 1.70 o
7 13 1 78.77 82.75 3.51 o
7 13 2 53.92 51.96 2.79 o
7 13 3 6.78 6.10 0.68 o
7 13 4 2.29 1.36 0.37 o
7 13 6 37.72 38.75 2.67 o
7 13 8 4.05 4.91 1.10 o
7 14 0 126.91 132.70 4.67 o
7 14 1 80.26 78.98 3.58 o
7 14 2 14.91 10.59 1.39 o
7 14 3 63.45 66.18 3.26 o
7 14 7 6.33 7.92 1.44 o
7 15 0 79.08 76.76 3.57 o
7 15 1 4.57 2.65 0.81 o
7 15 3 28.69 27.95 1.63 o
7 15 4 8.65 8.08 0.87 o
7 15 5 21.19 22.30 2.06 o
7 16 0 35.87 35.25 2.52 o
7 16 2 86.94 88.51 4.00 o
7 16 3 65.26 68.51 2.55 o
7 16 4 3.24 2.82 0.63 o
7 17 1 7.53 7.29 1.28 o
7 17 2 14.50 13.75 2.07 o
7 17 3 73.39 73.46 2.79 o
7 17 4 13.77 12.01 1.18 o
7 17 5 9.95 8.55 1.06 o
7 18 3 21.39 20.59 1.52 o
7 18 4 31.51 28.40 3.06 o
7 18 5 21.91 22.02 1.71 o
7 19 2 16.39 15.99 1.43 o
7 19 3 1.96 3.54 0.88 o
7 20 0 13.63 11.51 1.95 o
7 20 1 15.30 14.51 2.09 o
7 20 3 6.84 6.15 1.64 o
7 20 4 12.08 11.32 2.09 o
7 21 1 24.35 21.47 2.71 o
8 0 0 264.86 255.48 9.75 o
8 0 2 36.57 34.59 1.22 o
8 0 4 41.12 40.78 2.20 o
8 0 8 4.39 3.30 0.77 o
8 1 0 48.26 47.78 1.30 o
8 1 1 114.92 110.70 3.04 o
8 1 2 61.33 58.01 1.57 o
8 1 3 17.48 17.34 0.86 o
8 1 4 3.25 3.88 0.43 o
8 1 6 3.88 2.70 0.28 o
8 1 7 5.41 5.12 0.48 o
8 1 8 11.72 11.49 0.87 o
8 2 0 11.71 10.21 0.60 o
8 2 1 49.35 48.57 1.92 o
8 2 2 42.26 41.83 1.75 o
8 2 3 30.48 30.04 1.17 o
8 2 4 12.14 12.87 0.77 o
8 2 5 48.52 48.25 1.64 o
8 2 6 29.06 27.91 1.06 o
8 2 7 7.44 6.31 0.51 o
8 2 9 10.21 11.42 0.98 o
8 2 12 2.69 2.95 0.92 o
8 3 0 14.23 12.58 0.59 o
8 3 1 2.55 2.33 0.37 o
8 3 2 42.59 39.87 2.31 o
8 3 3 63.48 62.12 2.30 o
8 3 4 181.54 183.12 4.10 o
8 3 5 38.34 38.43 2.23 o
8 3 6 6.33 4.98 0.75 o
8 3 7 33.78 32.63 1.29 o
8 3 8 9.97 9.60 0.85 o
8 3 11 4.44 4.53 1.32 o
8 4 0 5.58 5.52 0.34 o
8 4 1 12.90 12.59 0.59 o
8 4 2 75.93 71.60 2.15 o
8 4 3 213.49 207.56 4.34 o
8 4 4 137.83 138.65 4.34 o
8 4 5 35.72 36.11 1.36 o
8 4 6 34.33 35.40 1.84 o
8 4 7 4.93 4.98 0.71 o
8 4 8 5.94 6.11 0.64 o
8 5 0 14.81 13.44 0.97 o
8 5 1 3.73 3.90 0.34 o
8 5 2 12.21 11.16 0.58 o
8 5 3 10.12 9.07 1.09 o
8 5 6 24.49 24.36 1.00 o
8 5 7 1.42 1.46 0.42 o
8 6 0 14.50 13.17 3.26 o
8 6 1 8.24 8.15 0.91 o
8 6 2 2.39 2.12 0.32 o
8 6 3 66.96 67.03 2.89 o
8 6 4 233.04 236.33 5.97 o
8 6 5 8.73 8.17 0.95 o
8 6 6 15.12 14.79 0.78 o
8 6 7 24.52 23.33 1.06 o
8 7 0 5.18 5.66 0.88 o
8 7 1 10.84 9.69 1.07 o
8 7 2 34.81 33.03 2.02 o
8 7 4 67.86 67.45 3.00 o
8 7 5 174.49 172.23 6.05 o
8 7 6 5.98 4.70 0.82 o
8 7 7 14.48 14.93 1.04 o
8 8 0 72.28 71.51 2.96 o
8 8 1 4.28 3.19 0.80 o
8 8 2 4.98 5.86 0.96 o
8 8 3 42.59 41.81 2.35 o
8 8 4 6.47 6.60 0.60 o
8 8 5 7.98 8.45 0.58 o
8 8 6 95.27 96.88 3.00 o
8 8 8 6.97 6.61 0.82 o
8 8 9 7.77 8.02 0.98 o
8 9 1 59.23 63.63 2.82 o
8 9 3 4.76 4.99 0.88 o
8 9 4 6.80 5.77 0.86 o
8 9 5 4.69 4.26 0.43 o
8 9 7 6.69 6.38 0.77 o
8 9 8 4.74 5.42 1.77 o
8 10 0 89.15 91.19 2.43 o
8 10 1 15.35 14.13 1.39 o
8 10 2 28.76 28.73 1.24 o
8 10 4 6.14 6.68 0.68 o
8 10 5 13.85 13.49 2.16 o
8 10 6 1.51 1.69 0.52 o
8 10 7 4.48 3.17 0.56 o
8 10 8 2.83 3.60 0.77 o
8 11 0 68.03 69.91 2.09 o
8 11 2 35.67 32.13 2.86 o
8 11 3 70.79 70.21 3.23 o
8 12 1 54.54 47.15 2.76 o
8 12 2 17.82 15.94 1.60 o
8 12 3 2.10 2.43 0.70 o
8 12 4 6.89 6.72 0.73 o
8 12 5 9.03 9.33 1.41 o
8 13 0 18.50 17.97 1.71 o
8 13 1 4.09 2.91 0.79 o
8 13 3 80.58 84.24 2.61 o
8 13 4 40.27 42.89 2.80 o
8 13 8 17.39 15.05 2.05 o
8 14 2 117.03 120.07 4.52 o
8 14 3 33.07 33.43 1.40 o
8 14 5 39.60 38.19 2.71 o
8 15 1 3.73 3.76 0.98 o
8 15 2 36.24 34.38 2.47 o
8 15 4 6.76 6.42 1.21 o
8 15 7 5.28 4.51 1.36 o
8 16 2 10.63 9.41 1.74 o
8 16 4 51.22 51.82 3.31 o
8 16 5 19.35 17.33 2.09 o
8 16 7 6.67 6.87 1.60 o
8 17 2 3.77 3.04 0.94 o
8 17 3 2.55 2.66 0.71 o
8 17 5 66.12 70.95 4.30 o
8 18 0 17.86 15.16 2.05 o
8 18 3 5.24 5.29 0.93 o
8 18 5 5.57 5.83 1.62 o
8 19 4 13.72 10.27 1.97 o
9 0 0 7.88 6.12 0.82 o
9 0 2 171.15 165.93 4.80 o
9 0 6 24.65 24.70 1.75 o
9 1 0 24.55 23.38 1.01 o
9 1 1 4.74 4.90 0.47 o
9 1 2 2.61 2.00 0.33 o
9 1 3 71.99 71.99 2.09 o
9 1 4 21.40 21.31 1.62 o
9 1 5 21.81 22.64 1.15 o
9 1 9 2.03 1.99 0.57 o
9 1 10 4.09 4.73 1.02 o
9 2 0 13.08 12.84 0.72 o
9 2 1 10.06 8.48 0.80 o
9 2 2 12.38 11.80 0.75 o
9 2 3 13.61 15.19 0.86 o
9 2 4 58.43 58.49 1.91 o
9 2 6 21.60 21.44 1.23 o
9 2 7 36.21 37.94 2.43 o
9 2 8 12.03 10.90 0.96 o
9 2 11 2.73 4.48 1.04 o
9 3 0 2.05 2.09 0.31 o
9 3 1 8.26 9.69 0.73 o
9 3 2 10.71 10.14 0.68 o
9 3 3 5.91 5.56 0.54 o
9 3 4 4.34 3.10 0.48 o
9 3 5 64.43 64.26 3.15 o
9 3 6 99.91 102.35 3.56 o
9 3 7 5.41 4.97 0.54 o
9 3 8 10.89 10.25 1.39 o
9 3 9 8.65 6.23 1.90 o
9 4 0 40.26 40.26 2.25 o
9 4 1 5.89 5.75 0.53 o
9 4 2 6.13 5.95 0.52 o
9 4 3 10.60 10.75 1.05 o
9 4 4 49.62 46.89 2.59 o
9 4 5 77.31 76.23 3.42 o
9 4 6 26.56 28.16 2.16 o
9 4 7 20.81 21.20 1.05 o
9 4 8 13.10 11.69 1.47 o
9 4 9 4.07 3.70 1.15 o
9 5 0 12.54 13.86 1.35 o
9 5 1 2.83 2.84 0.55 o
9 5 2 1.85 1.50 0.48 o
9 5 5 1.57 1.38 0.31 o
9 5 6 10.42 10.44 1.15 o
9 5 8 1.34 1.53 0.45 o
9 6 1 11.23 11.93 1.28 o
9 6 2 12.39 12.36 1.31 o
9 6 3 4.79 5.30 0.96 o
9 6 5 24.30 22.84 1.13 o
9 6 6 68.62 70.74 2.79 o
9 6 8 5.65 5.23 1.17 o
9 6 9 14.70 15.17 1.82 o
9 7 0 10.54 10.73 1.47 o
9 7 1 3.34 3.39 0.77 o
9 7 2 11.64 10.87 1.28 o
9 7 3 5.87 4.14 0.87 o
9 7 4 13.04 12.02 1.38 o
9 7 5 3.52 2.91 0.77 o
9 7 6 60.91 63.05 2.00 o
9 7 7 68.37 67.79 3.26 o
9 7 8 10.10 9.82 1.03 o
9 8 0 4.93 4.49 0.84 o
9 8 1 6.72 7.44 1.15 o
9 8 2 30.89 28.72 2.06 o
9 8 4 13.36 13.30 0.78 o
9 8 5 17.53 17.15 0.92 o
9 8 7 12.57 12.28 1.07 o
9 8 8 35.13 35.14 1.95 o
9 8 9 2.93 2.81 0.71 o
9 9 0 9.57 9.10 1.09 o
9 9 1 2.30 2.05 0.39 o
9 9 2 13.58 14.10 1.49 o
9 9 3 25.89 24.96 1.96 o
9 9 4 2.28 1.36 0.32 o
9 9 5 7.71 7.95 0.67 o
9 9 6 6.47 3.95 0.58 o
9 9 7 4.65 4.61 0.79 o
9 9 8 3.09 2.96 0.67 o
9 10 0 3.09 2.06 0.59 o
9 10 1 16.42 15.07 0.98 o
9 10 2 61.14 63.89 3.19 o
9 10 3 14.98 14.03 1.52 o
9 10 4 4.34 3.43 0.54 o
9 10 5 1.74 1.56 0.47 o
9 10 6 5.55 4.73 0.72 o
9 10 7 3.62 3.51 0.65 o
9 11 0 6.83 6.14 0.66 o
9 11 2 21.59 22.08 1.92 o
9 11 3 5.85 5.21 1.05 o
9 11 4 11.26 10.67 1.20 o
9 11 5 34.19 33.44 1.96 o
9 12 1 20.96 17.90 1.67 o
9 12 3 31.28 31.04 2.30 o
9 12 4 15.73 14.31 3.04 o
9 12 5 17.05 17.97 1.87 o
9 12 6 10.90 13.62 1.80 o
9 12 7 6.94 6.23 1.43 o
9 13 2 7.64 7.38 1.76 o
9 13 3 9.98 9.79 1.33 o
9 13 5 49.58 52.72 3.28 o
9 13 6 17.83 16.98 2.05 o
9 14 0 12.24 10.22 1.41 o
9 14 4 73.57 81.09 4.02 o
9 14 5 8.15 7.92 1.45 o
9 14 7 14.19 13.96 2.10 o
9 15 0 7.58 6.11 1.20 o
9 15 4 10.38 10.21 1.65 o
9 15 6 7.42 6.68 1.71 o
9 16 0 8.90 7.94 1.50 o
9 17 2 4.62 3.60 0.85 o
9 17 4 3.62 4.24 1.29 o
9 18 0 5.32 3.97 1.24 o
9 18 1 6.97 5.60 1.29 o
9 18 3 2.82 2.99 0.90 o
10 0 0 12.23 10.50 1.15 o
10 0 2 8.37 7.64 1.12 o
10 0 4 70.73 68.39 3.30 o
10 0 8 12.52 12.33 1.68 o
10 1 0 6.00 6.22 1.17 o
10 1 2 5.90 5.31 0.71 o
10 1 4 1.95 2.19 0.40 o
10 1 5 36.83 38.02 1.67 o
10 1 6 1.64 2.21 0.46 o
10 1 7 13.66 15.25 1.98 o
10 1 9 3.00 2.62 0.69 o
10 2 0 0.98 1.05 0.29 o
10 2 1 9.97 8.97 0.67 o
10 2 2 7.62 7.00 1.05 o
10 2 3 8.34 8.39 1.25 o
10 2 4 5.43 4.99 1.01 o
10 2 6 39.06 40.50 1.57 o
10 2 8 19.29 20.13 1.47 o
10 2 9 16.15 15.78 1.41 o
10 3 1 24.04 24.45 1.15 o
10 3 3 9.07 10.05 0.79 o
10 3 4 8.13 8.28 0.77 o
10 3 5 4.78 2.94 0.88 o
10 3 7 38.18 38.68 2.00 o
10 3 8 36.60 36.50 1.96 o
10 3 10 7.78 8.19 1.72 o
10 4 0 8.51 8.99 1.16 o
10 4 2 21.26 20.79 1.08 o
10 4 3 3.36 3.28 0.48 o
10 4 4 4.24 4.52 0.93 o
10 4 5 8.12 8.24 1.99 o
10 4 6 21.79 20.51 1.67 o
10 4 7 19.40 19.18 1.78 o
10 4 9 7.51 8.62 1.68 o
10 5 0 27.43 27.80 2.04 o
10 5 8 11.46 11.00 1.75 o
10 6 1 15.73 14.85 1.54 o
10 6 2 1.48 1.87 0.61 o
10 6 3 3.83 4.43 0.95 o
10 6 4 9.41 9.38 0.83 o
10 6 7 6.18 5.60 1.11 o
10 6 8 11.03 10.69 1.39 o
10 7 0 6.98 7.81 1.12 o
10 7 1 2.35 1.54 0.43 o
10 7 2 6.83 7.69 1.17 o
10 7 3 7.42 8.21 1.22 o
10 7 4 10.24 8.41 0.83 o
10 7 5 1.67 1.76 0.43 o
10 7 6 2.02 1.68 0.45 o
10 7 7 6.48 6.31 0.92 o
10 7 8 32.20 31.71 2.75 o
10 7 9 17.20 17.50 2.32 o
10 8 0 54.87 53.93 1.98 o
10 8 1 6.48 5.71 1.07 o
10 8 3 3.59 3.20 0.83 o
10 8 4 4.95 4.33 0.60 o
10 8 5 2.20 3.05 0.52 o
10 8 6 13.32 13.42 0.95 o
10 8 7 3.60 2.60 0.53 o
10 8 9 8.99 9.97 1.89 o
10 9 1 13.21 14.09 1.57 o
10 9 3 4.02 2.77 0.88 o
10 9 4 20.13 20.10 1.09 o
10 9 5 6.79 6.39 0.67 o
10 9 7 7.74 9.77 1.13 o
10 9 8 2.62 2.88 0.87 o
10 10 0 3.31 3.42 0.46 o
10 10 3 5.58 4.35 0.98 o
10 10 4 26.39 24.20 1.50 o
10 10 5 6.66 6.00 0.80 o
10 10 8 3.93 4.64 0.99 o
10 11 2 4.19 4.31 1.00 o
10 11 4 3.58 2.89 0.74 o
10 11 5 12.21 10.12 1.20 o
10 11 7 8.44 8.87 1.74 o
10 12 0 1.36 2.25 0.47 o
10 12 3 12.46 11.39 1.53 o
10 12 4 1.75 2.41 0.64 o
10 12 5 9.36 9.96 1.69 o
10 12 6 7.13 7.35 1.58 o
10 12 7 22.38 22.54 2.62 o
10 13 0 16.01 16.21 1.28 o
10 13 1 2.03 1.86 0.59 o
10 13 2 4.76 5.15 1.15 o
10 13 4 3.59 2.93 0.76 o
10 13 5 10.25 7.98 1.63 o
10 13 6 7.39 8.07 1.79 o
10 14 1 4.48 3.22 0.97 o
10 14 2 6.70 7.29 1.45 o
10 15 1 5.88 5.38 0.88 o
11 0 0 19.75 17.42 1.61 o
11 0 4 4.60 3.00 0.89 o
11 0 6 18.74 15.60 1.74 o
11 1 0 34.55 35.76 1.52 o
11 1 1 5.48 5.04 1.24 o
11 1 2 7.99 8.71 0.77 o
11 1 6 4.94 4.28 0.60 o
11 1 7 14.31 13.00 1.25 o
11 1 9 4.74 4.63 0.96 o
11 2 0 12.50 12.40 0.87 o
11 2 1 14.68 14.21 1.03 o
11 2 3 11.12 10.83 0.99 o
11 2 4 3.41 3.27 0.57 o
11 2 5 3.94 2.66 0.69 o
11 2 8 14.55 14.41 1.43 o
11 2 9 4.83 5.77 1.16 o
11 3 0 56.34 58.09 3.07 o
11 3 1 13.28 13.90 0.96 o
11 3 2 5.98 5.85 0.69 o
11 3 3 8.93 9.25 0.85 o
11 3 5 8.02 7.40 0.87 o
11 3 6 4.84 4.51 0.62 o
11 3 9 13.68 13.18 1.48 o
11 4 0 4.73 3.71 0.88 o
11 4 2 5.51 5.20 0.85 o
11 4 4 6.95 5.46 1.05 o
11 4 6 2.68 1.88 0.48 o
11 4 7 4.90 5.06 0.84 o
11 4 8 6.76 6.47 1.52 o
11 5 0 7.02 7.11 1.24 o
11 5 1 4.93 4.92 0.95 o
11 5 2 11.64 13.30 1.54 o
11 6 3 4.70 2.29 0.72 o
11 6 6 6.00 5.02 0.83 o
11 7 1 15.17 14.11 1.62 o
11 7 4 3.58 3.77 0.58 o
11 7 5 7.53 6.91 0.90 o
11 7 6 4.49 4.23 0.78 o
11 8 0 3.92 4.39 0.68 o
11 8 1 6.78 5.89 1.12 o
11 8 2 32.75 30.20 2.39 o
11 8 3 6.78 7.40 1.23 o
11 9 0 7.96 7.04 0.83 o
11 9 2 3.68 3.78 0.89 o
11 9 3 4.27 5.36 1.13 o
11 9 5 3.60 3.75 0.65 o
11 9 6 12.84 12.87 1.10 o
11 10 0 4.50 4.40 0.73 o
11 10 1 4.60 4.69 0.76 o
11 10 6 7.17 6.76 0.89 o
11 11 0 4.13 4.03 1.07 o
11 11 1 11.21 11.00 1.40 o
11 12 5 5.17 3.21 0.83 o
11 13 0 47.25 48.55 2.86 o
11 13 1 6.99 6.00 1.30 o
11 13 2 7.55 7.09 1.52 o
11 13 4 4.13 4.55 0.95 o
11 14 3 3.43 3.04 0.99 o
11 15 1 7.64 7.20 1.71 o
12 1 0 38.50 38.72 1.78 o
12 1 1 7.40 8.04 0.84 o
12 1 2 15.36 14.83 1.14 o
12 1 3 5.58 5.84 0.82 o
12 1 4 5.11 5.59 0.82 o
12 2 0 56.96 57.98 3.17 o
12 2 1 26.95 28.62 1.56 o
12 2 2 20.95 20.75 1.38 o
12 2 3 5.95 5.37 0.76 o
12 2 5 7.88 7.22 1.03 o
12 3 0 2.98 2.54 0.84 o
12 3 1 27.52 28.12 1.70 o
12 3 2 29.22 27.77 1.59 o
12 3 3 2.64 2.93 0.94 o
12 3 4 3.95 3.82 1.14 o
12 4 1 3.13 2.79 0.91 o
12 4 4 2.90 3.15 1.04 o
12 5 0 15.25 15.53 1.57 o
12 5 1 4.95 5.05 1.06 o
12 7 0 13.21 15.11 1.28 o
12 7 1 14.49 15.19 1.78 o
12 7 3 5.03 5.51 1.22 o
12 8 0 27.73 24.30 1.64 o
12 8 2 5.54 5.70 1.26 o
12 8 3 4.62 4.08 0.85 o
12 8 4 11.40 10.46 1.20 o
12 9 1 22.06 22.72 1.65 o
12 9 2 3.46 2.93 0.75 o
12 9 4 5.44 5.40 1.13 o
12 11 0 32.06 31.70 2.07 o
12 11 3 7.79 8.48 0.97 o
12 12 0 6.84 7.38 1.12 o
12 12 1 53.77 45.37 4.82 o
13 1 0 4.27 3.11 0.53 o
13 1 1 15.64 13.81 1.25 o
13 1 2 9.97 9.69 1.13 o
13 1 3 6.33 5.76 0.93 o
13 1 5 3.33 2.87 0.69 o
13 2 1 10.01 7.86 1.40 o
13 2 2 34.69 33.92 2.01 o
13 2 3 4.78 4.75 1.24 o
13 2 4 17.73 15.88 2.16 o
13 3 0 13.66 12.32 1.35 o
13 3 2 8.14 7.85 1.50 o
13 3 3 18.69 18.30 2.20 o
13 3 4 9.30 7.26 1.55 o
13 4 1 5.41 4.61 1.16 o
13 4 3 6.55 5.09 1.20 o
13 5 2 12.98 11.67 1.82 o
13 6 0 2.65 2.78 0.92 o
13 6 1 8.20 8.77 1.71 o
13 7 0 9.93 9.54 1.19 o
13 7 1 8.95 9.70 1.21 o
13 7 2 14.73 14.91 1.54 o
13 7 3 7.56 7.53 1.70 o
13 8 1 18.12 18.31 1.68 o
13 8 2 11.34 9.84 1.30 o
13 9 0 25.65 25.03 1.95 o
13 9 1 7.32 7.69 1.21 o
14 1 0 2.35 2.75 0.74 o
14 1 1 4.10 4.31 1.08 o
14 2 0 2.80 2.39 0.75 o
14 3 2 7.19 5.06 1.65 o
14 4 0 4.61 3.62 0.85 o
14 4 1 6.74 6.68 1.16 o
14 5 0 8.85 8.64 1.77 o
