#------------------------------------------------------------------------------
#$Date: 2016-02-14 06:40:26 +0200 (Sun, 14 Feb 2016) $
#$Revision: 176432 $
#$URL: svn://www.crystallography.net/cod/cif/4/50/72/4507244.cif $
#------------------------------------------------------------------------------
#
# This file is available in the Crystallography Open Database (COD),
# http://www.crystallography.net/
#
# All data on this site have been placed in the public domain by the
# contributors.
#
data_4507244
loop_
_publ_author_name
'Jarzembska, Katarzyna N.'
'Goral, Anna M.'
'Gajda, Roman'
'Dominiak, Paulina M.'
_publ_section_title
;
 Hoogsteen--Watson--Crick 9-Methyladenine:1-Methylthymine Complex: Charge
 Density Study in the Context of Crystal Engineering and Nucleic Acid Base
 Pairing
;
_journal_issue                   1
_journal_name_full               'Crystal Growth &amp; Design'
_journal_page_first              239
_journal_paper_doi               10.1021/cg301393e
_journal_volume                  13
_journal_year                    2013
_chemical_formula_moiety         'C6 H7 N5, C6 H8 N2 O2'
_chemical_formula_sum            'C12 H15 N7 O2'
_chemical_formula_weight         289.30
_space_group_IT_number           11
_symmetry_cell_setting           monoclinic
_symmetry_Int_Tables_number      11
_symmetry_space_group_name_Hall  '-P 2yb'
_symmetry_space_group_name_H-M   'P 1 21/m 1'
_cell_angle_alpha                90.00
_cell_angle_beta                 106.7855(7)
_cell_angle_gamma                90.00
_cell_formula_units_Z            2
_cell_length_a                   8.2688(3)
_cell_length_b                   6.3458(2)
_cell_length_c                   12.8427(4)
_cell_measurement_temperature    90(1)
_cell_volume                     645.17(4)
_diffrn_ambient_temperature      90(1)
_diffrn_measured_fraction_theta_full 0.98
_diffrn_measured_fraction_theta_max 0.97
_diffrn_measurement_device
'Bruker AXS Kappa APEX II Ultra diffractometer'
_diffrn_measurement_device_type  'APEX II CCD detector'
_diffrn_measurement_method       \w-scans
_diffrn_radiation_monochromator  'multi-layer optics'
_diffrn_radiation_source         'TXS rotating anode'
_diffrn_radiation_type           'Mo K\a'
_diffrn_radiation_wavelength     0.71073
_diffrn_reflns_av_R_equivalents  0.0318
_diffrn_reflns_av_sigmaI/netI    0.0321
_diffrn_reflns_limit_h_max       18
_diffrn_reflns_limit_h_min       -18
_diffrn_reflns_limit_k_max       13
_diffrn_reflns_limit_k_min       -7
_diffrn_reflns_limit_l_max       28
_diffrn_reflns_limit_l_min       -28
_diffrn_reflns_number            44916
_diffrn_reflns_theta_full        52.68
_diffrn_reflns_theta_max         53.029
_diffrn_reflns_theta_min         2.627
_exptl_absorpt_coefficient_mu    0.108
_exptl_absorpt_correction_T_max  1.059
_exptl_absorpt_correction_T_min  0.938
_exptl_absorpt_correction_type   multi-scan
_exptl_absorpt_process_details
;
 Absorption correction done by SORTAV
 Blessing, R. H.: (1995) Acta Cryst. A51, 33-38
;
_exptl_crystal_colour            colourless
_exptl_crystal_density_diffrn    1.489
_exptl_crystal_description       unspecified
_exptl_crystal_F_000             304
_exptl_crystal_size_max          0.27
_exptl_crystal_size_mid          0.12
_exptl_crystal_size_min          0.07
_refine_diff_density_max         +0.15
_refine_diff_density_min         -0.15
_refine_ls_extinction_method     none
_refine_ls_goodness_of_fit_ref   1.068
_refine_ls_hydrogen_treatment    mixed
_refine_ls_number_parameters     505
_refine_ls_number_reflns         6351
_refine_ls_number_restraints     12
_refine_ls_R_factor_all          0.0151
_refine_ls_R_factor_gt           0.0151
_refine_ls_shift/su_max          0.002
_refine_ls_shift/su_mean         0.000
_refine_ls_structure_factor_coef F
_refine_ls_weighting_details
;
w=1/[\s^2^(Fo)]
;
_refine_ls_weighting_scheme      sigma
_refine_ls_wR_factor_gt          0.0207
_refine_ls_wR_factor_ref         0.0207
_reflns_number_gt                6351
_reflns_number_total             7890
_reflns_threshold_expression     I>3\s(I)
_iucr_refine_instructions_details
;
Multipole refinement with MOPRO program.
;
_cod_data_source_file            cg301393e_si_003.cif
_cod_data_source_block           9mA1mT
_cod_original_sg_symbol_Hall     '-P 2ybc'
_cod_original_sg_symbol_H-M      'P 21/m'
_cod_database_code               4507244
loop_
_symmetry_equiv_pos_as_xyz
'x, y, z'
-x,y+1/2,-z
-x,-y,-z
x,-y+1/2,z
loop_
_atom_site_type_symbol
_atom_site_label
_atom_site_fract_x
_atom_site_fract_y
_atom_site_fract_z
_atom_site_U_iso_or_equiv
_atom_site_adp_type
_atom_site_occupancy
_atom_site_calc_flag
_atom_site_symmetry_multiplicity
O O2 0.60851(4) 0.75000 0.39307(3) 0.01633(4) Uani 1.00 d 2
O O4 1.18038(3) 0.75000 0.47788(2) 0.01369(3) Uani 1.00 d 2
N N1 0.75839(3) 0.75000 0.57382(2) 0.01179(2) Uani 1.00 d 2
N N3 0.89455(3) 0.75000 0.43825(2) 0.01069(2) Uani 1.00 d 2
C C2 0.74468(3) 0.75000 0.46430(2) 0.01106(2) Uani 1.00 d 2
C C4 1.05403(3) 0.75000 0.51070(2) 0.00992(2) Uani 1.00 d 2
C C5 1.06145(3) 0.75000 0.62398(2) 0.01082(2) Uani 1.00 d 2
C C6 0.91385(3) 0.75000 0.65040(2) 0.01173(2) Uani 1.00 d 2
C C7 0.60251(4) 0.75000 0.60661(3) 0.01620(3) Uani 1.00 d 2
C C8 1.23216(4) 0.75000 0.70498(2) 0.01500(3) Uani 1.00 d 2
N N9 1.23010(3) 0.75000 0.09210(2) 0.01301(3) Uani 1.00 d 2
N N11 0.96064(3) 0.75000 -0.04746(2) 0.01395(3) Uani 1.00 d 2
N N15 0.86705(3) 0.75000 0.20763(2) 0.01182(3) Uani 1.00 d 2
N N17 0.72435(3) 0.75000 0.02996(2) 0.01180(2) Uani 1.00 d 2
N N18 1.25574(3) 0.75000 0.27689(2) 0.01523(3) Uani 1.00 d 2
C C10 1.12871(3) 0.75000 -0.01055(2) 0.01490(3) Uani 1.00 d 2
C C12 0.89277(3) 0.75000 0.03567(2) 0.01071(2) Uani 1.00 d 2
C C13 0.97954(3) 0.75000 0.14598(2) 0.00994(2) Uani 1.00 d 2
C C14 1.15788(3) 0.75000 0.17419(2) 0.01054(2) Uani 1.00 d 2
C C16 0.71691(3) 0.75000 0.13515(2) 0.01234(2) Uani 1.00 d 2
C C19 0.58393(4) 0.75000 -0.06874(3) 0.01696(3) Uani 1.00 d 2
H H3 0.887(1) 0.75000 0.3567(2) 0.02859 Uani 1.00 d 2
H H6 0.912(1) 0.75000 0.7344(3) 0.02972 Uani 1.00 d 2
H H18A 1.2024(7) 0.75000 0.3384(3) 0.02386 Uani 1.00 d 2
H H18B 1.3827(2) 0.75000 0.2928(8) 0.02633 Uani 1.00 d 2
H H10 1.1944(8) 0.75000 -0.0723(4) 0.02853 Uani 1.00 d 2
H H16 0.5983(5) 0.75000 0.1551(6) 0.02795 Uani 1.00 d 2
H H7A 0.5298(8) 0.6097(7) 0.5784(7) 0.03903 Uani 1 d 1
H H7B 0.638(2) 0.75000 0.69417(10) 0.03962 Uani 1.00 d 2
H H8A 1.3041(7) 0.8853(7) 0.6940(6) 0.03707 Uani 1 d 1
H H8B 1.216(1) 0.75000 0.7852(3) 0.03896 Uani 1.00 d 2
H H19A 0.589(1) 0.6098(7) -0.1150(5) 0.03214 Uani 1 d 1
H H19B 0.4706(5) 0.75000 -0.0435(6) 0.03397 Uani 1.00 d 2
loop_
_atom_site_aniso_label
_atom_site_aniso_U_11
_atom_site_aniso_U_22
_atom_site_aniso_U_33
_atom_site_aniso_U_12
_atom_site_aniso_U_13
_atom_site_aniso_U_23
O2 0.00832(8) 0.0227(1) 0.0157(1) 0. -0.00010(8) 0.
O4 0.00885(7) 0.0223(1) 0.01043(8) 0. 0.00360(7) 0.
N1 0.00894(6) 0.01412(7) 0.01303(7) 0. 0.00431(5) 0.
N3 0.00805(6) 0.01467(7) 0.00888(6) 0. 0.00168(5) 0.
C2 0.00770(6) 0.01334(6) 0.01157(7) 0. 0.00186(5) 0.
C4 0.00792(6) 0.01329(6) 0.00844(6) 0. 0.00219(5) 0.
C5 0.00868(6) 0.01486(7) 0.00879(6) 0. 0.00229(5) 0.
C6 0.01030(7) 0.01522(7) 0.01030(7) 0. 0.00397(5) 0.
C7 0.01127(8) 0.01947(9) 0.0198(1) 0. 0.00759(7) 0.
C8 0.01077(7) 0.02269(10) 0.01035(8) 0. 0.00114(6) 0.
N9 0.00980(7) 0.01897(8) 0.01079(7) 0. 0.00380(6) 0.
N11 0.01209(8) 0.02070(9) 0.00899(7) 0. 0.00295(6) 0.
N15 0.00894(6) 0.01732(8) 0.00923(7) 0. 0.00267(5) 0.
N17 0.00838(6) 0.01570(7) 0.01018(6) 0. 0.00089(5) 0.
N18 0.00882(7) 0.0262(1) 0.00980(8) 0. 0.00129(6) 0.
C10 0.01190(7) 0.02341(9) 0.01022(7) 0. 0.00451(6) 0.
C12 0.00908(6) 0.01406(6) 0.00858(6) 0. 0.00191(5) 0.
C13 0.00785(6) 0.01302(6) 0.00870(6) 0. 0.00198(5) 0.
C14 0.00818(6) 0.01402(6) 0.00919(6) 0. 0.00214(5) 0.
C16 0.00854(6) 0.01674(7) 0.01163(7) 0. 0.00275(5) 0.
C19 0.01119(8) 0.0230(1) 0.01358(9) 0. -0.00135(6) 0.
H3 0.0231 0.0477 0.0144 0. 0.0046 0.
H6 0.0291 0.0460 0.0164 0. 0.0103 0.
H18A 0.0213 0.0306 0.0214 0. 0.0088 0.
H18B 0.0143 0.0369 0.0270 0. 0.0048 0.
H10 0.0214 0.0441 0.0231 0. 0.0114 0.
H16 0.0162 0.0459 0.0234 0. 0.0084 0.
H7A 0.0301 0.0362 0.0551 -0.0124 0.0192 -0.0097
H7B 0.0325 0.0636 0.0258 0. 0.0133 0.
H8A 0.0274 0.0410 0.0383 -0.0121 0.0023 0.0044
H8B 0.0321 0.0680 0.0168 0. 0.0072 0.
H19A 0.0337 0.0310 0.0286 0.0046 0.0039 -0.0086
H19B 0.0187 0.0601 0.0262 0. 0.0114 0.
loop_
_atom_type_symbol
_atom_type_description
_atom_type_scat_dispersion_real
_atom_type_scat_dispersion_imag
_atom_type_scat_source
C C 0.0033 0.0016 'Su & Coppens, Acta. Cryst. (1997) A53, 749'
H H 0.0000 0.0000 'Su & Coppens, Acta. Cryst. (1997) A53, 749'
N N 0.0061 0.0033 'Su & Coppens, Acta. Cryst. (1997) A53, 749'
O O 0.0106 0.0060 'Su & Coppens, Acta. Cryst. (1997) A53, 749'
loop_
_geom_angle_atom_site_label_1
_geom_angle_atom_site_label_2
_geom_angle_atom_site_label_3
_geom_angle
O2 C2 N1 123.19(3)
O2 C2 N3 121.05(3)
O4 C4 N3 120.61(3)
O4 C4 C5 123.53(2)
N1 C2 N3 115.75(2)
N1 C6 C5 122.92(2)
N1 C6 H6 115.8(5)
N1 C7 H7A 110.8(4)
N1 C7 H7B 107.5(7)
N3 C4 C5 115.86(2)
C2 N1 C6 120.97(2)
C2 N1 C7 118.23(3)
C2 N3 C4 126.21(2)
C2 N3 H3 116.8(5)
C4 N3 H3 117.0(5)
C4 C5 C6 118.29(2)
C4 C5 C8 117.42(2)
C5 C6 H6 121.3(5)
C5 C8 H8B 108.1(5)
C5 C8 H8A 110.8(4)
C6 N1 C7 120.81(3)
C6 C5 C8 124.29(2)
N9 C14 N18 119.49(2)
N9 C14 C13 117.57(3)
N9 C10 N11 129.84(4)
N9 C10 H10 114.6(4)
N11 C12 N17 127.46(3)
N11 C12 C13 126.81(2)
N11 C10 H10 115.6(4)
N15 C16 N17 113.25(3)
N15 C16 H16 124.4(4)
N15 C13 C12 110.39(2)
N15 C13 C14 132.60(2)
N17 C12 C13 105.73(2)
N17 C16 H16 122.3(4)
N17 C19 H19A 109.5(4)
N17 C19 H19B 106.5(4)
N18 C14 C13 122.95(3)
C10 N11 C12 110.48(3)
C10 N9 C14 118.30(2)
C12 N17 C16 106.32(2)
C12 N17 C19 126.16(3)
C12 C13 C14 117.01(2)
C13 N15 C16 104.31(2)
C14 N18 H18B 119.9(6)
C14 N18 H18A 119.8(4)
C16 N17 C19 127.52(3)
H18A N18 H18B 120.3(7)
H7A C7 H7B 108.0(6)
H8A C8 H8B 110.7(5)
H19A C19 H19B 109.9(5)
loop_
_geom_bond_atom_site_label_1
_geom_bond_atom_site_label_2
_geom_bond_distance
O2 C2 1.2286(4)
O4 C4 1.2343(3)
N1 C2 1.3780(3)
N1 C6 1.3745(3)
N1 C7 1.4671(3)
N3 C2 1.3738(3)
N3 C4 1.3769(3)
N3 H3 1.030(1)
C4 C5 1.4383(3)
C5 C6 1.3580(3)
C5 C8 1.4921(3)
C6 H6 1.083(1)
C7 H7A 1.077(1)
C7 H7B 1.077(1)
C8 H8B 1.077(1)
C8 H8A 1.077(1)
N9 C14 1.3535(3)
N9 C10 1.3425(4)
N11 C12 1.3420(3)
N11 C10 1.3325(4)
N15 C16 1.3191(3)
N15 C13 1.3848(3)
N17 C12 1.3733(3)
N17 C16 1.3700(3)
N17 C19 1.4507(3)
N18 C14 1.3333(3)
N18 H18B 1.010(1)
N18 H18A 1.010(1)
C10 H10 1.083(1)
C12 C13 1.3909(3)
C13 C14 1.4132(3)
C16 H16 1.083(1)
C19 H19A 1.077(1)
C19 H19B 1.077(1)
loop_
_geom_torsion_atom_site_label_1
_geom_torsion_atom_site_label_2
_geom_torsion_atom_site_label_3
_geom_torsion_atom_site_label_4
_geom_torsion
C2 N1 C7 H7A 62.2(5)
C4 C5 C8 H8A 58.5(4)
C6 N1 C7 H7A -117.8(5)
C6 C5 C8 H8A -121.5(4)
C12 N17 C19 H19A 61.2(4)
C16 N17 C19 H19A -118.8(4)
loop_
_refln_index_h
_refln_index_k
_refln_index_l
_refln_F_squared_calc
_refln_F_squared_meas
_refln_F_squared_sigma
_refln_observed_status
-18 0 3 15.25 14.73 0.78 o
-18 0 4 10.60 10.42 0.60 o
-18 0 5 27.57 27.45 1.17 o
-18 0 6 3.73 3.89 0.70 o
-18 0 8 1.63 1.02 0.29 o
-18 0 9 12.57 12.59 0.54 o
-18 0 10 5.89 5.88 0.40 o
-18 0 11 4.16 4.15 0.74 o
-18 0 13 15.14 14.43 0.93 o
-18 1 2 9.64 9.69 0.37 o
-18 1 3 5.15 4.96 0.29 o
-18 1 4 1.89 1.82 0.32 o
-18 1 5 13.80 13.94 0.62 o
-18 1 6 2.81 2.72 0.23 o
-18 1 7 11.20 10.91 0.40 o
-18 1 8 4.49 4.21 0.28 o
-18 1 9 3.57 3.36 0.34 o
-18 1 10 23.12 23.60 0.76 o
-18 1 11 29.97 31.18 1.09 o
-18 1 12 26.69 25.96 0.93 o
-18 2 3 14.03 13.74 0.49 o
-18 2 4 9.41 9.42 0.42 o
-18 2 5 25.42 24.68 0.73 o
-18 2 6 3.45 4.07 0.27 o
-18 2 8 1.45 0.86 0.27 o
-18 2 9 11.67 11.24 0.44 o
-18 2 10 5.47 5.57 0.34 o
-18 2 11 3.76 3.21 0.54 o
-18 2 13 13.57 13.26 0.93 o
-18 3 5 11.70 12.09 0.51 o
-18 3 6 2.44 2.28 0.25 o
-18 3 7 9.52 9.87 0.41 o
-18 3 8 3.92 3.62 0.30 o
-18 3 9 3.00 3.40 0.34 o
-18 3 10 19.73 18.37 0.91 o
-18 3 11 25.45 24.66 0.79 o
-17 0 4 8.33 8.76 0.50 o
-17 0 6 16.72 15.98 0.67 o
-17 0 8 10.29 10.69 0.54 o
-17 0 9 2.57 2.36 0.42 o
-17 0 10 41.69 42.96 2.59 o
-17 0 11 1.35 1.25 0.30 o
-17 0 12 10.05 9.01 0.83 o
-17 0 15 1.91 2.07 0.69 o
-17 0 17 1.64 2.27 0.72 o
-17 0 18 8.07 7.67 0.46 o
-17 1 1 9.34 9.61 0.56 o
-17 1 2 2.81 2.66 0.28 o
-17 1 3 37.01 36.01 1.12 o
-17 1 5 8.61 8.47 0.37 o
-17 1 6 2.54 2.75 0.26 o
-17 1 7 7.20 7.11 0.35 o
-17 1 8 60.24 61.17 1.58 o
-17 1 9 12.67 12.78 0.46 o
-17 1 10 5.64 5.70 0.41 o
-17 1 11 0.84 0.79 0.23 o
-17 1 12 20.81 21.16 1.39 o
-17 1 13 6.30 6.29 0.78 o
-17 1 16 2.65 2.32 0.68 o
-17 1 18 4.71 5.08 0.34 o
-17 2 1 1.90 1.84 0.25 o
-17 2 4 7.64 7.79 0.42 o
-17 2 6 15.22 14.69 0.49 o
-17 2 7 1.19 0.97 0.21 o
-17 2 8 9.52 8.60 0.49 o
-17 2 9 2.31 2.50 0.28 o
-17 2 10 38.82 40.03 1.22 o
-17 2 11 1.26 1.34 0.28 o
-17 2 12 9.32 9.13 0.84 o
-17 3 1 7.84 7.52 0.37 o
-17 3 2 2.42 2.59 0.26 o
-17 3 3 31.50 30.90 0.97 o
-17 3 5 7.10 7.13 0.38 o
-17 3 6 2.19 1.92 0.33 o
-17 3 7 5.96 6.08 0.36 o
-17 3 8 49.27 49.41 4.17 o
-17 3 9 9.99 9.21 0.42 o
-17 3 10 4.90 4.85 0.34 o
-17 3 12 17.85 17.52 0.68 o
-17 3 13 5.16 4.80 0.63 o
-17 3 16 2.21 2.44 0.64 o
-17 4 1 1.74 1.58 0.38 o
-17 4 4 5.89 5.92 0.35 o
-17 4 6 11.54 11.39 0.54 o
-17 4 8 7.48 7.17 0.37 o
-17 4 9 1.72 2.01 0.31 o
-17 4 10 31.38 29.54 1.22 o
-17 4 12 7.46 7.13 0.61 o
-17 5 3 22.98 23.08 0.74 o
-17 5 5 4.85 4.77 0.32 o
-17 5 6 1.67 1.63 0.20 o
-17 5 7 4.12 3.74 0.42 o
-17 5 8 33.02 32.24 1.54 o
-17 5 9 6.27 5.97 0.42 o
-17 5 10 3.62 2.89 0.85 o
-17 5 12 13.10 12.21 0.53 o
-17 5 13 3.48 3.02 0.32 o
-16 0 1 57.11 58.03 1.96 o
-16 0 2 9.05 9.92 0.88 o
-16 0 3 23.66 22.92 1.12 o
-16 0 4 58.97 58.36 1.99 o
-16 0 5 3.46 4.12 0.76 o
-16 0 6 3.35 3.07 0.48 o
-16 0 7 1.71 1.63 0.36 o
-16 0 8 16.96 16.79 0.69 o
-16 0 9 4.47 3.95 0.55 o
-16 0 10 22.32 22.38 0.80 o
-16 0 11 8.16 7.80 0.49 o
-16 0 12 4.53 5.70 0.76 o
-16 0 18 6.10 7.46 0.95 o
-16 0 19 53.66 54.17 1.62 o
-16 0 20 28.91 29.64 0.95 o
-16 0 21 7.36 7.18 0.45 o
-16 1 1 12.49 13.23 0.59 o
-16 1 2 16.33 16.27 0.88 o
-16 1 3 36.20 36.50 1.13 o
-16 1 5 3.00 2.95 0.30 o
-16 1 6 8.41 8.66 0.44 o
-16 1 7 12.26 12.04 0.45 o
-16 1 9 10.49 10.11 0.42 o
-16 1 10 1.91 2.12 0.27 o
-16 1 11 2.95 2.89 0.31 o
-16 1 12 10.00 10.03 0.45 o
-16 1 13 9.37 8.37 0.65 o
-16 1 14 51.42 54.01 1.79 o
-16 1 15 8.40 8.48 0.87 o
-16 1 16 20.10 21.27 1.17 o
-16 1 17 29.35 29.78 1.28 o
-16 1 19 12.17 12.59 0.49 o
-16 1 20 29.89 30.07 0.83 o
-16 1 21 1.39 1.09 0.21 o
-16 2 1 52.91 51.61 3.32 o
-16 2 2 8.09 8.14 0.93 o
-16 2 3 21.42 21.09 0.98 o
-16 2 4 53.46 51.07 1.52 o
-16 2 5 3.08 2.64 0.30 o
-16 2 6 3.07 2.99 0.31 o
-16 2 7 1.63 1.41 0.28 o
-16 2 8 15.13 14.90 0.56 o
-16 2 9 4.19 4.12 0.35 o
-16 2 10 20.42 19.64 0.74 o
-16 2 11 7.26 7.75 0.47 o
-16 2 12 4.11 3.88 0.40 o
-16 2 13 1.02 1.33 0.30 o
-16 2 14 5.86 5.85 0.44 o
-16 2 16 1.26 1.52 0.31 o
-16 2 18 5.52 5.99 0.42 o
-16 2 19 49.46 49.44 1.45 o
-16 2 20 26.41 26.24 0.86 o
-16 3 1 10.44 10.49 0.53 o
-16 3 2 13.62 13.24 0.59 o
-16 3 3 30.77 29.48 1.85 o
-16 3 5 2.29 2.51 0.28 o
-16 3 6 7.41 7.42 0.49 o
-16 3 7 10.46 10.60 0.64 o
-16 3 9 8.81 8.09 0.51 o
-16 3 10 1.63 1.39 0.25 o
-16 3 11 2.56 3.23 0.39 o
-16 3 12 8.24 7.87 1.45 o
-16 3 13 7.89 7.81 0.48 o
-16 3 14 42.01 41.31 1.23 o
-16 3 15 7.20 7.85 0.50 o
-16 3 16 16.51 15.34 0.59 o
-16 3 19 10.39 10.85 0.85 o
-16 4 1 41.90 42.04 1.16 o
-16 4 2 5.91 6.09 0.39 o
-16 4 3 15.90 15.35 0.63 o
-16 4 4 40.09 38.93 1.38 o
-16 4 5 2.20 1.87 0.26 o
-16 4 6 2.33 2.30 0.30 o
-16 4 7 1.41 1.31 0.25 o
-16 4 8 10.83 11.13 0.66 o
-16 4 9 3.35 3.40 0.32 o
-16 4 10 15.64 15.05 1.22 o
-16 4 11 5.14 4.89 0.42 o
-16 4 12 3.01 2.57 0.33 o
-16 4 14 4.35 4.13 0.41 o
-16 4 16 0.89 0.94 0.27 o
-16 5 1 7.31 7.34 0.45 o
-16 5 2 9.57 10.36 0.47 o
-16 5 3 22.02 21.45 0.68 o
-16 5 5 1.33 1.22 0.27 o
-16 5 6 5.73 6.15 0.37 o
-16 5 7 7.66 6.94 0.39 o
-16 5 9 6.31 6.11 0.44 o
-16 5 10 1.22 1.45 0.30 o
-16 5 11 1.88 2.15 0.33 o
-16 5 12 5.57 5.00 0.45 o
-16 5 13 5.66 5.32 0.40 o
-16 5 14 28.19 27.28 1.27 o
-16 5 15 5.32 4.58 0.39 o
-16 5 16 11.22 10.54 0.50 o
-16 6 1 28.37 30.24 1.32 o
-16 6 2 3.57 3.69 0.40 o
-16 6 3 9.71 10.18 0.44 o
-16 6 4 25.11 25.58 0.83 o
-16 6 5 1.29 1.34 0.20 o
-16 6 6 1.45 1.60 0.23 o
-16 6 7 1.09 0.86 0.23 o
-16 6 8 6.22 6.20 0.49 o
-16 6 9 2.27 2.30 0.26 o
-16 6 10 10.05 8.82 0.78 o
-16 6 11 2.94 2.76 0.33 o
-16 6 12 1.78 1.22 0.28 o
-16 6 14 2.66 2.42 0.34 o
-16 7 6 3.89 3.57 0.30 o
-16 7 7 4.86 4.44 0.28 o
-16 7 9 3.84 3.78 0.39 o
-15 0 1 4.50 4.66 0.73 o
-15 0 2 14.97 15.58 0.94 o
-15 0 3 18.52 20.15 1.03 o
-15 0 5 25.16 25.92 1.12 o
-15 0 6 37.90 38.16 1.38 o
-15 0 7 4.13 3.60 0.54 o
-15 0 8 4.68 4.51 0.43 o
-15 0 9 14.40 14.58 0.84 o
-15 0 10 1.86 1.94 0.29 o
-15 0 13 43.42 45.33 1.44 o
-15 0 14 3.91 4.05 0.71 o
-15 0 18 26.71 26.49 1.28 o
-15 0 19 1.17 1.03 0.32 o
-15 0 21 1.29 1.41 0.33 o
-15 0 22 18.99 18.51 1.01 o
-15 0 23 11.83 11.83 0.87 o
-15 1 1 7.18 7.45 0.78 o
-15 1 2 2.96 2.83 0.68 o
-15 1 3 20.69 20.65 1.03 o
-15 1 4 5.93 6.50 0.46 o
-15 1 5 10.08 9.93 0.45 o
-15 1 6 31.98 31.02 0.93 o
-15 1 8 65.00 65.50 1.68 o
-15 1 9 14.72 13.87 0.49 o
-15 1 10 2.23 2.06 0.26 o
-15 1 13 27.69 29.10 0.98 o
-15 1 14 1.85 1.66 0.27 o
-15 1 15 22.64 22.26 1.15 o
-15 1 16 4.30 3.98 0.79 o
-15 1 17 7.57 7.62 0.75 o
-15 1 18 3.12 3.80 0.43 o
-15 1 19 12.20 12.81 1.76 o
-15 1 20 3.36 3.01 0.27 o
-15 2 1 4.06 3.33 0.70 o
-15 2 2 14.11 14.69 1.13 o
-15 2 3 16.69 15.89 0.67 o
-15 2 5 22.74 23.15 0.95 o
-15 2 6 34.68 34.33 1.09 o
-15 2 7 3.81 3.45 0.29 o
-15 2 8 4.16 4.01 0.33 o
-15 2 9 13.00 13.38 0.60 o
-15 2 10 1.58 1.65 0.23 o
-15 2 13 40.02 39.13 1.16 o
-15 2 14 3.42 3.49 0.47 o
-15 2 15 17.77 17.92 0.62 o
-15 2 17 10.19 10.06 0.53 o
-15 2 18 24.08 23.63 0.85 o
-15 2 19 1.10 1.02 0.32 o
-15 2 21 1.22 1.28 0.25 o
-15 2 22 17.55 16.73 0.52 o
-15 3 1 5.77 5.85 0.37 o
-15 3 3 16.90 17.42 1.07 o
-15 3 4 4.44 4.01 0.40 o
-15 3 5 8.06 8.10 1.02 o
-15 3 6 27.81 27.93 0.95 o
-15 3 8 54.75 51.73 1.54 o
-15 3 9 12.31 11.56 0.58 o
-15 3 10 2.03 1.77 0.41 o
-15 3 13 22.38 22.33 0.80 o
-15 3 14 1.50 1.74 0.32 o
-15 3 15 18.95 18.58 1.50 o
-15 3 16 3.41 3.27 0.32 o
-15 3 17 6.37 6.07 0.45 o
-15 3 18 2.58 3.07 0.47 o
-15 3 19 10.43 10.16 0.52 o
-15 3 20 3.28 3.14 0.36 o
-15 4 1 2.99 2.68 0.23 o
-15 4 2 11.48 10.99 0.47 o
-15 4 3 12.16 12.42 0.49 o
-15 4 5 16.97 17.78 0.75 o
-15 4 6 26.19 26.69 1.79 o
-15 4 7 2.99 2.77 0.36 o
-15 4 8 2.90 2.20 0.28 o
-15 4 9 9.50 8.99 0.90 o
-15 4 13 31.06 28.34 1.20 o
-15 4 14 2.30 2.48 0.34 o
-15 4 15 13.36 12.49 0.66 o
-15 4 17 8.01 8.49 0.48 o
-15 4 18 17.66 16.26 1.09 o
-15 4 19 0.94 1.26 0.29 o
-15 5 1 3.79 3.60 0.28 o
-15 5 2 1.71 1.43 0.21 o
-15 5 3 11.56 12.51 0.61 o
-15 5 4 2.56 2.70 0.28 o
-15 5 5 5.33 4.72 0.35 o
-15 5 6 20.83 20.73 0.77 o
-15 5 8 38.89 39.39 2.47 o
-15 5 9 8.57 8.22 0.60 o
-15 5 10 1.64 1.81 0.27 o
-15 5 13 14.73 14.23 0.62 o
-15 5 15 13.24 12.02 0.55 o
-15 5 17 4.52 4.17 0.38 o
-15 5 18 1.74 1.89 0.30 o
-15 5 19 7.64 7.35 0.44 o
-15 6 1 1.79 1.66 0.23 o
-15 6 2 8.00 8.69 0.42 o
-15 6 3 7.17 7.28 0.56 o
-15 6 5 10.51 10.26 0.66 o
-15 6 6 16.24 16.75 0.63 o
-15 6 7 2.03 1.81 0.30 o
-15 6 8 1.61 1.43 0.21 o
-15 6 9 5.70 5.95 0.34 o
-15 6 13 20.29 19.20 0.71 o
-15 6 15 8.32 8.52 0.47 o
-15 6 17 5.33 4.96 0.39 o
-15 7 1 2.02 2.21 0.30 o
-15 7 3 6.55 6.69 0.33 o
-15 7 4 1.10 1.02 0.17 o
-15 7 5 2.92 2.86 0.22 o
-15 7 6 13.38 13.08 0.47 o
-15 7 8 23.27 23.12 0.68 o
-15 7 9 5.06 5.08 0.49 o
-15 7 10 1.19 1.36 0.24 o
-15 7 13 7.87 7.41 0.44 o
-15 7 15 7.82 6.72 0.87 o
-15 8 2 4.85 4.58 0.87 o
-15 8 3 3.47 3.55 0.30 o
-15 8 4 0.28 0.57 0.16 o
-15 8 5 5.33 5.16 0.29 o
-15 8 6 8.44 8.41 0.42 o
-15 8 7 1.20 1.39 0.16 o
-15 8 8 0.72 0.50 0.15 o
-15 8 9 2.85 2.93 0.27 o
-14 0 2 38.71 40.15 1.43 o
-14 0 3 10.94 11.75 0.83 o
-14 0 4 38.29 38.45 1.38 o
-14 0 6 85.98 87.56 2.71 o
-14 0 8 5.92 5.95 0.45 o
-14 0 9 34.90 34.19 1.06 o
-14 0 10 6.66 6.72 0.47 o
-14 0 11 11.09 11.59 0.58 o
-14 0 12 67.26 68.86 2.05 o
-14 0 13 40.95 41.58 1.81 o
-14 0 14 32.94 33.70 1.57 o
-14 0 15 6.91 6.60 0.74 o
-14 0 17 3.55 2.49 0.73 o
-14 0 21 24.17 23.63 0.86 o
-14 0 23 12.17 12.20 0.57 o
-14 0 24 30.10 31.66 1.34 o
-14 1 1 57.75 60.87 1.98 o
-14 1 2 57.86 58.19 1.89 o
-14 1 5 7.64 8.33 0.76 o
-14 1 6 52.77 51.89 1.93 o
-14 1 8 95.74 93.78 4.17 o
-14 1 9 11.87 12.44 0.63 o
-14 1 10 13.38 13.66 0.50 o
-14 1 11 9.87 10.07 0.42 o
-14 1 12 8.40 8.56 0.42 o
-14 1 13 12.96 12.42 0.48 o
-14 1 14 24.09 24.19 0.97 o
-14 1 16 8.21 8.10 0.56 o
-14 1 18 0.85 1.22 0.34 o
-14 1 21 4.80 4.39 0.31 o
-14 1 23 3.54 3.32 0.26 o
-14 1 24 0.93 0.98 0.21 o
-14 2 1 97.23 99.44 3.15 o
-14 2 2 36.09 36.59 1.34 o
-14 2 3 10.15 10.52 0.85 o
-14 2 4 34.73 33.58 1.42 o
-14 2 6 77.93 74.07 2.07 o
-14 2 8 5.25 5.57 0.39 o
-14 2 9 30.69 29.61 0.98 o
-14 2 10 6.03 6.18 0.38 o
-14 2 11 10.36 10.40 0.54 o
-14 2 12 61.34 59.23 1.69 o
-14 2 13 37.13 37.13 1.05 o
-14 2 14 29.76 29.97 0.84 o
-14 2 15 6.43 6.23 0.41 o
-14 2 16 1.23 1.28 0.23 o
-14 2 17 3.26 3.57 0.42 o
-14 2 18 17.37 17.71 0.73 o
-14 2 21 22.12 21.81 1.02 o
-14 2 23 11.29 10.68 0.45 o
-14 2 24 27.36 27.20 1.22 o
-14 3 1 48.18 48.74 1.33 o
-14 3 2 48.24 48.89 1.61 o
-14 3 3 0.71 0.90 0.24 o
-14 3 5 6.80 7.07 0.90 o
-14 3 6 43.05 42.37 1.52 o
-14 3 8 80.15 77.68 2.19 o
-14 3 9 10.29 11.13 0.59 o
-14 3 10 10.76 10.34 0.55 o
-14 3 11 8.55 7.89 0.71 o
-14 3 12 7.03 7.11 0.46 o
-14 3 13 10.49 8.84 1.62 o
-14 3 14 20.41 19.63 0.74 o
-14 3 16 7.07 6.87 0.35 o
-14 3 18 0.67 0.98 0.30 o
-14 3 21 4.05 3.66 0.41 o
-14 3 23 2.94 2.42 0.23 o
-14 4 1 75.60 74.33 1.97 o
-14 4 2 29.50 29.00 0.93 o
-14 4 3 8.17 8.68 0.44 o
-14 4 4 26.15 26.61 0.98 o
-14 4 6 59.37 59.77 3.42 o
-14 4 8 3.57 4.09 0.31 o
-14 4 9 21.03 21.37 1.62 o
-14 4 10 4.45 4.61 0.37 o
-14 4 11 8.31 7.84 0.79 o
-14 4 12 46.10 43.45 1.56 o
-14 4 13 28.00 26.34 0.90 o
-14 4 14 21.70 19.85 0.76 o
-14 4 15 5.24 4.97 0.36 o
-14 4 16 0.62 0.70 0.23 o
-14 4 17 2.51 2.23 0.30 o
-14 4 18 12.97 12.45 0.74 o
-14 4 21 17.05 16.56 0.66 o
-14 5 1 33.76 34.40 0.95 o
-14 5 2 33.61 32.11 1.52 o
-14 5 3 0.63 0.73 0.19 o
-14 5 5 5.05 5.06 0.28 o
-14 5 6 28.90 28.67 0.87 o
-14 5 8 56.69 57.91 4.19 o
-14 5 9 7.97 8.16 0.76 o
-14 5 10 6.98 7.91 0.63 o
-14 5 11 6.50 6.91 0.43 o
-14 5 12 5.04 3.86 0.70 o
-14 5 13 6.88 6.56 0.87 o
-14 5 14 14.61 14.15 0.66 o
-14 5 16 5.15 5.30 0.37 o
-14 5 21 2.90 2.91 0.33 o
-14 6 1 49.80 47.32 3.30 o
-14 6 2 20.99 18.75 0.65 o
-14 6 3 5.68 5.37 0.32 o
-14 6 4 16.43 16.77 0.77 o
-14 6 6 38.47 38.69 2.17 o
-14 6 8 1.83 1.90 0.22 o
-14 6 9 11.30 11.90 0.72 o
-14 6 10 2.65 2.52 0.22 o
-14 6 11 5.67 6.32 0.36 o
-14 6 12 28.61 28.87 1.53 o
-14 6 13 17.67 17.73 1.12 o
-14 6 14 12.73 11.70 0.56 o
-14 6 15 3.73 3.41 0.31 o
-14 6 17 1.60 1.22 0.35 o
-14 6 18 7.95 8.44 0.76 o
-14 7 1 19.88 19.13 0.65 o
-14 7 2 19.65 19.62 0.66 o
-14 7 5 3.28 3.40 0.22 o
-14 7 6 16.03 15.99 0.51 o
-14 7 8 33.82 34.62 1.02 o
-14 7 9 5.40 5.63 0.33 o
-14 7 10 3.68 3.69 0.25 o
-14 7 11 4.24 4.34 0.28 o
-14 7 12 3.07 2.85 0.25 o
-14 7 13 3.70 3.55 0.39 o
-14 7 14 8.92 9.43 1.18 o
-14 7 16 3.19 3.44 0.75 o
-14 8 1 27.97 27.77 1.28 o
-14 8 2 12.83 13.25 0.68 o
-14 8 3 3.40 3.58 0.33 o
-14 8 4 8.62 8.57 0.41 o
-14 8 6 20.87 21.64 0.85 o
-14 8 8 0.70 0.77 0.15 o
-14 8 9 4.69 4.63 0.26 o
-14 8 10 1.32 1.02 0.16 o
-14 8 11 3.28 3.16 0.27 o
-14 8 12 14.87 15.22 0.50 o
-14 8 13 9.31 9.39 0.49 o
-14 8 14 6.05 5.38 0.81 o
-14 8 15 2.28 2.51 0.25 o
-14 9 2 9.71 9.03 0.45 o
-14 9 5 1.89 1.83 0.21 o
-14 9 6 7.38 7.61 0.30 o
-14 9 8 16.96 16.62 0.68 o
-14 9 9 3.12 2.86 0.18 o
-14 9 10 1.59 1.60 0.16 o
-14 9 11 2.39 2.48 0.25 o
-13 0 5 3.20 2.56 0.55 o
-13 0 6 1.85 1.64 0.47 o
-13 0 7 2.14 2.39 0.49 o
-13 0 10 18.79 18.45 0.69 o
-13 0 11 116.62 116.50 3.07 o
-13 0 12 42.31 44.64 1.38 o
-13 0 13 18.92 21.08 2.03 o
-13 0 14 25.77 28.85 2.29 o
-13 0 15 11.32 11.67 0.87 o
-13 0 17 55.64 55.81 2.34 o
-13 0 19 20.66 20.70 1.17 o
-13 0 20 3.90 3.80 0.89 o
-13 0 22 2.15 2.33 0.36 o
-13 0 23 2.96 2.94 0.35 o
-13 0 24 3.83 3.48 0.64 o
-13 1 1 70.94 72.31 2.18 o
-13 1 2 239.14 236.04 8.27 o
-13 1 3 12.76 11.36 0.80 o
-13 1 4 11.66 11.70 0.78 o
-13 1 5 4.14 4.35 0.49 o
-13 1 6 11.89 12.25 0.59 o
-13 1 7 7.79 7.42 0.40 o
-13 1 9 35.65 33.55 1.02 o
-13 1 10 47.80 48.82 1.27 o
-13 1 11 8.21 8.07 0.35 o
-13 1 12 0.75 0.76 0.23 o
-13 1 13 72.32 73.08 2.03 o
-13 1 14 2.17 2.77 0.39 o
-13 1 15 40.83 42.45 1.62 o
-13 1 16 15.48 14.12 0.72 o
-13 1 17 11.13 11.02 0.57 o
-13 1 18 6.42 6.17 0.37 o
-13 1 20 26.80 27.43 1.42 o
-13 1 21 3.38 3.13 0.29 o
-13 1 23 13.87 13.23 0.48 o
-13 1 25 7.78 8.04 0.35 o
-13 2 2 89.75 91.72 2.72 o
-13 2 4 89.32 90.55 9.23 o
-13 2 5 2.66 2.35 0.28 o
-13 2 6 1.96 1.60 0.53 o
-13 2 7 2.19 2.34 0.27 o
-13 2 10 17.04 17.06 0.59 o
-13 2 11 106.88 106.96 3.06 o
-13 2 12 38.93 38.67 1.14 o
-13 2 13 17.16 17.57 0.59 o
-13 2 14 23.48 24.08 0.73 o
-13 2 15 10.45 11.25 0.53 o
-13 2 16 1.03 1.10 0.25 o
-13 2 17 51.66 51.70 1.44 o
-13 2 19 19.08 18.60 0.76 o
-13 2 20 3.41 3.28 0.40 o
-13 2 21 1.13 1.53 0.32 o
-13 2 23 2.62 2.46 0.31 o
-13 2 24 3.48 3.33 0.27 o
-13 3 1 60.34 61.68 1.72 o
-13 3 2 198.02 195.53 5.32 o
-13 3 3 9.20 9.51 0.57 o
-13 3 4 9.28 8.96 0.48 o
-13 3 5 2.84 2.87 0.30 o
-13 3 6 9.31 9.53 0.62 o
-13 3 7 6.32 5.97 0.39 o
-13 3 9 31.15 31.78 2.09 o
-13 3 10 42.01 40.49 1.21 o
-13 3 11 6.47 5.76 0.44 o
-13 3 13 59.75 59.42 1.52 o
-13 3 14 1.89 2.32 0.22 o
-13 3 15 34.20 34.25 0.95 o
-13 3 16 12.09 11.97 0.44 o
-13 3 17 9.60 9.88 0.44 o
-13 3 18 5.32 5.11 0.46 o
-13 3 20 21.94 21.97 0.83 o
-13 3 21 3.01 2.46 0.63 o
-13 3 23 11.62 11.53 0.59 o
-13 4 2 69.20 70.72 1.96 o
-13 4 4 68.40 69.12 3.75 o
-13 4 5 1.62 1.79 0.19 o
-13 4 6 1.93 1.93 0.23 o
-13 4 7 2.04 2.17 0.23 o
-13 4 10 13.06 14.04 0.67 o
-13 4 11 82.12 82.86 5.32 o
-13 4 12 30.84 28.58 0.96 o
-13 4 13 12.83 12.66 0.59 o
-13 4 14 17.50 18.54 0.71 o
-13 4 15 8.11 7.75 0.41 o
-13 4 16 0.98 1.26 0.20 o
-13 4 17 41.45 40.82 1.11 o
-13 4 19 15.11 14.63 0.66 o
-13 4 22 1.61 1.53 0.25 o
-13 4 23 1.82 1.81 0.31 o
-13 5 1 44.46 43.46 1.14 o
-13 5 2 138.13 134.27 3.43 o
-13 5 3 4.63 4.97 0.36 o
-13 5 4 6.00 6.22 0.33 o
-13 5 5 1.12 1.05 0.18 o
-13 5 6 5.71 5.81 0.33 o
-13 5 7 4.12 3.86 0.33 o
-13 5 9 22.66 22.94 1.31 o
-13 5 10 32.47 32.43 2.71 o
-13 5 11 4.01 4.10 0.28 o
-13 5 13 40.67 38.04 1.17 o
-13 5 14 1.44 1.63 0.48 o
-13 5 15 24.47 23.80 0.81 o
-13 5 16 7.57 7.37 0.49 o
-13 5 17 7.18 7.23 0.40 o
-13 5 18 3.70 3.88 0.30 o
-13 5 20 14.72 15.62 0.86 o
-13 5 21 2.39 2.32 0.32 o
-13 5 23 8.16 7.95 0.95 o
-13 6 2 45.21 45.82 1.67 o
-13 6 4 44.03 43.72 1.14 o
-13 6 5 0.75 0.75 0.14 o
-13 6 6 1.61 1.70 0.16 o
-13 6 7 1.63 1.55 0.16 o
-13 6 10 8.62 9.19 0.39 o
-13 6 11 53.00 53.95 2.79 o
-13 6 12 21.14 22.11 1.46 o
-13 6 13 8.00 7.89 0.68 o
-13 6 14 10.69 10.38 0.54 o
-13 6 15 5.26 4.97 0.36 o
-13 6 17 28.65 28.29 0.96 o
-13 6 19 10.34 9.90 0.78 o
-13 6 20 1.18 1.17 0.23 o
-13 7 1 28.44 28.55 1.48 o
-13 7 2 81.32 81.28 3.79 o
-13 7 3 1.45 1.57 0.18 o
-13 7 4 3.27 3.14 0.21 o
-13 7 6 2.72 2.72 0.19 o
-13 7 7 2.19 2.27 0.18 o
-13 7 9 13.98 14.24 0.52 o
-13 7 10 21.99 22.48 1.17 o
-13 7 11 2.02 1.94 0.19 o
-13 7 13 22.87 22.13 1.29 o
-13 7 15 14.79 15.40 0.84 o
-13 7 16 3.81 3.59 0.75 o
-13 7 17 4.63 4.12 0.36 o
-13 7 18 2.18 2.74 0.23 o
-13 8 2 25.08 25.56 1.22 o
-13 8 4 24.06 24.11 0.68 o
-13 8 6 1.22 1.45 0.16 o
-13 8 7 1.16 1.05 0.16 o
-13 8 10 4.73 5.09 0.26 o
-13 8 11 28.92 29.34 0.98 o
-13 8 12 12.39 12.17 0.42 o
-13 8 13 4.19 4.58 0.25 o
-13 8 14 5.45 6.02 0.58 o
-13 8 15 2.90 2.85 0.23 o
-13 8 17 16.98 19.06 0.67 o
-13 9 1 15.64 15.53 1.46 o
-13 9 2 40.36 40.88 1.87 o
-13 9 4 1.47 1.36 0.18 o
-13 9 6 1.01 0.78 0.20 o
-13 9 7 0.96 1.06 0.15 o
-13 9 9 7.47 7.80 0.39 o
-13 9 10 12.95 13.52 0.45 o
-13 9 11 0.82 0.64 0.13 o
-13 9 13 10.75 11.19 0.44 o
-13 9 14 0.58 0.61 0.17 o
-13 9 15 7.54 6.70 0.42 o
-13 10 4 11.09 11.43 0.74 o
-13 10 6 0.79 0.80 0.15 o
-13 10 7 0.70 0.70 0.15 o
-12 0 6 1.74 1.38 0.30 o
-12 0 7 2.34 2.19 0.44 o
-12 0 8 113.87 116.57 3.21 o
-12 0 9 3.46 5.66 0.40 o
-12 0 10 164.39 168.52 4.76 o
-12 0 11 280.92 279.04 8.98 o
-12 0 12 1.83 3.35 1.03 o
-12 0 14 26.21 25.72 1.28 o
-12 0 15 2.54 5.49 0.68 o
-12 0 16 44.22 42.73 2.03 o
-12 0 17 72.57 73.08 4.29 o
-12 0 19 21.41 22.31 1.24 o
-12 0 21 16.10 15.79 1.35 o
-12 0 24 15.03 15.72 0.67 o
-12 0 25 6.16 5.73 0.99 o
-12 0 26 3.71 3.59 0.38 o
-12 1 1 32.90 30.75 1.79 o
-12 1 2 22.91 23.31 0.92 o
-12 1 3 6.88 6.89 1.14 o
-12 1 6 2.32 1.94 0.33 o
-12 1 7 73.98 74.35 5.03 o
-12 1 9 32.58 32.77 0.90 o
-12 1 10 215.08 208.61 5.67 o
-12 1 11 33.76 33.84 0.97 o
-12 1 12 8.66 8.36 0.41 o
-12 1 13 31.97 31.53 0.99 o
-12 1 14 3.70 3.31 0.45 o
-12 1 15 149.92 150.82 5.06 o
-12 1 16 3.54 3.35 0.41 o
-12 1 17 53.64 55.69 1.86 o
-12 1 18 12.22 11.63 0.48 o
-12 1 20 4.96 5.18 0.35 o
-12 1 22 45.90 45.34 1.24 o
-12 1 23 13.32 13.28 0.49 o
-12 1 24 7.69 7.87 0.40 o
-12 2 1 64.02 62.04 1.65 o
-12 2 2 105.22 101.42 2.62 o
-12 2 3 91.29 90.47 2.69 o
-12 2 5 43.83 44.93 3.54 o
-12 2 6 1.37 1.46 0.21 o
-12 2 7 2.30 2.87 0.27 o
-12 2 8 106.55 109.95 5.50 o
-12 2 9 3.05 2.66 0.36 o
-12 2 10 149.95 152.31 4.87 o
-12 2 11 253.62 242.34 6.87 o
-12 2 12 1.51 1.25 0.25 o
-12 2 13 0.76 0.93 0.23 o
-12 2 14 24.15 23.62 0.71 o
-12 2 15 2.18 1.69 0.28 o
-12 2 16 40.09 40.03 1.14 o
-12 2 17 67.28 65.29 1.77 o
-12 2 19 19.88 20.48 0.68 o
-12 2 21 14.83 14.53 0.69 o
-12 2 24 13.70 13.79 0.49 o
-12 2 25 5.63 4.96 0.30 o
-12 2 26 3.40 2.02 0.67 o
-12 3 1 25.77 26.47 0.95 o
-12 3 2 21.27 22.07 0.94 o
-12 3 3 6.05 6.53 0.33 o
-12 3 6 2.02 3.88 0.34 o
-12 3 7 60.29 61.82 3.42 o
-12 3 9 25.98 27.05 1.54 o
-12 3 10 182.06 183.77 9.80 o
-12 3 11 28.15 28.81 0.83 o
-12 3 12 7.74 10.16 0.42 o
-12 3 13 26.85 26.55 0.74 o
-12 3 14 3.08 3.21 0.25 o
-12 3 15 127.12 125.47 3.16 o
-12 3 16 3.14 3.14 0.26 o
-12 3 17 46.19 46.46 1.31 o
-12 3 18 9.76 9.97 0.44 o
-12 3 20 3.96 3.71 0.44 o
-12 3 22 37.82 36.35 1.06 o
-12 3 23 10.96 10.25 0.53 o
-12 3 24 6.03 6.28 0.48 o
-12 4 1 51.12 50.89 1.60 o
-12 4 2 78.27 75.08 1.86 o
-12 4 3 69.32 69.90 1.94 o
-12 4 5 31.82 30.67 0.88 o
-12 4 6 0.61 0.51 0.16 o
-12 4 7 2.23 1.91 0.24 o
-12 4 8 84.78 86.19 5.61 o
-12 4 9 1.98 1.56 0.21 o
-12 4 10 115.50 119.21 6.50 o
-12 4 11 190.62 192.40 11.86 o
-12 4 12 1.00 1.06 0.18 o
-12 4 14 19.20 18.58 0.56 o
-12 4 15 1.39 1.36 0.18 o
-12 4 16 29.82 29.52 0.81 o
-12 4 17 53.32 52.03 1.40 o
-12 4 19 15.80 16.86 0.86 o
-12 4 21 11.60 10.77 0.57 o
-12 4 24 10.39 11.10 0.52 o
-12 5 1 16.50 16.91 0.49 o
-12 5 2 16.34 17.21 0.49 o
-12 5 3 4.47 4.48 0.23 o
-12 5 6 1.62 1.71 0.15 o
-12 5 7 41.24 41.86 1.59 o
-12 5 9 15.66 15.45 0.56 o
-12 5 10 130.72 134.80 7.42 o
-12 5 11 19.17 19.93 0.97 o
-12 5 12 6.60 6.73 0.33 o
-12 5 13 19.32 19.48 1.17 o
-12 5 14 2.07 2.05 0.27 o
-12 5 15 90.72 86.86 2.83 o
-12 5 16 2.46 2.56 0.22 o
-12 5 17 33.94 33.30 0.97 o
-12 5 18 6.25 6.41 0.37 o
-12 5 20 2.56 3.10 0.27 o
-12 5 22 25.77 25.36 0.88 o
-12 5 23 7.48 8.21 0.45 o
-12 5 24 3.71 3.65 0.37 o
-12 6 1 34.56 35.27 0.92 o
-12 6 2 47.92 48.23 1.27 o
-12 6 3 45.67 45.05 1.35 o
-12 6 5 19.45 19.35 0.57 o
-12 6 7 1.83 1.94 0.17 o
-12 6 8 57.16 56.60 1.44 o
-12 6 9 0.92 2.20 0.20 o
-12 6 10 75.90 78.24 3.26 o
-12 6 11 121.26 122.97 5.52 o
-12 6 12 0.62 1.24 0.21 o
-12 6 14 13.16 13.55 0.93 o
-12 6 15 0.65 2.68 0.32 o
-12 6 16 18.24 18.80 0.81 o
-12 6 17 35.95 34.81 1.01 o
-12 6 19 10.68 9.69 0.40 o
-12 6 21 7.71 8.37 0.36 o
-12 7 1 8.61 8.53 0.40 o
-12 7 2 10.92 11.01 0.47 o
-12 7 3 2.77 2.68 0.18 o
-12 7 6 1.16 1.26 0.15 o
-12 7 7 23.75 23.67 0.86 o
-12 7 9 7.50 7.39 0.30 o
-12 7 10 80.63 83.01 3.05 o
-12 7 11 10.77 11.07 0.38 o
-12 7 12 5.08 5.04 0.24 o
-12 7 13 11.86 12.95 0.44 o
-12 7 14 1.10 1.12 0.19 o
-12 7 15 54.91 55.02 3.06 o
-12 7 16 1.64 1.62 0.20 o
-12 7 17 21.44 21.38 0.65 o
-12 7 18 3.22 3.11 0.25 o
-12 7 20 1.37 1.31 0.26 o
-12 8 1 20.36 20.51 0.70 o
-12 8 2 24.34 24.54 1.47 o
-12 8 3 25.43 25.51 0.88 o
-12 8 5 9.88 9.67 0.35 o
-12 8 7 1.19 1.12 0.16 o
-12 8 8 33.49 34.99 1.24 o
-12 8 10 42.33 41.33 1.09 o
-12 8 11 65.04 67.43 2.19 o
-12 8 14 7.74 8.04 0.45 o
-12 8 16 9.28 9.58 0.61 o
-12 8 17 20.59 21.13 0.81 o
-12 8 19 6.18 6.19 0.41 o
-12 9 1 3.63 3.45 0.26 o
-12 9 2 6.54 6.74 0.30 o
-12 9 3 1.50 1.67 0.18 o
-12 9 6 0.68 1.01 0.15 o
-12 9 7 11.54 11.22 0.37 o
-12 9 9 2.94 2.93 0.19 o
-12 9 10 42.89 44.97 1.59 o
-12 9 11 5.07 4.95 0.24 o
-12 9 12 3.36 3.86 0.22 o
-12 9 13 6.12 5.87 0.27 o
-12 9 15 28.30 29.29 1.07 o
-12 9 16 0.92 0.94 0.15 o
-12 9 17 11.66 12.18 0.45 o
-12 10 1 10.34 10.21 0.47 o
-12 10 2 10.31 10.43 0.40 o
-12 10 3 11.99 12.38 0.46 o
-12 10 5 4.20 4.39 0.25 o
-12 10 8 16.94 17.28 0.64 o
-12 10 10 20.17 19.25 0.56 o
-12 10 11 29.65 29.76 0.78 o
-11 0 4 19.12 21.38 2.61 o
-11 0 5 14.99 16.49 1.52 o
-11 0 6 77.72 84.57 2.51 o
-11 0 7 6.34 6.62 0.55 o
-11 0 8 41.30 41.69 1.35 o
-11 0 9 26.71 27.45 0.86 o
-11 0 10 353.86 356.48 10.21 o
-11 0 11 46.08 47.24 1.42 o
-11 0 12 84.06 83.72 2.90 o
-11 0 13 9.40 9.70 1.80 o
-11 0 14 10.31 10.28 0.80 o
-11 0 15 17.30 17.76 1.34 o
-11 0 16 40.32 38.23 1.69 o
-11 0 18 18.89 17.26 1.06 o
-11 0 19 23.39 24.86 1.38 o
-11 0 20 3.06 3.31 0.35 o
-11 0 22 2.32 1.94 0.33 o
-11 0 23 2.59 1.74 0.35 o
-11 0 24 35.00 34.55 1.12 o
-11 0 25 20.06 19.78 1.46 o
-11 1 1 20.95 21.34 0.76 o
-11 1 2 17.67 18.15 1.69 o
-11 1 3 60.81 67.11 2.03 o
-11 1 4 12.48 13.27 0.54 o
-11 1 5 202.50 210.27 11.04 o
-11 1 6 9.16 9.51 0.49 o
-11 1 7 140.22 145.26 4.03 o
-11 1 8 230.76 234.28 6.44 o
-11 1 9 8.81 8.34 0.37 o
-11 1 11 8.04 7.71 0.39 o
-11 1 12 128.00 128.93 3.26 o
-11 1 14 14.85 15.17 0.71 o
-11 1 15 9.23 9.35 0.57 o
-11 1 16 13.66 14.52 0.73 o
-11 1 17 4.65 4.24 0.53 o
-11 1 18 7.39 7.06 0.39 o
-11 1 19 1.37 1.19 0.23 o
-11 1 20 16.06 16.18 0.54 o
-11 1 21 4.64 4.77 0.30 o
-11 1 22 8.85 8.86 0.45 o
-11 1 23 8.82 9.20 0.43 o
-11 1 24 3.03 3.12 0.28 o
-11 1 25 1.43 1.48 0.23 o
-11 1 26 14.69 14.40 0.58 o
-11 2 1 113.91 113.25 3.44 o
-11 2 2 19.50 19.50 0.59 o
-11 2 3 34.22 33.65 1.21 o
-11 2 4 17.52 17.92 0.94 o
-11 2 5 13.35 14.35 0.59 o
-11 2 6 69.16 69.66 3.34 o
-11 2 7 5.67 6.20 0.42 o
-11 2 8 37.70 39.33 1.50 o
-11 2 9 25.02 25.84 0.83 o
-11 2 10 325.44 332.43 11.04 o
-11 2 11 43.70 41.79 1.15 o
-11 2 12 77.88 76.55 1.98 o
-11 2 13 8.20 7.89 0.40 o
-11 2 14 9.50 9.39 0.54 o
-11 2 15 15.92 16.18 0.62 o
-11 2 16 36.13 35.94 1.03 o
-11 2 18 16.89 16.35 0.58 o
-11 2 19 21.46 21.81 0.80 o
-11 2 20 2.56 2.17 0.26 o
-11 2 22 2.15 1.86 0.30 o
-11 2 23 2.28 2.03 0.25 o
-11 2 24 32.14 32.00 0.90 o
-11 2 25 18.35 18.08 1.12 o
-11 3 1 18.09 18.25 0.52 o
-11 3 2 15.00 14.77 0.49 o
-11 3 3 49.02 49.53 1.29 o
-11 3 4 11.42 11.61 0.44 o
-11 3 5 163.56 160.98 3.96 o
-11 3 6 5.83 5.70 0.33 o
-11 3 7 111.62 113.29 6.13 o
-11 3 8 192.67 195.63 10.83 o
-11 3 9 7.35 7.36 0.41 o
-11 3 11 5.61 6.76 0.43 o
-11 3 12 105.26 106.15 2.75 o
-11 3 14 12.05 12.37 0.43 o
-11 3 15 8.26 7.92 0.38 o
-11 3 16 10.78 11.20 0.45 o
-11 3 17 4.05 4.25 0.32 o
-11 3 18 5.64 5.49 0.32 o
-11 3 19 1.04 0.85 0.20 o
-11 3 20 13.61 13.29 0.57 o
-11 3 21 3.54 3.65 0.28 o
-11 3 22 7.13 6.84 0.40 o
-11 3 23 7.32 6.91 0.70 o
-11 3 24 2.64 2.17 0.35 o
-11 3 26 12.82 11.78 0.98 o
-11 4 1 80.70 81.05 2.18 o
-11 4 2 15.92 16.03 0.54 o
-11 4 3 23.54 23.51 0.74 o
-11 4 4 12.95 12.75 0.44 o
-11 4 5 8.35 8.19 0.37 o
-11 4 6 50.24 50.45 1.81 o
-11 4 7 4.17 4.25 0.25 o
-11 4 8 29.90 30.80 1.43 o
-11 4 9 20.07 20.77 0.90 o
-11 4 10 254.25 281.16 7.88 o
-11 4 11 35.16 36.00 1.07 o
-11 4 12 60.22 62.15 2.15 o
-11 4 13 5.47 5.61 0.26 o
-11 4 14 7.45 7.37 0.31 o
-11 4 15 12.01 11.76 0.40 o
-11 4 16 26.23 26.37 0.71 o
-11 4 18 12.32 11.27 0.43 o
-11 4 19 16.52 17.90 0.74 o
-11 4 20 1.49 1.29 0.19 o
-11 4 22 1.74 1.92 0.33 o
-11 4 23 1.57 1.52 0.44 o
-11 4 24 24.87 24.23 1.29 o
-11 4 25 14.08 13.60 0.82 o
-11 5 1 13.54 13.84 0.47 o
-11 5 2 9.34 9.34 0.39 o
-11 5 3 32.04 32.08 0.82 o
-11 5 4 8.86 8.94 0.32 o
-11 5 5 111.44 112.83 3.42 o
-11 5 6 2.95 2.87 0.19 o
-11 5 7 72.55 70.75 1.87 o
-11 5 8 132.89 131.02 3.76 o
-11 5 9 4.69 5.09 0.27 o
-11 5 11 3.17 3.41 0.27 o
-11 5 12 70.01 71.35 3.04 o
-11 5 14 7.70 8.57 0.40 o
-11 5 15 6.81 7.09 0.29 o
-11 5 16 6.88 7.06 0.32 o
-11 5 17 3.14 3.29 0.23 o
-11 5 18 3.25 3.43 0.25 o
-11 5 19 0.63 0.78 0.16 o
-11 5 20 9.84 9.62 0.64 o
-11 5 21 2.11 2.47 0.30 o
-11 5 22 4.65 4.37 0.52 o
-11 5 23 5.03 5.33 0.33 o
-11 5 24 2.02 1.90 0.31 o
-11 6 1 47.88 48.90 1.51 o
-11 6 2 10.62 10.93 0.33 o
-11 6 3 12.67 12.19 0.39 o
-11 6 4 8.06 7.91 0.30 o
-11 6 5 3.65 3.70 0.20 o
-11 6 6 30.80 30.52 0.81 o
-11 6 7 2.47 2.40 0.18 o
-11 6 8 20.78 20.76 0.62 o
-11 6 9 13.57 13.34 0.60 o
-11 6 10 169.81 173.55 6.03 o
-11 6 11 24.00 25.56 0.69 o
-11 6 12 38.85 40.16 1.48 o
-11 6 13 2.77 3.02 0.23 o
-11 6 14 5.06 5.30 0.28 o
-11 6 15 7.35 7.81 0.34 o
-11 6 16 15.65 16.17 0.58 o
-11 6 18 7.38 7.52 0.34 o
-11 6 19 10.68 11.08 0.41 o
-11 6 20 0.55 0.57 0.18 o
-11 6 22 1.25 1.46 0.23 o
-11 7 1 8.84 8.84 0.33 o
-11 7 2 4.84 4.87 0.21 o
-11 7 3 17.98 18.89 0.52 o
-11 7 4 6.12 6.18 0.25 o
-11 7 5 64.76 62.79 1.57 o
-11 7 6 1.16 1.26 0.13 o
-11 7 7 39.91 40.47 1.24 o
-11 7 8 77.20 74.32 1.89 o
-11 7 9 2.39 2.40 0.18 o
-11 7 11 1.43 1.53 0.15 o
-11 7 12 38.53 39.34 1.22 o
-11 7 14 4.01 4.12 0.22 o
-11 7 15 4.97 5.13 0.33 o
-11 7 16 3.56 3.42 0.26 o
-11 7 17 2.09 2.10 0.21 o
-11 7 18 1.38 1.39 0.20 o
-11 7 20 6.06 6.56 0.31 o
-11 7 21 0.96 0.89 0.22 o
-11 7 22 2.47 2.64 0.24 o
-11 8 1 23.08 23.39 0.75 o
-11 8 2 5.79 5.78 0.28 o
-11 8 3 5.73 5.70 0.23 o
-11 8 4 4.66 4.65 0.21 o
-11 8 5 1.35 1.24 0.14 o
-11 8 6 15.97 15.86 0.47 o
-11 8 7 1.21 1.24 0.14 o
-11 8 8 12.43 12.53 0.41 o
-11 8 9 7.89 7.39 0.32 o
-11 8 10 97.01 94.42 2.38 o
-11 8 11 14.58 14.94 0.46 o
-11 8 12 21.76 22.37 0.80 o
-11 8 13 1.05 0.98 0.15 o
-11 8 14 3.03 2.88 0.29 o
-11 8 15 3.79 3.89 0.21 o
-11 8 16 7.69 7.72 0.30 o
-11 8 18 3.54 3.43 0.25 o
-11 8 19 5.84 5.85 0.29 o
-11 9 1 4.96 5.31 0.26 o
-11 9 2 2.25 1.96 0.19 o
-11 9 3 8.81 8.86 0.35 o
-11 9 4 3.76 3.99 0.24 o
-11 9 5 32.00 32.29 1.16 o
-11 9 7 18.65 18.75 0.83 o
-11 9 8 38.00 36.24 0.97 o
-11 9 9 1.01 0.91 0.16 o
-11 9 12 17.74 17.50 0.51 o
-11 9 14 1.72 1.62 0.21 o
-11 9 15 3.09 3.34 0.25 o
-11 9 16 1.48 1.38 0.16 o
-11 9 17 1.20 1.30 0.15 o
-11 10 1 9.25 9.20 0.34 o
-11 10 2 2.62 2.64 0.20 o
-11 10 3 2.17 2.02 0.18 o
-11 10 4 2.42 2.42 0.21 o
-11 10 5 0.41 0.67 0.15 o
-11 10 6 7.00 7.09 0.29 o
-11 10 8 6.53 6.72 0.31 o
-11 10 9 3.97 3.74 0.30 o
-11 10 10 47.40 45.97 1.19 o
-11 10 11 7.72 7.98 0.29 o
-11 10 12 10.61 10.88 0.35 o
-11 10 13 0.28 0.47 0.14 o
-11 10 14 1.60 1.52 0.15 o
-11 10 15 1.65 1.70 0.16 o
-11 11 1 2.39 2.45 0.18 o
-11 11 2 0.87 0.83 0.15 o
-11 11 3 3.69 4.01 0.23 o
-11 11 4 1.98 1.74 0.18 o
-11 11 5 13.56 13.26 1.00 o
-11 11 7 7.38 7.18 0.35 o
-11 11 8 15.79 16.35 0.80 o
-10 0 1 6.86 7.06 0.75 o
-10 0 2 34.98 29.76 2.73 o
-10 0 3 264.69 282.72 16.12 o
-10 0 4 14.42 13.16 2.03 o
-10 0 5 75.94 79.50 3.74 o
-10 0 6 2.90 3.38 0.88 o
-10 0 7 50.01 48.71 4.48 o
-10 0 8 18.83 17.03 1.60 o
-10 0 10 7.64 7.98 1.26 o
-10 0 11 75.18 73.08 2.70 o
-10 0 13 12.14 12.35 0.83 o
-10 0 15 12.38 11.52 0.83 o
-10 0 17 8.49 7.81 1.73 o
-10 0 18 13.61 12.96 0.92 o
-10 0 19 66.12 64.14 2.92 o
-10 0 21 76.50 77.75 2.18 o
-10 0 22 7.85 8.10 0.45 o
-10 0 23 4.35 4.55 0.44 o
-10 0 24 35.08 33.44 1.09 o
-10 0 25 14.00 13.86 0.62 o
-10 0 26 2.16 2.75 0.70 o
-10 1 1 25.50 25.66 2.03 o
-10 1 2 14.00 15.42 1.00 o
-10 1 5 43.33 43.27 2.10 o
-10 1 7 9.04 9.94 0.70 o
-10 1 9 4.70 4.53 0.39 o
-10 1 10 15.98 15.50 0.57 o
-10 1 11 7.52 7.83 0.35 o
-10 1 12 22.18 22.90 1.10 o
-10 1 13 28.67 28.14 1.26 o
-10 1 14 13.40 13.70 0.67 o
-10 1 16 4.77 4.77 0.47 o
-10 1 17 26.78 27.03 1.07 o
-10 1 18 45.83 45.73 1.33 o
-10 1 19 97.33 94.97 2.68 o
-10 1 20 117.35 115.45 3.02 o
-10 1 21 26.94 26.07 0.74 o
-10 1 22 6.45 6.32 0.30 o
-10 1 24 0.67 0.76 0.25 o
-10 1 25 15.22 15.52 0.57 o
-10 1 26 5.54 5.38 0.80 o
-10 1 27 19.08 19.32 1.10 o
-10 2 1 5.77 6.03 0.31 o
-10 2 2 29.14 27.72 1.00 o
-10 2 3 238.41 229.66 6.26 o
-10 2 4 13.37 13.33 0.97 o
-10 2 5 71.47 68.44 2.29 o
-10 2 6 2.07 1.75 0.27 o
-10 2 7 42.64 41.19 1.29 o
-10 2 8 16.45 15.86 0.47 o
-10 2 10 7.59 8.19 0.33 o
-10 2 11 66.95 66.45 1.70 o
-10 2 12 1.78 1.92 0.25 o
-10 2 13 10.70 10.72 0.47 o
-10 2 15 10.68 10.64 0.54 o
-10 2 17 7.63 7.08 0.40 o
-10 2 18 12.36 12.04 0.49 o
-10 2 19 60.21 59.21 1.62 o
-10 2 20 1.00 1.09 0.20 o
-10 2 21 69.79 69.23 1.82 o
-10 2 22 6.89 7.09 0.34 o
-10 2 23 3.94 4.00 0.35 o
-10 2 24 32.03 30.99 1.37 o
-10 2 25 13.09 12.61 0.59 o
-10 2 26 1.96 1.31 0.41 o
-10 3 1 19.94 20.00 0.66 o
-10 3 2 10.92 11.22 0.42 o
-10 3 3 0.35 0.49 0.14 o
-10 3 4 1.24 1.30 0.17 o
-10 3 5 37.05 36.16 1.15 o
-10 3 7 7.25 6.79 0.30 o
-10 3 8 0.41 0.62 0.15 o
-10 3 9 4.09 3.96 0.21 o
-10 3 10 13.74 13.71 0.43 o
-10 3 11 6.09 6.43 0.27 o
-10 3 12 16.65 17.30 0.67 o
-10 3 13 23.95 23.71 0.66 o
-10 3 14 11.89 11.90 0.39 o
-10 3 16 3.62 3.59 0.25 o
-10 3 17 22.08 23.34 1.04 o
-10 3 18 39.65 39.45 1.13 o
-10 3 19 82.88 79.50 2.18 o
-10 3 20 98.29 95.59 2.64 o
-10 3 21 22.71 23.04 0.72 o
-10 3 22 5.53 5.36 0.69 o
-10 3 25 12.18 11.83 0.74 o
-10 3 26 4.71 5.16 0.59 o
-10 4 1 2.97 3.21 0.17 o
-10 4 2 17.40 17.01 0.45 o
-10 4 3 178.71 176.17 4.14 o
-10 4 4 9.30 9.15 0.30 o
-10 4 5 52.90 52.21 1.43 o
-10 4 6 0.82 0.88 0.11 o
-10 4 7 27.64 27.65 0.96 o
-10 4 8 10.94 10.91 0.37 o
-10 4 9 0.76 0.83 0.14 o
-10 4 10 6.80 6.92 0.49 o
-10 4 11 45.48 46.37 1.45 o
-10 4 12 1.54 1.63 0.14 o
-10 4 13 7.73 7.51 0.30 o
-10 4 15 7.55 7.81 0.30 o
-10 4 17 5.66 5.74 0.30 o
-10 4 18 9.09 9.39 0.37 o
-10 4 19 45.36 46.16 1.91 o
-10 4 20 0.89 1.02 0.18 o
-10 4 21 52.95 51.86 1.53 o
-10 4 22 4.71 4.71 0.36 o
-10 4 23 2.93 2.85 0.38 o
-10 4 24 24.52 23.24 1.53 o
-10 4 25 10.67 9.95 1.38 o
-10 4 26 1.45 1.63 0.37 o
-10 5 1 12.72 12.70 0.38 o
-10 5 2 8.03 8.07 0.28 o
-10 5 4 0.86 0.93 0.12 o
-10 5 5 27.48 26.76 0.70 o
-10 5 7 4.99 5.05 0.23 o
-10 5 8 0.58 0.53 0.11 o
-10 5 9 2.83 2.68 0.19 o
-10 5 10 10.74 11.19 0.34 o
-10 5 11 4.62 4.59 0.21 o
-10 5 12 10.20 10.90 0.39 o
-10 5 13 16.56 17.36 0.57 o
-10 5 14 8.45 9.23 0.33 o
-10 5 16 2.02 1.94 0.17 o
-10 5 17 15.23 16.25 0.50 o
-10 5 18 29.33 28.97 0.86 o
-10 5 19 60.10 59.36 1.60 o
-10 5 20 69.15 71.00 3.21 o
-10 5 21 16.06 16.54 0.69 o
-10 5 22 4.03 4.37 0.34 o
-10 5 25 7.85 7.43 0.57 o
-10 6 1 0.96 1.05 0.12 o
-10 6 2 7.92 7.75 0.27 o
-10 6 3 114.19 115.39 3.43 o
-10 6 4 4.77 4.79 0.20 o
-10 6 5 31.07 31.70 0.92 o
-10 6 7 14.19 14.32 0.41 o
-10 6 8 5.97 6.09 0.24 o
-10 6 9 0.92 0.95 0.13 o
-10 6 10 5.11 5.24 0.23 o
-10 6 11 23.86 23.39 0.71 o
-10 6 12 1.23 1.26 0.13 o
-10 6 13 4.71 4.75 0.22 o
-10 6 15 4.59 4.54 0.26 o
-10 6 17 3.50 3.41 0.23 o
-10 6 18 5.34 5.47 0.28 o
-10 6 19 28.27 28.65 1.21 o
-10 6 21 33.49 35.39 1.38 o
-10 6 22 2.51 2.37 0.28 o
-10 6 23 1.78 1.67 0.27 o
-10 6 24 15.80 16.12 1.40 o
-10 7 1 6.85 7.09 0.28 o
-10 7 2 5.20 5.13 0.23 o
-10 7 4 0.41 0.36 0.11 o
-10 7 5 18.60 18.91 0.59 o
-10 7 7 2.65 2.63 0.17 o
-10 7 8 0.71 0.81 0.13 o
-10 7 9 1.61 1.77 0.15 o
-10 7 10 7.28 7.72 0.28 o
-10 7 11 3.10 3.14 0.20 o
-10 7 12 5.03 4.89 0.25 o
-10 7 13 9.72 9.85 0.33 o
-10 7 14 5.19 4.98 0.23 o
-10 7 16 0.87 0.85 0.16 o
-10 7 17 8.86 8.75 0.42 o
-10 7 18 18.68 19.48 0.57 o
-10 7 19 37.13 37.24 1.24 o
-10 7 20 41.07 42.27 1.96 o
-10 7 21 9.69 8.60 0.42 o
-10 7 22 2.49 2.25 0.31 o
-10 8 2 2.68 2.68 0.19 o
-10 8 3 62.32 58.37 1.50 o
-10 8 4 2.02 2.08 0.15 o
-10 8 5 16.55 16.66 0.49 o
-10 8 7 5.78 6.03 0.28 o
-10 8 8 2.99 3.22 0.20 o
-10 8 9 0.80 0.68 0.13 o
-10 8 10 3.31 3.19 0.21 o
-10 8 11 10.13 9.77 0.38 o
-10 8 12 0.74 0.76 0.15 o
-10 8 13 2.38 2.44 0.27 o
-10 8 15 2.24 2.08 0.18 o
-10 8 17 1.79 1.80 0.17 o
-10 8 18 2.55 2.80 0.22 o
-10 8 19 14.67 15.41 0.80 o
-10 8 21 17.73 18.68 0.72 o
-10 9 1 3.10 3.06 0.22 o
-10 9 2 2.89 3.02 0.28 o
-10 9 5 11.20 11.34 0.36 o
-10 9 7 1.00 1.01 0.14 o
-10 9 8 0.60 0.62 0.13 o
-10 9 9 0.78 0.47 0.14 o
-10 9 10 4.32 4.35 0.23 o
-10 9 11 1.77 1.70 0.17 o
-10 9 12 1.94 1.77 0.21 o
-10 9 13 4.87 4.66 0.26 o
-10 9 14 2.86 2.72 0.19 o
-10 9 17 4.39 4.37 0.24 o
-10 9 18 10.31 10.23 0.33 o
-10 9 19 19.60 19.72 0.95 o
-10 10 3 29.09 28.08 0.99 o
-10 10 4 0.67 0.73 0.16 o
-10 10 5 7.76 7.19 0.33 o
-10 10 7 1.87 1.84 0.18 o
-10 10 8 1.33 1.43 0.16 o
-10 10 10 1.82 1.83 0.20 o
-10 10 11 3.37 3.40 0.22 o
-10 10 13 1.02 0.87 0.16 o
-10 10 15 0.91 0.78 0.15 o
-10 11 1 1.17 1.07 0.23 o
-10 11 2 1.44 1.33 0.16 o
-10 11 5 5.75 5.78 0.28 o
-10 11 10 2.26 2.47 0.17 o
-10 11 11 0.89 1.02 0.15 o
-10 11 12 0.58 0.55 0.14 o
-10 11 13 2.07 2.04 0.16 o
-10 12 5 3.09 3.47 0.29 o
-9 0 1 15.55 16.88 0.75 o
-9 0 2 30.99 30.15 1.21 o
-9 0 3 14.70 14.08 1.04 o
-9 0 4 24.08 26.07 3.33 o
-9 0 6 59.60 59.90 2.87 o
-9 0 9 92.92 95.08 4.32 o
-9 0 11 1.76 1.45 0.46 o
-9 0 12 157.02 156.92 4.72 o
-9 0 13 14.15 14.06 0.76 o
-9 0 14 108.36 107.16 3.48 o
-9 0 15 192.29 186.94 6.43 o
-9 0 16 53.83 53.34 3.84 o
-9 0 17 17.86 18.60 1.21 o
-9 0 18 69.85 69.90 2.17 o
-9 0 19 32.90 33.81 1.16 o
-9 0 21 41.24 40.84 1.21 o
-9 0 25 5.61 5.26 0.84 o
-9 0 26 3.75 4.01 0.78 o
-9 1 1 62.52 60.60 1.67 o
-9 1 2 21.00 21.90 0.88 o
-9 1 3 56.98 59.23 1.98 o
-9 1 4 25.87 25.55 0.94 o
-9 1 5 41.43 41.57 1.57 o
-9 1 6 68.10 69.38 2.51 o
-9 1 7 51.84 52.81 1.77 o
-9 1 8 78.90 79.32 2.42 o
-9 1 10 20.93 20.21 0.82 o
-9 1 11 134.60 134.95 3.81 o
-9 1 12 45.98 47.63 1.54 o
-9 1 13 7.02 7.11 0.47 o
-9 1 15 9.17 7.87 0.52 o
-9 1 17 30.52 31.64 0.99 o
-9 1 18 269.51 268.41 7.59 o
-9 1 19 63.26 62.84 1.72 o
-9 1 20 20.50 20.56 0.64 o
-9 1 21 43.85 43.96 1.14 o
-9 1 22 8.13 8.05 0.33 o
-9 1 23 0.79 0.88 0.21 o
-9 1 25 1.97 2.42 0.66 o
-9 1 27 15.78 16.16 1.04 o
-9 2 1 13.94 14.37 0.56 o
-9 2 2 23.38 24.50 0.79 o
-9 2 3 14.45 15.81 0.72 o
-9 2 4 21.13 22.57 1.20 o
-9 2 6 51.65 50.18 1.46 o
-9 2 8 2.36 2.61 0.35 o
-9 2 9 85.73 85.60 2.44 o
-9 2 11 1.19 1.24 0.23 o
-9 2 12 139.02 139.88 3.69 o
-9 2 13 12.06 12.26 0.47 o
-9 2 14 96.80 95.59 3.19 o
-9 2 15 175.20 171.21 4.41 o
-9 2 16 50.01 48.29 1.39 o
-9 2 17 16.30 15.64 0.55 o
-9 2 18 63.21 66.14 2.68 o
-9 2 19 30.88 32.55 1.25 o
-9 2 21 36.99 34.63 1.07 o
-9 2 25 5.34 4.92 0.44 o
-9 2 26 3.44 3.12 0.81 o
-9 2 27 3.06 3.09 0.73 o
-9 3 1 44.37 45.35 1.68 o
-9 3 2 15.30 15.14 0.95 o
-9 3 3 40.76 39.74 1.29 o
-9 3 4 18.08 19.06 0.76 o
-9 3 5 33.34 34.02 1.22 o
-9 3 6 51.16 49.68 1.62 o
-9 3 7 39.15 39.24 1.16 o
-9 3 8 58.00 58.39 1.63 o
-9 3 9 0.87 1.53 0.30 o
-9 3 10 17.10 17.27 0.60 o
-9 3 11 100.23 97.46 2.38 o
-9 3 12 39.15 39.19 1.02 o
-9 3 13 5.40 5.48 0.27 o
-9 3 15 6.31 7.66 0.30 o
-9 3 16 0.44 0.49 0.15 o
-9 3 17 25.50 26.56 1.19 o
-9 3 18 224.88 219.75 6.14 o
-9 3 19 53.52 53.05 2.26 o
-9 3 20 17.78 16.85 0.62 o
-9 3 21 37.87 38.23 1.17 o
-9 3 22 6.77 6.74 0.36 o
-9 3 25 1.66 1.33 0.35 o
-9 3 27 13.14 12.90 0.98 o
-9 4 1 9.75 9.52 0.33 o
-9 4 2 13.29 14.28 0.48 o
-9 4 3 11.82 12.61 0.49 o
-9 4 4 13.77 14.85 0.53 o
-9 4 6 37.63 36.65 1.20 o
-9 4 8 2.36 2.41 0.18 o
-9 4 9 62.12 62.40 1.74 o
-9 4 11 0.67 0.69 0.11 o
-9 4 12 98.76 102.71 3.30 o
-9 4 13 8.24 8.17 0.28 o
-9 4 14 71.56 69.06 1.70 o
-9 4 15 130.51 125.97 3.09 o
-9 4 16 40.40 38.93 1.06 o
-9 4 17 11.78 11.94 0.42 o
-9 4 18 47.01 48.37 1.81 o
-9 4 19 25.13 24.74 0.83 o
-9 4 21 26.80 25.39 0.85 o
-9 4 25 4.59 4.25 0.40 o
-9 4 26 2.66 2.30 0.33 o
-9 5 1 27.19 27.60 0.87 o
-9 5 2 8.38 8.07 0.27 o
-9 5 3 22.72 22.93 0.67 o
-9 5 4 12.47 12.43 0.34 o
-9 5 5 23.40 23.51 0.69 o
-9 5 6 29.15 29.03 0.85 o
-9 5 7 20.72 20.90 0.66 o
-9 5 8 38.97 38.86 1.16 o
-9 5 9 0.60 0.49 0.11 o
-9 5 10 11.73 11.83 0.33 o
-9 5 11 59.79 61.23 1.87 o
-9 5 12 27.63 28.64 0.85 o
-9 5 13 3.28 3.50 0.20 o
-9 5 15 3.25 2.93 0.22 o
-9 5 17 17.67 18.61 0.56 o
-9 5 18 158.80 155.42 4.17 o
-9 5 19 38.57 38.81 1.35 o
-9 5 20 13.39 13.41 0.59 o
-9 5 21 28.41 27.33 0.92 o
-9 5 22 4.72 5.15 0.42 o
-9 6 1 5.30 5.45 0.21 o
-9 6 2 7.45 7.66 0.28 o
-9 6 3 8.14 8.43 0.27 o
-9 6 4 7.14 7.64 0.26 o
-9 6 6 24.70 24.83 0.76 o
-9 6 8 1.64 1.70 0.13 o
-9 6 9 34.94 34.64 1.10 o
-9 6 11 0.52 0.49 0.11 o
-9 6 12 58.74 59.39 1.71 o
-9 6 13 4.74 4.58 0.21 o
-9 6 14 45.70 47.20 1.36 o
-9 6 15 80.08 82.83 2.17 o
-9 6 16 28.06 27.62 0.73 o
-9 6 17 6.64 6.95 0.30 o
-9 6 18 28.89 28.78 0.82 o
-9 6 19 17.59 17.96 0.56 o
-9 6 21 15.68 16.11 0.96 o
-9 6 22 0.35 0.76 0.24 o
-9 6 25 3.53 3.05 0.56 o
-9 7 1 14.04 14.74 0.44 o
-9 7 2 3.70 3.81 0.19 o
-9 7 3 10.72 10.99 0.35 o
-9 7 4 7.45 7.78 0.27 o
-9 7 5 14.15 13.96 0.41 o
-9 7 6 13.60 13.65 0.39 o
-9 7 7 8.88 9.03 0.32 o
-9 7 8 22.56 22.53 0.69 o
-9 7 9 0.37 0.45 0.12 o
-9 7 10 6.70 6.91 0.28 o
-9 7 11 29.69 29.97 0.83 o
-9 7 12 16.48 16.78 0.47 o
-9 7 13 1.66 1.86 0.15 o
-9 7 14 0.34 0.40 0.13 o
-9 7 15 1.19 1.18 0.14 o
-9 7 17 10.13 11.04 0.35 o
-9 7 18 94.52 92.66 2.49 o
-9 7 19 23.81 24.81 0.85 o
-9 7 20 8.75 8.72 0.40 o
-9 7 21 18.44 18.36 1.33 o
-9 7 22 2.78 2.62 0.23 o
-9 8 1 2.22 2.14 0.16 o
-9 8 2 3.66 3.65 0.21 o
-9 8 3 5.06 5.16 0.22 o
-9 8 4 3.13 3.16 0.19 o
-9 8 6 14.06 13.50 0.50 o
-9 8 8 1.11 1.05 0.13 o
-9 8 9 16.66 16.59 0.49 o
-9 8 11 0.40 0.52 0.13 o
-9 8 12 30.05 29.96 0.80 o
-9 8 13 2.26 2.62 0.17 o
-9 8 14 25.14 25.76 0.79 o
-9 8 15 41.54 42.16 1.26 o
-9 8 16 16.43 16.36 0.62 o
-9 8 17 3.03 3.04 0.22 o
-9 8 18 14.65 15.95 0.50 o
-9 8 19 10.73 11.56 0.37 o
-9 8 21 7.37 7.35 0.35 o
-9 9 1 5.82 6.12 0.25 o
-9 9 2 1.37 1.24 0.14 o
-9 9 3 4.59 4.63 0.24 o
-9 9 4 3.70 3.57 0.20 o
-9 9 5 7.22 7.27 0.31 o
-9 9 6 5.27 5.66 0.24 o
-9 9 7 3.19 3.18 0.20 o
-9 9 8 10.57 10.30 0.34 o
-9 9 9 0.22 0.40 0.13 o
-9 9 10 3.25 3.33 0.23 o
-9 9 11 12.27 11.97 0.39 o
-9 9 12 8.49 8.46 0.31 o
-9 9 13 0.73 0.61 0.15 o
-9 9 15 0.25 0.47 0.15 o
-9 9 17 4.78 4.62 0.24 o
-9 9 18 47.44 48.84 1.61 o
-9 9 19 12.55 13.45 0.49 o
-9 9 20 4.97 5.30 0.23 o
-9 10 1 0.70 0.66 0.15 o
-9 10 2 1.54 1.50 0.16 o
-9 10 3 2.69 2.88 0.20 o
-9 10 4 1.06 1.12 0.16 o
-9 10 6 6.97 6.46 0.28 o
-9 10 9 6.71 6.84 0.30 o
-9 10 12 13.21 13.17 0.43 o
-9 10 13 0.94 1.21 0.16 o
-9 10 14 11.86 12.47 0.49 o
-9 10 15 18.15 18.91 0.54 o
-9 10 16 8.16 8.02 0.35 o
-9 10 17 1.11 1.09 0.15 o
-9 10 18 6.17 6.64 0.26 o
-9 11 1 2.04 1.83 0.20 o
-9 11 3 1.75 1.67 0.19 o
-9 11 4 1.61 1.79 0.20 o
-9 11 5 3.14 3.11 0.25 o
-9 11 6 1.61 1.51 0.20 o
-9 11 7 0.85 0.73 0.16 o
-9 11 8 4.22 4.10 0.25 o
-9 11 10 1.35 1.35 0.16 o
-9 11 11 4.21 4.10 0.23 o
-9 11 12 3.75 3.55 0.23 o
-9 11 14 0.36 0.49 0.15 o
-9 12 2 0.59 0.64 0.16 o
-9 12 3 1.22 1.31 0.17 o
-9 12 6 3.00 3.26 0.24 o
-9 12 9 2.19 1.70 0.16 o
-8 0 1 0.82 0.92 0.25 o
-8 0 2 25.37 26.73 0.88 o
-8 0 3 4.13 3.81 0.59 o
-8 0 4 20.67 20.82 1.89 o
-8 0 5 401.63 414.50 14.80 o
-8 0 6 34.87 34.93 1.90 o
-8 0 7 575.43 577.50 23.32 o
-8 0 10 14.63 13.80 1.39 o
-8 0 11 3.59 2.68 0.84 o
-8 0 12 17.24 16.95 0.82 o
-8 0 13 2.74 2.76 0.40 o
-8 0 14 5.37 5.40 0.53 o
-8 0 15 79.81 80.73 4.45 o
-8 0 16 204.48 198.32 12.29 o
-8 0 17 78.08 76.07 2.69 o
-8 0 18 5.17 5.43 0.47 o
-8 0 19 24.69 24.47 0.82 o
-8 0 20 7.94 8.96 0.45 o
-8 0 22 4.01 4.57 0.43 o
-8 0 23 1.71 1.51 0.39 o
-8 0 25 2.13 2.89 0.77 o
-8 0 26 5.67 4.99 0.76 o
-8 1 1 523.47 533.67 13.50 o
-8 1 2 7.76 7.18 0.47 o
-8 1 3 63.21 63.94 1.88 o
-8 1 4 31.52 30.63 0.92 o
-8 1 7 4.94 5.93 0.50 o
-8 1 8 6.20 6.16 0.52 o
-8 1 9 9.25 9.13 0.60 o
-8 1 10 1.98 2.20 0.37 o
-8 1 11 49.91 47.67 1.46 o
-8 1 12 69.93 68.94 2.03 o
-8 1 13 12.93 13.27 0.59 o
-8 1 14 4.04 3.87 0.35 o
-8 1 15 31.88 33.68 1.47 o
-8 1 16 2.11 2.34 0.21 o
-8 1 17 149.48 148.48 3.77 o
-8 1 18 101.91 99.49 2.59 o
-8 1 19 21.44 21.88 0.73 o
-8 1 20 6.39 6.79 0.37 o
-8 1 23 2.73 2.40 0.32 o
-8 1 24 7.33 6.09 0.81 o
-8 1 25 4.96 4.51 0.82 o
-8 1 26 5.16 4.61 0.81 o
-8 1 28 11.98 12.10 0.52 o
-8 2 1 1.18 1.29 0.21 o
-8 2 2 24.61 25.49 0.83 o
-8 2 3 2.73 2.50 0.26 o
-8 2 4 17.03 17.34 0.57 o
-8 2 5 360.04 371.70 9.17 o
-8 2 6 30.90 31.25 0.96 o
-8 2 7 525.09 523.69 13.91 o
-8 2 10 11.82 11.64 0.59 o
-8 2 11 2.65 2.83 0.37 o
-8 2 12 16.10 15.60 0.71 o
-8 2 13 2.12 1.98 0.35 o
-8 2 14 4.78 4.94 0.28 o
-8 2 15 71.99 70.63 1.81 o
-8 2 16 186.60 193.12 8.11 o
-8 2 17 69.98 69.45 1.83 o
-8 2 18 4.32 4.90 0.30 o
-8 2 19 22.92 21.80 0.69 o
-8 2 20 7.18 7.51 0.39 o
-8 2 22 3.89 3.11 0.60 o
-8 2 23 1.52 1.53 0.28 o
-8 2 25 1.98 2.31 0.69 o
-8 2 26 5.27 5.48 1.11 o
-8 2 27 15.88 16.39 0.62 o
-8 3 1 380.68 378.97 11.85 o
-8 3 2 6.21 6.27 0.38 o
-8 3 3 51.42 51.48 1.67 o
-8 3 4 24.04 24.37 0.96 o
-8 3 6 0.86 0.85 0.18 o
-8 3 8 1.76 1.97 0.22 o
-8 3 9 4.25 3.90 0.30 o
-8 3 10 2.19 2.11 0.31 o
-8 3 11 39.25 37.01 1.29 o
-8 3 12 56.77 55.32 1.53 o
-8 3 13 11.67 11.75 0.34 o
-8 3 14 2.89 3.11 0.21 o
-8 3 15 27.75 27.81 0.78 o
-8 3 16 1.51 1.55 0.18 o
-8 3 17 123.44 123.57 3.45 o
-8 3 18 87.39 87.29 3.46 o
-8 3 19 17.59 17.57 0.65 o
-8 3 20 5.14 5.26 0.33 o
-8 3 23 2.51 2.05 0.30 o
-8 3 24 6.08 5.75 0.45 o
-8 3 25 3.95 3.95 0.51 o
-8 3 26 4.41 4.32 0.82 o
-8 4 1 1.41 1.54 0.25 o
-8 4 2 14.87 14.16 0.63 o
-8 4 3 0.72 0.67 0.22 o
-8 4 4 12.29 11.90 0.53 o
-8 4 5 258.19 255.38 8.46 o
-8 4 6 20.17 20.95 0.73 o
-8 4 7 378.88 383.58 11.12 o
-8 4 10 9.03 8.60 0.40 o
-8 4 11 1.58 1.74 0.14 o
-8 4 12 11.48 11.63 0.35 o
-8 4 13 0.97 0.99 0.13 o
-8 4 14 3.54 3.64 0.23 o
-8 4 15 55.09 54.08 1.40 o
-8 4 16 141.95 138.22 3.51 o
-8 4 17 52.78 52.30 1.38 o
-8 4 18 2.57 2.61 0.23 o
-8 4 19 18.59 18.17 0.68 o
-8 4 20 5.31 5.36 0.33 o
-8 4 22 3.47 3.26 0.28 o
-8 4 25 1.58 1.75 0.39 o
-8 4 26 4.23 4.22 0.41 o
-8 5 1 250.81 240.18 5.86 o
-8 5 2 3.78 3.95 0.30 o
-8 5 3 32.77 33.54 1.66 o
-8 5 4 16.26 16.79 0.95 o
-8 5 6 0.65 0.59 0.13 o
-8 5 7 0.42 0.52 0.12 o
-8 5 8 0.65 0.69 0.10 o
-8 5 9 0.74 0.74 0.09 o
-8 5 10 1.91 1.93 0.13 o
-8 5 11 21.73 21.95 0.60 o
-8 5 12 41.24 40.93 1.00 o
-8 5 13 9.10 9.30 0.31 o
-8 5 14 1.74 1.62 0.13 o
-8 5 15 21.01 21.53 0.56 o
-8 5 16 0.71 0.78 0.15 o
-8 5 17 84.52 82.67 2.17 o
-8 5 18 62.52 62.07 2.34 o
-8 5 19 11.98 11.58 0.44 o
-8 5 20 3.43 3.43 0.25 o
-8 5 23 2.12 1.94 0.27 o
-8 5 24 4.21 4.71 0.57 o
-8 5 25 2.51 2.40 0.35 o
-8 5 26 3.22 3.46 0.45 o
-8 6 1 0.90 0.93 0.10 o
-8 6 2 5.39 5.57 0.21 o
-8 6 4 7.56 7.27 0.24 o
-8 6 5 153.60 145.82 3.45 o
-8 6 6 10.88 10.91 0.34 o
-8 6 7 221.87 216.49 5.63 o
-8 6 8 0.40 0.39 0.10 o
-8 6 10 7.36 7.16 0.25 o
-8 6 11 0.84 0.71 0.11 o
-8 6 12 6.07 6.30 0.24 o
-8 6 14 2.26 2.31 0.15 o
-8 6 15 37.04 38.25 1.00 o
-8 6 16 90.63 92.28 2.35 o
-8 6 17 34.25 33.48 0.90 o
-8 6 18 1.10 1.21 0.16 o
-8 6 19 13.24 13.74 0.55 o
-8 6 20 3.23 3.42 0.33 o
-8 6 22 2.77 2.23 0.34 o
-8 6 23 0.59 0.80 0.25 o
-8 7 1 145.38 142.80 4.19 o
-8 7 2 1.82 1.69 0.14 o
-8 7 3 17.66 17.49 0.47 o
-8 7 4 9.26 9.28 0.30 o
-8 7 7 1.54 1.62 0.13 o
-8 7 10 1.30 1.41 0.13 o
-8 7 11 9.51 9.47 0.30 o
-8 7 12 26.11 25.96 0.73 o
-8 7 13 6.15 6.24 0.25 o
-8 7 14 0.76 0.68 0.13 o
-8 7 15 13.76 13.95 0.41 o
-8 7 17 48.29 50.47 1.39 o
-8 7 18 37.87 39.23 1.20 o
-8 7 19 6.79 6.97 0.38 o
-8 7 20 1.88 1.82 0.19 o
-8 7 23 1.59 1.66 0.21 o
-8 7 24 2.45 2.59 0.27 o
-8 8 2 1.88 2.00 0.15 o
-8 8 4 3.21 2.95 0.20 o
-8 8 5 78.58 77.08 2.18 o
-8 8 6 5.55 5.59 0.23 o
-8 8 7 113.02 107.03 2.62 o
-8 8 8 0.71 0.66 0.13 o
-8 8 10 5.08 5.12 0.23 o
-8 8 12 2.67 2.81 0.18 o
-8 8 14 1.27 1.16 0.15 o
-8 8 15 21.61 22.01 0.71 o
-8 8 16 48.71 50.16 1.28 o
-8 8 17 18.66 18.22 0.54 o
-8 8 19 8.16 8.46 0.30 o
-8 8 20 1.61 1.53 0.18 o
-8 8 22 1.95 1.69 0.18 o
-8 9 1 71.05 70.80 2.03 o
-8 9 2 0.73 0.76 0.14 o
-8 9 3 8.55 8.40 0.30 o
-8 9 4 4.46 4.55 0.22 o
-8 9 7 1.84 1.77 0.19 o
-8 9 10 0.74 0.79 0.13 o
-8 9 11 3.45 3.41 0.21 o
-8 9 12 13.82 14.12 0.42 o
-8 9 13 3.64 3.93 0.21 o
-8 9 15 7.79 8.13 0.31 o
-8 9 17 23.28 24.01 0.77 o
-8 9 18 19.67 19.60 0.76 o
-8 9 19 3.19 2.94 0.22 o
-8 9 20 0.84 0.88 0.15 o
-8 10 2 0.59 0.71 0.15 o
-8 10 4 0.96 0.90 0.15 o
-8 10 5 34.43 33.79 1.05 o
-8 10 6 2.52 2.49 0.21 o
-8 10 7 49.52 47.90 1.22 o
-8 10 8 0.79 0.84 0.14 o
-8 10 10 3.02 3.32 0.21 o
-8 10 12 0.94 0.70 0.16 o
-8 10 14 0.63 0.71 0.15 o
-8 10 15 10.88 11.63 0.40 o
-8 10 16 22.09 22.16 0.77 o
-8 10 17 8.63 8.65 0.32 o
-8 10 19 4.34 4.38 0.24 o
-8 11 1 30.14 29.86 0.88 o
-8 11 3 3.57 3.58 0.31 o
-8 11 4 1.84 1.60 0.20 o
-8 11 7 1.35 1.31 0.17 o
-8 11 11 0.94 0.99 0.16 o
-8 11 12 6.27 6.40 0.30 o
-8 11 13 1.86 2.06 0.21 o
-8 11 15 3.81 4.02 0.21 o
-8 12 5 12.90 12.99 0.46 o
-8 12 6 1.02 1.03 0.17 o
-8 12 7 18.48 18.67 0.54 o
-8 12 8 0.64 0.77 0.15 o
-8 12 10 1.58 1.48 0.17 o
-7 0 1 301.23 300.61 8.22 o
-7 0 4 5.22 5.38 0.89 o
-7 0 5 536.70 535.79 17.76 o
-7 0 6 119.48 120.83 4.34 o
-7 0 7 803.32 796.93 28.63 o
-7 0 9 84.76 85.13 3.45 o
-7 0 11 48.35 48.07 1.48 o
-7 0 12 29.40 27.77 1.02 o
-7 0 13 20.06 19.41 0.85 o
-7 0 14 1.14 2.35 0.51 o
-7 0 15 3.06 2.79 0.64 o
-7 0 16 19.76 20.80 1.36 o
-7 0 17 21.27 22.50 0.83 o
-7 0 19 11.39 11.89 0.76 o
-7 0 20 5.78 5.73 0.41 o
-7 0 21 13.35 13.45 0.73 o
-7 0 22 9.92 9.76 0.64 o
-7 0 23 22.95 23.03 0.95 o
-7 0 27 9.47 9.13 0.84 o
-7 0 28 64.90 65.96 2.12 o
-7 1 1 1404.82 1407.66 37.10 o
-7 1 2 431.65 439.36 11.07 o
-7 1 3 45.98 44.82 1.28 o
-7 1 4 16.33 16.00 0.64 o
-7 1 5 419.79 415.44 10.71 o
-7 1 7 263.17 261.82 6.74 o
-7 1 8 41.66 42.30 1.33 o
-7 1 9 100.79 101.68 2.64 o
-7 1 10 8.09 7.38 0.46 o
-7 1 11 70.44 68.25 1.95 o
-7 1 12 2.06 1.81 0.30 o
-7 1 13 42.71 43.70 1.35 o
-7 1 14 15.77 15.12 0.59 o
-7 1 15 12.05 11.17 0.51 o
-7 1 16 18.56 18.89 0.56 o
-7 1 17 6.26 6.62 0.31 o
-7 1 18 2.77 2.54 0.23 o
-7 1 19 0.97 0.96 0.19 o
-7 1 20 6.64 6.64 0.33 o
-7 1 21 2.39 2.56 0.25 o
-7 1 22 28.88 29.29 1.53 o
-7 1 23 68.81 69.11 2.37 o
-7 1 24 3.49 2.67 0.36 o
-7 1 25 2.17 2.78 0.35 o
-7 1 27 3.31 3.24 0.72 o
-7 1 28 45.83 47.05 1.35 o
-7 2 1 261.57 263.27 7.52 o
-7 2 3 3.21 3.14 0.25 o
-7 2 4 1.05 1.05 0.17 o
-7 2 5 474.86 481.50 12.20 o
-7 2 6 94.90 96.88 2.32 o
-7 2 7 695.84 685.88 17.35 o
-7 2 9 72.56 73.38 1.97 o
-7 2 11 45.81 44.82 1.38 o
-7 2 12 22.58 21.93 0.85 o
-7 2 13 18.36 18.06 0.77 o
-7 2 14 1.29 1.24 0.18 o
-7 2 15 2.44 2.48 0.20 o
-7 2 16 17.93 18.16 0.62 o
-7 2 17 20.41 20.55 0.64 o
-7 2 18 0.68 0.54 0.18 o
-7 2 19 10.47 10.53 0.42 o
-7 2 20 5.19 5.13 0.56 o
-7 2 21 12.64 12.64 0.55 o
-7 2 22 9.26 8.96 0.46 o
-7 2 23 20.96 21.32 0.83 o
-7 2 25 4.54 4.51 0.77 o
-7 2 27 8.75 8.62 0.47 o
-7 2 28 59.18 62.44 1.75 o
-7 3 1 1115.39 1066.12 29.68 o
-7 3 2 312.27 302.84 7.92 o
-7 3 3 34.89 36.06 1.32 o
-7 3 4 13.43 13.60 0.49 o
-7 3 5 349.40 361.57 9.58 o
-7 3 7 188.95 189.21 4.66 o
-7 3 8 35.46 35.55 0.98 o
-7 3 9 77.47 79.74 2.00 o
-7 3 10 5.91 5.88 0.34 o
-7 3 11 56.06 56.63 1.54 o
-7 3 12 0.83 0.93 0.30 o
-7 3 13 29.37 29.24 0.90 o
-7 3 14 11.57 11.33 0.35 o
-7 3 15 10.34 10.47 0.35 o
-7 3 16 15.36 15.33 0.54 o
-7 3 17 5.52 5.90 0.32 o
-7 3 18 2.41 2.54 0.30 o
-7 3 19 0.92 0.90 0.22 o
-7 3 20 5.93 5.58 0.37 o
-7 3 21 1.99 2.00 0.24 o
-7 3 22 23.67 22.00 0.76 o
-7 3 23 57.72 58.95 1.69 o
-7 3 24 2.78 2.67 0.30 o
-7 3 25 1.82 2.11 0.32 o
-7 3 26 11.43 10.96 0.91 o
-7 3 27 2.61 2.41 0.30 o
-7 4 1 181.21 182.13 5.92 o
-7 4 3 5.91 5.73 0.37 o
-7 4 5 334.30 336.27 9.64 o
-7 4 6 57.34 59.47 1.65 o
-7 4 7 497.98 499.14 12.99 o
-7 4 9 47.29 47.16 1.29 o
-7 4 11 32.20 31.92 0.95 o
-7 4 12 12.33 13.17 0.40 o
-7 4 13 14.03 14.29 0.42 o
-7 4 14 0.95 0.89 0.12 o
-7 4 15 1.33 1.36 0.15 o
-7 4 16 13.26 13.19 0.42 o
-7 4 17 17.07 17.75 0.80 o
-7 4 19 8.02 7.89 0.48 o
-7 4 20 3.74 3.96 0.32 o
-7 4 21 10.91 11.32 0.62 o
-7 4 22 7.52 7.33 0.38 o
-7 4 23 16.01 15.91 0.69 o
-7 4 25 3.14 3.27 0.39 o
-7 4 27 6.89 5.59 0.87 o
-7 5 1 682.24 669.40 24.79 o
-7 5 2 179.21 181.25 6.30 o
-7 5 3 21.31 20.68 0.85 o
-7 5 4 13.34 13.13 0.56 o
-7 5 5 219.60 208.37 5.93 o
-7 5 7 118.07 117.48 3.04 o
-7 5 8 24.00 24.31 0.80 o
-7 5 9 52.43 54.76 1.72 o
-7 5 10 2.91 2.88 0.17 o
-7 5 11 31.12 30.38 0.75 o
-7 5 12 0.48 0.59 0.09 o
-7 5 13 15.53 16.25 0.51 o
-7 5 14 7.12 7.05 0.25 o
-7 5 15 8.91 9.25 0.31 o
-7 5 16 10.14 10.77 0.35 o
-7 5 17 4.29 4.22 0.23 o
-7 5 18 1.97 1.75 0.18 o
-7 5 19 0.80 0.63 0.16 o
-7 5 20 4.52 4.41 0.30 o
-7 5 21 1.37 1.49 0.23 o
-7 5 22 16.12 15.72 0.80 o
-7 5 23 40.51 39.66 1.27 o
-7 5 24 1.78 1.54 0.33 o
-7 5 26 8.28 7.99 0.92 o
-7 6 1 108.21 107.60 3.01 o
-7 6 3 5.81 5.40 0.28 o
-7 6 5 200.45 192.66 4.61 o
-7 6 6 32.74 32.09 0.81 o
-7 6 7 314.24 302.89 7.71 o
-7 6 9 25.86 26.48 0.81 o
-7 6 11 16.39 16.11 0.45 o
-7 6 12 5.93 6.22 0.25 o
-7 6 13 8.75 9.03 0.28 o
-7 6 15 0.48 0.54 0.12 o
-7 6 16 8.09 8.49 0.29 o
-7 6 17 12.37 12.77 0.38 o
-7 6 19 5.14 4.90 0.25 o
-7 6 20 2.19 1.97 0.18 o
-7 6 21 8.39 8.58 0.39 o
-7 6 22 5.27 5.08 0.63 o
-7 6 23 10.25 9.83 0.61 o
-7 6 25 1.71 1.50 0.38 o
-7 7 1 369.30 365.32 9.89 o
-7 7 2 92.48 92.03 2.53 o
-7 7 3 12.22 11.74 0.35 o
-7 7 4 11.42 10.99 0.35 o
-7 7 5 117.92 119.29 3.43 o
-7 7 7 63.25 61.80 1.72 o
-7 7 8 14.76 14.21 0.42 o
-7 7 9 30.51 30.50 0.89 o
-7 7 10 1.39 1.49 0.13 o
-7 7 11 14.36 14.16 0.47 o
-7 7 12 0.38 0.37 0.11 o
-7 7 13 6.13 6.12 0.25 o
-7 7 14 3.66 4.22 0.21 o
-7 7 15 7.13 7.01 0.28 o
-7 7 16 5.53 5.50 0.23 o
-7 7 17 2.92 3.15 0.19 o
-7 7 18 1.40 1.36 0.14 o
-7 7 19 0.61 0.51 0.14 o
-7 7 20 3.04 3.38 0.24 o
-7 7 21 0.79 0.81 0.18 o
-7 7 22 9.12 9.09 0.44 o
-7 7 23 23.82 24.20 1.05 o
-7 8 1 56.86 56.47 1.55 o
-7 8 3 4.54 4.14 0.21 o
-7 8 5 107.03 103.49 2.53 o
-7 8 6 17.05 17.06 0.52 o
-7 8 7 169.66 159.19 3.97 o
-7 8 9 12.38 12.23 0.39 o
-7 8 11 7.33 7.35 0.27 o
-7 8 12 2.50 2.38 0.17 o
-7 8 13 4.44 4.24 0.24 o
-7 8 16 4.27 4.52 0.22 o
-7 8 17 8.02 8.36 0.29 o
-7 8 19 2.80 2.76 0.21 o
-7 8 20 1.04 1.20 0.17 o
-7 8 21 5.48 5.45 0.27 o
-7 8 22 3.16 3.44 0.39 o
-7 8 23 5.52 5.51 0.33 o
-7 9 1 182.03 178.23 4.48 o
-7 9 2 43.49 43.08 1.16 o
-7 9 3 6.53 6.75 0.28 o
-7 9 4 7.74 7.77 0.30 o
-7 9 5 56.95 53.55 1.38 o
-7 9 7 28.51 27.82 0.73 o
-7 9 8 8.35 8.37 0.35 o
-7 9 9 15.10 15.11 0.45 o
-7 9 10 0.76 0.79 0.14 o
-7 9 11 5.86 5.76 0.25 o
-7 9 13 1.63 1.48 0.15 o
-7 9 14 1.51 1.60 0.15 o
-7 9 15 4.91 4.90 0.23 o
-7 9 16 2.50 2.13 0.18 o
-7 9 17 1.75 1.65 0.17 o
-7 9 18 0.84 0.87 0.16 o
-7 9 20 1.82 1.67 0.17 o
-7 9 21 0.37 0.46 0.15 o
-7 10 1 26.00 25.27 0.73 o
-7 10 3 2.75 2.53 0.21 o
-7 10 5 49.65 48.80 1.47 o
-7 10 6 7.68 7.79 0.33 o
-7 10 7 78.23 79.92 2.11 o
-7 10 9 5.12 5.14 0.24 o
-7 10 11 2.91 2.70 0.21 o
-7 10 12 0.93 0.87 0.15 o
-7 10 13 1.88 1.89 0.17 o
-7 10 16 1.95 1.77 0.16 o
-7 10 17 4.51 4.65 0.26 o
-7 10 19 1.30 1.54 0.16 o
-7 11 1 77.38 74.71 1.93 o
-7 11 2 17.88 16.99 0.56 o
-7 11 3 3.06 2.92 0.23 o
-7 11 4 4.48 4.41 0.27 o
-7 11 5 23.33 21.92 0.72 o
-7 11 7 10.98 11.13 0.45 o
-7 11 8 4.12 4.42 0.26 o
-7 11 9 6.39 6.87 0.37 o
-7 11 11 1.93 1.57 0.18 o
-7 11 14 0.52 0.50 0.15 o
-7 11 15 2.94 2.78 0.18 o
-7 11 16 0.94 0.85 0.15 o
-7 11 17 0.91 0.92 0.15 o
-7 12 1 10.26 10.69 0.47 o
-7 12 3 1.30 1.19 0.23 o
-7 12 5 19.71 19.20 0.90 o
-7 12 6 3.05 3.26 0.24 o
-7 12 7 30.90 30.61 1.12 o
-7 12 9 1.81 2.01 0.21 o
-7 12 11 0.97 0.78 0.23 o
-7 12 13 0.69 0.82 0.18 o
-7 13 1 28.26 29.25 0.92 o
-7 13 2 6.39 6.68 0.42 o
-7 13 3 1.26 0.97 0.25 o
-7 13 4 2.20 2.47 0.24 o
-7 13 5 8.04 8.19 0.33 o
-7 13 7 3.60 3.41 0.75 o
-6 0 1 233.51 229.48 5.74 o
-6 0 2 11.99 11.59 0.69 o
-6 0 3 56.91 55.78 1.62 o
-6 0 4 151.77 152.81 3.80 o
-6 0 5 453.63 451.85 11.13 o
-6 0 6 720.01 701.26 19.56 o
-6 0 7 93.87 93.28 3.20 o
-6 0 9 36.35 36.43 1.84 o
-6 0 10 212.33 205.68 6.62 o
-6 0 11 1.35 0.91 0.26 o
-6 0 12 134.19 135.69 3.61 o
-6 0 13 7.03 6.85 0.51 o
-6 0 14 28.51 27.41 1.04 o
-6 0 15 18.81 19.73 0.87 o
-6 0 16 35.36 34.28 1.10 o
-6 0 17 11.22 11.27 0.66 o
-6 0 18 14.31 14.82 0.56 o
-6 0 19 5.78 5.79 0.45 o
-6 0 21 3.91 4.14 1.06 o
-6 0 25 2.98 2.66 0.59 o
-6 0 26 3.56 3.51 0.73 o
-6 1 1 134.19 137.56 3.39 o
-6 1 2 58.52 59.71 1.62 o
-6 1 3 151.81 152.31 3.80 o
-6 1 4 323.00 318.49 7.76 o
-6 1 5 1.70 1.79 0.32 o
-6 1 7 146.82 151.37 3.68 o
-6 1 8 12.52 13.20 0.50 o
-6 1 9 113.27 112.15 2.78 o
-6 1 10 56.41 56.83 1.57 o
-6 1 11 18.27 18.31 0.69 o
-6 1 13 20.95 21.03 0.69 o
-6 1 14 56.38 57.98 1.57 o
-6 1 15 157.68 156.90 4.08 o
-6 1 16 39.98 38.88 1.04 o
-6 1 17 264.81 260.16 6.49 o
-6 1 18 84.04 84.91 2.08 o
-6 1 19 40.60 39.09 1.04 o
-6 1 20 27.03 26.83 0.84 o
-6 1 21 54.74 54.90 2.65 o
-6 1 22 6.61 6.19 0.54 o
-6 1 23 7.88 7.73 0.59 o
-6 1 27 2.53 2.78 0.33 o
-6 1 28 0.81 0.85 0.20 o
-6 2 1 188.68 193.66 6.36 o
-6 2 2 6.67 7.19 0.49 o
-6 2 3 37.53 37.25 1.29 o
-6 2 4 78.81 79.16 2.34 o
-6 2 5 365.80 378.68 9.65 o
-6 2 6 582.54 572.78 14.90 o
-6 2 7 71.59 72.02 1.81 o
-6 2 9 31.25 31.46 0.89 o
-6 2 10 197.92 196.11 4.92 o
-6 2 11 1.01 0.77 0.23 o
-6 2 12 126.69 125.57 3.43 o
-6 2 13 6.41 6.39 0.41 o
-6 2 14 26.77 26.66 0.90 o
-6 2 15 17.14 17.29 0.50 o
-6 2 16 32.52 31.90 0.99 o
-6 2 17 9.77 9.92 0.40 o
-6 2 18 12.24 12.04 0.45 o
-6 2 19 5.05 5.44 0.33 o
-6 2 21 3.87 4.06 0.36 o
-6 2 24 8.52 8.94 0.61 o
-6 2 25 2.64 2.29 0.67 o
-6 2 26 3.22 3.38 0.68 o
-6 3 1 88.45 84.94 2.19 o
-6 3 2 37.31 38.52 1.10 o
-6 3 3 77.68 76.81 2.11 o
-6 3 4 207.50 206.43 5.62 o
-6 3 6 0.14 4.34 0.68 o
-6 3 7 112.28 111.14 2.66 o
-6 3 8 5.88 5.52 0.30 o
-6 3 9 83.39 82.78 2.05 o
-6 3 10 52.82 53.45 1.47 o
-6 3 11 19.88 19.46 0.63 o
-6 3 13 15.93 16.31 0.69 o
-6 3 14 42.34 42.92 1.31 o
-6 3 15 130.83 131.84 4.99 o
-6 3 16 33.24 31.04 0.90 o
-6 3 17 219.43 206.50 5.48 o
-6 3 18 66.66 65.68 2.54 o
-6 3 19 34.61 34.03 1.05 o
-6 3 20 21.91 22.02 0.76 o
-6 3 21 45.42 44.69 1.43 o
-6 3 22 5.63 5.57 0.34 o
-6 3 23 6.29 6.20 0.78 o
-6 3 27 1.94 1.58 0.30 o
-6 4 1 118.39 118.61 4.43 o
-6 4 2 0.87 0.84 0.19 o
-6 4 3 18.74 18.94 0.77 o
-6 4 4 28.26 29.14 0.81 o
-6 4 5 226.64 231.64 6.43 o
-6 4 6 342.89 338.78 8.16 o
-6 4 7 45.74 46.29 1.22 o
-6 4 8 1.16 0.93 0.18 o
-6 4 9 16.95 16.62 0.54 o
-6 4 10 149.96 151.71 3.80 o
-6 4 12 102.97 106.20 2.95 o
-6 4 13 4.93 4.87 0.23 o
-6 4 14 18.40 18.85 0.56 o
-6 4 15 12.65 13.56 0.40 o
-6 4 16 25.02 25.00 0.80 o
-6 4 17 6.45 6.46 0.38 o
-6 4 18 8.12 8.94 0.38 o
-6 4 19 3.20 3.16 0.25 o
-6 4 21 3.50 3.55 0.27 o
-6 4 23 0.98 0.97 0.21 o
-6 4 24 6.14 6.49 0.47 o
-6 4 25 1.79 1.93 0.32 o
-6 4 26 2.36 2.46 0.56 o
-6 5 1 63.69 63.09 2.13 o
-6 5 2 24.91 24.73 0.85 o
-6 5 3 41.30 41.47 1.17 o
-6 5 4 100.53 99.49 3.05 o
-6 5 5 1.47 1.77 0.21 o
-6 5 7 57.17 57.13 1.54 o
-6 5 8 2.66 2.44 0.23 o
-6 5 9 49.98 47.43 1.31 o
-6 5 10 37.33 37.21 1.12 o
-6 5 11 15.01 15.11 0.44 o
-6 5 13 11.96 12.24 0.35 o
-6 5 14 27.16 28.05 0.91 o
-6 5 15 88.76 90.21 2.68 o
-6 5 16 23.28 24.04 0.80 o
-6 5 17 151.52 152.86 5.67 o
-6 5 18 42.47 42.88 1.48 o
-6 5 19 25.53 26.72 0.92 o
-6 5 20 15.01 15.89 0.70 o
-6 5 21 31.33 29.64 0.95 o
-6 5 22 4.09 4.03 0.32 o
-6 5 23 4.01 3.52 0.33 o
-6 6 1 70.67 67.71 2.10 o
-6 6 3 10.00 10.08 0.51 o
-6 6 4 14.74 14.71 0.61 o
-6 6 5 127.75 128.77 3.95 o
-6 6 6 175.47 175.73 5.74 o
-6 6 7 29.10 29.83 1.04 o
-6 6 8 0.82 0.79 0.11 o
-6 6 9 5.40 5.61 0.22 o
-6 6 10 95.58 95.74 2.39 o
-6 6 12 69.78 67.23 1.63 o
-6 6 13 3.22 3.10 0.18 o
-6 6 14 9.30 9.79 0.32 o
-6 6 15 7.77 8.11 0.28 o
-6 6 16 15.76 15.90 0.44 o
-6 6 17 3.35 3.68 0.23 o
-6 6 18 4.35 4.55 0.23 o
-6 6 19 1.43 1.36 0.16 o
-6 6 21 2.72 3.55 0.23 o
-6 6 23 1.10 1.14 0.25 o
-6 6 24 3.55 3.01 0.90 o
-6 7 1 40.17 39.56 1.05 o
-6 7 2 17.01 17.29 0.50 o
-6 7 3 19.58 19.52 0.52 o
-6 7 4 50.03 49.08 1.24 o
-6 7 5 4.37 4.44 0.21 o
-6 7 6 0.46 0.35 0.11 o
-6 7 7 24.94 25.19 0.80 o
-6 7 8 1.12 0.99 0.12 o
-6 7 9 26.19 25.16 0.65 o
-6 7 10 21.81 21.76 0.67 o
-6 7 11 9.40 9.49 0.31 o
-6 7 13 7.57 7.35 0.27 o
-6 7 14 15.22 15.23 0.44 o
-6 7 15 51.87 50.74 1.28 o
-6 7 16 13.88 14.40 0.41 o
-6 7 17 89.22 91.22 2.75 o
-6 7 18 21.88 22.52 0.83 o
-6 7 19 16.26 16.24 0.58 o
-6 7 20 8.60 9.45 0.36 o
-6 7 21 17.99 17.66 0.65 o
-6 7 22 2.55 2.43 0.22 o
-6 7 23 2.06 2.25 0.26 o
-6 8 1 40.50 40.62 1.00 o
-6 8 2 1.07 1.03 0.12 o
-6 8 3 4.30 4.27 0.21 o
-6 8 4 5.93 5.78 0.25 o
-6 8 5 65.10 63.30 1.77 o
-6 8 6 83.17 81.89 2.49 o
-6 8 7 15.65 15.79 0.45 o
-6 8 8 0.61 0.77 0.11 o
-6 8 9 0.97 0.92 0.12 o
-6 8 10 54.81 53.63 1.40 o
-6 8 12 39.66 39.14 1.06 o
-6 8 13 1.72 1.53 0.15 o
-6 8 14 4.18 4.25 0.22 o
-6 8 15 4.30 4.74 0.22 o
-6 8 16 8.11 8.18 0.28 o
-6 8 17 1.46 1.34 0.14 o
-6 8 18 1.80 1.82 0.15 o
-6 8 19 0.44 0.61 0.15 o
-6 8 21 1.84 1.88 0.18 o
-6 8 23 1.06 0.69 0.16 o
-6 9 1 20.43 20.09 0.57 o
-6 9 2 10.58 10.09 0.38 o
-6 9 3 6.99 6.73 0.27 o
-6 9 4 25.86 25.65 0.80 o
-6 9 5 4.26 4.25 0.23 o
-6 9 6 0.32 1.34 0.14 o
-6 9 7 10.34 10.50 0.42 o
-6 9 9 12.43 13.19 0.40 o
-6 9 10 11.16 11.29 0.36 o
-6 9 11 5.33 5.20 0.25 o
-6 9 12 0.39 0.44 0.13 o
-6 9 13 3.90 3.78 0.22 o
-6 9 14 7.18 7.04 0.28 o
-6 9 15 26.60 26.37 0.72 o
-6 9 16 7.13 7.09 0.28 o
-6 9 17 45.06 45.50 1.18 o
-6 9 18 9.02 9.14 0.33 o
-6 9 19 8.85 8.99 0.33 o
-6 9 20 4.07 4.36 0.30 o
-6 9 21 8.68 8.87 0.38 o
-6 9 22 1.37 1.19 0.20 o
-6 10 1 20.86 21.13 0.70 o
-6 10 2 1.66 1.88 0.18 o
-6 10 3 1.62 1.66 0.22 o
-6 10 4 1.91 1.94 0.16 o
-6 10 5 29.13 29.20 0.81 o
-6 10 6 35.13 35.21 0.98 o
-6 10 7 7.15 7.39 0.30 o
-6 10 10 27.16 26.49 0.69 o
-6 10 12 19.12 18.70 0.56 o
-6 10 13 0.77 0.81 0.17 o
-6 10 14 1.58 1.62 0.17 o
-6 10 15 2.13 2.08 0.18 o
-6 10 16 3.45 3.64 0.23 o
-6 10 18 0.56 0.60 0.15 o
-6 11 1 9.00 8.68 0.34 o
-6 11 2 5.71 5.61 0.28 o
-6 11 3 2.00 1.73 0.19 o
-6 11 4 12.18 11.99 0.40 o
-6 11 5 3.06 3.12 0.21 o
-6 11 7 3.70 3.44 0.24 o
-6 11 9 5.19 5.24 0.33 o
-6 11 10 4.79 4.87 0.29 o
-6 11 11 2.56 2.35 0.20 o
-6 11 13 1.78 1.79 0.18 o
-6 11 14 2.87 2.68 0.20 o
-6 11 15 11.74 11.91 0.52 o
-6 11 16 3.18 3.05 0.21 o
-6 11 17 19.45 19.77 0.57 o
-6 12 1 9.25 10.23 0.47 o
-6 12 2 1.46 1.62 0.25 o
-6 12 4 0.55 0.65 0.20 o
-6 12 5 11.25 11.68 0.44 o
-6 12 6 12.74 12.64 0.50 o
-6 12 7 2.84 2.75 0.25 o
-6 12 10 11.52 11.15 0.46 o
-6 12 12 7.95 8.26 0.32 o
-6 13 1 3.45 3.35 0.82 o
-6 13 2 2.58 2.83 0.47 o
-6 13 4 5.03 5.26 0.75 o
-6 13 5 1.76 1.62 0.41 o
-6 13 7 1.11 1.03 0.18 o
-6 13 9 1.83 1.97 0.19 o
-5 0 1 20.80 20.60 0.96 o
-5 0 2 2.48 1.96 0.33 o
-5 0 3 49.61 49.24 1.36 o
-5 0 4 18.72 18.10 0.69 o
-5 0 5 40.91 40.50 1.19 o
-5 0 6 2.72 3.10 0.35 o
-5 0 7 411.35 426.46 13.81 o
-5 0 8 8.01 7.30 0.61 o
-5 0 9 1268.04 1235.41 39.57 o
-5 0 10 504.60 488.82 12.49 o
-5 0 11 215.38 213.79 5.36 o
-5 0 12 342.32 338.48 9.00 o
-5 0 13 52.83 51.51 2.16 o
-5 0 14 100.93 98.75 3.26 o
-5 0 15 95.35 95.81 2.81 o
-5 0 16 4.95 5.02 0.52 o
-5 0 18 1.81 2.01 0.41 o
-5 0 19 4.42 4.41 0.49 o
-5 0 20 22.56 22.58 0.91 o
-5 0 26 53.66 53.03 1.86 o
-5 0 27 6.45 6.69 0.78 o
-5 1 1 76.29 78.21 1.95 o
-5 1 2 335.02 329.58 7.43 o
-5 1 3 123.24 117.84 2.75 o
-5 1 4 10.33 10.26 0.42 o
-5 1 5 132.56 132.11 3.11 o
-5 1 6 42.76 41.42 1.20 o
-5 1 7 12.58 12.26 0.56 o
-5 1 8 352.25 359.99 8.80 o
-5 1 9 113.07 113.30 2.77 o
-5 1 10 973.95 993.07 25.58 o
-5 1 11 15.27 15.62 0.55 o
-5 1 12 1.62 1.30 0.23 o
-5 1 13 129.54 129.85 3.45 o
-5 1 14 20.68 20.95 0.69 o
-5 1 15 110.35 108.82 2.80 o
-5 1 16 1.52 1.67 0.19 o
-5 1 17 121.53 121.47 2.95 o
-5 1 18 12.75 12.52 0.47 o
-5 1 19 4.10 4.21 0.48 o
-5 1 21 13.61 13.36 0.72 o
-5 1 22 21.72 21.95 1.31 o
-5 1 23 56.60 57.18 1.65 o
-5 1 25 1.75 1.71 0.53 o
-5 1 26 6.83 7.04 0.44 o
-5 1 27 6.67 6.38 0.58 o
-5 1 28 11.98 11.48 0.72 o
-5 2 1 32.52 33.14 0.97 o
-5 2 3 40.15 40.86 1.33 o
-5 2 4 2.46 2.48 0.36 o
-5 2 5 28.41 27.60 1.14 o
-5 2 6 3.85 3.59 0.39 o
-5 2 7 271.67 271.11 6.89 o
-5 2 8 1.11 1.03 0.19 o
-5 2 9 1063.40 1071.09 27.59 o
-5 2 10 432.65 437.53 10.87 o
-5 2 11 182.12 180.95 5.34 o
-5 2 12 306.30 308.72 8.60 o
-5 2 13 48.38 48.50 1.73 o
-5 2 14 82.61 81.11 2.11 o
-5 2 15 83.33 82.70 2.65 o
-5 2 16 4.86 4.89 0.25 o
-5 2 18 1.73 1.86 0.29 o
-5 2 19 3.85 4.11 0.28 o
-5 2 20 20.54 20.66 0.70 o
-5 2 21 35.37 37.97 1.43 o
-5 2 23 5.63 5.44 0.43 o
-5 2 25 1.15 1.31 0.28 o
-5 2 26 48.99 47.76 1.40 o
-5 2 27 5.73 5.86 0.33 o
-5 3 1 45.38 46.45 2.91 o
-5 3 2 180.76 176.83 7.18 o
-5 3 3 49.56 48.59 1.83 o
-5 3 4 5.44 4.97 0.51 o
-5 3 5 93.10 93.88 2.87 o
-5 3 6 40.62 44.28 1.62 o
-5 3 7 4.32 4.41 0.25 o
-5 3 8 279.61 289.71 7.54 o
-5 3 9 86.53 87.66 2.13 o
-5 3 10 748.36 778.11 20.14 o
-5 3 11 12.65 12.79 0.54 o
-5 3 12 2.12 2.23 0.24 o
-5 3 13 105.14 102.60 2.70 o
-5 3 14 17.38 16.91 0.74 o
-5 3 15 88.77 85.38 2.15 o
-5 3 16 1.67 1.69 0.17 o
-5 3 17 97.70 100.86 4.43 o
-5 3 18 10.05 10.16 0.41 o
-5 3 19 3.22 3.38 0.30 o
-5 3 21 11.61 11.14 0.51 o
-5 3 22 18.69 18.31 0.69 o
-5 3 23 47.37 48.38 1.62 o
-5 3 25 1.53 1.23 0.33 o
-5 3 26 5.62 5.41 1.03 o
-5 3 27 5.43 5.09 0.39 o
-5 3 28 10.22 10.36 0.52 o
-5 4 1 27.04 25.46 0.73 o
-5 4 3 24.11 25.02 0.73 o
-5 4 5 14.97 14.95 0.52 o
-5 4 6 2.59 2.85 0.23 o
-5 4 7 127.77 128.07 3.09 o
-5 4 9 683.61 675.82 17.20 o
-5 4 10 307.27 299.89 7.56 o
-5 4 11 113.87 111.21 2.87 o
-5 4 12 228.04 224.84 5.76 o
-5 4 13 35.12 34.89 1.05 o
-5 4 14 53.65 54.34 1.70 o
-5 4 15 59.42 61.39 1.87 o
-5 4 16 3.66 3.67 0.19 o
-5 4 18 1.27 1.34 0.16 o
-5 4 19 2.69 2.70 0.25 o
-5 4 20 15.59 15.05 0.75 o
-5 4 21 28.23 27.53 0.83 o
-5 4 23 3.47 3.30 0.35 o
-5 4 26 37.34 36.28 1.11 o
-5 4 27 4.05 4.24 0.43 o
-5 5 1 22.99 23.29 0.71 o
-5 5 2 70.97 72.24 2.35 o
-5 5 3 31.67 31.29 0.91 o
-5 5 4 3.89 3.62 0.28 o
-5 5 5 46.56 46.87 1.24 o
-5 5 6 21.32 21.46 0.68 o
-5 5 7 5.89 5.79 0.30 o
-5 5 8 171.40 172.53 4.32 o
-5 5 9 48.92 48.09 1.31 o
-5 5 10 472.81 477.67 13.25 o
-5 5 11 10.57 10.69 0.49 o
-5 5 12 1.55 1.43 0.15 o
-5 5 13 63.47 64.21 1.76 o
-5 5 14 11.39 11.94 0.34 o
-5 5 15 60.34 62.18 1.87 o
-5 5 16 1.85 1.84 0.15 o
-5 5 17 67.67 69.88 2.49 o
-5 5 18 6.43 6.85 0.27 o
-5 5 19 1.85 1.85 0.17 o
-5 5 21 8.32 8.46 0.41 o
-5 5 22 13.65 13.07 0.49 o
-5 5 23 33.10 33.63 1.08 o
-5 5 25 1.16 1.11 0.30 o
-5 5 26 3.83 3.75 0.37 o
-5 6 1 11.67 10.99 0.51 o
-5 6 3 13.58 13.51 0.56 o
-5 6 5 8.57 8.53 0.40 o
-5 6 6 0.90 1.18 0.21 o
-5 6 7 63.11 63.08 2.25 o
-5 6 9 383.63 369.39 10.11 o
-5 6 10 194.82 191.20 4.86 o
-5 6 11 60.57 58.88 1.50 o
-5 6 12 145.89 142.50 3.61 o
-5 6 13 19.99 19.87 0.64 o
-5 6 14 30.82 31.31 0.88 o
-5 6 15 36.84 36.84 1.10 o
-5 6 16 1.90 1.80 0.15 o
-5 6 18 0.74 0.67 0.13 o
-5 6 19 1.60 1.40 0.16 o
-5 6 20 9.82 10.00 0.41 o
-5 6 21 19.23 19.75 0.81 o
-5 6 23 1.43 1.59 0.21 o
-5 6 26 23.89 24.41 1.19 o
-5 7 1 11.33 11.97 0.42 o
-5 7 2 28.18 27.77 0.88 o
-5 7 3 21.37 21.32 0.67 o
-5 7 4 2.27 2.04 0.20 o
-5 7 5 24.15 24.10 0.62 o
-5 7 6 9.17 9.17 0.28 o
-5 7 7 6.27 6.14 0.23 o
-5 7 8 95.42 95.81 2.54 o
-5 7 9 23.21 23.21 0.61 o
-5 7 10 266.57 269.90 7.57 o
-5 7 11 7.16 6.77 0.24 o
-5 7 12 0.60 0.62 0.11 o
-5 7 13 31.66 31.64 0.81 o
-5 7 14 6.41 6.70 0.25 o
-5 7 15 34.58 35.91 0.93 o
-5 7 16 1.76 1.87 0.16 o
-5 7 17 39.68 40.15 1.19 o
-5 7 18 3.46 3.71 0.21 o
-5 7 19 0.77 0.90 0.16 o
-5 7 21 5.07 5.21 0.28 o
-5 7 22 8.50 8.79 0.63 o
-5 7 23 19.38 19.95 0.86 o
-5 8 1 5.35 5.45 0.22 o
-5 8 2 0.93 0.61 0.11 o
-5 8 3 7.94 7.95 0.28 o
-5 8 5 4.39 4.51 0.21 o
-5 8 6 0.46 0.56 0.11 o
-5 8 7 28.05 26.86 0.69 o
-5 8 9 196.29 192.14 5.36 o
-5 8 10 107.01 104.25 2.64 o
-5 8 11 30.18 30.20 0.77 o
-5 8 12 80.19 78.78 2.03 o
-5 8 13 9.66 9.96 0.32 o
-5 8 14 14.59 14.64 0.46 o
-5 8 15 19.69 20.24 0.55 o
-5 8 16 0.75 0.68 0.13 o
-5 8 19 0.81 0.69 0.17 o
-5 8 20 5.11 5.19 0.28 o
-5 8 21 11.18 11.54 0.59 o
-5 9 1 5.05 4.88 0.25 o
-5 9 2 11.71 11.53 0.39 o
-5 9 3 11.46 10.81 0.39 o
-5 9 4 0.93 0.92 0.13 o
-5 9 5 13.43 12.78 0.41 o
-5 9 6 3.70 3.43 0.20 o
-5 9 7 3.97 4.09 0.21 o
-5 9 8 48.81 47.59 1.17 o
-5 9 9 9.84 9.97 0.33 o
-5 9 10 134.22 133.93 3.26 o
-5 9 11 3.64 3.72 0.21 o
-5 9 13 13.54 13.28 0.40 o
-5 9 14 3.33 3.29 0.20 o
-5 9 15 16.57 17.20 0.47 o
-5 9 16 1.39 1.41 0.15 o
-5 9 17 19.41 18.85 0.55 o
-5 9 18 1.56 1.46 0.16 o
-5 9 21 2.65 3.03 0.20 o
-5 9 22 4.54 4.61 0.30 o
-5 10 1 2.40 2.42 0.19 o
-5 10 2 1.14 1.32 0.16 o
-5 10 3 4.13 4.04 0.24 o
-5 10 5 1.89 1.98 0.16 o
-5 10 6 0.29 0.48 0.14 o
-5 10 7 11.25 10.88 0.38 o
-5 10 9 89.02 84.38 2.20 o
-5 10 10 50.93 49.77 1.29 o
-5 10 11 13.57 13.21 0.42 o
-5 10 12 38.12 38.19 0.98 o
-5 10 13 3.98 3.97 0.24 o
-5 10 14 5.75 6.25 0.34 o
-5 10 15 9.04 8.97 0.44 o
-5 10 20 2.24 2.13 0.16 o
-5 11 1 1.94 2.02 0.23 o
-5 11 2 4.31 4.13 0.27 o
-5 11 3 5.41 5.43 0.28 o
-5 11 5 6.69 6.62 0.29 o
-5 11 6 1.18 1.00 0.18 o
-5 11 7 2.18 2.27 0.21 o
-5 11 8 21.44 21.59 0.67 o
-5 11 9 3.60 3.47 0.24 o
-5 11 10 58.66 58.14 1.48 o
-5 11 11 1.52 1.46 0.18 o
-5 11 13 4.78 4.58 0.25 o
-5 11 14 1.52 1.25 0.21 o
-5 11 15 6.74 7.01 0.29 o
-5 11 16 0.89 1.33 0.16 o
-5 11 17 8.10 7.95 0.30 o
-5 12 3 1.89 1.86 0.28 o
-5 12 7 4.05 3.82 0.33 o
-5 12 9 34.96 35.05 1.04 o
-5 12 10 21.01 21.16 0.63 o
-5 12 11 5.33 5.88 0.29 o
-5 12 12 15.61 16.15 0.49 o
-5 12 13 1.36 1.51 0.16 o
-5 12 14 1.91 2.15 0.26 o
-5 12 15 3.58 3.41 0.25 o
-5 13 2 1.32 2.15 0.30 o
-5 13 5 2.87 3.23 0.73 o
-5 13 7 1.06 0.95 0.18 o
-5 13 8 8.07 8.27 0.33 o
-5 13 9 1.13 1.05 0.20 o
-5 13 10 22.05 22.29 0.66 o
-4 0 1 36.73 36.98 1.17 o
-4 0 2 55.61 54.23 1.41 o
-4 0 3 1349.31 1344.72 32.84 o
-4 0 4 608.54 595.37 13.37 o
-4 0 5 1915.02 1926.09 55.01 o
-4 0 6 28.43 29.41 0.91 o
-4 0 7 133.35 128.44 3.78 o
-4 0 9 127.93 134.63 3.69 o
-4 0 10 2.61 1.60 0.37 o
-4 0 11 60.44 59.15 2.18 o
-4 0 12 7.49 7.20 0.49 o
-4 0 13 100.19 100.38 2.68 o
-4 0 14 3.11 3.33 0.40 o
-4 0 15 47.07 48.47 1.86 o
-4 0 16 56.16 54.31 1.73 o
-4 0 17 90.35 90.30 2.49 o
-4 0 18 4.76 4.56 0.61 o
-4 0 19 15.74 14.35 1.28 o
-4 0 24 10.65 11.09 0.87 o
-4 0 25 20.78 20.44 1.09 o
-4 0 26 37.02 36.87 1.40 o
-4 0 27 1.91 1.94 0.55 o
-4 0 28 0.57 0.92 0.25 o
-4 1 1 260.96 255.11 5.61 o
-4 1 2 803.92 803.39 17.71 o
-4 1 3 30.56 31.45 0.83 o
-4 1 4 1327.32 1321.25 31.70 o
-4 1 5 494.91 500.91 11.58 o
-4 1 6 0.76 0.85 0.14 o
-4 1 7 4.51 4.37 0.36 o
-4 1 8 150.66 150.67 4.44 o
-4 1 9 569.91 584.06 16.80 o
-4 1 10 446.33 442.18 10.93 o
-4 1 12 7.92 7.56 0.37 o
-4 1 14 0.75 0.73 0.20 o
-4 1 15 30.69 29.59 0.95 o
-4 1 16 20.32 21.59 0.76 o
-4 1 17 11.32 12.04 0.56 o
-4 1 18 1.49 1.29 0.33 o
-4 1 19 17.09 17.47 0.79 o
-4 1 20 23.93 22.54 0.92 o
-4 1 22 65.58 65.61 2.17 o
-4 1 23 158.69 159.01 5.67 o
-4 1 24 2.13 1.89 0.53 o
-4 1 25 1.98 1.83 0.28 o
-4 1 26 4.41 4.17 0.33 o
-4 1 27 2.73 2.75 0.26 o
-4 1 28 2.30 1.93 0.32 o
-4 2 1 2.98 3.41 0.33 o
-4 2 2 49.59 50.69 1.48 o
-4 2 3 871.46 865.11 27.69 o
-4 2 4 399.24 406.34 9.59 o
-4 2 5 1401.96 1371.75 37.93 o
-4 2 6 11.49 10.70 0.61 o
-4 2 7 80.26 81.17 2.30 o
-4 2 8 1.86 1.08 0.28 o
-4 2 9 116.89 115.70 2.79 o
-4 2 11 45.33 46.61 1.47 o
-4 2 12 6.31 6.10 0.31 o
-4 2 13 83.75 79.26 2.10 o
-4 2 14 2.37 2.42 0.32 o
-4 2 15 41.03 40.22 1.40 o
-4 2 16 50.87 48.33 1.38 o
-4 2 17 80.74 80.02 2.05 o
-4 2 18 4.13 4.36 0.36 o
-4 2 19 14.40 14.16 0.57 o
-4 2 20 9.09 9.24 0.47 o
-4 2 21 102.26 101.36 2.76 o
-4 2 22 46.51 46.48 1.36 o
-4 2 23 17.64 18.09 0.68 o
-4 2 24 9.59 9.88 0.54 o
-4 2 25 19.43 18.56 0.86 o
-4 2 26 34.18 33.86 0.97 o
-4 2 27 1.73 1.63 0.30 o
-4 3 1 128.85 126.82 3.14 o
-4 3 2 287.10 284.52 9.83 o
-4 3 3 8.58 8.65 0.60 o
-4 3 4 519.68 515.12 12.61 o
-4 3 5 250.48 252.04 6.26 o
-4 3 7 1.53 1.38 0.32 o
-4 3 8 95.54 96.60 2.48 o
-4 3 9 408.43 414.90 10.03 o
-4 3 10 296.55 308.62 8.52 o
-4 3 12 10.28 9.78 0.43 o
-4 3 14 0.79 0.74 0.24 o
-4 3 15 22.91 23.42 1.10 o
-4 3 16 15.83 16.60 0.63 o
-4 3 17 9.72 10.35 0.48 o
-4 3 18 1.38 1.73 0.18 o
-4 3 19 16.39 16.46 0.55 o
-4 3 20 19.62 19.13 0.86 o
-4 3 22 54.78 54.44 1.46 o
-4 3 23 130.97 129.52 3.48 o
-4 3 24 1.82 1.81 0.29 o
-4 3 25 1.67 1.71 0.24 o
-4 3 26 3.89 4.13 0.62 o
-4 3 28 1.72 1.50 0.27 o
-4 4 1 1.66 1.91 0.19 o
-4 4 2 32.03 31.61 0.92 o
-4 4 3 401.88 397.57 9.49 o
-4 4 4 159.58 161.25 3.85 o
-4 4 5 675.09 681.51 16.92 o
-4 4 6 3.07 2.87 0.23 o
-4 4 7 42.47 43.64 1.13 o
-4 4 8 0.81 1.77 0.19 o
-4 4 9 75.29 75.65 1.90 o
-4 4 11 31.00 31.91 0.92 o
-4 4 12 4.44 4.82 0.36 o
-4 4 13 50.70 46.14 1.50 o
-4 4 14 1.31 1.01 0.15 o
-4 4 15 26.82 27.65 0.90 o
-4 4 16 35.63 37.41 1.26 o
-4 4 17 59.10 61.13 1.95 o
-4 4 18 3.03 2.80 0.21 o
-4 4 19 10.91 11.07 0.61 o
-4 4 20 7.62 8.76 0.42 o
-4 4 21 78.20 77.02 2.03 o
-4 4 22 35.00 34.98 2.60 o
-4 4 23 13.96 13.74 0.97 o
-4 4 24 7.07 6.65 0.46 o
-4 4 25 15.84 15.48 0.81 o
-4 4 26 26.96 28.01 1.36 o
-4 4 27 1.27 1.79 0.29 o
-4 5 1 67.46 68.84 1.71 o
-4 5 2 94.34 95.84 2.32 o
-4 5 3 0.65 0.74 0.15 o
-4 5 4 171.68 171.31 4.53 o
-4 5 5 101.22 101.56 2.47 o
-4 5 6 0.61 0.68 0.14 o
-4 5 7 2.52 2.74 0.25 o
-4 5 8 57.96 57.42 1.51 o
-4 5 9 251.88 244.40 6.53 o
-4 5 10 190.67 185.71 4.86 o
-4 5 12 9.85 9.41 0.49 o
-4 5 14 0.59 0.59 0.10 o
-4 5 15 14.44 14.85 0.45 o
-4 5 16 9.71 9.97 0.31 o
-4 5 17 5.92 6.03 0.23 o
-4 5 18 1.22 1.29 0.16 o
-4 5 19 14.88 15.70 0.62 o
-4 5 20 13.29 13.94 0.44 o
-4 5 22 38.50 37.75 1.07 o
-4 5 23 89.50 87.34 7.64 o
-4 5 26 3.03 2.49 0.31 o
-4 6 1 10.70 10.07 0.44 o
-4 6 2 15.28 15.41 0.56 o
-4 6 3 201.74 197.43 5.38 o
-4 6 4 62.26 60.46 1.63 o
-4 6 5 297.46 285.92 7.48 o
-4 6 6 1.86 1.67 0.23 o
-4 6 7 28.53 28.32 0.83 o
-4 6 9 38.38 37.94 1.12 o
-4 6 11 22.83 22.45 0.60 o
-4 6 12 3.03 3.07 0.16 o
-4 6 13 23.86 23.39 0.74 o
-4 6 14 0.56 0.44 0.11 o
-4 6 15 13.45 13.81 0.42 o
-4 6 16 19.70 19.91 0.54 o
-4 6 17 36.72 38.42 1.07 o
-4 6 18 1.98 2.09 0.16 o
-4 6 19 6.77 7.07 0.31 o
-4 6 20 5.46 5.62 0.27 o
-4 6 21 50.20 52.80 1.74 o
-4 6 22 21.96 22.91 1.24 o
-4 6 23 9.38 8.99 0.51 o
-4 6 24 4.30 4.84 0.33 o
-4 6 25 11.24 11.24 0.51 o
-4 6 26 18.19 17.33 1.00 o
-4 7 1 39.43 38.35 1.17 o
-4 7 2 36.46 35.77 1.08 o
-4 7 4 63.15 61.02 1.82 o
-4 7 5 44.54 43.35 1.36 o
-4 7 7 1.58 1.54 0.15 o
-4 7 8 34.07 33.88 0.86 o
-4 7 9 141.45 138.46 3.63 o
-4 7 10 112.99 111.66 2.81 o
-4 7 12 7.84 7.70 0.27 o
-4 7 14 0.36 0.37 0.11 o
-4 7 15 7.86 7.63 0.28 o
-4 7 16 4.87 4.78 0.22 o
-4 7 17 2.79 2.97 0.18 o
-4 7 18 0.96 0.83 0.15 o
-4 7 19 12.11 12.67 0.44 o
-4 7 20 7.55 7.44 0.28 o
-4 7 22 22.67 24.35 0.91 o
-4 7 23 50.75 50.78 2.29 o
-4 8 1 9.20 8.78 0.31 o
-4 8 2 5.46 5.50 0.23 o
-4 8 3 99.64 96.74 2.48 o
-4 8 4 25.96 25.62 0.67 o
-4 8 5 130.17 130.93 3.43 o
-4 8 6 0.80 0.85 0.11 o
-4 8 7 14.80 14.49 0.42 o
-4 8 9 18.73 18.65 0.50 o
-4 8 11 13.73 13.93 0.41 o
-4 8 12 1.88 1.78 0.15 o
-4 8 13 9.31 9.20 0.35 o
-4 8 15 5.43 5.74 0.23 o
-4 8 16 9.32 9.92 0.32 o
-4 8 17 19.30 19.49 0.57 o
-4 8 18 1.06 0.85 0.14 o
-4 8 19 3.43 3.51 0.25 o
-4 8 20 3.44 3.64 0.25 o
-4 8 21 27.22 28.95 1.65 o
-4 8 22 11.46 12.11 0.42 o
-4 8 23 5.44 5.99 0.37 o
-4 9 1 20.85 19.57 0.60 o
-4 9 2 14.00 14.10 0.42 o
-4 9 4 23.61 23.12 0.77 o
-4 9 5 20.53 20.41 0.62 o
-4 9 7 1.25 1.26 0.14 o
-4 9 8 18.14 17.73 0.49 o
-4 9 9 70.68 70.23 1.85 o
-4 9 10 57.68 56.82 1.43 o
-4 9 11 0.33 0.50 0.13 o
-4 9 12 5.46 5.29 0.24 o
-4 9 15 3.69 3.89 0.20 o
-4 9 16 2.10 2.20 0.16 o
-4 9 17 1.07 1.21 0.16 o
-4 9 18 0.64 0.88 0.16 o
-4 9 19 8.51 8.56 0.42 o
-4 9 20 3.61 3.72 0.26 o
-4 9 22 11.23 11.36 0.39 o
-4 10 1 4.75 4.51 0.27 o
-4 10 2 1.34 1.49 0.18 o
-4 10 3 44.60 44.14 1.22 o
-4 10 4 10.58 10.39 0.37 o
-4 10 5 52.56 52.23 1.46 o
-4 10 7 6.19 6.27 0.30 o
-4 10 9 8.19 7.84 0.30 o
-4 10 11 7.07 6.75 0.28 o
-4 10 12 0.99 0.84 0.15 o
-4 10 13 3.01 2.99 0.21 o
-4 10 15 1.73 2.08 0.20 o
-4 10 16 3.69 3.40 0.21 o
-4 10 17 8.52 8.38 0.31 o
-4 10 19 1.42 1.59 0.17 o
-4 10 20 1.87 1.79 0.18 o
-4 11 1 9.31 10.40 0.66 o
-4 11 2 5.27 5.44 0.33 o
-4 11 4 8.55 8.45 0.32 o
-4 11 5 8.61 8.69 0.35 o
-4 11 7 0.76 0.80 0.18 o
-4 11 8 8.63 8.75 0.34 o
-4 11 9 30.76 31.73 0.84 o
-4 11 10 25.85 26.73 0.76 o
-4 11 12 3.15 3.31 0.23 o
-4 11 15 1.51 1.43 0.19 o
-4 11 16 0.78 0.74 0.18 o
-4 12 1 2.21 2.37 0.43 o
-4 12 3 17.50 17.06 0.96 o
-4 12 4 3.86 3.56 0.68 o
-4 12 5 18.26 18.66 0.73 o
-4 12 7 2.18 2.13 0.24 o
-4 12 9 3.07 3.07 0.27 o
-4 12 11 3.21 3.18 0.26 o
-4 13 1 3.54 4.22 0.40 o
-4 13 4 2.78 3.24 0.72 o
-4 13 8 3.57 3.18 0.37 o
-4 13 9 11.62 11.16 0.50 o
-4 13 10 10.05 10.47 0.74 o
-3 0 1 12.94 12.01 0.57 o
-3 0 2 236.84 234.22 5.64 o
-3 0 3 45.00 46.04 1.12 o
-3 0 4 45.53 45.16 1.18 o
-3 0 5 247.29 251.90 5.37 o
-3 0 6 4.13 4.36 0.35 o
-3 0 7 569.43 569.41 24.76 o
-3 0 8 135.25 132.20 3.60 o
-3 0 9 25.53 25.97 1.30 o
-3 0 10 61.36 62.13 3.76 o
-3 0 11 243.72 241.75 6.18 o
-3 0 12 225.99 219.10 5.45 o
-3 0 13 3.96 4.27 0.41 o
-3 0 14 16.93 17.24 0.83 o
-3 0 15 7.46 7.97 1.40 o
-3 0 17 73.11 75.96 2.83 o
-3 0 23 46.60 47.15 1.70 o
-3 0 25 18.15 16.88 1.02 o
-3 0 26 1.51 1.98 0.57 o
-3 0 27 1.64 1.86 0.30 o
-3 1 1 3.34 3.45 0.23 o
-3 1 2 427.45 419.18 8.89 o
-3 1 3 430.78 429.76 8.99 o
-3 1 4 21.00 21.14 0.55 o
-3 1 5 613.05 610.77 13.92 o
-3 1 6 1226.12 1231.94 32.46 o
-3 1 7 612.14 604.12 14.71 o
-3 1 8 18.92 18.85 0.63 o
-3 1 9 67.04 64.90 2.05 o
-3 1 10 226.27 214.22 5.26 o
-3 1 11 4.54 4.61 0.33 o
-3 1 12 19.85 19.31 0.60 o
-3 1 13 20.39 21.20 0.62 o
-3 1 14 48.21 47.01 1.33 o
-3 1 15 45.84 45.86 1.53 o
-3 1 16 0.56 0.73 0.24 o
-3 1 18 177.55 181.23 5.14 o
-3 1 19 59.46 58.83 1.77 o
-3 1 20 110.56 114.36 5.04 o
-3 1 22 9.49 10.60 0.81 o
-3 1 23 47.09 45.95 1.65 o
-3 1 24 15.77 15.19 0.97 o
-3 1 25 4.87 4.80 0.40 o
-3 1 26 7.56 7.47 0.39 o
-3 1 28 1.36 1.31 0.19 o
-3 2 1 43.94 44.02 1.10 o
-3 2 2 198.34 197.57 5.73 o
-3 2 3 4.64 4.74 0.28 o
-3 2 4 18.21 17.05 0.74 o
-3 2 5 112.05 113.22 2.75 o
-3 2 6 2.70 2.64 0.31 o
-3 2 7 412.55 414.48 9.66 o
-3 2 8 104.18 104.52 3.00 o
-3 2 9 14.24 14.18 0.63 o
-3 2 10 66.49 62.83 1.63 o
-3 2 11 225.78 228.87 5.97 o
-3 2 12 192.15 194.51 6.02 o
-3 2 13 4.31 4.41 0.33 o
-3 2 14 14.98 15.79 0.71 o
-3 2 15 5.83 5.98 0.45 o
-3 2 17 68.05 65.75 1.83 o
-3 2 18 248.02 244.08 6.65 o
-3 2 19 127.58 128.99 3.40 o
-3 2 20 61.42 62.80 1.72 o
-3 2 22 3.52 4.10 0.61 o
-3 2 23 42.37 41.24 1.26 o
-3 2 25 16.73 16.11 0.57 o
-3 2 26 1.49 1.25 0.23 o
-3 2 27 1.45 1.19 0.21 o
-3 3 2 178.95 176.54 4.09 o
-3 3 3 139.32 138.46 3.36 o
-3 3 5 248.89 252.29 6.92 o
-3 3 6 632.83 646.24 18.34 o
-3 3 7 336.51 334.52 8.58 o
-3 3 8 4.96 4.99 0.34 o
-3 3 9 43.33 43.42 1.12 o
-3 3 10 130.00 132.97 3.90 o
-3 3 11 1.88 1.68 0.21 o
-3 3 12 15.29 20.45 0.81 o
-3 3 13 18.54 19.51 0.74 o
-3 3 14 40.12 39.70 1.43 o
-3 3 15 35.45 43.91 1.50 o
-3 3 16 0.41 0.58 0.12 o
-3 3 18 144.21 153.52 5.53 o
-3 3 19 51.26 54.40 2.79 o
-3 3 20 94.04 91.44 2.58 o
-3 3 21 0.82 1.04 0.18 o
-3 3 22 8.24 8.16 0.40 o
-3 3 23 39.89 38.81 1.09 o
-3 3 24 13.28 13.33 0.63 o
-3 3 25 3.91 3.83 0.37 o
-3 3 26 6.51 6.18 0.41 o
-3 4 1 28.44 28.61 0.86 o
-3 4 2 85.61 85.18 2.23 o
-3 4 4 3.11 4.32 0.53 o
-3 4 5 44.99 44.31 1.50 o
-3 4 6 2.62 2.60 0.25 o
-3 4 7 177.07 177.85 4.15 o
-3 4 8 57.26 55.77 1.51 o
-3 4 9 5.86 5.75 0.29 o
-3 4 10 54.19 53.41 1.82 o
-3 4 11 160.11 158.94 3.95 o
-3 4 12 130.33 128.36 4.33 o
-3 4 13 2.48 2.59 0.28 o
-3 4 14 10.97 11.34 0.54 o
-3 4 15 3.44 3.75 0.18 o
-3 4 17 54.78 56.89 1.92 o
-3 4 18 187.74 193.63 6.07 o
-3 4 19 96.31 93.96 2.33 o
-3 4 20 47.84 48.43 1.77 o
-3 4 22 2.87 3.09 0.25 o
-3 4 23 31.93 31.78 0.96 o
-3 4 25 13.17 12.55 0.48 o
-3 4 26 1.38 1.34 0.22 o
-3 4 27 0.98 0.83 0.20 o
-3 5 1 0.51 0.57 0.16 o
-3 5 2 64.46 65.24 1.91 o
-3 5 3 62.25 65.90 1.74 o
-3 5 5 94.21 97.77 2.88 o
-3 5 6 291.81 285.47 6.84 o
-3 5 7 144.82 143.10 3.46 o
-3 5 9 13.03 12.67 0.56 o
-3 5 10 74.38 74.16 1.95 o
-3 5 11 1.81 1.84 0.26 o
-3 5 12 9.54 9.44 0.49 o
-3 5 13 15.37 15.72 0.45 o
-3 5 14 24.23 24.47 0.71 o
-3 5 15 22.21 22.55 0.69 o
-3 5 18 96.40 100.31 3.37 o
-3 5 19 37.01 35.30 0.99 o
-3 5 20 67.92 71.07 2.59 o
-3 5 22 6.16 6.42 0.35 o
-3 5 23 28.47 28.41 0.95 o
-3 5 24 9.50 9.71 1.15 o
-3 5 25 2.55 2.82 0.28 o
-3 5 26 4.79 5.00 0.39 o
-3 6 1 4.69 5.06 0.30 o
-3 6 2 26.91 27.96 0.78 o
-3 6 4 1.61 1.61 0.23 o
-3 6 5 34.37 34.27 0.97 o
-3 6 6 1.87 2.43 0.23 o
-3 6 7 65.69 63.83 1.74 o
-3 6 8 30.50 28.76 0.94 o
-3 6 9 2.78 2.86 0.29 o
-3 6 10 31.90 33.52 1.12 o
-3 6 11 89.16 89.63 2.23 o
-3 6 12 75.61 74.64 2.04 o
-3 6 13 0.45 0.43 0.09 o
-3 6 14 6.82 7.18 0.24 o
-3 6 15 1.73 1.92 0.14 o
-3 6 17 37.80 37.49 1.13 o
-3 6 18 119.70 122.13 4.29 o
-3 6 19 60.68 62.57 2.34 o
-3 6 20 32.52 33.78 1.32 o
-3 6 21 0.17 0.45 0.14 o
-3 6 22 1.99 2.05 0.23 o
-3 6 23 20.10 19.95 0.74 o
-3 6 25 8.89 9.11 0.73 o
-3 7 1 0.97 0.99 0.21 o
-3 7 2 27.01 26.54 0.88 o
-3 7 3 33.75 33.95 1.01 o
-3 7 4 0.85 0.96 0.22 o
-3 7 5 39.87 40.57 1.18 o
-3 7 6 138.46 137.76 3.96 o
-3 7 7 62.71 63.56 2.01 o
-3 7 9 1.97 2.23 0.16 o
-3 7 10 38.21 37.97 1.05 o
-3 7 11 1.61 1.52 0.13 o
-3 7 12 5.40 5.15 0.22 o
-3 7 13 10.34 9.72 0.31 o
-3 7 14 12.17 12.70 0.38 o
-3 7 15 12.09 11.92 0.35 o
-3 7 18 53.51 53.52 1.46 o
-3 7 19 22.85 23.61 0.80 o
-3 7 20 41.45 42.59 1.65 o
-3 7 22 3.99 4.20 0.25 o
-3 7 23 17.20 18.31 0.97 o
-3 7 24 5.78 5.76 0.34 o
-3 8 1 1.57 1.74 0.18 o
-3 8 2 11.36 11.38 0.37 o
-3 8 4 0.96 1.04 0.13 o
-3 8 5 22.06 21.71 0.56 o
-3 8 6 0.52 0.58 0.11 o
-3 8 7 27.81 27.39 0.69 o
-3 8 8 16.52 15.64 0.49 o
-3 8 9 0.68 0.76 0.13 o
-3 8 10 17.38 17.76 0.49 o
-3 8 11 43.51 43.76 1.21 o
-3 8 12 36.81 35.95 1.01 o
-3 8 14 3.34 3.31 0.19 o
-3 8 15 0.61 0.54 0.12 o
-3 8 17 22.35 22.74 0.70 o
-3 8 18 64.69 64.98 1.74 o
-3 8 19 32.17 33.48 1.45 o
-3 8 20 18.93 19.51 0.74 o
-3 8 22 1.18 1.19 0.16 o
-3 8 23 10.64 11.30 0.52 o
-3 9 1 1.09 1.09 0.15 o
-3 9 2 11.51 11.17 0.38 o
-3 9 3 15.79 15.79 0.49 o
-3 9 5 15.95 15.47 0.47 o
-3 9 6 61.38 61.90 1.50 o
-3 9 7 27.29 26.68 0.71 o
-3 9 10 16.06 16.15 0.47 o
-3 9 11 0.90 0.64 0.14 o
-3 9 12 2.78 4.23 0.25 o
-3 9 13 5.47 5.29 0.24 o
-3 9 14 5.40 5.38 0.26 o
-3 9 15 5.72 7.98 0.29 o
-3 9 18 24.77 25.15 0.90 o
-3 9 19 12.23 12.32 0.45 o
-3 9 20 21.53 21.98 0.72 o
-3 9 22 2.26 2.41 0.20 o
-3 10 1 0.84 0.95 0.24 o
-3 10 2 5.39 5.35 0.30 o
-3 10 4 0.62 0.55 0.16 o
-3 10 5 11.42 11.63 0.40 o
-3 10 7 11.83 11.49 0.45 o
-3 10 8 8.20 8.44 0.33 o
-3 10 10 8.39 8.35 0.40 o
-3 10 11 17.96 17.82 0.65 o
-3 10 12 14.92 14.60 0.45 o
-3 10 14 1.26 1.29 0.18 o
-3 10 17 11.44 11.17 0.39 o
-3 10 18 29.69 30.05 0.79 o
-3 10 19 14.49 15.10 0.47 o
-3 10 20 9.49 9.64 0.37 o
-3 11 2 4.51 4.80 0.53 o
-3 11 3 6.55 6.53 0.69 o
-3 11 5 5.67 5.73 0.30 o
-3 11 6 23.77 23.88 0.71 o
-3 11 7 10.75 10.57 0.38 o
-3 11 10 5.86 5.95 0.28 o
-3 11 12 1.27 1.34 0.23 o
-3 11 13 2.43 2.23 0.21 o
-3 11 14 1.98 2.11 0.21 o
-3 11 15 2.32 2.44 0.26 o
-3 11 18 9.62 8.85 0.33 o
-3 12 2 2.31 2.75 0.63 o
-3 12 5 5.19 5.19 0.71 o
-3 12 7 4.42 4.07 0.41 o
-3 12 8 3.50 3.25 0.27 o
-3 12 10 3.38 3.27 0.28 o
-3 12 11 6.12 6.14 0.30 o
-3 12 12 5.07 5.38 0.28 o
-3 13 6 7.80 7.25 0.81 o
-3 13 7 3.64 4.24 0.73 o
-3 13 10 1.80 1.94 0.33 o
-2 0 1 13.94 14.04 0.49 o
-2 0 2 66.07 66.97 1.65 o
-2 0 3 38.24 38.28 0.94 o
-2 0 4 672.60 701.26 14.78 o
-2 0 5 2.83 3.22 0.29 o
-2 0 6 9.96 9.85 0.66 o
-2 0 7 449.51 444.25 12.94 o
-2 0 8 57.17 55.83 1.82 o
-2 0 9 4.89 5.05 0.64 o
-2 0 10 367.38 349.71 9.75 o
-2 0 11 188.85 189.15 7.34 o
-2 0 12 3.01 3.51 0.33 o
-2 0 13 128.68 136.10 6.66 o
-2 0 14 24.30 24.25 1.14 o
-2 0 16 2.49 2.41 0.62 o
-2 0 24 9.58 8.76 0.82 o
-2 0 26 13.51 13.28 0.59 o
-2 0 27 7.11 6.82 0.62 o
-2 0 28 3.23 3.43 0.41 o
-2 1 1 181.03 176.37 4.01 o
-2 1 2 1946.46 1946.05 42.63 o
-2 1 3 516.54 516.89 10.47 o
-2 1 4 64.06 64.71 1.53 o
-2 1 5 353.94 358.70 10.69 o
-2 1 6 231.58 229.57 5.86 o
-2 1 7 69.49 68.20 1.67 o
-2 1 8 113.83 113.92 2.83 o
-2 1 10 2.77 2.82 0.36 o
-2 1 11 168.52 171.40 5.23 o
-2 1 12 93.74 94.41 2.40 o
-2 1 13 472.59 472.01 12.75 o
-2 1 14 187.76 190.01 7.37 o
-2 1 15 38.99 39.26 1.67 o
-2 1 16 28.78 29.48 1.60 o
-2 1 17 3.32 3.91 0.36 o
-2 1 19 1.34 1.85 0.43 o
-2 1 20 60.81 59.92 1.93 o
-2 1 21 27.22 27.34 1.14 o
-2 1 22 5.36 5.11 0.68 o
-2 1 23 4.21 4.27 0.39 o
-2 1 24 1.30 1.05 0.26 o
-2 1 27 1.24 1.27 0.20 o
-2 1 28 24.41 23.39 0.66 o
-2 2 1 1.46 1.49 0.16 o
-2 2 2 14.66 14.57 0.45 o
-2 2 3 106.74 105.29 2.68 o
-2 2 4 352.12 345.74 7.28 o
-2 2 5 0.61 0.77 0.16 o
-2 2 6 1.25 1.17 0.17 o
-2 2 7 381.41 385.34 9.93 o
-2 2 8 26.91 27.78 0.87 o
-2 2 9 7.79 7.75 0.46 o
-2 2 10 275.59 265.11 6.33 o
-2 2 11 171.73 173.39 5.40 o
-2 2 12 1.25 1.36 0.21 o
-2 2 13 120.56 121.01 3.89 o
-2 2 14 20.93 19.86 0.83 o
-2 2 16 1.95 2.20 0.21 o
-2 2 17 59.29 58.26 1.52 o
-2 2 18 133.22 136.74 5.85 o
-2 2 19 5.95 6.43 0.37 o
-2 2 20 42.55 44.61 2.35 o
-2 2 21 30.92 31.47 1.24 o
-2 2 24 8.72 7.76 0.40 o
-2 2 26 12.28 11.37 0.55 o
-2 2 27 6.60 6.41 0.41 o
-2 2 28 3.02 2.39 0.25 o
-2 3 1 44.35 43.64 1.13 o
-2 3 2 628.29 637.68 14.30 o
-2 3 3 139.93 144.85 3.84 o
-2 3 4 89.21 88.91 2.06 o
-2 3 5 136.89 136.87 3.72 o
-2 3 6 123.41 119.56 3.48 o
-2 3 7 59.72 58.73 1.80 o
-2 3 8 44.43 46.07 1.41 o
-2 3 9 3.15 3.28 0.23 o
-2 3 10 0.95 0.98 0.17 o
-2 3 11 147.25 143.10 3.67 o
-2 3 12 57.55 57.04 2.30 o
-2 3 13 387.84 366.00 10.55 o
-2 3 14 140.03 138.28 3.67 o
-2 3 15 28.38 29.29 1.52 o
-2 3 16 23.94 24.57 0.81 o
-2 3 17 3.09 3.20 0.25 o
-2 3 18 0.30 0.47 0.15 o
-2 3 19 1.29 1.40 0.18 o
-2 3 20 50.97 49.29 1.31 o
-2 3 21 22.14 21.46 0.69 o
-2 3 22 4.40 4.60 0.28 o
-2 3 23 3.19 2.88 0.27 o
-2 3 27 1.01 1.15 0.20 o
-2 4 2 0.44 0.81 0.17 o
-2 4 3 61.24 58.62 1.70 o
-2 4 4 106.08 100.46 2.70 o
-2 4 5 4.78 4.57 0.48 o
-2 4 7 199.10 197.90 4.60 o
-2 4 8 8.81 8.99 0.37 o
-2 4 9 9.81 10.04 0.42 o
-2 4 10 148.72 147.61 4.30 o
-2 4 11 132.33 128.71 3.96 o
-2 4 13 84.35 80.11 2.40 o
-2 4 14 12.32 12.14 0.49 o
-2 4 16 1.05 1.21 0.12 o
-2 4 17 45.67 46.45 1.53 o
-2 4 18 107.71 102.34 2.57 o
-2 4 19 4.49 4.49 0.25 o
-2 4 20 34.65 33.40 0.95 o
-2 4 21 22.84 21.94 0.71 o
-2 4 24 6.68 6.23 0.40 o
-2 4 26 9.26 9.39 0.40 o
-2 4 27 5.30 5.34 0.30 o
-2 5 1 13.34 13.91 0.54 o
-2 5 2 186.55 190.04 4.49 o
-2 5 3 47.82 47.89 1.28 o
-2 5 4 20.10 20.18 0.62 o
-2 5 5 44.02 44.70 1.19 o
-2 5 6 48.72 49.73 1.33 o
-2 5 7 25.64 24.69 0.74 o
-2 5 8 15.98 15.72 0.55 o
-2 5 9 2.07 1.88 0.23 o
-2 5 10 0.86 0.81 0.22 o
-2 5 11 105.67 103.55 3.60 o
-2 5 12 32.89 31.18 1.05 o
-2 5 13 255.67 248.52 6.87 o
-2 5 14 91.57 92.36 2.85 o
-2 5 15 16.11 17.38 0.54 o
-2 5 16 15.93 16.53 0.62 o
-2 5 17 2.54 2.75 0.20 o
-2 5 18 0.43 0.38 0.12 o
-2 5 19 0.97 0.83 0.13 o
-2 5 20 35.92 37.34 1.63 o
-2 5 21 14.91 16.05 0.81 o
-2 5 22 2.96 3.29 0.30 o
-2 5 23 1.74 1.43 0.20 o
-2 6 2 0.53 0.57 0.16 o
-2 6 3 7.38 7.60 0.38 o
-2 6 4 37.52 37.18 1.01 o
-2 6 5 4.25 4.08 0.28 o
-2 6 7 82.56 81.79 2.09 o
-2 6 8 6.03 6.26 0.37 o
-2 6 9 8.38 8.69 0.47 o
-2 6 10 74.88 72.74 2.33 o
-2 6 11 86.42 83.98 2.12 o
-2 6 13 46.43 47.00 1.29 o
-2 6 14 4.89 5.08 0.21 o
-2 6 16 0.50 0.54 0.13 o
-2 6 17 28.81 29.31 0.83 o
-2 6 18 75.94 77.96 2.91 o
-2 6 19 2.91 3.22 0.25 o
-2 6 20 24.36 25.41 0.98 o
-2 6 21 13.86 14.61 0.52 o
-2 6 24 4.33 4.53 0.33 o
-2 7 1 5.92 5.97 0.35 o
-2 7 2 64.43 65.51 1.72 o
-2 7 3 20.19 19.60 0.66 o
-2 7 4 3.61 3.88 0.31 o
-2 7 5 15.19 15.98 0.61 o
-2 7 6 23.04 23.15 0.85 o
-2 7 7 10.27 9.71 0.47 o
-2 7 8 6.18 6.03 0.26 o
-2 7 9 0.98 0.95 0.12 o
-2 7 10 0.48 0.49 0.10 o
-2 7 11 65.06 64.59 1.81 o
-2 7 12 17.31 17.69 0.47 o
-2 7 13 142.05 141.44 3.83 o
-2 7 14 51.20 50.85 1.26 o
-2 7 15 7.32 7.88 0.27 o
-2 7 16 8.74 9.16 0.31 o
-2 7 17 1.76 1.81 0.16 o
-2 7 18 0.50 0.50 0.13 o
-2 7 19 0.64 0.59 0.14 o
-2 7 20 21.45 21.73 0.95 o
-2 7 21 8.39 8.70 0.37 o
-2 7 22 1.66 1.91 0.25 o
-2 7 23 0.67 0.62 0.17 o
-2 8 3 1.05 1.07 0.23 o
-2 8 4 13.24 13.26 0.40 o
-2 8 5 4.27 4.25 0.21 o
-2 8 7 36.89 37.07 0.95 o
-2 8 8 4.11 4.24 0.21 o
-2 8 9 6.46 6.51 0.25 o
-2 8 10 34.51 34.42 1.07 o
-2 8 11 46.73 45.76 1.45 o
-2 8 12 0.21 0.36 0.11 o
-2 8 13 24.27 24.26 0.66 o
-2 8 14 1.41 1.39 0.14 o
-2 8 17 15.51 15.21 0.45 o
-2 8 18 46.01 46.22 1.36 o
-2 8 19 1.58 1.70 0.19 o
-2 8 20 15.09 15.59 0.54 o
-2 8 21 6.93 6.92 0.30 o
-2 9 1 2.37 2.30 0.33 o
-2 9 2 21.73 22.12 0.61 o
-2 9 3 7.13 6.96 0.28 o
-2 9 4 1.66 1.64 0.17 o
-2 9 5 4.95 4.85 0.25 o
-2 9 6 12.30 12.12 0.42 o
-2 9 7 4.72 4.94 0.23 o
-2 9 8 2.03 1.96 0.16 o
-2 9 9 0.56 0.75 0.13 o
-2 9 11 35.23 34.68 0.97 o
-2 9 12 7.78 7.63 0.30 o
-2 9 13 68.71 66.66 1.99 o
-2 9 14 23.92 22.71 0.66 o
-2 9 15 2.60 2.85 0.20 o
-2 9 16 3.98 4.28 0.23 o
-2 9 17 1.00 1.02 0.16 o
-2 9 18 0.42 0.68 0.16 o
-2 9 20 10.81 10.47 0.38 o
-2 9 21 3.97 4.02 0.23 o
-2 9 22 0.78 0.69 0.20 o
-2 10 4 4.29 4.34 0.23 o
-2 10 5 3.47 3.63 0.23 o
-2 10 7 15.56 15.64 0.50 o
-2 10 8 2.60 2.70 0.22 o
-2 10 9 4.07 4.03 0.24 o
-2 10 10 14.03 14.17 0.45 o
-2 10 11 21.15 20.52 0.63 o
-2 10 13 11.48 11.58 0.45 o
-2 10 17 7.16 7.20 0.31 o
-2 10 18 23.93 24.09 0.91 o
-2 10 19 0.72 0.80 0.16 o
-2 10 20 8.18 7.88 0.46 o
-2 11 2 6.69 6.26 0.65 o
-2 11 5 1.37 1.52 0.30 o
-2 11 6 5.84 5.64 0.38 o
-2 11 7 1.93 1.75 0.20 o
-2 11 8 0.56 0.58 0.17 o
-2 11 11 16.55 16.53 0.52 o
-2 11 12 3.06 3.28 0.25 o
-2 11 13 28.55 28.26 0.78 o
-2 11 14 9.63 9.85 0.41 o
-2 11 15 0.69 0.75 0.18 o
-2 11 16 1.49 1.24 0.17 o
-2 12 5 2.13 1.75 0.56 o
-2 12 7 5.52 5.30 0.43 o
-2 12 8 1.49 1.73 0.25 o
-2 12 9 2.10 2.22 0.27 o
-2 12 10 4.99 4.76 0.35 o
-2 12 11 8.16 7.51 0.51 o
-2 12 13 4.67 4.85 0.40 o
-2 13 6 2.39 2.11 0.59 o
-2 13 11 6.70 6.92 0.37 o
-1 0 1 6.98 6.26 0.61 o
-1 0 2 263.05 262.65 5.35 o
-1 0 3 91.76 91.96 2.08 o
-1 0 4 919.43 898.15 96.01 o
-1 0 5 4.47 3.83 0.52 o
-1 0 6 212.61 210.92 5.21 o
-1 0 7 481.85 475.73 10.23 o
-1 0 8 143.23 133.42 8.96 o
-1 0 9 117.85 115.59 3.13 o
-1 0 10 867.56 859.82 25.01 o
-1 0 11 193.76 189.06 5.68 o
-1 0 14 1.84 2.23 0.40 o
-1 0 15 29.75 28.94 2.69 o
-1 0 16 69.79 72.59 5.03 o
-1 0 20 10.33 10.42 0.74 o
-1 0 21 3.54 3.04 0.61 o
-1 0 22 7.81 7.44 0.75 o
-1 0 23 48.49 44.48 1.63 o
-1 0 24 11.99 12.32 0.92 o
-1 0 26 6.12 5.77 0.42 o
-1 0 27 7.07 7.99 0.45 o
-1 0 28 5.49 5.98 0.79 o
-1 1 1 17.40 16.90 0.46 o
-1 1 2 4126.39 4127.91 107.95 o
-1 1 3 5.81 5.80 0.21 o
-1 1 4 2428.62 2373.82 50.86 o
-1 1 5 3204.61 3134.81 74.80 o
-1 1 6 843.30 837.09 17.93 o
-1 1 7 178.38 177.64 3.99 o
-1 1 8 128.33 126.24 3.01 o
-1 1 10 188.14 194.56 4.74 o
-1 1 11 557.77 560.90 15.49 o
-1 1 12 115.74 120.25 3.02 o
-1 1 13 47.26 49.42 1.56 o
-1 1 15 33.67 35.77 1.48 o
-1 1 16 27.59 26.12 2.31 o
-1 1 17 57.24 59.52 1.74 o
-1 1 18 34.69 37.35 5.00 o
-1 1 19 19.89 20.79 2.25 o
-1 1 20 2.44 2.57 0.76 o
-1 1 21 24.87 24.66 1.07 o
-1 1 22 25.87 24.77 1.54 o
-1 1 23 4.14 3.78 0.38 o
-1 1 24 7.46 7.32 0.47 o
-1 1 25 12.26 12.02 0.57 o
-1 1 26 6.53 6.50 0.33 o
-1 1 27 48.78 49.06 1.43 o
-1 2 1 8.27 8.39 0.29 o
-1 2 2 131.67 129.91 2.77 o
-1 2 3 120.47 119.24 3.19 o
-1 2 4 529.28 502.31 13.96 o
-1 2 6 117.06 116.21 2.66 o
-1 2 7 245.66 257.69 5.87 o
-1 2 8 89.39 88.21 2.29 o
-1 2 9 98.03 102.66 2.58 o
-1 2 10 662.12 666.91 20.94 o
-1 2 11 179.40 180.01 5.03 o
-1 2 14 0.92 1.22 0.30 o
-1 2 15 28.58 29.88 1.33 o
-1 2 16 63.19 66.06 2.11 o
-1 2 17 29.76 28.99 0.85 o
-1 2 18 6.47 6.40 0.35 o
-1 2 19 92.95 89.97 2.69 o
-1 2 20 9.45 9.85 2.07 o
-1 2 21 3.39 3.94 0.56 o
-1 2 22 6.94 6.89 0.46 o
-1 2 23 44.25 42.81 1.54 o
-1 2 24 11.23 11.82 0.49 o
-1 2 26 5.60 5.15 0.40 o
-1 2 27 6.59 6.74 0.34 o
-1 3 1 4.65 4.63 0.26 o
-1 3 2 1330.72 1346.68 30.06 o
-1 3 4 841.98 848.70 19.16 o
-1 3 5 1239.65 1243.49 29.50 o
-1 3 6 310.97 310.59 8.40 o
-1 3 7 112.84 112.43 2.94 o
-1 3 8 69.93 67.17 2.23 o
-1 3 10 140.35 141.32 3.56 o
-1 3 11 432.51 407.78 10.96 o
-1 3 12 100.24 99.31 3.02 o
-1 3 13 39.46 37.08 1.25 o
-1 3 14 0.97 1.05 0.25 o
-1 3 15 27.01 27.98 0.93 o
-1 3 16 22.50 22.69 0.80 o
-1 3 17 48.46 52.27 2.17 o
-1 3 18 29.99 29.95 1.24 o
-1 3 19 17.00 17.28 0.57 o
-1 3 20 1.84 1.91 0.23 o
-1 3 21 20.14 19.97 0.85 o
-1 3 22 21.51 21.66 1.65 o
-1 3 23 3.31 2.69 0.64 o
-1 3 24 5.99 5.44 0.35 o
-1 3 25 10.02 9.63 0.42 o
-1 3 26 5.73 6.14 0.34 o
-1 3 27 41.26 40.34 1.52 o
-1 4 1 2.94 2.86 0.25 o
-1 4 2 43.93 44.25 1.18 o
-1 4 3 58.15 56.65 1.46 o
-1 4 4 153.81 146.13 3.80 o
-1 4 6 77.62 77.76 2.15 o
-1 4 7 96.00 96.24 2.88 o
-1 4 8 35.40 37.17 1.00 o
-1 4 9 71.46 72.67 2.38 o
-1 4 10 377.24 375.36 10.57 o
-1 4 11 140.04 136.39 5.04 o
-1 4 15 23.31 23.17 0.59 o
-1 4 16 47.81 50.63 1.83 o
-1 4 17 22.58 22.77 0.83 o
-1 4 18 4.15 4.25 0.23 o
-1 4 19 68.36 71.18 3.34 o
-1 4 20 7.33 7.23 0.33 o
-1 4 21 2.98 3.23 0.25 o
-1 4 22 5.05 4.68 0.32 o
-1 4 23 33.73 33.02 0.97 o
-1 4 24 9.14 9.53 0.39 o
-1 4 26 4.27 4.43 0.32 o
-1 5 2 458.94 476.29 11.53 o
-1 5 4 275.33 272.08 6.50 o
-1 5 5 413.90 409.02 9.76 o
-1 5 6 129.99 128.14 3.11 o
-1 5 7 40.05 41.02 1.10 o
-1 5 8 17.79 18.20 0.62 o
-1 5 10 80.12 80.42 2.17 o
-1 5 11 260.82 252.40 7.83 o
-1 5 12 68.02 68.47 1.97 o
-1 5 13 30.19 29.39 0.82 o
-1 5 14 1.26 1.35 0.11 o
-1 5 15 17.83 17.76 0.49 o
-1 5 16 13.51 13.62 0.40 o
-1 5 17 34.82 36.82 1.35 o
-1 5 18 21.72 22.69 0.79 o
-1 5 19 12.11 12.54 0.54 o
-1 5 20 1.08 1.14 0.17 o
-1 5 21 13.03 13.41 0.57 o
-1 5 22 14.98 15.71 0.88 o
-1 5 23 2.20 1.96 0.25 o
-1 5 24 3.90 3.91 0.33 o
-1 5 25 6.74 6.95 0.29 o
-1 5 26 4.40 4.73 0.33 o
-1 6 2 17.84 18.61 0.57 o
-1 6 3 13.93 13.80 0.48 o
-1 6 4 42.79 43.13 1.10 o
-1 6 6 67.82 64.87 1.67 o
-1 6 7 58.89 57.71 1.54 o
-1 6 8 14.10 14.18 0.68 o
-1 6 9 52.56 51.99 1.65 o
-1 6 10 200.80 188.92 5.52 o
-1 6 11 92.33 91.60 2.32 o
-1 6 15 15.56 16.17 0.51 o
-1 6 16 31.15 32.41 1.19 o
-1 6 17 15.09 14.78 0.58 o
-1 6 18 1.96 1.70 0.16 o
-1 6 19 41.49 42.75 1.41 o
-1 6 20 4.91 5.02 0.26 o
-1 6 21 2.34 2.30 0.20 o
-1 6 22 3.08 2.83 0.26 o
-1 6 23 21.44 21.10 0.72 o
-1 6 24 6.38 5.88 0.33 o
-1 7 2 209.98 204.98 5.36 o
-1 7 4 105.92 103.07 2.73 o
-1 7 5 159.62 159.69 4.03 o
-1 7 6 61.02 61.13 1.66 o
-1 7 7 17.23 16.80 0.63 o
-1 7 8 3.49 3.46 0.23 o
-1 7 10 39.45 38.40 0.97 o
-1 7 11 136.64 135.42 3.53 o
-1 7 12 39.32 39.08 1.02 o
-1 7 13 20.05 19.33 0.54 o
-1 7 14 1.48 1.51 0.14 o
-1 7 15 9.58 9.88 0.33 o
-1 7 16 6.69 6.52 0.26 o
-1 7 17 21.22 21.43 0.62 o
-1 7 18 13.52 13.50 0.42 o
-1 7 19 7.28 7.06 0.35 o
-1 7 21 6.80 6.84 0.36 o
-1 7 22 8.81 9.82 0.53 o
-1 7 23 1.19 1.36 0.20 o
-1 7 24 2.07 1.88 0.29 o
-1 8 2 7.53 7.37 0.40 o
-1 8 3 5.76 5.89 0.44 o
-1 8 4 12.46 12.74 0.45 o
-1 8 5 0.66 0.63 0.13 o
-1 8 6 39.48 38.92 0.97 o
-1 8 7 32.09 31.83 0.78 o
-1 8 8 5.17 5.38 0.22 o
-1 8 9 34.67 34.02 0.93 o
-1 8 10 96.21 93.12 2.23 o
-1 8 11 52.50 51.73 1.37 o
-1 8 15 8.79 8.63 0.31 o
-1 8 16 17.37 17.11 0.50 o
-1 8 17 8.24 8.04 0.30 o
-1 8 18 0.64 0.55 0.15 o
-1 8 19 20.93 22.01 0.90 o
-1 8 20 2.83 2.78 0.21 o
-1 8 21 1.55 1.89 0.20 o
-1 8 22 1.55 1.53 0.18 o
-1 8 23 11.36 11.32 0.40 o
-1 9 2 98.88 95.78 2.66 o
-1 9 4 39.99 39.26 1.02 o
-1 9 5 64.11 64.72 1.61 o
-1 9 6 25.77 24.97 0.70 o
-1 9 7 10.49 10.01 0.35 o
-1 9 8 0.78 0.79 0.15 o
-1 9 10 17.08 17.30 0.48 o
-1 9 11 63.44 61.77 1.53 o
-1 9 12 19.69 19.40 0.54 o
-1 9 13 11.10 10.93 0.35 o
-1 9 14 1.46 1.66 0.15 o
-1 9 15 4.18 4.41 0.22 o
-1 9 16 2.88 2.92 0.19 o
-1 9 17 11.13 11.13 0.37 o
-1 9 18 7.38 7.47 0.33 o
-1 9 19 3.75 3.69 0.24 o
-1 9 21 2.87 2.88 0.20 o
-1 10 2 2.95 2.61 0.58 o
-1 10 3 3.21 2.85 0.33 o
-1 10 4 3.44 3.56 0.34 o
-1 10 6 17.76 17.57 0.58 o
-1 10 7 14.93 15.36 0.49 o
-1 10 8 1.74 1.78 0.18 o
-1 10 9 19.60 19.61 0.57 o
-1 10 10 40.50 40.78 1.05 o
-1 10 11 25.66 26.02 0.72 o
-1 10 15 4.17 3.75 0.35 o
-1 10 16 8.21 8.14 0.42 o
-1 10 17 3.78 3.82 0.23 o
-1 10 19 8.78 9.06 0.31 o
-1 10 20 1.40 1.55 0.21 o
-1 11 4 13.88 14.06 0.57 o
-1 11 5 24.24 23.85 0.83 o
-1 11 6 10.24 10.24 0.57 o
-1 11 7 6.10 5.81 0.35 o
-1 11 9 0.30 0.59 0.16 o
-1 11 10 6.08 5.97 0.29 o
-1 11 11 25.15 24.75 0.93 o
-1 11 12 8.26 7.59 0.34 o
-1 11 13 5.29 5.32 0.30 o
-1 11 14 1.06 1.04 0.25 o
-1 11 15 1.46 1.14 0.17 o
-1 11 16 1.01 1.17 0.16 o
-1 11 17 5.05 5.03 0.25 o
-1 12 6 6.77 5.72 1.42 o
-1 12 7 6.24 6.03 0.45 o
-1 12 9 9.50 9.51 0.46 o
-1 12 10 14.67 15.48 0.57 o
-1 12 11 10.72 10.24 0.58 o
-1 12 15 1.68 1.39 0.20 o
-1 13 6 3.70 3.95 0.73 o
-1 13 7 3.06 3.00 0.45 o
-1 13 10 1.77 1.58 0.35 o
-1 13 11 8.52 7.71 0.45 o
0 0 2 3736.27 3744.96 167.86 o
0 0 3 69.73 72.53 2.45 o
0 0 4 2.25 2.47 0.28 o
0 0 5 59.27 57.38 1.50 o
0 0 7 48.78 51.26 1.43 o
0 0 8 2.98 3.51 0.45 o
0 0 9 326.09 325.53 8.00 o
0 0 10 2.03 2.46 0.44 o
0 0 11 1.90 1.95 0.49 o
0 0 12 120.98 121.25 3.53 o
0 0 14 20.13 19.39 1.52 o
0 0 16 40.99 46.72 3.88 o
0 0 17 32.14 35.95 1.86 o
0 0 18 2.53 2.76 0.35 o
0 0 19 6.57 6.87 0.44 o
0 0 20 1.27 1.68 0.45 o
0 0 21 33.94 33.14 1.30 o
0 0 22 5.72 5.68 0.70 o
0 0 23 42.73 39.82 1.51 o
0 0 26 2.14 2.45 0.44 o
0 0 27 1.28 1.60 0.27 o
0 1 1 795.28 826.71 18.38 o
0 1 2 2108.10 2136.17 46.57 o
0 1 3 0.70 0.59 0.12 o
0 1 4 1728.69 1694.92 36.35 o
0 1 5 40.24 40.18 1.02 o
0 1 6 505.96 498.20 13.63 o
0 1 7 129.59 129.46 3.57 o
0 1 8 0.63 0.80 0.20 o
0 1 9 159.91 155.44 3.74 o
0 1 10 0.91 0.86 0.21 o
0 1 11 96.14 96.41 2.82 o
0 1 12 9.70 8.98 0.48 o
0 1 13 31.04 32.24 1.34 o
0 1 14 1.76 1.14 0.30 o
0 1 15 5.18 6.15 0.66 o
0 1 16 110.05 118.27 3.44 o
0 1 17 71.72 73.46 7.51 o
0 1 18 33.98 35.47 4.14 o
0 1 19 33.93 36.22 3.66 o
0 1 20 27.56 26.25 0.88 o
0 1 21 70.16 67.49 1.92 o
0 1 22 15.18 15.71 0.56 o
0 1 24 2.83 2.56 0.28 o
0 1 25 10.66 10.67 0.41 o
0 1 26 3.65 3.83 0.27 o
0 1 27 60.47 60.03 1.58 o
0 2 1 68.76 67.32 1.51 o
0 2 2 2182.46 2206.95 46.82 o
0 2 3 16.57 16.05 0.47 o
0 2 4 3.26 3.68 0.25 o
0 2 5 74.73 77.87 1.82 o
0 2 6 3.60 3.39 0.25 o
0 2 7 15.34 14.91 0.54 o
0 2 9 271.01 257.28 6.88 o
0 2 11 1.04 0.95 0.20 o
0 2 12 102.35 103.25 2.59 o
0 2 14 17.70 18.17 0.78 o
0 2 15 3.05 2.81 0.30 o
0 2 16 37.17 40.83 1.21 o
0 2 17 30.42 31.40 1.50 o
0 2 18 2.49 2.47 0.38 o
0 2 19 6.06 5.24 0.42 o
0 2 20 1.19 1.33 0.22 o
0 2 21 31.15 30.90 1.00 o
0 2 22 5.18 5.64 0.44 o
0 2 23 39.30 37.71 1.08 o
0 2 24 0.72 0.71 0.18 o
0 2 26 1.94 1.62 0.22 o
0 2 27 1.15 1.22 0.20 o
0 3 1 537.54 528.67 11.73 o
0 3 2 677.92 729.45 18.32 o
0 3 3 18.93 19.92 0.62 o
0 3 4 623.46 620.63 14.04 o
0 3 5 24.39 23.84 0.72 o
0 3 6 321.58 316.77 7.46 o
0 3 7 72.15 71.26 1.98 o
0 3 8 0.87 1.04 0.17 o
0 3 9 76.50 74.47 2.32 o
0 3 11 72.55 70.91 2.42 o
0 3 12 7.98 10.93 0.53 o
0 3 13 22.86 22.56 0.83 o
0 3 14 1.62 1.38 0.35 o
0 3 15 3.42 3.62 0.21 o
0 3 16 87.19 87.92 3.43 o
0 3 17 57.70 58.55 2.28 o
0 3 18 26.65 28.17 1.17 o
0 3 19 29.61 28.78 0.83 o
0 3 20 21.87 21.85 1.29 o
0 3 21 57.82 56.60 1.63 o
0 3 22 12.81 12.66 0.54 o
0 3 24 2.23 2.00 0.21 o
0 3 25 8.84 8.93 0.59 o
0 3 26 2.92 2.99 0.47 o
0 4 0 11126.22 10665.80 262.49 o
0 4 1 23.57 23.34 0.71 o
0 4 2 721.97 740.44 17.41 o
0 4 4 3.07 3.09 0.29 o
0 4 5 46.59 46.84 1.38 o
0 4 6 11.13 9.29 0.40 o
0 4 7 3.39 3.50 0.25 o
0 4 8 0.54 1.02 0.16 o
0 4 9 153.83 152.31 5.38 o
0 4 12 68.52 67.85 1.98 o
0 4 14 11.75 12.47 0.39 o
0 4 15 2.62 2.53 0.16 o
0 4 16 27.38 29.48 1.08 o
0 4 17 24.56 24.49 1.10 o
0 4 18 2.37 2.79 0.21 o
0 4 19 4.51 4.50 0.27 o
0 4 20 0.94 1.17 0.17 o
0 4 21 23.79 22.55 0.72 o
0 4 22 3.95 4.41 0.56 o
0 4 23 30.45 30.63 1.14 o
0 4 26 1.43 1.45 0.20 o
0 5 1 140.82 141.77 3.48 o
0 5 2 264.91 272.13 6.99 o
0 5 3 4.55 4.02 0.31 o
0 5 4 220.27 218.83 5.18 o
0 5 5 12.20 12.88 0.45 o
0 5 6 128.16 130.03 3.47 o
0 5 7 47.71 46.02 1.57 o
0 5 8 0.97 0.88 0.20 o
0 5 9 41.80 40.88 1.21 o
0 5 10 1.49 1.51 0.24 o
0 5 11 36.99 36.86 1.48 o
0 5 12 5.08 4.41 0.27 o
0 5 13 12.79 12.44 0.35 o
0 5 14 1.52 1.60 0.13 o
0 5 15 1.86 1.86 0.15 o
0 5 16 60.92 61.13 2.01 o
0 5 17 38.73 38.35 1.07 o
0 5 18 16.65 17.07 0.74 o
0 5 19 22.33 22.97 0.92 o
0 5 20 14.43 14.35 0.49 o
0 5 21 39.59 38.45 1.09 o
0 5 22 9.07 9.27 0.39 o
0 5 24 1.38 1.31 0.20 o
0 5 25 6.05 5.96 0.42 o
0 6 0 3726.91 3674.89 88.68 o
0 6 1 8.17 8.74 0.39 o
0 6 2 257.45 257.89 6.18 o
0 6 5 18.36 18.41 0.62 o
0 6 6 8.04 13.44 0.52 o
0 6 7 2.96 2.93 0.29 o
0 6 9 69.77 71.54 2.10 o
0 6 11 0.65 0.57 0.11 o
0 6 12 40.18 39.94 1.08 o
0 6 13 1.20 1.09 0.11 o
0 6 14 6.37 6.43 0.23 o
0 6 15 2.69 2.66 0.18 o
0 6 16 16.47 16.30 0.47 o
0 6 17 16.99 16.72 0.50 o
0 6 18 2.06 2.05 0.18 o
0 6 19 2.68 2.72 0.21 o
0 6 20 0.66 0.57 0.15 o
0 6 21 15.01 15.51 0.76 o
0 6 22 2.56 3.14 0.28 o
0 6 23 19.84 19.68 1.24 o
0 7 1 37.85 39.58 1.11 o
0 7 2 141.90 142.34 3.52 o
0 7 4 91.17 92.59 2.44 o
0 7 5 6.47 6.65 0.40 o
0 7 6 51.43 50.78 1.69 o
0 7 7 31.74 33.82 1.23 o
0 7 8 1.12 1.29 0.15 o
0 7 9 22.99 22.86 0.62 o
0 7 10 1.72 1.89 0.14 o
0 7 11 16.73 16.82 0.46 o
0 7 12 2.76 2.36 0.17 o
0 7 13 6.13 6.04 0.30 o
0 7 14 1.49 1.51 0.15 o
0 7 15 0.83 0.68 0.13 o
0 7 16 36.85 37.15 1.09 o
0 7 17 22.18 22.01 0.64 o
0 7 18 8.34 8.55 0.33 o
0 7 19 14.49 15.12 0.58 o
0 7 20 7.90 7.87 0.40 o
0 7 21 22.44 22.91 0.78 o
0 7 22 5.38 5.21 0.35 o
0 8 0 1526.03 1489.64 45.71 o
0 8 1 3.26 4.03 0.49 o
0 8 2 110.42 111.67 3.34 o
0 8 5 9.26 9.11 0.32 o
0 8 6 5.43 5.34 0.23 o
0 8 7 1.69 1.77 0.13 o
0 8 8 0.06 0.61 0.11 o
0 8 9 29.73 29.38 0.77 o
0 8 10 0.79 0.81 0.12 o
0 8 11 0.53 0.58 0.12 o
0 8 12 20.38 20.72 0.57 o
0 8 13 1.12 1.04 0.13 o
0 8 14 3.09 3.13 0.20 o
0 8 15 2.39 2.51 0.18 o
0 8 16 8.42 8.09 0.30 o
0 8 17 10.58 10.42 0.40 o
0 8 18 1.56 1.53 0.18 o
0 8 19 1.36 1.24 0.18 o
0 8 21 7.94 8.33 0.44 o
0 8 22 1.39 1.42 0.18 o
0 9 1 15.78 16.53 0.72 o
0 9 2 74.38 73.81 1.89 o
0 9 3 0.30 1.17 0.23 o
0 9 4 37.51 37.29 1.09 o
0 9 5 3.52 3.28 0.25 o
0 9 6 22.47 23.77 0.64 o
0 9 7 18.53 18.88 0.54 o
0 9 8 1.03 1.17 0.13 o
0 9 9 10.77 10.44 0.33 o
0 9 10 1.57 1.60 0.15 o
0 9 11 7.46 7.66 0.28 o
0 9 12 1.31 2.16 0.16 o
0 9 13 2.53 2.41 0.17 o
0 9 14 1.31 1.31 0.15 o
0 9 16 18.90 18.60 0.52 o
0 9 17 10.83 10.69 0.40 o
0 9 18 3.32 3.57 0.22 o
0 9 19 8.04 7.59 0.31 o
0 9 20 3.56 3.87 0.29 o
0 9 21 10.59 10.35 0.40 o
0 10 2 48.32 48.71 1.34 o
0 10 3 1.04 1.31 0.25 o
0 10 5 4.92 5.06 0.39 o
0 10 6 3.09 2.95 0.28 o
0 10 9 11.29 11.42 0.37 o
0 10 10 1.03 1.12 0.14 o
0 10 12 8.76 8.58 0.31 o
0 10 13 0.83 0.71 0.15 o
0 10 14 1.29 1.16 0.17 o
0 10 15 1.78 1.63 0.17 o
0 10 16 3.69 3.70 0.23 o
0 10 17 5.77 5.67 0.30 o
0 10 18 1.00 1.21 0.15 o
0 10 19 0.59 0.60 0.18 o
0 11 2 34.17 33.08 1.28 o
0 11 4 14.02 13.89 0.57 o
0 11 5 1.74 1.53 0.30 o
0 11 6 8.56 7.88 0.45 o
0 11 7 9.70 9.54 0.50 o
0 11 8 0.71 0.80 0.24 o
0 11 9 4.60 4.30 0.28 o
0 11 10 0.99 0.98 0.20 o
0 11 11 2.93 3.06 0.25 o
0 11 13 0.85 0.64 0.15 o
0 11 14 0.94 0.92 0.15 o
0 11 16 8.39 8.24 0.30 o
0 11 17 4.55 5.23 0.25 o
0 12 5 2.25 2.32 0.49 o
0 12 6 1.44 2.35 0.33 o
0 12 9 3.54 3.31 0.39 o
0 12 12 3.20 3.11 0.26 o
0 13 6 2.71 2.51 0.32 o
0 13 7 4.39 4.22 0.63 o
0 13 9 1.76 2.25 0.47 o
0 13 11 0.98 1.05 0.28 o
1 0 1 40.03 39.01 0.83 o
1 0 2 312.93 314.16 6.04 o
1 0 3 209.84 213.42 4.84 o
1 0 4 292.55 298.79 6.57 o
1 0 5 11.80 11.23 0.47 o
1 0 6 1561.67 1595.32 37.99 o
1 0 7 48.20 48.82 1.36 o
1 0 8 108.89 108.42 2.91 o
1 0 9 261.18 255.73 7.42 o
1 0 10 37.11 35.80 1.45 o
1 0 11 255.34 254.88 7.52 o
1 0 12 47.53 46.51 3.05 o
1 0 13 249.06 254.33 9.86 o
1 0 14 172.74 171.60 7.15 o
1 0 15 159.99 164.98 7.35 o
1 0 16 59.71 66.50 2.03 o
1 0 17 1.75 2.19 0.34 o
1 0 18 0.76 0.80 0.23 o
1 0 20 3.17 3.06 0.61 o
1 0 21 49.98 48.19 1.71 o
1 0 25 3.22 3.20 0.37 o
1 0 26 15.44 15.56 0.82 o
1 1 0 568.90 588.88 12.32 o
1 1 1 167.76 170.35 3.31 o
1 1 2 4.77 4.79 0.29 o
1 1 4 3.24 3.33 0.20 o
1 1 5 1090.75 1056.63 26.69 o
1 1 6 0.77 0.78 0.15 o
1 1 7 15.54 15.77 0.53 o
1 1 8 19.30 19.18 0.69 o
1 1 9 357.19 357.12 10.10 o
1 1 10 331.30 342.61 8.64 o
1 1 11 81.11 80.25 2.05 o
1 1 12 55.56 56.38 1.58 o
1 1 13 8.84 9.16 0.48 o
1 1 14 14.31 16.59 1.27 o
1 1 15 7.78 7.25 0.49 o
1 1 16 17.27 17.81 0.89 o
1 1 17 38.39 37.81 3.55 o
1 1 18 8.06 7.81 0.45 o
1 1 19 1.51 1.54 0.21 o
1 1 20 1.92 1.69 0.23 o
1 1 21 6.43 7.00 0.43 o
1 1 22 2.19 2.35 0.27 o
1 1 23 7.88 7.80 0.40 o
1 1 24 3.14 3.04 0.30 o
1 1 25 10.22 9.26 0.49 o
1 1 26 16.00 15.78 0.54 o
1 1 27 15.44 15.05 0.97 o
1 2 0 2638.16 2729.17 68.75 o
1 2 1 8.72 9.10 0.30 o
1 2 2 264.88 267.71 6.29 o
1 2 3 79.00 78.32 2.50 o
1 2 4 103.95 102.76 2.41 o
1 2 5 4.12 4.60 0.25 o
1 2 6 1021.22 1010.17 25.27 o
1 2 7 30.34 29.81 1.05 o
1 2 8 74.56 75.24 2.15 o
1 2 9 239.26 234.99 7.06 o
1 2 10 36.66 36.17 1.12 o
1 2 11 215.31 222.33 6.83 o
1 2 12 38.67 37.12 1.40 o
1 2 13 222.76 220.47 6.55 o
1 2 14 146.36 151.26 4.63 o
1 2 15 143.46 142.40 3.84 o
1 2 16 54.81 56.60 2.15 o
1 2 17 1.79 1.60 0.27 o
1 2 18 0.64 0.61 0.20 o
1 2 20 2.86 2.56 0.30 o
1 2 21 44.79 43.65 1.21 o
1 2 25 2.85 2.83 0.28 o
1 2 26 14.02 13.68 0.49 o
1 3 0 240.05 254.77 5.78 o
1 3 1 34.46 33.68 0.88 o
1 3 2 3.27 3.65 0.30 o
1 3 3 39.26 38.52 1.07 o
1 3 4 0.80 1.12 0.19 o
1 3 5 444.80 449.77 10.62 o
1 3 7 12.15 11.78 0.67 o
1 3 8 27.76 28.62 1.00 o
1 3 9 219.63 226.75 5.37 o
1 3 10 231.26 231.85 5.54 o
1 3 11 61.90 62.24 1.83 o
1 3 12 48.42 49.24 1.89 o
1 3 13 5.60 5.73 0.43 o
1 3 14 11.23 10.46 0.43 o
1 3 15 6.51 6.24 0.25 o
1 3 16 17.04 17.13 0.65 o
1 3 17 30.34 29.04 1.40 o
1 3 18 7.08 7.71 0.37 o
1 3 19 1.10 1.22 0.22 o
1 3 20 1.61 1.94 0.31 o
1 3 21 5.07 4.65 0.30 o
1 3 22 1.95 1.96 0.21 o
1 3 23 6.42 6.15 0.41 o
1 3 24 2.46 2.42 0.22 o
1 3 25 8.58 8.62 0.56 o
1 3 26 13.17 13.07 0.51 o
1 4 0 945.34 983.13 23.45 o
1 4 1 1.36 1.22 0.18 o
1 4 2 101.26 97.93 2.34 o
1 4 3 20.12 20.30 0.73 o
1 4 4 26.27 26.57 0.86 o
1 4 5 3.38 2.81 0.37 o
1 4 6 417.66 414.92 9.87 o
1 4 7 17.16 16.69 0.54 o
1 4 8 38.66 39.48 1.13 o
1 4 9 157.17 152.62 3.78 o
1 4 10 23.57 24.63 0.91 o
1 4 11 148.89 148.83 4.16 o
1 4 12 27.03 27.74 0.89 o
1 4 13 160.60 162.30 5.00 o
1 4 14 99.58 101.03 2.85 o
1 4 15 103.71 105.75 3.26 o
1 4 16 42.66 40.10 1.07 o
1 4 17 1.91 1.95 0.20 o
1 4 20 2.05 2.33 0.22 o
1 4 21 32.46 33.16 1.21 o
1 4 25 1.98 2.13 0.37 o
1 5 0 90.99 92.85 2.32 o
1 5 1 15.23 14.93 0.61 o
1 5 2 1.84 1.56 0.23 o
1 5 3 8.81 9.20 0.54 o
1 5 4 1.72 1.94 0.21 o
1 5 5 150.26 154.39 3.97 o
1 5 7 4.52 4.47 0.31 o
1 5 8 23.82 23.42 0.88 o
1 5 9 138.00 135.76 3.75 o
1 5 10 152.37 152.77 5.97 o
1 5 11 38.54 39.07 1.28 o
1 5 12 36.62 35.94 1.09 o
1 5 13 4.31 4.61 0.20 o
1 5 14 7.14 6.94 0.26 o
1 5 15 4.95 5.11 0.26 o
1 5 16 14.57 14.77 0.50 o
1 5 17 19.32 19.31 0.63 o
1 5 18 5.09 5.18 0.27 o
1 5 19 0.58 0.49 0.15 o
1 5 20 1.01 1.11 0.17 o
1 5 21 3.19 3.24 0.35 o
1 5 22 1.55 1.28 0.20 o
1 5 23 4.23 4.07 0.28 o
1 5 24 1.52 1.47 0.22 o
1 5 25 6.13 5.72 0.39 o
1 6 0 315.99 321.20 7.63 o
1 6 1 1.14 1.10 0.14 o
1 6 2 28.20 28.24 0.75 o
1 6 3 11.11 11.01 0.39 o
1 6 4 15.49 15.18 0.50 o
1 6 5 5.84 5.29 0.35 o
1 6 6 171.63 170.61 4.58 o
1 6 7 12.16 12.76 0.54 o
1 6 8 20.51 20.34 0.76 o
1 6 9 81.94 78.93 2.41 o
1 6 10 9.87 9.88 0.33 o
1 6 11 91.76 91.26 2.30 o
1 6 12 17.95 17.96 0.53 o
1 6 13 96.53 96.98 2.62 o
1 6 14 59.11 59.59 1.63 o
1 6 15 62.64 60.95 1.53 o
1 6 16 28.46 28.92 0.98 o
1 6 17 1.99 2.08 0.18 o
1 6 20 1.18 1.00 0.16 o
1 6 21 19.15 18.52 0.66 o
1 7 0 44.76 45.37 1.24 o
1 7 1 10.03 9.41 0.52 o
1 7 3 0.66 0.97 0.21 o
1 7 4 2.27 2.22 0.26 o
1 7 5 55.91 57.11 1.65 o
1 7 7 1.10 1.14 0.17 o
1 7 8 17.44 16.68 0.51 o
1 7 9 81.54 82.05 2.15 o
1 7 10 91.87 91.88 2.44 o
1 7 11 19.97 19.85 0.54 o
1 7 12 24.26 24.16 0.73 o
1 7 13 2.96 3.07 0.18 o
1 7 14 3.79 3.89 0.20 o
1 7 15 3.05 3.18 0.18 o
1 7 16 10.66 11.28 0.41 o
1 7 17 10.23 10.14 0.35 o
1 7 18 3.13 3.03 0.21 o
1 7 21 1.59 1.54 0.19 o
1 7 22 1.08 0.96 0.18 o
1 7 23 2.29 2.62 0.24 o
1 8 0 144.69 142.61 4.96 o
1 8 2 11.91 12.08 0.61 o
1 8 3 5.24 5.26 0.32 o
1 8 4 6.00 6.09 0.30 o
1 8 5 5.68 5.37 0.26 o
1 8 6 71.29 69.78 1.77 o
1 8 7 7.19 7.18 0.27 o
1 8 8 9.26 9.60 0.32 o
1 8 9 41.26 40.88 1.09 o
1 8 10 3.72 3.72 0.21 o
1 8 11 48.26 48.42 1.28 o
1 8 12 9.80 9.88 0.33 o
1 8 13 50.17 50.68 1.37 o
1 8 14 29.67 30.45 0.83 o
1 8 15 32.79 33.39 1.02 o
1 8 16 16.47 16.81 0.52 o
1 8 17 1.83 1.79 0.18 o
1 8 20 0.55 0.71 0.18 o
1 8 21 9.21 9.11 0.56 o
1 9 0 24.97 25.53 1.22 o
1 9 1 5.65 5.52 0.31 o
1 9 4 2.69 2.64 0.25 o
1 9 5 21.70 22.19 0.72 o
1 9 8 11.57 10.88 0.35 o
1 9 9 40.65 41.47 1.03 o
1 9 10 47.33 46.82 1.31 o
1 9 11 8.55 8.09 0.29 o
1 9 12 13.84 13.77 0.41 o
1 9 13 1.58 1.65 0.16 o
1 9 14 1.73 1.60 0.17 o
1 9 15 1.44 1.43 0.16 o
1 9 16 6.71 6.90 0.29 o
1 9 17 4.53 4.58 0.28 o
1 9 18 1.70 1.54 0.18 o
1 10 0 69.12 69.01 2.09 o
1 10 2 5.70 5.88 0.35 o
1 10 3 2.30 2.41 0.33 o
1 10 4 1.78 1.98 0.24 o
1 10 5 3.82 3.57 0.30 o
1 10 6 28.07 28.58 1.16 o
1 10 7 3.50 3.36 0.32 o
1 10 8 3.43 3.37 0.25 o
1 10 9 19.06 18.54 0.56 o
1 10 10 1.08 1.05 0.15 o
1 10 11 21.57 21.21 0.59 o
1 10 12 4.48 4.54 0.23 o
1 10 13 22.43 22.45 0.77 o
1 10 14 12.74 12.91 0.52 o
1 10 15 14.78 14.76 0.45 o
1 10 16 8.31 8.38 0.33 o
1 10 17 1.38 1.60 0.18 o
1 11 1 2.92 3.11 0.92 o
1 11 4 2.18 2.01 0.32 o
1 11 5 7.97 7.36 0.37 o
1 11 8 6.39 6.08 0.35 o
1 11 9 17.62 17.11 0.55 o
1 11 10 21.24 21.41 0.62 o
1 11 11 3.01 2.92 0.21 o
1 11 12 6.82 6.65 0.31 o
1 11 13 0.74 0.87 0.16 o
1 11 14 0.68 0.73 0.16 o
1 11 15 0.55 0.57 0.17 o
1 11 16 3.57 3.89 0.21 o
1 12 2 2.37 2.43 0.65 o
1 12 5 2.07 2.10 0.35 o
1 12 6 9.98 10.09 1.69 o
1 12 7 1.45 1.04 0.31 o
1 12 9 7.52 6.99 0.85 o
1 12 11 8.28 7.98 0.35 o
1 12 12 1.76 1.62 0.20 o
1 12 13 8.46 8.16 0.32 o
1 12 14 4.76 5.01 0.29 o
1 13 5 2.58 2.49 0.34 o
1 13 8 2.98 2.93 0.33 o
1 13 9 6.61 6.25 0.52 o
1 13 10 8.33 8.48 0.47 o
2 0 0 1137.66 1166.71 36.73 o
2 0 1 133.96 135.95 3.67 o
2 0 2 99.41 102.07 2.19 o
2 0 3 108.59 105.84 2.36 o
2 0 4 458.98 446.29 9.38 o
2 0 5 1362.00 1293.88 29.54 o
2 0 6 121.82 119.92 2.83 o
2 0 7 338.63 334.35 7.83 o
2 0 8 42.69 41.21 1.69 o
2 0 9 175.53 171.75 5.09 o
2 0 11 29.90 27.92 2.17 o
2 0 12 31.24 28.56 1.81 o
2 0 13 43.14 43.90 2.46 o
2 0 14 54.68 58.77 4.79 o
2 0 15 6.12 6.08 0.35 o
2 0 16 223.29 224.77 6.51 o
2 0 17 2.99 3.25 0.38 o
2 0 18 1.35 1.45 0.42 o
2 0 19 27.59 27.53 1.12 o
2 0 20 56.25 57.17 1.62 o
2 0 21 7.42 7.23 0.47 o
2 0 22 1.44 1.69 0.32 o
2 0 23 6.28 5.56 0.85 o
2 0 24 24.26 23.39 1.16 o
2 0 25 5.20 4.56 0.73 o
2 1 0 1142.38 1160.51 27.25 o
2 1 1 1025.93 1034.39 22.30 o
2 1 2 59.22 58.38 1.79 o
2 1 3 698.17 690.46 14.69 o
2 1 4 958.94 975.42 21.67 o
2 1 5 269.91 256.08 5.70 o
2 1 6 3.29 3.29 0.30 o
2 1 7 83.12 84.75 2.12 o
2 1 8 704.90 708.68 18.89 o
2 1 9 1101.55 1113.28 29.96 o
2 1 10 828.15 823.52 21.27 o
2 1 11 56.80 58.15 1.65 o
2 1 12 45.41 46.26 1.57 o
2 1 13 73.16 72.15 2.29 o
2 1 15 23.98 23.12 0.76 o
2 1 16 10.13 11.06 0.52 o
2 1 17 56.56 53.61 1.38 o
2 1 18 9.28 9.52 0.38 o
2 1 19 17.33 16.97 0.85 o
2 1 20 15.01 15.24 0.56 o
2 1 21 36.06 36.02 1.09 o
2 1 22 1.22 1.02 0.21 o
2 1 23 5.47 6.05 0.36 o
2 1 24 0.85 0.92 0.21 o
2 1 25 20.60 19.04 2.76 o
2 1 26 9.55 9.54 0.45 o
2 2 0 713.99 699.39 16.37 o
2 2 1 59.60 59.15 1.35 o
2 2 2 10.72 10.83 0.41 o
2 2 3 52.29 51.82 1.40 o
2 2 4 210.71 209.29 5.43 o
2 2 5 841.86 838.14 20.09 o
2 2 6 124.25 125.85 3.13 o
2 2 7 230.69 226.65 5.69 o
2 2 8 39.78 40.64 1.21 o
2 2 9 150.64 154.78 5.13 o
2 2 10 1.45 1.47 0.21 o
2 2 11 25.94 26.27 0.95 o
2 2 12 21.19 21.45 0.74 o
2 2 13 37.49 39.07 1.56 o
2 2 14 51.25 49.99 1.32 o
2 2 15 5.16 4.92 0.34 o
2 2 16 202.61 196.59 5.20 o
2 2 17 2.59 2.55 0.25 o
2 2 18 1.01 1.10 0.19 o
2 2 19 24.52 23.79 0.76 o
2 2 20 50.77 51.05 1.38 o
2 2 21 6.93 7.30 0.35 o
2 2 22 1.29 1.45 0.23 o
2 2 23 5.77 5.37 0.35 o
2 2 24 22.42 22.32 0.78 o
2 2 25 4.81 4.21 0.37 o
2 3 0 357.54 370.29 9.46 o
2 3 1 470.04 467.37 10.32 o
2 3 2 15.92 16.15 0.56 o
2 3 3 181.63 181.85 4.22 o
2 3 4 406.12 401.12 9.54 o
2 3 5 120.80 122.43 3.30 o
2 3 7 65.06 66.93 2.11 o
2 3 8 473.97 467.29 11.41 o
2 3 9 801.89 800.22 19.93 o
2 3 10 639.21 626.64 16.33 o
2 3 11 44.03 45.79 1.47 o
2 3 12 39.98 41.51 1.34 o
2 3 13 59.87 61.59 2.34 o
2 3 15 19.63 19.85 0.57 o
2 3 16 9.11 9.41 0.37 o
2 3 17 45.97 43.57 1.24 o
2 3 18 7.15 7.69 0.40 o
2 3 19 13.72 13.82 0.71 o
2 3 20 12.80 13.30 0.47 o
2 3 21 29.72 29.69 2.05 o
2 3 22 1.33 1.55 0.37 o
2 3 23 4.41 4.04 0.32 o
2 3 25 17.91 17.21 0.63 o
2 4 0 223.93 219.90 5.08 o
2 4 1 13.12 13.56 0.56 o
2 4 3 23.14 23.22 0.88 o
2 4 4 64.85 64.14 2.09 o
2 4 5 352.60 348.82 8.39 o
2 4 6 79.79 79.75 1.93 o
2 4 7 128.21 127.95 3.11 o
2 4 8 34.11 34.05 0.92 o
2 4 9 94.55 92.50 2.39 o
2 4 10 1.12 0.93 0.21 o
2 4 11 15.81 15.12 0.63 o
2 4 12 10.10 10.88 0.56 o
2 4 13 27.51 27.49 0.89 o
2 4 14 39.99 41.12 1.48 o
2 4 15 3.21 3.23 0.21 o
2 4 16 149.67 153.62 5.26 o
2 4 17 1.60 1.75 0.17 o
2 4 19 17.75 18.21 0.69 o
2 4 20 37.50 36.52 1.14 o
2 4 21 5.70 5.59 0.44 o
2 4 23 4.54 4.48 0.33 o
2 4 24 17.81 17.29 0.65 o
2 4 25 3.79 3.53 0.35 o
2 5 0 116.78 116.91 2.88 o
2 5 1 148.05 151.76 3.70 o
2 5 2 5.62 5.71 0.35 o
2 5 3 84.76 84.40 2.07 o
2 5 4 132.27 135.06 3.25 o
2 5 5 47.03 46.82 1.21 o
2 5 7 29.32 28.97 0.84 o
2 5 8 284.93 285.79 8.55 o
2 5 9 475.75 483.89 13.93 o
2 5 10 404.86 406.18 10.81 o
2 5 11 26.95 25.33 0.70 o
2 5 12 27.66 28.64 0.76 o
2 5 13 35.21 35.64 1.10 o
2 5 15 13.08 13.07 0.42 o
2 5 16 7.06 7.27 0.30 o
2 5 17 31.84 31.92 1.24 o
2 5 18 4.45 4.51 0.26 o
2 5 19 8.69 9.43 0.40 o
2 5 20 9.43 9.77 0.44 o
2 5 21 20.20 19.68 0.74 o
2 5 22 1.38 0.98 0.24 o
2 5 23 2.92 2.44 0.30 o
2 6 0 62.66 62.78 1.57 o
2 6 1 4.27 3.89 0.28 o
2 6 3 17.28 17.69 0.54 o
2 6 4 33.91 35.11 0.96 o
2 6 5 163.19 166.52 4.04 o
2 6 6 37.78 38.54 1.17 o
2 6 7 76.98 79.02 2.42 o
2 6 8 25.01 26.08 1.05 o
2 6 9 49.39 49.50 1.30 o
2 6 10 0.43 0.50 0.09 o
2 6 11 7.12 6.91 0.25 o
2 6 12 4.74 4.94 0.21 o
2 6 13 18.04 18.00 0.54 o
2 6 14 26.18 27.17 0.79 o
2 6 15 1.56 1.58 0.18 o
2 6 16 91.01 87.69 2.89 o
2 6 17 0.70 0.68 0.15 o
2 6 19 10.63 10.43 0.44 o
2 6 20 22.73 22.69 1.07 o
2 6 21 4.11 4.31 0.33 o
2 6 23 3.08 3.17 0.28 o
2 7 0 42.55 40.84 1.19 o
2 7 1 51.59 51.32 1.38 o
2 7 2 2.10 2.10 0.23 o
2 7 3 49.60 47.61 1.41 o
2 7 4 50.53 52.46 1.45 o
2 7 5 20.86 20.62 0.81 o
2 7 6 0.50 0.47 0.14 o
2 7 7 13.20 13.01 0.39 o
2 7 8 157.15 156.31 4.10 o
2 7 9 256.23 258.67 6.89 o
2 7 10 222.27 221.50 5.73 o
2 7 11 15.67 14.93 0.42 o
2 7 12 16.06 15.98 0.44 o
2 7 13 16.63 16.70 0.46 o
2 7 14 0.37 0.43 0.12 o
2 7 15 7.32 7.25 0.27 o
2 7 16 4.59 4.67 0.26 o
2 7 17 18.63 18.60 0.56 o
2 7 18 2.12 1.91 0.20 o
2 7 19 4.44 4.58 0.27 o
2 7 20 5.98 5.86 0.32 o
2 7 21 11.37 12.08 0.52 o
2 7 22 1.28 1.37 0.17 o
2 8 0 21.93 20.71 0.78 o
2 8 1 1.42 1.43 0.21 o
2 8 3 10.35 10.01 0.37 o
2 8 4 17.04 16.54 0.49 o
2 8 5 72.32 71.28 1.75 o
2 8 6 19.78 20.29 0.54 o
2 8 7 38.91 39.03 0.96 o
2 8 8 15.05 14.74 0.42 o
2 8 9 24.44 24.06 0.62 o
2 8 11 2.72 2.37 0.16 o
2 8 12 1.72 1.92 0.16 o
2 8 13 9.93 9.90 0.32 o
2 8 14 15.16 15.57 0.48 o
2 8 15 0.61 0.66 0.13 o
2 8 16 46.62 46.19 1.19 o
2 8 19 5.16 5.11 0.26 o
2 8 20 11.33 10.11 0.43 o
2 8 21 2.55 2.62 0.33 o
2 9 0 13.80 14.17 0.62 o
2 9 1 20.46 20.90 0.62 o
2 9 2 0.52 0.63 0.20 o
2 9 3 22.80 22.36 0.84 o
2 9 4 21.77 21.30 0.66 o
2 9 5 9.32 9.53 0.37 o
2 9 7 7.18 7.27 0.28 o
2 9 8 76.57 76.40 1.96 o
2 9 9 125.48 120.03 3.00 o
2 9 10 106.82 105.72 2.82 o
2 9 11 8.95 8.79 0.32 o
2 9 12 8.22 8.17 0.30 o
2 9 13 6.63 6.86 0.27 o
2 9 14 0.48 0.67 0.14 o
2 9 15 3.48 3.51 0.23 o
2 9 16 2.47 2.58 0.20 o
2 9 17 9.16 10.00 0.37 o
2 9 18 0.73 0.76 0.18 o
2 9 19 1.82 1.79 0.19 o
2 9 20 3.24 3.16 0.25 o
2 10 0 8.23 8.29 0.44 o
2 10 3 5.05 5.33 0.33 o
2 10 4 7.76 7.62 0.37 o
2 10 5 28.32 28.34 0.83 o
2 10 6 9.63 9.82 0.42 o
2 10 7 16.46 15.71 0.49 o
2 10 8 7.68 7.54 0.33 o
2 10 9 11.13 11.31 0.39 o
2 10 11 0.89 0.73 0.16 o
2 10 12 0.49 0.49 0.16 o
2 10 13 4.58 4.60 0.27 o
2 10 14 7.64 7.87 0.32 o
2 10 16 20.05 20.69 1.02 o
2 11 0 3.88 3.90 0.35 o
2 11 1 7.61 7.86 0.44 o
2 11 3 9.38 9.64 0.42 o
2 11 4 8.91 9.31 0.41 o
2 11 5 3.89 3.78 0.39 o
2 11 7 3.65 3.73 0.31 o
2 11 8 32.88 33.76 1.05 o
2 11 9 53.46 51.48 1.41 o
2 11 10 44.41 43.95 1.17 o
2 11 11 4.62 5.01 0.27 o
2 11 12 3.59 3.77 0.25 o
2 11 13 2.06 2.15 0.19 o
2 11 15 1.40 1.28 0.24 o
2 11 16 1.13 1.15 0.21 o
2 12 3 2.09 2.14 0.32 o
2 12 4 3.25 3.31 0.32 o
2 12 5 9.56 9.41 0.43 o
2 12 6 3.88 3.93 0.47 o
2 12 7 5.93 5.64 0.60 o
2 12 8 3.39 3.07 0.30 o
2 12 9 4.36 4.11 0.56 o
2 12 13 1.81 1.75 0.18 o
2 13 3 3.39 3.37 0.83 o
2 13 4 3.16 3.21 0.85 o
2 13 5 1.45 1.53 0.32 o
2 13 7 1.63 1.57 0.29 o
2 13 8 12.31 12.65 0.87 o
2 13 9 19.62 20.27 1.21 o
2 13 10 15.92 15.53 1.09 o
3 0 0 82.42 94.54 2.87 o
3 0 1 169.21 173.49 4.12 o
3 0 2 334.03 342.58 6.80 o
3 0 3 452.62 439.87 9.69 o
3 0 4 1843.89 1848.04 48.13 o
3 0 5 28.30 28.90 0.94 o
3 0 6 27.82 27.49 1.25 o
3 0 7 59.52 57.62 3.82 o
3 0 8 121.45 125.36 3.64 o
3 0 9 220.88 220.73 7.36 o
3 0 10 38.98 39.27 2.05 o
3 0 11 46.91 46.17 5.88 o
3 0 12 11.09 10.89 0.83 o
3 0 13 21.10 20.98 1.09 o
3 0 14 14.82 15.99 0.77 o
3 0 15 37.59 36.19 1.17 o
3 0 16 7.20 7.34 0.52 o
3 0 17 6.44 6.35 0.51 o
3 0 18 179.60 187.76 6.39 o
3 0 19 23.54 24.43 1.09 o
3 0 20 2.10 1.81 0.51 o
3 0 21 6.89 6.84 0.74 o
3 0 22 16.79 16.62 1.00 o
3 0 24 6.60 6.12 0.78 o
3 1 0 2231.01 2265.91 50.27 o
3 1 1 166.46 169.39 3.75 o
3 1 2 416.86 419.77 9.42 o
3 1 3 445.80 439.73 9.68 o
3 1 4 374.79 374.77 8.37 o
3 1 5 9.34 9.17 0.42 o
3 1 6 160.60 158.51 3.76 o
3 1 7 16.44 16.49 0.69 o
3 1 8 541.27 523.50 13.33 o
3 1 9 134.79 127.88 3.30 o
3 1 10 35.16 35.05 1.04 o
3 1 11 28.72 27.87 1.01 o
3 1 12 9.99 9.14 0.67 o
3 1 13 7.85 7.77 0.61 o
3 1 14 2.75 2.82 0.23 o
3 1 15 3.29 2.90 0.23 o
3 1 16 209.37 209.04 5.31 o
3 1 17 7.24 7.99 0.39 o
3 1 20 39.04 38.90 1.09 o
3 1 22 26.59 25.91 0.89 o
3 1 23 8.61 8.48 0.47 o
3 1 24 9.54 9.55 0.48 o
3 1 25 56.02 55.34 1.57 o
3 2 0 55.62 52.09 1.28 o
3 2 1 161.00 161.11 3.60 o
3 2 2 161.88 164.41 3.68 o
3 2 3 303.42 305.27 7.26 o
3 2 4 1230.73 1215.81 30.70 o
3 2 5 28.53 26.69 1.10 o
3 2 6 35.93 34.37 1.16 o
3 2 7 56.56 60.21 2.18 o
3 2 8 110.09 110.17 2.71 o
3 2 9 201.33 197.60 4.78 o
3 2 10 33.81 35.81 1.08 o
3 2 11 40.91 38.83 1.19 o
3 2 12 10.06 10.24 0.54 o
3 2 13 18.11 18.05 0.70 o
3 2 14 14.13 15.01 0.53 o
3 2 15 33.85 33.87 1.50 o
3 2 16 5.72 6.07 0.30 o
3 2 17 5.54 5.40 0.30 o
3 2 18 165.64 166.58 4.34 o
3 2 19 21.53 22.47 0.75 o
3 2 20 1.96 2.14 0.21 o
3 2 21 6.63 6.56 0.35 o
3 2 22 15.09 15.08 0.63 o
3 2 24 6.10 5.94 0.39 o
3 3 0 617.60 601.31 13.62 o
3 3 1 73.34 73.59 1.77 o
3 3 2 166.04 164.79 3.88 o
3 3 3 271.29 271.71 6.63 o
3 3 4 211.98 209.60 5.47 o
3 3 5 23.98 23.50 0.92 o
3 3 6 62.20 60.56 1.57 o
3 3 7 4.60 4.94 0.35 o
3 3 8 381.17 377.24 9.13 o
3 3 9 106.60 106.50 2.73 o
3 3 10 39.35 39.58 1.62 o
3 3 11 19.57 20.00 0.70 o
3 3 12 5.83 6.11 0.43 o
3 3 13 5.90 5.97 0.25 o
3 3 14 2.37 2.20 0.17 o
3 3 15 2.80 4.57 0.25 o
3 3 16 173.50 162.27 4.37 o
3 3 17 6.54 6.77 0.64 o
3 3 20 33.59 33.89 2.49 o
3 3 22 22.18 20.87 0.76 o
3 3 23 7.46 7.56 0.66 o
3 3 24 7.97 7.50 0.64 o
3 3 25 47.66 46.15 1.31 o
3 4 0 18.09 17.16 0.72 o
3 4 1 61.12 62.13 1.75 o
3 4 2 38.95 38.81 1.37 o
3 4 3 107.53 107.81 3.09 o
3 4 4 529.90 535.68 13.11 o
3 4 5 14.27 14.69 0.45 o
3 4 6 20.36 20.18 0.62 o
3 4 7 37.72 39.23 1.06 o
3 4 8 81.33 79.65 2.00 o
3 4 9 140.63 137.33 3.41 o
3 4 10 23.63 24.00 0.82 o
3 4 11 32.79 31.70 1.15 o
3 4 12 6.39 6.24 0.24 o
3 4 13 12.45 12.86 0.40 o
3 4 14 11.82 11.55 0.38 o
3 4 15 25.23 25.38 0.97 o
3 4 16 3.41 3.37 0.25 o
3 4 17 3.47 3.79 0.26 o
3 4 18 130.56 125.99 3.57 o
3 4 19 16.51 16.44 0.67 o
3 4 20 1.65 1.80 0.30 o
3 4 21 5.73 4.92 0.35 o
3 4 22 10.96 9.67 0.50 o
3 4 24 4.81 4.84 0.79 o
3 5 0 178.36 182.13 4.31 o
3 5 1 39.44 38.74 1.05 o
3 5 2 62.28 62.09 1.55 o
3 5 3 123.42 124.70 3.06 o
3 5 4 97.83 96.23 2.92 o
3 5 5 14.74 15.28 0.60 o
3 5 6 23.42 23.70 0.68 o
3 5 7 2.57 2.55 0.23 o
3 5 8 226.43 226.03 5.95 o
3 5 9 64.00 64.87 1.78 o
3 5 10 31.40 30.68 0.80 o
3 5 11 11.76 12.04 0.38 o
3 5 12 2.66 2.51 0.18 o
3 5 13 3.19 3.41 0.21 o
3 5 14 1.55 1.55 0.15 o
3 5 15 2.49 2.31 0.20 o
3 5 16 118.97 121.63 4.48 o
3 5 17 4.79 4.85 0.29 o
3 5 20 24.99 25.61 1.62 o
3 5 22 15.66 14.47 1.00 o
3 5 23 5.56 5.58 0.35 o
3 5 24 5.58 5.34 0.37 o
3 6 0 4.26 9.59 0.54 o
3 6 1 11.45 11.86 0.46 o
3 6 2 9.95 9.82 0.42 o
3 6 3 32.09 31.91 0.92 o
3 6 4 227.64 225.21 6.56 o
3 6 5 3.99 4.37 0.28 o
3 6 6 4.41 4.72 0.37 o
3 6 7 18.89 18.75 0.69 o
3 6 8 52.39 51.51 1.41 o
3 6 9 81.35 81.52 1.91 o
3 6 10 13.69 13.57 0.42 o
3 6 11 24.60 24.35 0.74 o
3 6 12 2.92 3.01 0.18 o
3 6 13 7.27 7.10 0.28 o
3 6 14 8.54 8.77 0.31 o
3 6 15 15.92 16.71 0.51 o
3 6 16 1.62 1.53 0.17 o
3 6 17 1.56 1.52 0.17 o
3 6 18 88.32 88.45 2.91 o
3 6 19 10.70 12.23 0.51 o
3 6 20 1.25 1.07 0.18 o
3 6 21 4.38 4.70 0.27 o
3 6 22 6.47 6.62 0.40 o
3 7 0 62.50 61.90 1.65 o
3 7 1 25.35 25.52 0.80 o
3 7 2 29.64 29.09 0.89 o
3 7 3 55.53 56.73 1.62 o
3 7 4 44.32 42.26 1.32 o
3 7 5 7.15 7.30 0.30 o
3 7 6 8.41 8.40 0.28 o
3 7 7 1.61 1.54 0.13 o
3 7 8 119.74 118.16 3.03 o
3 7 9 31.37 32.82 0.91 o
3 7 10 20.46 20.21 0.64 o
3 7 11 6.67 6.53 0.27 o
3 7 12 0.86 0.74 0.12 o
3 7 13 1.54 1.50 0.14 o
3 7 14 0.73 0.81 0.13 o
3 7 15 1.87 1.86 0.19 o
3 7 16 67.79 67.46 3.50 o
3 7 17 2.98 2.87 0.23 o
3 7 20 15.96 16.27 0.88 o
3 7 22 9.36 9.55 0.38 o
3 8 0 0.97 0.92 0.15 o
3 8 1 3.25 3.35 0.20 o
3 8 2 2.55 2.58 0.16 o
3 8 3 12.88 12.68 0.39 o
3 8 4 100.73 100.13 2.66 o
3 8 5 1.41 1.68 0.15 o
3 8 6 0.97 1.17 0.13 o
3 8 7 8.83 8.93 0.30 o
3 8 8 30.53 29.87 0.76 o
3 8 9 43.98 43.03 1.16 o
3 8 10 6.17 6.14 0.24 o
3 8 11 15.19 15.42 0.47 o
3 8 12 1.18 1.33 0.13 o
3 8 13 3.43 3.47 0.20 o
3 8 14 5.38 5.34 0.23 o
3 8 15 8.46 8.95 0.34 o
3 8 18 51.24 47.73 1.31 o
3 8 19 5.95 5.98 0.39 o
3 8 20 0.83 1.01 0.20 o
3 8 21 2.98 2.99 0.67 o
3 9 0 19.03 19.42 0.58 o
3 9 1 14.85 15.12 0.50 o
3 9 2 14.84 14.77 0.64 o
3 9 3 24.74 24.09 0.71 o
3 9 4 19.95 20.01 0.58 o
3 9 5 4.24 4.14 0.26 o
3 9 6 2.26 2.02 0.20 o
3 9 7 0.70 0.51 0.15 o
3 9 8 55.15 51.87 1.33 o
3 9 9 12.95 12.81 0.39 o
3 9 10 11.62 11.87 0.38 o
3 9 11 3.38 3.43 0.21 o
3 9 13 0.74 0.82 0.13 o
3 9 15 1.11 1.87 0.16 o
3 9 16 32.46 32.69 1.22 o
3 9 17 1.62 1.90 0.16 o
3 10 1 1.41 1.31 0.21 o
3 10 3 6.06 5.91 0.34 o
3 10 4 41.69 41.54 1.23 o
3 10 7 3.61 3.67 0.24 o
3 10 8 15.62 15.60 0.48 o
3 10 9 21.16 21.35 0.64 o
3 10 10 2.20 1.94 0.18 o
3 10 11 7.91 7.57 0.30 o
3 10 13 1.29 1.19 0.18 o
3 10 14 2.92 2.98 0.22 o
3 10 15 3.80 3.79 0.39 o
3 11 0 5.08 4.72 0.38 o
3 11 1 7.48 7.90 0.59 o
3 11 2 6.65 6.42 0.41 o
3 11 3 9.50 9.32 0.47 o
3 11 4 8.31 8.81 0.47 o
3 11 5 2.26 2.42 0.36 o
3 11 8 21.80 20.69 0.95 o
3 11 9 4.31 4.57 0.45 o
3 11 10 5.56 5.69 0.39 o
3 11 11 1.51 1.67 0.21 o
3 11 15 0.58 0.66 0.15 o
3 12 0 0.04 1.29 0.27 o
3 12 3 2.71 2.98 0.33 o
3 12 4 15.18 16.18 0.58 o
3 12 7 1.23 1.27 0.26 o
3 12 8 6.99 7.44 0.42 o
3 12 9 8.74 8.39 0.41 o
3 12 10 0.62 0.81 0.23 o
3 12 11 3.58 3.37 0.27 o
3 13 1 3.24 2.97 0.72 o
3 13 2 2.61 2.89 0.35 o
3 13 3 3.06 2.78 0.86 o
3 13 4 3.03 3.63 0.37 o
3 13 5 1.00 0.82 0.23 o
3 13 8 7.36 7.77 0.75 o
4 0 0 4.70 5.06 0.70 o
4 0 1 407.18 405.61 8.71 o
4 0 2 30.01 29.21 1.02 o
4 0 3 336.92 325.95 7.61 o
4 0 4 26.10 26.54 1.05 o
4 0 5 552.11 564.29 16.21 o
4 0 6 120.37 111.56 2.88 o
4 0 7 265.91 259.74 8.35 o
4 0 8 8.42 9.25 0.62 o
4 0 9 18.67 19.15 0.92 o
4 0 10 129.73 130.36 3.88 o
4 0 11 5.52 6.93 0.64 o
4 0 12 71.10 71.93 2.51 o
4 0 13 10.19 10.67 0.83 o
4 0 14 38.08 38.12 1.21 o
4 0 16 25.69 26.42 1.00 o
4 0 17 61.66 62.56 1.94 o
4 0 18 118.76 121.18 3.74 o
4 0 19 40.07 40.57 1.40 o
4 0 20 31.10 31.33 1.18 o
4 0 21 9.71 9.97 1.26 o
4 0 22 9.78 10.77 0.87 o
4 0 23 16.60 15.67 0.97 o
4 1 0 470.66 473.02 10.32 o
4 1 1 446.33 432.58 9.59 o
4 1 2 77.00 73.55 1.77 o
4 1 3 15.80 15.77 0.60 o
4 1 4 148.88 149.98 3.57 o
4 1 6 438.80 439.61 10.95 o
4 1 7 135.38 136.10 3.45 o
4 1 8 3.37 3.59 0.32 o
4 1 9 55.54 55.10 1.64 o
4 1 10 32.35 33.21 1.21 o
4 1 12 8.06 8.03 0.63 o
4 1 13 92.50 93.50 2.47 o
4 1 14 15.79 15.20 0.54 o
4 1 15 111.98 112.61 2.87 o
4 1 16 276.32 284.29 10.84 o
4 1 17 9.12 9.31 0.42 o
4 1 18 104.01 103.03 3.64 o
4 1 19 1.83 1.48 0.24 o
4 1 20 0.85 0.73 0.22 o
4 1 21 41.18 41.33 1.46 o
4 1 22 11.69 10.95 0.52 o
4 1 23 1.04 0.98 0.25 o
4 1 24 0.75 1.00 0.23 o
4 2 0 0.77 0.67 0.15 o
4 2 1 234.59 234.13 5.33 o
4 2 2 32.21 34.59 1.20 o
4 2 3 176.62 178.57 4.39 o
4 2 4 34.00 34.52 1.09 o
4 2 5 457.02 463.20 11.22 o
4 2 6 79.51 81.36 1.99 o
4 2 7 223.79 217.86 5.33 o
4 2 8 3.84 3.70 0.30 o
4 2 9 22.01 22.86 0.74 o
4 2 10 120.17 122.01 3.12 o
4 2 11 4.47 5.12 0.38 o
4 2 12 63.59 68.01 2.18 o
4 2 13 9.65 9.73 0.33 o
4 2 14 33.83 34.34 1.25 o
4 2 16 22.85 23.02 0.74 o
4 2 17 55.75 57.37 1.82 o
4 2 18 109.72 110.65 3.00 o
4 2 19 36.84 37.12 1.09 o
4 2 20 28.93 28.35 1.50 o
4 2 21 8.76 7.97 0.81 o
4 2 22 8.81 8.43 0.83 o
4 2 23 15.22 14.11 0.97 o
4 3 0 335.81 339.93 7.90 o
4 3 1 195.58 200.37 7.74 o
4 3 2 28.84 30.61 1.70 o
4 3 3 11.21 11.25 0.62 o
4 3 4 96.89 97.06 2.39 o
4 3 6 294.88 291.19 7.45 o
4 3 7 118.49 117.82 2.85 o
4 3 8 4.51 4.53 0.30 o
4 3 9 40.88 40.49 1.17 o
4 3 10 23.32 22.94 0.78 o
4 3 12 4.87 5.13 0.25 o
4 3 13 73.85 74.52 1.87 o
4 3 14 14.19 14.42 0.49 o
4 3 15 92.10 93.84 4.15 o
4 3 16 229.51 223.62 6.39 o
4 3 17 7.71 8.13 0.42 o
4 3 18 87.34 84.86 2.31 o
4 3 19 1.82 1.05 0.20 o
4 3 21 33.49 32.97 1.79 o
4 3 22 9.82 8.72 0.47 o
4 4 1 89.34 91.43 2.34 o
4 4 2 23.89 23.44 0.73 o
4 4 3 61.95 64.69 1.76 o
4 4 4 29.97 30.80 0.85 o
4 4 5 279.57 279.28 6.72 o
4 4 6 37.83 36.93 1.01 o
4 4 7 147.47 146.24 3.60 o
4 4 9 19.00 19.27 0.67 o
4 4 10 88.19 90.20 2.46 o
4 4 11 2.97 3.00 0.18 o
4 4 12 45.20 45.18 1.16 o
4 4 13 8.84 8.87 0.49 o
4 4 14 25.22 23.88 0.71 o
4 4 16 17.03 16.51 0.55 o
4 4 17 41.57 40.65 1.21 o
4 4 18 87.11 86.22 2.41 o
4 4 19 28.58 27.93 2.25 o
4 4 20 22.99 22.96 1.55 o
4 4 21 6.53 5.66 0.43 o
4 4 22 6.45 6.70 0.44 o
4 4 23 11.73 11.78 0.52 o
4 5 0 120.74 119.52 2.87 o
4 5 1 89.08 94.68 2.35 o
4 5 2 17.22 17.50 0.59 o
4 5 3 11.77 11.12 0.44 o
4 5 4 46.38 46.81 1.25 o
4 5 5 1.39 1.31 0.18 o
4 5 6 170.56 167.48 4.20 o
4 5 7 84.08 84.97 2.26 o
4 5 8 2.73 2.93 0.27 o
4 5 9 30.61 30.10 0.78 o
4 5 10 16.98 16.95 0.47 o
4 5 12 1.83 1.77 0.13 o
4 5 13 48.74 49.15 1.58 o
4 5 14 10.36 10.59 0.37 o
4 5 15 60.61 59.49 1.64 o
4 5 16 159.80 153.92 4.10 o
4 5 17 5.47 5.70 0.32 o
4 5 18 61.67 62.50 2.47 o
4 5 19 1.64 1.65 0.21 o
4 5 21 22.28 21.72 1.04 o
4 5 22 6.91 6.43 0.42 o
4 6 1 41.33 42.25 1.17 o
4 6 2 13.37 12.66 0.52 o
4 6 3 31.68 30.88 0.93 o
4 6 4 18.19 17.30 0.62 o
4 6 5 144.47 144.32 3.79 o
4 6 6 19.42 19.26 0.68 o
4 6 7 85.82 86.95 2.12 o
4 6 9 11.18 11.20 0.36 o
4 6 10 51.61 53.39 1.28 o
4 6 11 1.81 1.69 0.13 o
4 6 12 25.56 25.99 0.83 o
4 6 13 7.37 7.13 0.28 o
4 6 14 16.36 16.17 0.53 o
4 6 16 10.99 11.42 0.56 o
4 6 17 25.92 26.83 1.36 o
4 6 18 59.49 56.63 1.66 o
4 6 19 18.78 19.13 1.22 o
4 6 20 15.52 16.01 0.86 o
4 6 21 4.09 4.48 0.32 o
4 6 22 3.84 3.28 0.34 o
4 7 0 43.19 42.59 1.23 o
4 7 1 47.48 46.57 1.32 o
4 7 2 11.07 10.40 0.48 o
4 7 3 8.08 8.08 0.31 o
4 7 4 23.88 23.86 0.62 o
4 7 5 3.25 3.05 0.17 o
4 7 6 88.56 87.90 2.20 o
4 7 7 50.19 49.78 1.37 o
4 7 8 1.42 1.46 0.15 o
4 7 9 20.34 20.03 0.66 o
4 7 10 10.78 10.78 0.34 o
4 7 13 27.30 28.03 1.05 o
4 7 14 6.34 6.41 0.28 o
4 7 15 32.87 34.77 1.47 o
4 7 16 93.61 90.63 2.44 o
4 7 17 3.30 3.17 0.28 o
4 7 18 36.74 37.53 2.13 o
4 7 19 1.34 1.43 0.18 o
4 7 21 12.15 12.79 1.17 o
4 8 0 0.65 1.24 0.12 o
4 8 1 19.81 19.68 0.50 o
4 8 2 8.60 8.67 0.28 o
4 8 3 14.73 14.83 0.43 o
4 8 4 10.81 10.71 0.34 o
4 8 5 67.21 65.63 1.58 o
4 8 6 8.85 8.24 0.30 o
4 8 7 44.90 43.60 1.33 o
4 8 8 1.17 0.91 0.13 o
4 8 9 6.51 6.61 0.26 o
4 8 10 26.06 26.10 0.84 o
4 8 11 0.88 0.83 0.14 o
4 8 12 11.70 11.84 0.37 o
4 8 13 5.07 5.55 0.23 o
4 8 14 8.98 9.01 0.33 o
4 8 16 5.97 5.69 0.31 o
4 8 17 13.61 13.96 0.55 o
4 8 18 34.73 33.09 0.95 o
4 8 19 10.52 10.66 0.79 o
4 8 20 9.01 9.06 0.53 o
4 9 0 19.47 19.41 0.53 o
4 9 1 24.41 24.13 0.64 o
4 9 2 5.51 5.85 0.25 o
4 9 3 3.65 3.94 0.21 o
4 9 4 12.83 12.50 0.44 o
4 9 5 3.03 2.90 0.22 o
4 9 6 40.26 38.99 1.06 o
4 9 7 25.49 25.10 0.71 o
4 9 8 0.82 0.65 0.15 o
4 9 9 10.97 11.08 0.41 o
4 9 10 5.59 5.67 0.25 o
4 9 13 13.04 12.90 0.44 o
4 9 14 3.33 3.31 0.22 o
4 9 15 15.01 15.11 0.75 o
4 9 16 46.24 46.62 1.97 o
4 9 17 1.73 1.93 0.18 o
4 9 18 18.51 18.25 0.55 o
4 10 1 9.03 9.25 0.43 o
4 10 2 5.24 6.00 0.40 o
4 10 3 6.06 6.74 0.44 o
4 10 4 5.82 5.85 0.32 o
4 10 5 27.01 26.13 0.74 o
4 10 6 3.48 3.22 0.24 o
4 10 7 20.59 20.26 0.59 o
4 10 8 1.44 1.28 0.16 o
4 10 9 3.49 3.62 0.23 o
4 10 10 11.19 11.15 0.38 o
4 10 12 4.32 4.22 0.25 o
4 10 13 2.95 2.88 0.20 o
4 10 14 4.21 4.14 0.25 o
4 10 16 2.77 2.85 0.21 o
4 10 17 6.03 6.02 1.04 o
4 11 0 8.08 8.07 0.47 o
4 11 1 11.45 11.82 0.54 o
4 11 2 2.48 2.47 0.27 o
4 11 3 1.26 0.81 0.22 o
4 11 4 6.13 5.97 0.36 o
4 11 5 2.11 1.96 0.25 o
4 11 6 16.05 16.54 0.60 o
4 11 7 10.84 10.59 0.50 o
4 11 9 5.12 4.99 0.30 o
4 11 10 2.53 2.66 0.28 o
4 11 13 5.25 5.70 0.30 o
4 11 14 1.47 1.80 0.18 o
4 12 1 3.66 3.54 0.40 o
4 12 2 2.72 2.74 0.52 o
4 12 3 2.24 2.05 0.31 o
4 12 4 2.65 2.71 0.29 o
4 12 5 9.05 9.20 0.45 o
4 12 6 1.24 1.27 0.25 o
4 12 7 8.23 7.86 0.45 o
4 12 8 1.09 1.40 0.27 o
4 12 9 1.58 1.51 0.25 o
4 12 10 4.01 3.90 0.28 o
4 13 0 2.87 3.12 0.34 o
4 13 1 4.66 5.19 0.56 o
4 13 4 2.56 2.95 0.27 o
4 13 5 1.20 1.12 0.23 o
4 13 6 5.52 5.73 0.35 o
4 13 7 3.91 3.69 0.30 o
5 0 0 15.20 16.00 0.91 o
5 0 1 161.08 158.25 4.15 o
5 0 2 1.63 1.87 0.49 o
5 0 3 105.62 105.81 3.27 o
5 0 4 417.23 429.56 11.82 o
5 0 5 326.50 318.00 8.21 o
5 0 6 332.84 332.53 8.98 o
5 0 7 15.44 14.66 0.85 o
5 0 11 35.01 35.32 1.50 o
5 0 12 16.32 16.44 1.09 o
5 0 13 250.40 251.48 7.40 o
5 0 15 7.08 7.09 0.52 o
5 0 16 18.12 18.97 0.97 o
5 0 17 70.11 69.16 2.82 o
5 0 18 12.85 14.18 0.71 o
5 0 19 1.68 1.43 0.30 o
5 0 22 4.94 4.85 0.73 o
5 0 23 3.83 3.76 0.68 o
5 1 0 82.48 76.19 2.47 o
5 1 1 173.73 170.75 4.18 o
5 1 2 901.97 885.21 22.62 o
5 1 3 2.59 2.52 0.35 o
5 1 4 19.81 19.38 0.63 o
5 1 5 493.91 481.53 11.68 o
5 1 6 124.80 125.31 3.03 o
5 1 7 131.34 131.77 3.24 o
5 1 8 3.36 3.31 0.33 o
5 1 10 36.78 35.55 1.25 o
5 1 11 21.63 21.16 0.86 o
5 1 12 53.69 53.03 1.47 o
5 1 13 80.55 78.96 3.08 o
5 1 14 20.17 20.12 0.73 o
5 1 15 0.86 0.92 0.27 o
5 1 17 53.46 53.95 1.50 o
5 1 18 21.76 21.65 0.71 o
5 1 19 1.62 1.91 0.32 o
5 1 20 13.40 13.96 0.66 o
5 1 21 4.38 4.37 0.71 o
5 1 22 5.78 5.88 0.43 o
5 1 23 2.77 2.73 0.68 o
5 1 24 17.86 16.72 0.97 o
5 2 0 9.77 9.76 0.43 o
5 2 1 124.84 120.85 3.30 o
5 2 2 4.38 4.65 0.41 o
5 2 3 58.39 57.65 1.53 o
5 2 4 336.27 336.81 8.09 o
5 2 5 274.78 272.10 6.50 o
5 2 6 283.19 282.38 6.86 o
5 2 7 14.60 14.98 0.56 o
5 2 9 0.72 0.74 0.23 o
5 2 11 30.53 31.43 1.08 o
5 2 12 13.87 14.61 0.52 o
5 2 13 229.19 239.09 9.29 o
5 2 14 0.65 0.87 0.16 o
5 2 15 6.44 6.54 0.33 o
5 2 16 16.13 17.02 0.60 o
5 2 17 63.71 59.61 1.94 o
5 2 18 11.64 11.12 0.82 o
5 2 19 1.74 1.74 0.31 o
5 2 22 4.28 4.72 0.73 o
5 2 23 3.43 3.09 0.71 o
5 3 0 38.32 38.09 1.26 o
5 3 1 118.09 118.07 3.09 o
5 3 2 442.83 436.48 13.47 o
5 3 3 3.13 3.23 0.26 o
5 3 4 16.52 16.49 0.52 o
5 3 5 380.87 389.32 9.63 o
5 3 6 93.33 93.69 2.37 o
5 3 7 128.18 127.31 3.32 o
5 3 8 4.28 4.18 0.34 o
5 3 10 29.04 27.98 0.93 o
5 3 11 14.40 15.02 0.44 o
5 3 12 40.48 40.71 1.08 o
5 3 13 63.71 67.29 1.75 o
5 3 14 16.19 16.86 0.52 o
5 3 15 0.77 0.81 0.18 o
5 3 17 45.11 44.86 1.31 o
5 3 18 18.71 18.99 0.79 o
5 3 19 1.24 1.19 0.29 o
5 3 20 11.64 10.57 0.87 o
5 3 21 3.56 3.21 0.37 o
5 3 22 4.88 4.49 0.37 o
5 3 23 2.35 2.22 0.58 o
5 4 0 1.92 1.75 0.20 o
5 4 1 52.76 52.03 1.51 o
5 4 2 5.37 5.35 0.31 o
5 4 3 27.36 27.38 0.79 o
5 4 4 207.85 207.73 5.17 o
5 4 5 181.57 180.72 4.82 o
5 4 6 195.51 196.28 4.95 o
5 4 7 12.73 12.73 0.50 o
5 4 9 0.27 0.53 0.15 o
5 4 11 22.63 23.15 0.64 o
5 4 12 9.10 9.44 0.37 o
5 4 13 172.12 168.40 4.27 o
5 4 14 0.61 0.85 0.15 o
5 4 15 5.02 5.30 0.32 o
5 4 16 11.37 12.86 0.47 o
5 4 17 48.11 46.36 1.25 o
5 4 18 8.95 8.44 0.39 o
5 4 19 1.83 1.40 0.23 o
5 4 22 2.81 2.82 0.72 o
5 4 23 2.50 2.30 0.61 o
5 5 0 24.19 24.25 0.81 o
5 5 1 62.06 61.96 1.90 o
5 5 2 205.15 203.17 5.64 o
5 5 3 0.97 0.80 0.20 o
5 5 4 5.81 6.16 0.36 o
5 5 5 249.80 252.65 6.79 o
5 5 6 53.09 52.62 1.45 o
5 5 7 98.14 96.99 2.74 o
5 5 8 2.89 2.81 0.16 o
5 5 10 18.15 18.84 0.60 o
5 5 11 6.88 7.51 0.27 o
5 5 12 27.11 28.31 0.87 o
5 5 13 41.50 39.41 1.03 o
5 5 14 11.16 10.80 0.37 o
5 5 15 0.70 0.93 0.15 o
5 5 17 31.79 32.07 1.52 o
5 5 18 13.81 14.44 0.78 o
5 5 19 0.80 0.84 0.20 o
5 5 20 8.75 8.40 0.86 o
5 5 21 2.37 2.31 0.30 o
5 5 22 3.50 3.19 0.33 o
5 6 1 14.58 14.74 0.66 o
5 6 2 3.13 2.95 0.29 o
5 6 3 18.77 18.12 0.66 o
5 6 4 114.92 113.75 3.30 o
5 6 5 105.30 102.05 2.67 o
5 6 6 116.06 114.50 2.93 o
5 6 7 9.85 9.79 0.29 o
5 6 11 15.27 14.92 0.44 o
5 6 12 4.88 4.85 0.23 o
5 6 13 107.76 109.16 4.29 o
5 6 14 0.49 0.50 0.15 o
5 6 15 3.46 3.54 0.25 o
5 6 16 6.36 6.44 0.33 o
5 6 17 30.31 30.04 1.50 o
5 6 18 5.90 6.45 0.43 o
5 6 19 1.76 1.81 0.19 o
5 7 0 15.32 14.86 0.46 o
5 7 1 29.95 30.41 0.77 o
5 7 2 92.24 89.97 2.29 o
5 7 4 1.28 1.33 0.12 o
5 7 5 143.30 140.83 3.66 o
5 7 6 26.95 26.62 0.68 o
5 7 7 63.82 62.24 1.49 o
5 7 8 1.26 1.17 0.13 o
5 7 10 9.42 9.45 0.31 o
5 7 11 2.47 2.62 0.20 o
5 7 12 15.93 16.35 0.73 o
5 7 13 22.70 23.36 0.90 o
5 7 14 6.40 6.50 0.38 o
5 7 15 0.56 0.59 0.16 o
5 7 17 18.89 18.53 1.12 o
5 7 18 8.78 8.65 0.43 o
5 7 20 5.71 5.57 0.28 o
5 8 0 0.66 0.61 0.11 o
5 8 1 3.75 3.76 0.20 o
5 8 2 1.88 1.87 0.15 o
5 8 3 9.78 9.56 0.30 o
5 8 4 56.62 55.96 1.45 o
5 8 5 53.02 52.69 1.39 o
5 8 6 57.11 56.09 1.38 o
5 8 7 6.63 6.74 0.27 o
5 8 11 8.90 9.22 0.36 o
5 8 12 2.06 2.02 0.17 o
5 8 13 58.41 56.33 1.53 o
5 8 15 2.08 2.03 0.19 o
5 8 16 2.86 2.76 0.24 o
5 8 17 15.91 16.01 0.93 o
5 8 18 3.23 3.13 0.30 o
5 8 19 1.45 1.45 0.19 o
5 9 0 8.01 7.81 0.29 o
5 9 1 13.10 12.87 0.38 o
5 9 2 34.94 33.60 0.85 o
5 9 5 71.88 70.31 1.73 o
5 9 6 12.41 12.49 0.39 o
5 9 7 36.79 36.10 1.05 o
5 9 10 4.05 4.39 0.26 o
5 9 11 0.64 0.68 0.14 o
5 9 12 8.06 8.21 0.31 o
5 9 13 10.38 10.58 0.43 o
5 9 14 2.97 2.48 0.24 o
5 9 17 9.53 9.92 0.42 o
5 10 0 0.91 0.95 0.15 o
5 10 1 0.85 0.67 0.16 o
5 10 2 0.97 0.56 0.16 o
5 10 3 4.32 4.62 0.24 o
5 10 4 24.10 24.34 0.68 o
5 10 5 22.84 22.72 0.66 o
5 10 6 23.46 23.11 0.65 o
5 10 7 3.95 4.01 0.23 o
5 10 9 0.48 0.68 0.16 o
5 10 11 4.47 4.49 0.26 o
5 10 12 0.69 0.76 0.16 o
5 10 13 27.25 26.65 0.80 o
5 10 15 1.07 1.00 0.20 o
5 10 16 1.03 0.96 0.21 o
5 11 0 3.81 3.51 0.32 o
5 11 1 4.66 4.46 0.44 o
5 11 2 11.44 12.16 0.49 o
5 11 5 31.32 30.57 0.92 o
5 11 6 4.80 4.77 0.33 o
5 11 7 18.31 17.60 0.62 o
5 11 10 1.41 1.50 0.22 o
5 11 12 3.62 3.69 0.25 o
5 11 13 3.97 4.05 0.33 o
5 12 3 1.78 1.36 0.29 o
5 12 4 8.80 8.49 0.54 o
5 12 5 8.45 7.78 1.05 o
5 12 6 8.02 7.90 0.41 o
5 12 7 2.03 2.34 0.35 o
5 13 0 1.61 1.49 0.30 o
5 13 1 1.33 1.43 0.30 o
5 13 2 3.15 2.55 0.32 o
5 13 5 11.82 11.65 0.45 o
6 0 0 1149.71 1129.24 31.93 o
6 0 1 21.44 20.99 0.96 o
6 0 2 380.26 378.73 11.26 o
6 0 3 673.69 673.23 17.99 o
6 0 4 1.51 1.14 0.26 o
6 0 5 166.26 167.37 4.59 o
6 0 6 75.52 74.89 2.32 o
6 0 7 125.35 122.88 3.69 o
6 0 8 6.65 5.66 0.62 o
6 0 10 167.51 163.97 7.69 o
6 0 11 26.37 27.53 1.45 o
6 0 12 2.41 3.43 0.90 o
6 0 13 10.95 10.19 1.21 o
6 0 17 9.40 10.04 0.85 o
6 0 18 5.52 5.55 0.52 o
6 0 19 52.70 54.34 1.76 o
6 0 21 2.15 3.24 0.73 o
6 1 0 158.62 158.40 4.22 o
6 1 1 10.89 10.60 0.68 o
6 1 2 1.13 0.81 0.20 o
6 1 3 55.74 54.90 1.40 o
6 1 4 1.52 1.32 0.18 o
6 1 5 334.80 329.06 8.38 o
6 1 6 22.11 22.24 0.71 o
6 1 7 13.81 14.19 0.64 o
6 1 8 16.19 15.91 0.63 o
6 1 9 6.58 6.10 0.42 o
6 1 10 18.86 18.56 0.73 o
6 1 11 22.46 22.80 0.68 o
6 1 12 172.93 175.83 4.68 o
6 1 13 30.20 30.42 0.97 o
6 1 15 5.42 5.30 0.34 o
6 1 16 48.76 49.71 1.38 o
6 1 17 1.94 1.99 0.24 o
6 1 18 18.61 18.70 0.64 o
6 1 19 1.13 1.28 0.22 o
6 1 21 9.12 9.39 1.63 o
6 1 22 5.20 5.48 0.39 o
6 2 0 877.24 878.74 22.83 o
6 2 1 27.49 27.18 0.79 o
6 2 2 326.24 324.23 8.50 o
6 2 3 612.58 619.10 15.64 o
6 2 4 2.06 2.06 0.21 o
6 2 5 158.04 157.12 4.15 o
6 2 6 57.43 56.92 1.75 o
6 2 7 103.16 108.30 2.88 o
6 2 8 5.52 5.41 0.39 o
6 2 10 147.39 144.37 3.57 o
6 2 11 22.61 24.18 0.67 o
6 2 12 2.41 2.89 0.23 o
6 2 13 9.97 10.28 0.47 o
6 2 14 2.33 2.44 0.27 o
6 2 15 1.56 1.36 0.21 o
6 2 17 8.94 8.93 0.42 o
6 2 18 5.27 5.81 0.47 o
6 2 19 47.97 48.55 1.74 o
6 2 21 1.98 2.02 0.58 o
6 2 22 5.25 5.31 0.39 o
6 3 0 115.29 117.02 3.63 o
6 3 1 9.85 10.02 0.40 o
6 3 2 2.46 2.45 0.24 o
6 3 3 37.45 41.62 1.34 o
6 3 4 1.33 1.21 0.19 o
6 3 5 291.55 287.11 8.31 o
6 3 6 27.32 26.52 0.85 o
6 3 7 11.67 11.16 0.51 o
6 3 8 9.59 9.90 0.55 o
6 3 9 4.24 5.59 0.27 o
6 3 10 15.14 15.64 0.45 o
6 3 11 19.42 21.15 0.74 o
6 3 12 143.84 150.65 6.58 o
6 3 13 25.03 26.71 1.00 o
6 3 15 4.33 4.82 0.28 o
6 3 16 40.18 38.03 1.65 o
6 3 17 1.37 1.54 0.51 o
6 3 18 15.69 15.80 0.71 o
6 3 21 7.37 7.80 0.44 o
6 3 22 4.20 3.93 0.87 o
6 4 0 505.78 471.14 13.29 o
6 4 1 26.97 27.25 0.81 o
6 4 2 232.83 228.75 5.93 o
6 4 3 423.57 414.26 12.61 o
6 4 4 1.52 1.53 0.22 o
6 4 5 117.02 117.89 3.14 o
6 4 6 33.87 32.98 1.13 o
6 4 7 65.60 64.10 1.83 o
6 4 8 2.89 3.11 0.18 o
6 4 9 0.64 0.64 0.10 o
6 4 10 105.18 106.42 3.01 o
6 4 11 16.09 16.33 0.55 o
6 4 12 2.02 2.15 0.16 o
6 4 13 8.31 8.64 0.32 o
6 4 14 1.53 1.45 0.21 o
6 4 15 1.51 1.36 0.17 o
6 4 17 7.47 8.12 0.38 o
6 4 18 4.43 4.16 0.40 o
6 4 19 36.25 35.28 1.19 o
6 4 22 4.33 3.24 0.71 o
6 5 0 70.21 69.14 1.81 o
6 5 1 9.16 9.25 0.44 o
6 5 3 19.56 18.82 0.82 o
6 5 4 0.84 0.70 0.22 o
6 5 5 197.68 191.47 5.48 o
6 5 6 21.63 21.72 0.61 o
6 5 7 10.73 10.33 0.34 o
6 5 8 3.76 4.10 0.20 o
6 5 9 2.09 2.05 0.15 o
6 5 10 10.23 10.31 0.36 o
6 5 11 13.60 13.52 0.40 o
6 5 12 96.44 98.17 3.53 o
6 5 13 17.80 17.42 0.54 o
6 5 15 2.75 2.75 0.20 o
6 5 16 27.88 26.52 0.75 o
6 5 17 0.63 0.58 0.16 o
6 5 18 11.03 11.24 1.12 o
6 5 19 0.80 0.69 0.22 o
6 5 21 4.86 4.79 0.75 o
6 6 0 276.19 270.44 7.42 o
6 6 1 18.01 18.44 0.68 o
6 6 2 149.41 152.46 4.12 o
6 6 3 234.61 231.94 5.69 o
6 6 4 0.40 0.44 0.09 o
6 6 5 69.36 69.40 1.92 o
6 6 6 18.77 18.68 0.57 o
6 6 7 36.14 36.36 0.98 o
6 6 8 0.99 1.07 0.11 o
6 6 9 0.83 0.71 0.11 o
6 6 10 63.71 64.66 1.99 o
6 6 11 10.09 9.90 0.35 o
6 6 12 1.40 1.79 0.16 o
6 6 13 6.54 6.81 0.33 o
6 6 14 0.79 0.73 0.15 o
6 6 15 1.43 2.69 0.21 o
6 6 17 5.38 5.54 0.36 o
6 6 18 3.21 3.59 0.28 o
6 6 19 22.81 21.54 0.73 o
6 6 20 0.57 0.66 0.21 o
6 7 0 40.50 39.86 1.07 o
6 7 1 6.90 6.86 0.25 o
6 7 3 9.23 9.08 0.29 o
6 7 4 0.48 0.55 0.11 o
6 7 5 112.39 110.23 2.74 o
6 7 6 13.19 13.12 0.39 o
6 7 7 8.47 8.48 0.28 o
6 7 8 0.97 0.92 0.13 o
6 7 9 0.94 1.05 0.13 o
6 7 10 5.77 5.77 0.26 o
6 7 11 8.15 8.43 0.32 o
6 7 12 53.89 53.46 1.46 o
6 7 13 10.77 10.55 0.37 o
6 7 15 1.38 1.19 0.18 o
6 7 16 16.12 15.85 0.52 o
6 7 18 6.47 6.96 0.43 o
6 7 19 0.55 0.69 0.18 o
6 8 0 136.90 135.45 3.98 o
6 8 1 11.23 11.06 0.35 o
6 8 2 83.51 81.25 1.94 o
6 8 3 116.74 112.52 2.70 o
6 8 5 38.47 36.59 0.93 o
6 8 6 8.79 9.05 0.33 o
6 8 7 17.14 16.69 0.49 o
6 8 9 0.75 0.73 0.13 o
6 8 10 32.87 32.81 0.97 o
6 8 11 5.15 5.27 0.29 o
6 8 12 0.94 0.83 0.17 o
6 8 13 4.49 4.49 0.28 o
6 8 15 1.16 1.08 0.18 o
6 8 17 3.38 3.08 0.28 o
6 8 18 2.02 1.77 0.20 o
6 9 0 21.90 22.81 0.61 o
6 9 1 4.26 4.35 0.21 o
6 9 3 3.91 4.77 0.23 o
6 9 5 55.31 53.89 1.52 o
6 9 6 6.91 7.06 0.28 o
6 9 7 5.35 5.41 0.24 o
6 9 9 0.37 0.52 0.15 o
6 9 10 2.67 2.53 0.20 o
6 9 11 4.35 4.68 0.32 o
6 9 12 25.62 24.96 0.81 o
6 9 13 5.50 5.69 0.40 o
6 9 15 0.55 0.57 0.18 o
6 9 16 7.75 7.78 0.52 o
6 10 0 60.04 58.50 1.49 o
6 10 1 6.34 6.38 0.27 o
6 10 2 40.27 39.54 1.05 o
6 10 3 50.55 51.27 1.30 o
6 10 5 19.38 18.80 0.57 o
6 10 6 3.59 3.88 0.25 o
6 10 7 7.12 6.89 0.29 o
6 10 9 0.54 0.73 0.16 o
6 10 10 14.52 14.85 0.46 o
6 10 11 2.15 2.29 0.19 o
6 10 12 0.58 0.67 0.19 o
6 10 13 2.66 2.73 0.21 o
6 11 0 10.52 10.35 0.39 o
6 11 1 2.15 2.10 0.20 o
6 11 3 1.41 1.24 0.25 o
6 11 5 23.05 22.98 0.74 o
6 11 6 2.93 3.24 0.25 o
6 11 7 2.88 2.81 0.23 o
6 11 10 1.03 0.93 0.16 o
6 11 11 2.04 2.18 0.18 o
6 11 12 10.27 10.16 0.39 o
6 12 0 22.81 24.43 1.10 o
6 12 1 3.02 3.50 0.41 o
6 12 2 16.73 17.09 1.31 o
6 12 3 18.44 19.34 0.74 o
6 12 5 8.41 8.55 0.42 o
6 12 6 1.30 1.24 0.27 o
6 12 7 2.57 2.34 0.22 o
6 13 0 4.35 5.18 0.40 o
6 13 1 0.89 1.25 0.29 o
7 0 0 28.62 28.92 0.98 o
7 0 1 282.51 278.32 6.85 o
7 0 3 94.43 96.93 3.16 o
7 0 4 59.90 60.43 1.74 o
7 0 5 10.23 9.25 0.56 o
7 0 6 0.68 1.33 0.39 o
7 0 7 76.88 76.79 2.34 o
7 0 8 14.56 14.69 0.76 o
7 0 9 23.26 22.47 0.99 o
7 0 10 39.16 36.95 1.50 o
7 0 11 132.52 136.58 8.83 o
7 0 14 0.94 1.82 0.52 o
7 0 15 164.66 168.10 11.52 o
7 0 16 1.49 1.57 0.32 o
7 0 17 1.71 1.60 0.35 o
7 0 18 4.89 5.16 0.74 o
7 0 21 12.49 12.43 0.90 o
7 1 0 537.86 537.68 13.24 o
7 1 1 79.10 77.44 1.88 o
7 1 2 233.27 232.27 5.52 o
7 1 3 79.09 77.55 1.95 o
7 1 4 76.74 76.23 1.98 o
7 1 5 37.47 36.85 1.09 o
7 1 6 0.73 0.73 0.23 o
7 1 8 17.35 16.62 0.68 o
7 1 9 54.80 54.99 1.50 o
7 1 10 0.84 1.04 0.19 o
7 1 11 7.01 7.06 0.37 o
7 1 13 30.21 31.22 0.92 o
7 1 14 56.07 57.07 1.57 o
7 1 15 1.34 1.45 0.21 o
7 1 16 1.25 1.16 0.21 o
7 1 18 14.01 14.43 0.61 o
7 1 19 10.22 10.30 0.52 o
7 1 20 39.43 39.86 1.31 o
7 1 21 11.64 11.90 0.93 o
7 1 22 42.70 43.23 1.44 o
7 2 0 20.39 18.94 0.80 o
7 2 1 246.57 246.90 7.30 o
7 2 3 84.50 84.66 2.40 o
7 2 4 49.81 49.83 1.34 o
7 2 5 7.67 7.95 0.39 o
7 2 7 69.21 67.30 1.91 o
7 2 8 12.88 12.53 0.51 o
7 2 9 21.02 21.23 0.67 o
7 2 10 36.48 37.41 1.40 o
7 2 11 121.14 121.22 3.09 o
7 2 14 0.92 0.96 0.18 o
7 2 15 151.23 151.74 4.22 o
7 2 16 1.22 1.40 0.29 o
7 2 17 1.64 1.57 0.23 o
7 2 18 4.62 5.28 0.41 o
7 2 20 2.03 1.96 0.51 o
7 2 21 11.11 11.44 0.49 o
7 2 22 7.45 7.41 0.68 o
7 3 0 390.04 382.03 9.92 o
7 3 1 49.72 48.88 1.89 o
7 3 2 180.79 180.62 5.42 o
7 3 3 54.36 53.31 1.77 o
7 3 4 52.31 51.83 1.40 o
7 3 5 26.22 26.44 0.83 o
7 3 8 12.74 13.16 0.42 o
7 3 9 44.51 44.37 1.16 o
7 3 10 0.59 0.61 0.15 o
7 3 11 6.68 7.11 0.45 o
7 3 13 26.26 26.32 1.25 o
7 3 14 45.36 45.04 1.27 o
7 3 15 0.97 1.21 0.20 o
7 3 16 1.07 1.04 0.19 o
7 3 18 11.47 10.90 0.54 o
7 3 19 8.35 8.79 0.48 o
7 3 20 33.10 32.14 1.31 o
7 3 21 9.49 9.44 0.45 o
7 4 0 14.77 14.20 0.56 o
7 4 1 178.00 177.51 6.75 o
7 4 2 1.30 1.43 0.23 o
7 4 3 60.47 61.80 1.96 o
7 4 4 32.43 31.16 1.19 o
7 4 5 6.26 6.15 0.54 o
7 4 7 49.54 49.87 1.50 o
7 4 8 10.15 10.14 0.34 o
7 4 9 15.02 15.40 0.54 o
7 4 10 27.43 28.06 1.04 o
7 4 11 91.55 91.56 2.56 o
7 4 12 0.71 0.74 0.15 o
7 4 14 0.87 0.78 0.16 o
7 4 15 115.65 115.32 3.89 o
7 4 17 1.48 1.10 0.23 o
7 4 18 3.87 3.18 0.37 o
7 4 20 1.50 1.51 0.39 o
7 4 21 7.82 7.49 0.41 o
7 5 0 239.79 231.85 7.15 o
7 5 1 25.32 24.31 0.84 o
7 5 2 114.17 111.30 3.04 o
7 5 3 29.82 29.59 0.78 o
7 5 4 31.27 31.26 0.83 o
7 5 5 12.80 13.33 0.42 o
7 5 6 0.40 0.42 0.11 o
7 5 8 7.46 6.79 0.28 o
7 5 9 32.80 31.76 0.85 o
7 5 11 5.25 5.84 0.24 o
7 5 13 19.65 19.86 0.62 o
7 5 14 30.48 32.06 0.98 o
7 5 18 7.70 7.95 0.71 o
7 5 19 5.56 5.77 0.56 o
7 5 20 23.45 22.72 0.75 o
7 6 0 11.44 11.53 0.34 o
7 6 1 113.11 112.02 2.95 o
7 6 2 1.79 1.99 0.13 o
7 6 3 36.17 35.35 0.87 o
7 6 4 18.48 18.32 0.56 o
7 6 5 6.07 5.91 0.23 o
7 6 7 29.27 29.71 0.86 o
7 6 8 7.18 7.09 0.27 o
7 6 9 8.78 9.02 0.31 o
7 6 10 16.47 16.48 0.54 o
7 6 11 57.30 57.31 1.46 o
7 6 12 1.14 1.14 0.15 o
7 6 14 0.78 0.86 0.15 o
7 6 15 73.50 74.64 3.43 o
7 6 17 1.23 1.09 0.27 o
7 6 18 2.85 2.68 0.61 o
7 7 0 136.83 136.80 3.60 o
7 7 1 11.61 11.96 0.44 o
7 7 2 64.15 64.22 1.76 o
7 7 3 13.01 13.12 0.40 o
7 7 4 15.70 15.00 0.44 o
7 7 5 5.71 5.85 0.23 o
7 7 6 0.53 0.45 0.11 o
7 7 8 3.46 3.76 0.20 o
7 7 9 21.01 21.19 0.59 o
7 7 11 3.54 3.18 0.23 o
7 7 13 12.60 12.80 0.47 o
7 7 14 16.93 17.39 0.78 o
7 7 18 4.30 4.17 0.27 o
7 8 0 6.01 6.08 0.25 o
7 8 1 61.33 63.33 1.62 o
7 8 2 1.87 1.65 0.16 o
7 8 3 18.72 18.12 0.53 o
7 8 4 8.84 8.75 0.30 o
7 8 5 4.31 4.28 0.21 o
7 8 7 14.98 15.36 0.44 o
7 8 8 4.14 4.41 0.24 o
7 8 9 4.51 4.62 0.30 o
7 8 10 8.40 8.00 0.31 o
7 8 11 30.33 30.38 0.81 o
7 8 12 1.32 1.41 0.22 o
7 8 15 39.49 38.72 1.08 o
7 8 17 0.89 0.73 0.21 o
7 9 0 71.07 67.77 1.70 o
7 9 1 4.92 4.89 0.23 o
7 9 2 32.99 33.10 0.94 o
7 9 3 4.47 4.53 0.23 o
7 9 4 6.10 6.07 0.25 o
7 9 5 2.61 2.65 0.18 o
7 9 8 1.21 1.09 0.15 o
7 9 9 11.45 11.25 0.45 o
7 9 11 2.11 2.03 0.20 o
7 9 13 6.95 7.09 0.35 o
7 9 14 7.75 7.77 0.32 o
7 10 0 2.50 2.57 0.18 o
7 10 1 27.91 28.13 0.73 o
7 10 2 1.40 1.33 0.15 o
7 10 3 8.41 8.19 0.30 o
7 10 4 3.52 3.62 0.22 o
7 10 5 2.43 2.45 0.18 o
7 10 7 6.49 6.79 0.30 o
7 10 8 2.01 1.87 0.20 o
7 10 9 2.00 2.06 0.19 o
7 10 10 3.62 3.64 0.23 o
7 10 11 13.62 13.34 0.46 o
7 10 12 1.12 1.26 0.20 o
7 11 0 32.53 32.24 1.15 o
7 11 1 1.88 1.76 0.20 o
7 11 2 14.94 14.47 0.47 o
7 11 3 1.17 1.21 0.17 o
7 11 4 1.88 2.03 0.19 o
7 11 5 1.06 1.03 0.19 o
7 11 9 5.42 5.07 0.28 o
7 11 11 1.07 0.73 0.21 o
7 12 0 0.90 0.74 0.25 o
7 12 1 10.92 10.83 0.40 o
7 12 3 3.28 2.99 0.40 o
7 12 4 1.20 1.20 0.20 o
7 12 5 1.21 1.33 0.20 o
7 12 7 2.36 2.23 0.20 o
7 13 0 12.97 12.64 1.96 o
8 0 0 189.54 193.10 4.93 o
8 0 1 21.12 21.42 0.82 o
8 0 2 3.50 2.80 0.40 o
8 0 3 39.12 38.09 1.24 o
8 0 5 3.67 3.26 0.52 o
8 0 6 65.80 65.44 2.11 o
8 0 7 58.51 58.40 1.69 o
8 0 8 80.25 90.16 2.47 o
8 0 9 128.96 130.57 4.34 o
8 0 10 78.27 79.73 2.85 o
8 0 11 26.45 26.44 0.95 o
8 0 12 12.13 12.26 0.62 o
8 0 13 3.92 4.49 0.61 o
8 0 15 52.09 55.57 1.86 o
8 0 17 3.62 4.37 0.75 o
8 0 19 28.09 28.52 1.22 o
8 1 0 96.15 101.18 2.48 o
8 1 1 1.53 1.64 0.21 o
8 1 3 3.41 3.95 0.30 o
8 1 4 78.84 75.95 2.19 o
8 1 5 26.65 25.67 0.82 o
8 1 6 138.54 141.48 3.82 o
8 1 8 17.03 17.31 0.58 o
8 1 9 76.57 75.95 2.06 o
8 1 10 65.35 67.41 2.59 o
8 1 11 89.94 91.92 2.56 o
8 1 12 37.76 39.60 1.22 o
8 1 13 121.97 123.35 3.68 o
8 1 15 35.53 36.12 1.13 o
8 1 16 39.00 39.63 1.13 o
8 1 17 1.94 1.75 0.29 o
8 1 18 1.35 1.43 0.28 o
8 1 20 22.45 22.67 1.37 o
8 1 21 3.98 3.68 0.35 o
8 2 0 172.96 173.54 5.72 o
8 2 1 18.92 19.18 0.64 o
8 2 2 1.31 1.34 0.23 o
8 2 3 34.97 34.87 1.16 o
8 2 5 3.77 3.93 0.34 o
8 2 6 60.11 57.45 1.60 o
8 2 7 52.01 52.15 1.35 o
8 2 8 76.90 76.97 2.10 o
8 2 9 120.83 121.24 3.09 o
8 2 10 70.01 70.60 1.84 o
8 2 11 23.70 25.10 0.95 o
8 2 12 11.07 11.12 0.49 o
8 2 13 3.51 4.05 0.28 o
8 2 14 0.66 0.60 0.18 o
8 2 15 48.24 50.14 1.39 o
8 2 17 3.27 3.51 0.75 o
8 2 18 1.12 1.04 0.27 o
8 2 19 25.54 25.89 0.99 o
8 2 20 0.78 0.87 0.27 o
8 3 0 72.69 73.42 2.01 o
8 3 1 1.20 1.36 0.24 o
8 3 3 2.88 3.11 0.32 o
8 3 4 55.77 53.23 1.60 o
8 3 5 21.18 21.62 0.69 o
8 3 6 110.39 112.65 3.40 o
8 3 8 14.77 15.04 0.48 o
8 3 9 65.96 66.14 1.73 o
8 3 10 53.30 54.06 1.69 o
8 3 11 76.41 74.48 1.91 o
8 3 12 31.26 30.80 0.87 o
8 3 13 101.13 97.79 2.69 o
8 3 15 29.95 30.06 0.89 o
8 3 16 33.22 32.70 1.11 o
8 3 17 1.37 1.21 0.22 o
8 3 20 18.73 18.48 0.67 o
8 4 0 123.12 118.69 3.23 o
8 4 1 15.46 14.95 0.68 o
8 4 3 22.88 23.33 0.88 o
8 4 5 2.81 2.68 0.18 o
8 4 6 46.10 45.27 1.14 o
8 4 7 38.16 37.92 0.97 o
8 4 8 62.95 63.22 1.98 o
8 4 9 96.11 98.45 3.18 o
8 4 10 49.22 48.90 1.26 o
8 4 11 17.13 17.25 0.54 o
8 4 12 8.79 8.35 0.37 o
8 4 13 2.43 2.33 0.21 o
8 4 15 38.60 39.45 1.33 o
8 4 17 2.40 2.22 0.31 o
8 4 18 1.03 1.12 0.27 o
8 4 19 19.34 19.04 0.79 o
8 5 0 41.23 40.01 1.07 o
8 5 1 1.24 1.36 0.13 o
8 5 3 3.11 3.43 0.18 o
8 5 4 33.11 33.27 1.06 o
8 5 5 14.86 14.83 0.44 o
8 5 6 70.14 69.98 2.05 o
8 5 8 12.61 12.60 0.42 o
8 5 9 46.67 46.39 1.19 o
8 5 10 35.31 35.10 1.00 o
8 5 11 55.48 56.08 1.79 o
8 5 12 21.51 21.97 0.66 o
8 5 13 69.01 67.89 1.74 o
8 5 15 21.46 20.67 0.78 o
8 5 16 24.00 22.98 1.24 o
8 5 17 0.67 0.69 0.22 o
8 6 0 71.53 71.98 2.02 o
8 6 1 11.20 11.53 0.40 o
8 6 3 11.09 11.07 0.41 o
8 6 5 1.29 1.05 0.12 o
8 6 6 30.40 30.58 0.90 o
8 6 7 23.91 23.86 0.66 o
8 6 8 42.89 41.09 1.09 o
8 6 9 64.37 64.08 1.62 o
8 6 10 27.18 27.41 0.73 o
8 6 11 10.08 10.23 0.35 o
8 6 12 6.19 5.83 0.28 o
8 6 13 1.27 1.26 0.18 o
8 6 15 26.57 25.66 0.88 o
8 6 17 1.43 1.24 0.22 o
8 7 0 19.27 19.92 0.68 o
8 7 1 1.09 0.85 0.13 o
8 7 3 2.58 2.61 0.17 o
8 7 4 16.75 17.28 0.51 o
8 7 5 8.97 8.76 0.36 o
8 7 6 36.89 36.92 1.15 o
8 7 8 9.67 9.65 0.33 o
8 7 9 28.19 28.17 0.76 o
8 7 10 19.54 20.08 0.56 o
8 7 11 34.68 34.75 1.02 o
8 7 12 12.30 12.90 0.61 o
8 7 13 39.28 38.54 1.04 o
8 7 15 13.04 12.88 0.45 o
8 7 16 14.77 15.12 0.56 o
8 8 0 37.03 37.85 1.08 o
8 8 1 6.53 6.39 0.26 o
8 8 3 4.43 4.53 0.23 o
8 8 5 0.48 0.61 0.12 o
8 8 6 17.39 17.11 0.50 o
8 8 7 12.68 12.16 0.38 o
8 8 8 25.37 25.55 0.78 o
8 8 9 37.28 38.00 1.38 o
8 8 10 11.98 12.38 0.51 o
8 8 11 4.90 5.09 0.33 o
8 8 12 3.81 3.76 0.24 o
8 8 13 0.50 0.71 0.16 o
8 8 15 15.49 14.35 0.58 o
8 9 0 7.55 7.70 0.31 o
8 9 1 0.70 0.83 0.14 o
8 9 3 1.64 1.50 0.15 o
8 9 4 6.90 6.98 0.27 o
8 9 5 4.49 4.51 0.22 o
8 9 6 16.37 16.99 0.48 o
8 9 8 6.25 6.53 0.28 o
8 9 9 14.84 15.58 0.62 o
8 9 10 9.14 9.05 0.37 o
8 9 11 18.62 19.27 0.57 o
8 9 12 5.84 6.22 0.28 o
8 9 13 18.84 19.49 0.58 o
8 10 0 16.59 16.25 0.46 o
8 10 1 3.25 3.11 0.19 o
8 10 3 1.45 1.34 0.15 o
8 10 6 8.52 8.17 0.33 o
8 10 7 5.74 6.19 0.33 o
8 10 8 12.89 13.26 0.42 o
8 10 9 18.59 18.66 0.86 o
8 10 10 4.17 3.94 0.33 o
8 10 11 1.98 2.03 0.19 o
8 10 12 2.08 1.84 0.36 o
8 11 0 2.32 1.98 0.21 o
8 11 3 0.91 0.98 0.16 o
8 11 4 2.36 2.37 0.19 o
8 11 5 1.93 2.02 0.18 o
8 11 6 6.00 6.21 0.30 o
8 11 8 3.47 3.71 0.25 o
8 11 9 6.72 6.85 0.36 o
8 12 0 6.33 6.75 0.32 o
8 12 1 1.40 1.48 0.20 o
9 0 0 81.19 84.55 2.78 o
9 0 1 68.18 70.46 2.47 o
9 0 2 8.46 8.41 0.59 o
9 0 3 9.46 10.07 0.63 o
9 0 4 3.13 3.13 0.32 o
9 0 5 23.83 25.11 0.80 o
9 0 6 20.68 21.94 0.69 o
9 0 7 111.92 112.46 3.06 o
9 0 8 305.35 300.98 9.24 o
9 0 9 262.23 267.20 8.23 o
9 0 10 8.37 8.88 0.47 o
9 0 11 45.14 45.59 1.46 o
9 0 12 12.33 15.24 0.70 o
9 0 13 1.12 1.34 0.41 o
9 0 14 32.02 31.92 1.12 o
9 0 15 1.04 1.33 0.32 o
9 0 16 9.14 8.83 0.85 o
9 0 18 3.78 3.25 0.74 o
9 0 20 40.02 38.30 1.35 o
9 1 0 4.48 3.79 0.31 o
9 1 1 10.46 11.12 0.49 o
9 1 2 16.70 17.48 0.69 o
9 1 3 256.34 250.15 6.91 o
9 1 4 0.79 0.84 0.16 o
9 1 6 8.81 8.98 0.46 o
9 1 7 1.00 1.05 0.19 o
9 1 8 19.87 19.94 0.81 o
9 1 9 14.17 14.84 0.53 o
9 1 10 8.39 8.68 0.44 o
9 1 11 8.66 8.74 0.39 o
9 1 12 28.12 26.86 0.84 o
9 1 13 13.10 13.04 0.50 o
9 1 14 13.13 13.58 0.52 o
9 1 15 5.32 5.50 0.37 o
9 1 17 2.97 2.99 0.59 o
9 1 18 13.58 13.08 0.57 o
9 1 19 31.62 31.14 0.89 o
9 1 20 4.57 3.26 0.83 o
9 2 0 70.58 69.61 2.09 o
9 2 1 64.51 64.59 2.42 o
9 2 2 8.90 9.10 0.48 o
9 2 3 8.64 8.55 0.35 o
9 2 4 2.64 2.71 0.20 o
9 2 5 21.59 21.10 0.69 o
9 2 6 19.71 19.20 0.61 o
9 2 7 103.29 102.47 2.58 o
9 2 8 275.90 270.67 7.47 o
9 2 9 238.27 237.36 6.99 o
9 2 10 7.84 8.03 0.39 o
9 2 11 41.01 41.24 1.25 o
9 2 12 11.47 12.44 0.54 o
9 2 13 1.09 0.96 0.22 o
9 2 14 28.95 30.94 1.23 o
9 2 15 1.02 0.88 0.19 o
9 2 16 8.43 8.10 0.41 o
9 2 17 1.32 1.09 0.23 o
9 2 18 3.44 3.52 0.30 o
9 2 19 1.59 1.90 0.22 o
9 3 0 2.86 7.29 0.45 o
9 3 1 6.74 7.27 0.44 o
9 3 2 14.20 14.71 0.50 o
9 3 3 210.02 197.70 5.02 o
9 3 4 0.58 0.61 0.12 o
9 3 6 8.17 9.21 0.33 o
9 3 7 1.12 0.98 0.15 o
9 3 8 16.60 16.82 0.56 o
9 3 9 11.10 12.97 0.44 o
9 3 10 6.48 6.26 0.47 o
9 3 11 7.16 7.03 0.32 o
9 3 12 23.45 23.58 0.72 o
9 3 13 11.40 11.46 0.45 o
9 3 14 10.47 10.92 0.39 o
9 3 15 4.62 4.65 0.30 o
9 3 17 2.53 2.42 0.28 o
9 3 18 11.62 11.16 0.45 o
9 3 19 26.16 26.03 2.02 o
9 4 0 49.04 50.11 1.53 o
9 4 1 50.25 50.85 1.75 o
9 4 2 6.55 7.35 0.28 o
9 4 3 6.45 6.36 0.25 o
9 4 4 1.57 1.53 0.14 o
9 4 5 15.73 16.04 0.52 o
9 4 6 17.37 17.90 0.52 o
9 4 7 78.76 81.14 2.52 o
9 4 8 207.85 213.38 7.04 o
9 4 9 182.16 181.06 4.58 o
9 4 10 6.61 7.08 0.30 o
9 4 11 31.08 31.61 0.96 o
9 4 12 8.82 8.22 0.35 o
9 4 13 0.98 0.84 0.17 o
9 4 14 21.31 21.04 0.69 o
9 4 15 0.93 0.92 0.19 o
9 4 16 6.57 6.41 0.53 o
9 4 17 0.66 0.73 0.21 o
9 4 18 2.59 2.25 0.33 o
9 5 0 0.85 0.85 0.11 o
9 5 1 4.82 5.08 0.21 o
9 5 2 10.00 10.82 0.46 o
9 5 3 138.23 128.72 3.21 o
9 5 6 6.00 6.31 0.27 o
9 5 7 1.34 1.29 0.15 o
9 5 8 10.81 10.81 0.37 o
9 5 9 6.76 7.22 0.34 o
9 5 10 3.88 3.74 0.22 o
9 5 11 5.24 5.40 0.28 o
9 5 12 16.17 16.17 0.52 o
9 5 13 8.89 8.71 0.39 o
9 5 14 6.60 7.18 0.40 o
9 5 15 3.46 3.47 0.29 o
9 5 17 1.86 1.65 0.34 o
9 5 18 8.41 7.69 0.85 o
9 6 0 29.08 28.08 0.74 o
9 6 1 31.04 31.19 0.79 o
9 6 2 3.13 3.07 0.19 o
9 6 3 3.70 4.18 0.21 o
9 6 4 0.68 0.56 0.13 o
9 6 5 9.55 9.96 0.34 o
9 6 6 13.65 13.87 0.47 o
9 6 7 49.57 48.20 1.27 o
9 6 8 132.91 134.78 3.59 o
9 6 9 119.10 118.40 3.02 o
9 6 10 5.02 4.92 0.25 o
9 6 11 19.78 20.21 0.64 o
9 6 12 5.60 7.53 0.32 o
9 6 13 0.79 0.91 0.23 o
9 6 14 12.81 12.87 0.51 o
9 6 16 4.36 4.29 0.43 o
9 7 1 3.22 3.24 0.20 o
9 7 2 6.33 6.53 0.27 o
9 7 3 77.19 79.28 2.33 o
9 7 6 3.59 3.48 0.21 o
9 7 7 1.36 1.45 0.15 o
9 7 8 5.78 5.96 0.28 o
9 7 9 3.32 3.21 0.20 o
9 7 10 1.84 1.62 0.16 o
9 7 11 3.29 3.19 0.33 o
9 7 12 9.29 8.78 0.39 o
9 7 13 6.05 6.34 0.44 o
9 7 14 3.28 3.43 0.34 o
9 7 15 2.22 2.47 0.24 o
9 8 0 14.75 14.26 0.45 o
9 8 1 16.06 15.79 0.46 o
9 8 2 1.41 1.45 0.15 o
9 8 3 1.54 1.46 0.15 o
9 8 5 5.00 5.16 0.23 o
9 8 6 9.24 9.13 0.30 o
9 8 7 26.70 27.51 0.98 o
9 8 8 71.79 72.24 1.88 o
9 8 9 66.35 67.91 2.58 o
9 8 10 3.34 3.76 0.25 o
9 8 11 10.51 10.26 0.40 o
9 8 12 3.08 2.95 0.21 o
9 8 14 6.37 6.10 0.30 o
9 9 0 0.05 0.69 0.14 o
9 9 1 1.70 1.70 0.15 o
9 9 2 3.63 3.37 0.20 o
9 9 3 37.08 37.56 1.20 o
9 9 6 1.78 2.03 0.16 o
9 9 7 1.06 0.95 0.15 o
9 9 8 2.68 2.39 0.21 o
9 9 9 1.34 1.53 0.18 o
9 9 10 0.71 0.47 0.16 o
9 9 11 1.74 1.72 0.16 o
9 9 12 4.45 4.60 0.27 o
9 10 0 6.31 6.32 0.28 o
9 10 1 6.96 7.09 0.29 o
9 10 2 0.54 0.60 0.15 o
9 10 3 0.46 0.50 0.15 o
9 10 5 2.18 2.09 0.17 o
9 10 6 5.43 5.47 0.27 o
9 10 7 12.38 12.57 0.47 o
9 10 8 32.91 34.26 1.41 o
9 10 9 31.64 32.25 1.45 o
9 10 10 1.93 1.98 0.18 o
9 11 1 0.80 0.70 0.15 o
9 11 2 1.79 1.83 0.20 o
9 11 3 15.06 14.56 0.46 o
9 11 6 0.73 0.61 0.15 o
9 11 7 0.67 0.66 0.18 o
9 12 0 2.28 2.54 0.20 o
9 12 1 2.51 2.34 0.21 o
10 0 0 10.53 10.42 1.24 o
10 0 1 16.29 15.33 1.47 o
10 0 3 36.08 37.66 1.21 o
10 0 4 164.72 164.57 4.61 o
10 0 5 1.41 0.88 0.20 o
10 0 6 44.00 43.11 1.33 o
10 0 7 37.27 37.51 1.21 o
10 0 8 1.17 0.89 0.22 o
10 0 9 9.21 9.53 0.46 o
10 0 10 9.95 11.13 0.66 o
10 0 11 10.11 9.81 0.57 o
10 0 12 1.98 1.86 0.49 o
10 0 14 4.38 4.66 0.76 o
10 0 15 34.62 32.99 1.35 o
10 0 17 6.12 5.97 0.80 o
10 1 0 6.54 7.40 0.59 o
10 1 1 9.59 10.07 0.40 o
10 1 2 13.22 13.45 0.44 o
10 1 3 320.41 317.26 8.11 o
10 1 4 12.18 12.23 0.40 o
10 1 5 4.29 4.36 0.25 o
10 1 6 4.08 4.58 0.25 o
10 1 7 24.74 25.36 0.81 o
10 1 8 93.52 93.58 2.52 o
10 1 9 61.36 61.08 1.67 o
10 1 10 98.81 99.70 2.65 o
10 1 11 13.79 13.92 0.68 o
10 1 12 3.45 3.43 0.26 o
10 1 14 3.19 3.09 0.46 o
10 1 15 6.73 6.22 0.38 o
10 1 16 24.86 24.96 0.85 o
10 1 17 18.12 17.48 0.59 o
10 1 18 40.94 40.51 1.19 o
10 2 0 10.33 10.67 0.51 o
10 2 1 15.36 15.46 0.52 o
10 2 3 31.48 33.14 1.32 o
10 2 4 146.32 142.31 3.64 o
10 2 5 1.20 1.02 0.16 o
10 2 6 40.09 39.21 1.12 o
10 2 7 34.43 32.24 0.97 o
10 2 8 0.99 0.99 0.16 o
10 2 9 8.32 7.85 0.35 o
10 2 10 9.45 8.85 0.38 o
10 2 11 9.42 9.56 0.37 o
10 2 12 1.69 1.39 0.18 o
10 2 14 3.93 3.98 0.29 o
10 2 15 31.22 30.93 0.93 o
10 2 17 5.73 5.89 0.34 o
10 3 0 5.39 5.58 0.25 o
10 3 1 8.51 8.57 0.35 o
10 3 2 9.81 9.33 0.34 o
10 3 3 258.41 270.79 12.00 o
10 3 4 8.55 8.74 0.39 o
10 3 5 3.15 3.36 0.28 o
10 3 6 2.80 2.76 0.25 o
10 3 7 19.03 18.88 0.70 o
10 3 8 78.75 77.29 2.08 o
10 3 9 50.82 50.57 1.42 o
10 3 10 81.72 79.75 2.30 o
10 3 11 11.48 11.05 0.51 o
10 3 12 2.76 2.84 0.26 o
10 3 14 2.83 2.71 0.36 o
10 3 15 5.21 4.87 0.34 o
10 3 16 21.00 20.05 0.73 o
10 3 17 15.50 15.03 0.52 o
10 3 18 35.00 33.92 1.65 o
10 4 0 8.75 8.96 0.30 o
10 4 1 13.11 13.43 0.40 o
10 4 3 20.70 21.18 0.81 o
10 4 4 106.23 107.76 3.98 o
10 4 6 29.33 30.35 1.21 o
10 4 7 27.60 28.66 0.88 o
10 4 8 0.62 0.68 0.15 o
10 4 9 6.26 6.36 0.44 o
10 4 10 7.82 8.10 0.35 o
10 4 11 7.81 8.04 0.39 o
10 4 12 0.96 0.83 0.18 o
10 4 14 2.88 2.84 0.25 o
10 4 15 22.89 22.44 0.66 o
10 4 17 4.66 4.98 0.32 o
10 5 0 3.98 4.06 0.19 o
10 5 1 5.52 5.66 0.23 o
10 5 2 5.92 6.09 0.26 o
10 5 3 175.24 171.09 4.66 o
10 5 4 4.98 5.31 0.25 o
10 5 5 2.20 2.20 0.17 o
10 5 6 1.52 1.57 0.18 o
10 5 7 11.23 11.34 0.39 o
10 5 8 55.60 55.31 1.77 o
10 5 9 34.87 36.47 1.33 o
10 5 10 55.53 57.67 1.93 o
10 5 11 7.62 7.95 0.34 o
10 5 12 1.70 1.41 0.21 o
10 5 14 2.21 2.14 0.40 o
10 5 15 3.06 3.12 0.25 o
10 5 16 14.95 16.41 0.62 o
10 6 0 6.01 5.68 0.25 o
10 6 1 10.02 10.38 0.45 o
10 6 3 10.42 11.05 0.44 o
10 6 4 65.03 64.99 2.60 o
10 6 6 17.40 17.78 0.57 o
10 6 7 19.22 19.54 0.64 o
10 6 9 3.95 4.36 0.24 o
10 6 10 5.50 5.62 0.28 o
10 6 11 5.77 5.63 0.28 o
10 6 14 1.72 1.78 0.23 o
10 6 15 13.67 13.19 0.94 o
10 7 0 2.59 2.57 0.18 o
10 7 1 3.12 3.33 0.21 o
10 7 2 3.10 3.21 0.18 o
10 7 3 101.61 102.71 3.77 o
10 7 4 2.38 2.40 0.19 o
10 7 5 1.31 1.17 0.15 o
10 7 7 5.11 4.71 0.25 o
10 7 8 32.98 33.59 1.17 o
10 7 9 19.84 20.17 0.61 o
10 7 10 31.37 32.22 1.28 o
10 7 11 4.10 4.01 0.28 o
10 7 12 0.83 0.92 0.15 o
10 7 13 0.62 0.71 0.18 o
10 7 14 1.52 1.50 0.43 o
10 8 0 3.59 3.33 0.20 o
10 8 1 6.54 6.64 0.27 o
10 8 3 4.14 4.36 0.22 o
10 8 4 33.31 34.31 1.09 o
10 8 6 8.72 9.46 0.34 o
10 8 7 11.35 11.08 0.59 o
10 8 9 2.10 2.08 0.23 o
10 8 10 3.37 3.19 0.23 o
10 8 11 3.69 3.62 0.28 o
10 9 0 1.56 1.62 0.15 o
10 9 1 1.75 1.89 0.16 o
10 9 2 1.45 1.51 0.16 o
10 9 3 50.48 50.69 1.53 o
10 9 4 0.90 1.01 0.16 o
10 9 5 0.63 0.71 0.15 o
10 9 7 1.72 1.50 0.16 o
10 9 8 16.61 16.95 0.54 o
10 9 9 9.37 9.96 0.34 o
10 9 10 14.91 14.29 0.47 o
10 10 0 1.88 2.55 0.22 o
10 10 1 3.65 3.79 0.23 o
10 10 3 1.25 1.12 0.15 o
10 10 4 14.34 14.30 0.49 o
10 10 6 3.66 3.81 0.23 o
10 10 7 5.65 5.30 0.27 o
10 11 0 0.85 0.93 0.22 o
10 11 1 0.87 0.88 0.14 o
10 11 2 0.60 0.59 0.14 o
10 11 3 21.61 21.79 0.74 o
11 0 0 27.83 28.62 1.61 o
11 0 1 32.51 33.68 1.65 o
11 0 2 29.64 29.92 1.03 o
11 0 3 2.76 3.08 0.43 o
11 0 4 1.04 1.09 0.30 o
11 0 5 1.78 1.91 0.45 o
11 0 6 22.44 23.21 0.76 o
11 0 7 28.12 28.04 0.91 o
11 0 8 102.10 102.72 3.08 o
11 0 9 3.97 4.45 0.45 o
11 0 10 21.62 21.11 0.86 o
11 0 11 14.84 14.00 0.68 o
11 0 12 2.70 1.98 0.34 o
11 0 13 16.88 17.35 1.05 o
11 0 14 6.93 6.72 1.28 o
11 0 15 5.69 5.02 0.42 o
11 1 0 217.61 211.19 6.05 o
11 1 1 6.95 6.36 0.54 o
11 1 2 1.38 1.67 0.28 o
11 1 3 68.87 69.62 1.89 o
11 1 4 40.34 39.94 1.05 o
11 1 5 38.34 39.04 1.01 o
11 1 6 18.83 18.74 0.56 o
11 1 7 15.31 15.62 0.52 o
11 1 8 19.05 19.80 0.59 o
11 1 9 217.77 212.95 5.75 o
11 1 10 1.12 1.10 0.16 o
11 1 11 29.05 27.58 0.82 o
11 1 12 0.60 0.63 0.18 o
11 1 15 7.24 7.13 0.38 o
11 1 16 3.25 3.08 0.32 o
11 1 17 59.30 56.96 1.52 o
11 2 0 24.56 24.59 0.83 o
11 2 1 30.04 30.63 0.92 o
11 2 2 27.55 27.51 0.81 o
11 2 3 2.84 2.85 0.23 o
11 2 4 1.21 1.37 0.17 o
11 2 5 1.72 1.91 0.20 o
11 2 6 20.59 20.46 0.69 o
11 2 7 26.13 25.54 0.76 o
11 2 8 93.52 88.95 2.46 o
11 2 9 3.68 4.44 0.28 o
11 2 10 19.25 19.37 0.63 o
11 2 11 13.90 14.20 0.62 o
11 2 12 2.45 2.36 0.23 o
11 2 13 15.23 14.51 0.85 o
11 2 14 6.30 6.42 0.37 o
11 2 15 5.15 5.33 0.34 o
11 2 16 0.85 1.18 0.21 o
11 3 0 179.50 180.45 5.34 o
11 3 1 4.50 4.67 0.25 o
11 3 2 0.91 0.94 0.15 o
11 3 3 58.36 60.81 2.52 o
11 3 4 32.15 31.23 0.95 o
11 3 5 31.90 31.16 0.95 o
11 3 6 16.52 16.62 0.52 o
11 3 7 13.03 13.29 0.60 o
11 3 8 16.25 17.41 0.65 o
11 3 9 182.20 173.74 5.07 o
11 3 11 24.41 24.25 0.79 o
11 3 15 6.16 5.86 0.44 o
11 3 16 2.93 2.29 0.39 o
11 4 0 17.08 17.51 0.50 o
11 4 1 23.79 23.44 0.82 o
11 4 2 22.36 22.69 0.88 o
11 4 3 2.91 3.29 0.27 o
11 4 4 1.32 1.13 0.18 o
11 4 5 1.39 1.63 0.20 o
11 4 6 15.48 15.93 0.74 o
11 4 7 21.25 20.18 0.72 o
11 4 8 71.47 69.91 2.77 o
11 4 9 2.78 2.72 0.25 o
11 4 10 13.67 13.95 0.49 o
11 4 11 11.30 11.63 0.49 o
11 4 12 1.83 1.56 0.21 o
11 4 13 11.22 10.92 0.45 o
11 4 14 4.64 4.80 0.29 o
11 4 15 3.83 3.61 0.26 o
11 5 0 122.60 122.64 4.00 o
11 5 1 1.97 2.19 0.16 o
11 5 2 0.41 0.40 0.13 o
11 5 3 43.01 43.64 1.92 o
11 5 4 21.15 22.09 0.97 o
11 5 5 21.09 21.67 0.86 o
11 5 6 12.67 13.31 0.44 o
11 5 7 9.39 9.75 0.44 o
11 5 8 11.43 12.40 0.44 o
11 5 9 127.85 125.35 4.47 o
11 5 11 17.36 17.53 0.86 o
11 5 15 4.42 4.37 0.78 o
11 6 0 9.61 9.88 0.37 o
11 6 1 16.53 17.23 0.58 o
11 6 2 15.93 16.34 0.56 o
11 6 3 2.71 2.67 0.20 o
11 6 4 1.11 1.22 0.15 o
11 6 5 0.89 0.83 0.15 o
11 6 6 9.56 10.11 0.35 o
11 6 7 15.03 15.72 0.50 o
11 6 8 45.60 46.55 2.10 o
11 6 9 1.66 1.93 0.20 o
11 6 10 7.80 7.89 0.38 o
11 6 11 7.92 7.57 0.35 o
11 6 12 1.14 0.82 0.18 o
11 6 13 6.83 6.63 0.28 o
11 6 14 2.77 2.87 0.68 o
11 7 0 71.00 71.15 2.69 o
11 7 3 27.35 26.37 0.78 o
11 7 4 11.38 11.53 0.52 o
11 7 5 11.52 12.23 0.42 o
11 7 6 8.45 8.31 0.35 o
11 7 7 5.72 5.83 0.29 o
11 7 8 6.75 7.01 0.47 o
11 7 9 75.24 76.21 3.33 o
11 7 11 10.42 10.33 0.37 o
11 8 0 4.34 4.41 0.27 o
11 8 1 10.24 10.49 0.35 o
11 8 2 9.77 9.22 0.33 o
11 8 3 2.28 1.96 0.23 o
11 8 4 0.86 0.73 0.16 o
11 8 6 5.04 5.20 0.27 o
11 8 7 9.08 8.99 0.33 o
11 8 8 24.53 25.21 0.99 o
11 8 9 0.83 0.83 0.15 o
11 8 10 3.55 3.49 0.23 o
11 8 11 4.84 4.80 0.44 o
11 9 0 34.96 35.75 1.33 o
11 9 3 14.86 14.84 0.61 o
11 9 4 4.92 4.95 0.25 o
11 9 5 5.39 5.36 0.33 o
11 9 6 4.88 4.46 0.24 o
11 9 7 2.95 2.79 0.25 o
11 9 8 3.37 3.52 0.23 o
11 10 0 1.52 1.53 0.16 o
11 10 1 5.58 5.69 0.28 o
11 10 2 5.10 5.03 0.38 o
11 10 3 1.67 1.53 0.17 o
11 10 4 0.58 0.58 0.14 o
11 10 6 2.24 1.95 0.23 o
11 11 0 14.59 14.52 0.44 o
12 0 1 38.07 39.66 2.11 o
12 0 2 31.93 33.45 1.17 o
12 0 3 39.19 39.14 1.33 o
12 0 4 9.50 9.53 1.04 o
12 0 5 7.21 8.03 0.57 o
12 0 6 12.39 13.68 0.72 o
12 0 7 11.94 12.60 0.73 o
12 0 10 21.02 21.02 0.86 o
12 0 12 50.55 48.01 1.45 o
12 0 13 1.22 1.05 0.32 o
12 0 14 13.05 13.23 0.56 o
12 1 0 94.60 95.21 2.76 o
12 1 1 91.84 89.93 2.64 o
12 1 2 10.88 10.53 0.69 o
12 1 3 8.05 9.11 0.54 o
12 1 5 42.66 43.53 1.25 o
12 1 6 73.90 74.67 1.94 o
12 1 7 0.84 1.14 0.20 o
12 1 8 2.51 2.49 0.25 o
12 1 9 8.30 8.00 0.42 o
12 1 10 1.03 0.80 0.20 o
12 1 11 4.30 4.23 0.32 o
12 1 12 3.43 3.86 0.28 o
12 1 13 19.16 18.36 0.59 o
12 1 14 1.00 0.71 0.18 o
12 1 15 27.67 26.78 0.92 o
12 2 0 4.62 3.98 0.33 o
12 2 1 34.45 34.89 1.52 o
12 2 2 29.17 28.82 0.90 o
12 2 3 36.06 35.97 0.99 o
12 2 4 8.76 8.58 0.59 o
12 2 5 6.06 5.86 0.31 o
12 2 6 11.38 12.30 0.44 o
12 2 7 11.36 11.76 0.42 o
12 2 10 19.21 19.00 0.71 o
12 2 12 46.46 46.72 1.41 o
12 2 13 1.13 1.05 0.22 o
12 2 14 11.88 11.78 0.46 o
12 3 0 82.52 81.41 2.06 o
12 3 1 75.95 77.62 2.64 o
12 3 2 9.26 9.22 0.35 o
12 3 3 5.99 6.99 0.45 o
12 3 5 34.56 35.22 1.22 o
12 3 6 61.90 60.25 1.71 o
12 3 7 0.71 0.87 0.18 o
12 3 8 1.66 1.65 0.24 o
12 3 9 7.18 7.09 0.40 o
12 3 11 3.52 3.40 0.27 o
12 3 12 2.66 3.00 0.34 o
12 3 13 16.20 16.51 0.65 o
12 3 14 0.75 0.63 0.20 o
12 4 0 3.34 3.96 0.23 o
12 4 1 24.76 25.15 0.67 o
12 4 2 22.67 22.38 1.05 o
12 4 3 27.93 28.32 0.99 o
12 4 4 7.11 7.29 0.33 o
12 4 5 3.58 3.56 0.30 o
12 4 6 8.85 9.08 0.42 o
12 4 7 9.52 9.99 0.47 o
12 4 10 14.68 13.99 0.54 o
12 4 12 36.17 34.84 1.00 o
12 4 13 0.88 0.93 0.18 o
12 4 14 8.91 8.82 0.84 o
12 5 0 62.31 61.41 1.56 o
12 5 1 51.76 52.49 1.70 o
12 5 2 7.05 6.97 0.30 o
12 5 3 3.53 3.80 0.25 o
12 5 5 23.08 23.60 0.86 o
12 5 6 43.87 43.76 1.69 o
12 5 7 0.55 0.62 0.20 o
12 5 8 0.75 0.81 0.25 o
12 5 9 5.29 5.23 0.39 o
12 5 11 2.39 2.23 0.25 o
12 5 12 1.57 1.69 0.21 o
12 5 13 11.54 11.10 0.43 o
12 6 0 1.97 1.74 0.18 o
12 6 1 14.16 14.54 0.59 o
12 6 2 15.12 16.02 0.56 o
12 6 3 18.45 19.35 0.84 o
12 6 4 5.16 5.19 0.28 o
12 6 5 1.40 1.26 0.22 o
12 6 6 5.81 5.75 0.32 o
12 6 7 6.94 7.32 0.47 o
12 6 10 9.45 9.61 0.38 o
12 6 12 23.92 23.69 1.19 o
12 7 0 40.50 41.02 1.97 o
12 7 1 29.62 28.64 1.14 o
12 7 2 4.53 4.84 0.27 o
12 7 3 1.64 1.67 0.20 o
12 7 5 12.67 12.78 0.44 o
12 7 6 26.33 25.27 0.76 o
12 7 9 3.37 3.51 0.23 o
12 7 10 0.41 0.58 0.15 o
12 8 0 1.04 1.13 0.19 o
12 8 1 6.68 6.75 0.52 o
12 8 2 8.56 8.57 0.40 o
12 8 3 10.47 10.12 0.41 o
12 8 4 3.21 3.10 0.23 o
12 8 6 3.25 3.03 0.34 o
12 8 7 4.51 4.45 0.25 o
12 9 0 22.67 23.12 0.92 o
12 9 1 14.29 14.56 0.71 o
12 9 2 2.45 2.60 0.21 o
12 9 3 0.57 0.89 0.19 o
12 9 5 5.66 5.79 0.30 o
12 9 6 13.40 12.88 0.71 o
12 10 0 0.49 0.56 0.16 o
12 10 1 2.57 2.96 0.28 o
12 10 2 4.12 3.77 0.24 o
13 0 4 81.88 84.44 2.67 o
13 0 5 1.94 1.93 0.51 o
13 0 6 19.13 19.25 0.87 o
13 0 8 2.54 2.30 0.59 o
13 0 10 53.34 54.67 1.96 o
13 0 12 5.27 5.22 1.64 o
13 0 13 4.90 5.55 0.39 o
13 1 0 54.46 56.44 1.74 o
13 1 1 13.20 13.21 0.71 o
13 1 2 3.56 3.76 0.37 o
13 1 4 28.25 29.47 0.86 o
13 1 5 29.39 29.06 0.92 o
13 1 6 20.86 21.12 0.79 o
13 1 7 11.02 11.17 0.50 o
13 1 8 7.58 7.35 0.40 o
13 1 9 12.99 12.73 0.61 o
13 1 10 4.93 4.99 0.35 o
13 1 11 4.25 4.08 0.64 o
13 1 12 22.70 21.94 0.69 o
13 2 0 3.22 2.86 0.35 o
13 2 1 100.81 102.11 2.77 o
13 2 2 34.74 35.94 1.09 o
13 2 4 74.69 74.82 2.54 o
13 2 5 1.87 2.23 0.29 o
13 2 6 18.03 18.04 0.59 o
13 2 8 2.36 2.19 0.32 o
13 2 9 1.02 1.00 0.23 o
13 2 10 48.35 48.81 1.35 o
13 2 12 4.97 4.95 0.32 o
13 2 13 4.38 4.11 0.30 o
13 3 0 46.57 48.76 1.59 o
13 3 1 12.01 11.72 0.54 o
13 3 2 3.07 2.94 0.30 o
13 3 3 2.18 2.08 0.27 o
13 3 4 22.98 22.18 0.76 o
13 3 5 24.18 22.73 0.97 o
13 3 6 16.65 17.33 0.68 o
13 3 7 9.44 9.10 0.52 o
13 3 8 6.31 5.19 0.43 o
13 3 9 10.86 9.76 0.52 o
13 3 10 4.11 4.13 0.44 o
13 3 11 3.49 3.24 0.37 o
13 3 12 18.77 17.84 0.58 o
13 4 0 2.46 2.73 0.23 o
13 4 1 74.59 74.26 1.96 o
13 4 2 26.08 25.65 1.07 o
13 4 4 56.88 55.83 1.90 o
13 4 5 1.67 1.83 0.23 o
13 4 6 14.79 14.14 0.56 o
13 4 8 1.84 1.48 0.27 o
13 4 10 36.01 35.14 1.10 o
13 4 12 4.15 4.03 0.36 o
13 5 0 34.76 34.91 0.95 o
13 5 1 9.62 9.19 0.37 o
13 5 2 2.10 2.25 0.23 o
13 5 3 1.85 1.77 0.19 o
13 5 4 15.42 14.97 0.57 o
13 5 5 16.38 16.61 0.87 o
13 5 6 10.69 9.35 0.52 o
13 5 7 7.10 7.01 0.39 o
13 5 8 4.42 4.46 0.33 o
13 5 9 7.57 6.93 0.37 o
13 5 10 2.91 3.45 0.35 o
13 5 11 2.34 1.69 0.29 o
13 6 0 1.52 1.46 0.19 o
13 6 1 45.99 49.16 1.47 o
13 6 2 16.31 18.08 0.63 o
13 6 4 36.11 37.48 1.09 o
13 6 5 1.32 1.12 0.18 o
13 6 6 10.42 10.53 0.39 o
13 6 8 1.20 1.00 0.24 o
13 6 10 22.10 20.67 0.62 o
13 7 0 22.40 22.71 0.74 o
13 7 1 6.78 6.55 0.35 o
13 7 2 1.23 1.20 0.18 o
13 7 3 1.35 1.37 0.20 o
13 7 4 8.58 8.53 0.48 o
13 7 5 9.31 9.22 0.35 o
13 7 6 5.54 5.44 0.32 o
13 7 7 4.64 4.72 0.30 o
13 7 8 2.63 2.44 0.25 o
13 8 0 0.81 0.90 0.18 o
13 8 1 23.24 22.33 0.68 o
13 8 2 8.52 8.38 0.40 o
13 8 4 19.14 20.09 0.81 o
13 8 5 0.89 0.87 0.16 o
13 8 6 6.33 6.31 0.28 o
13 9 0 12.37 12.92 0.46 o
13 9 1 4.17 4.07 0.27 o
13 9 3 0.84 0.86 0.18 o
14 0 7 23.40 24.92 1.18 o
14 0 8 27.47 27.74 1.23 o
14 0 11 3.02 1.92 0.61 o
14 1 1 25.17 25.90 1.09 o
14 1 2 15.62 15.46 0.61 o
14 1 3 5.88 6.75 0.43 o
14 1 4 2.05 2.01 0.27 o
14 1 5 12.78 12.15 0.94 o
14 1 7 6.24 6.24 0.45 o
14 1 8 19.75 20.48 0.80 o
14 1 9 6.67 6.58 0.62 o
14 1 10 36.89 37.38 1.38 o
14 2 0 42.90 44.84 1.31 o
14 2 1 29.44 29.95 1.41 o
14 2 2 24.34 24.96 0.83 o
14 2 3 6.59 5.96 0.66 o
14 2 7 21.57 21.41 1.14 o
14 2 8 25.40 25.34 1.36 o
14 2 9 0.91 0.94 0.27 o
14 2 11 2.79 2.71 0.25 o
14 3 1 21.97 21.88 0.70 o
14 3 2 13.11 13.79 1.23 o
14 3 3 5.07 4.51 0.52 o
14 3 4 1.97 1.98 0.35 o
14 3 5 10.17 9.67 0.52 o
14 3 7 5.27 5.31 0.69 o
14 3 8 16.01 15.15 0.62 o
14 3 9 5.57 5.56 0.45 o
14 3 10 30.47 28.32 0.90 o
14 4 0 31.92 33.05 1.46 o
14 4 1 21.05 21.54 0.78 o
14 4 2 18.96 18.38 0.73 o
14 4 3 4.95 4.91 0.46 o
14 4 7 16.95 15.92 0.66 o
14 4 8 20.05 19.45 0.71 o
14 5 1 16.64 16.41 1.07 o
14 5 2 9.06 9.01 0.83 o
14 5 3 3.66 3.26 0.33 o
14 5 5 6.55 5.88 0.43 o
14 5 7 3.75 3.41 0.71 o
14 5 8 10.57 9.11 1.23 o
14 5 9 3.87 3.91 0.78 o
14 6 0 19.85 19.22 0.74 o
14 6 1 12.36 11.71 1.09 o
14 6 2 12.53 12.77 0.51 o
14 6 3 3.05 3.00 0.28 o
14 6 7 11.42 10.52 0.73 o
14 7 1 10.84 11.46 0.47 o
14 7 2 5.19 5.34 0.31 o
14 7 3 2.23 2.28 0.32 o
14 7 5 3.39 3.33 0.29 o
14 8 0 10.40 10.84 0.40 o
14 8 1 5.88 5.60 0.32 o
14 8 2 6.96 7.27 0.33 o
14 8 3 1.56 1.60 0.28 o
15 0 1 3.72 3.16 0.77 o
15 0 2 3.71 3.27 0.72 o
15 0 5 14.77 15.61 1.00 o
15 0 6 7.37 8.64 0.86 o
15 0 7 7.61 7.05 0.85 o
15 0 8 74.23 74.67 2.51 o
15 1 0 12.08 11.78 0.88 o
15 1 3 10.11 10.38 0.80 o
15 1 5 43.37 44.27 1.60 o
15 1 6 11.78 12.11 0.95 o
15 1 7 3.40 2.51 0.63 o
15 1 8 11.13 12.14 0.53 o
15 2 1 3.44 3.23 0.62 o
15 2 2 3.43 3.06 0.36 o
15 2 5 13.10 12.52 0.95 o
15 2 6 6.52 7.16 0.83 o
15 2 7 7.21 6.62 0.81 o
15 2 8 67.97 66.76 2.26 o
15 3 0 9.67 9.71 0.45 o
15 3 3 8.28 7.97 0.48 o
15 3 5 35.98 33.87 1.34 o
15 3 6 9.97 10.22 0.90 o
15 3 7 2.95 2.18 0.65 o
15 3 8 9.94 9.74 0.90 o
15 4 1 2.73 2.32 0.32 o
15 4 2 2.71 2.87 0.35 o
15 4 5 9.21 8.87 1.45 o
15 4 6 4.52 4.54 0.54 o
15 4 7 6.10 6.17 0.83 o
15 5 0 6.24 6.73 0.52 o
15 5 3 5.65 5.38 0.41 o
15 5 5 24.85 24.35 0.81 o
15 5 6 7.17 7.06 0.42 o
15 6 1 1.85 1.75 0.27 o
15 6 2 1.87 1.73 0.26 o
15 7 0 3.30 3.29 0.32 o
16 0 1 25.59 26.89 1.19 o
16 0 2 16.00 16.54 1.00 o
16 0 3 5.56 5.65 0.79 o
16 0 4 7.65 8.44 0.83 o
16 1 0 16.87 17.23 1.23 o
16 1 1 5.39 5.89 0.44 o
16 1 4 10.88 12.01 0.92 o
16 1 5 12.04 12.98 0.95 o
16 1 6 12.68 12.95 0.94 o
16 2 1 23.44 22.89 0.79 o
16 2 2 14.73 14.59 0.61 o
16 2 3 4.87 4.85 0.40 o
16 2 4 6.88 6.58 0.42 o
16 3 0 14.14 14.64 0.60 o
16 3 1 3.96 3.76 0.39 o
16 3 4 8.92 8.87 0.47 o
16 3 5 10.09 10.99 0.90 o
16 4 1 18.11 18.10 0.68 o
16 4 2 11.56 11.29 0.52 o
16 4 3 3.30 3.29 0.78 o
16 4 4 5.01 5.34 0.79 o
16 5 0 9.99 9.89 0.49 o
16 5 1 2.12 3.15 0.77 o
17 0 0 7.89 8.84 0.88 o
17 0 2 34.76 36.30 1.28 o
17 0 3 8.30 8.62 0.83 o
17 1 0 6.21 6.20 0.36 o
17 1 1 2.91 3.25 0.28 o
17 1 2 24.59 25.54 0.81 o
17 1 3 24.41 23.53 1.18 o
17 2 0 7.14 7.26 0.51 o
17 2 1 1.80 1.88 0.29 o
17 2 2 31.83 32.38 0.98 o
17 3 0 4.82 4.75 0.31 o
17 3 1 2.27 2.61 0.47 o
