#------------------------------------------------------------------------------
#$Date: 2016-03-24 03:31:49 +0200 (Thu, 24 Mar 2016) $
#$Revision: 179635 $
#$URL: svn://www.crystallography.net/cod/cif/4/50/99/4509940.cif $
#------------------------------------------------------------------------------
#
# This file is available in the Crystallography Open Database (COD),
# http://www.crystallography.net/
#
# All data on this site have been placed in the public domain by the
# contributors.
#
data_4509940
loop_
_publ_author_name
'Dey, Sanjoy Kumar'
'Saha, Rajat'
'Biswas, Susobhan'
'Layek, Animesh'
'Middya, Somnath'
'Steele, Ian M.'
'Fleck, Michel'
'Ray, Partha Pratim'
'Kumar, Sanjay'
_publ_section_title
;
 Tetrabromoterepthalic Acid in Designing Co-crystals and Salts:
 Modification of Optical Properties and Schottky Barrier Effect
;
_journal_issue                   1
_journal_name_full               'Crystal Growth &amp; Design'
_journal_page_first              207
_journal_paper_doi               10.1021/cg4014009
_journal_volume                  14
_journal_year                    2014
_chemical_formula_sum            'C18 H14 Br4 N2 O6'
_chemical_formula_weight         673.91
_chemical_name_systematic        ' ?'
_space_group_IT_number           2
_symmetry_cell_setting           triclinic
_symmetry_space_group_name_Hall  '-P 1'
_symmetry_space_group_name_H-M   'P -1'
_audit_creation_date             2013-03-17T22:37
_audit_creation_method           'from EXP file using GSAS2CIF'
_audit_update_record
' 2013-03-17T22:37  Initial CIF as created by GSAS2CIF'
_cell_angle_alpha                64.0531(10)
_cell_angle_beta                 85.7704(13)
_cell_angle_gamma                73.6886(13)
_cell_formula_units_Z            1
_cell_length_a                   6.4938(7)
_cell_length_b                   9.2279(9)
_cell_length_c                   9.9675(10)
_cell_measurement_temperature    293
_cell_volume                     514.63(9)
_computing_structure_refinement  GSAS
_diffrn_ambient_temperature      293
_diffrn_radiation_probe          x-ray
_diffrn_radiation_wavelength     1.54184
_exptl_absorpt_correction_T_max  1.00000
_exptl_absorpt_correction_T_min  1.00000
_exptl_absorpt_process_details
;   GSAS Absorption/surface roughness correction: function number 0
 No correction is applied.
;
_pd_block_id                     2013-03-17T22:37|AD7|ad7|bruker_d8
_pd_calc_method                  'Rietveld Refinement'
_pd_instr_location               ' ?'
_pd_meas_2theta_range_inc        0.02
_pd_meas_2theta_range_max        74.98
_pd_meas_2theta_range_min        5.0
_pd_meas_number_of_points        3500
_pd_phase_name                   'from E:/AD7_Powder solution/GSAS/final.cif'
_pd_proc_2theta_range_inc        0.02
_pd_proc_2theta_range_max        74.98007
_pd_proc_2theta_range_min        5.00007
_pd_proc_info_datetime           2013-03-17T22:37:23
_pd_proc_info_excluded_regions   ' ?'
_pd_proc_ls_background_function
;   GSAS Background function number 1 with 36 terms.
 Shifted Chebyshev function of 1st kind
      1:    12024.1     2:   -10886.4     3:    4684.97     4:   -933.377    
      5:    360.016     6:    51.3173     7:    1022.62     8:   -1288.34    
      9:    1939.97    10:   -1144.91    11:    413.608    12:    705.080    
     13:   -512.273    14:    373.791    15:    264.643    16:   -22.9647    
     17:    371.426    18:   -137.352    19:    129.500    20:    196.280    
     21:   -53.0444    22:    204.769    23:    59.4496    24:    88.4959    
     25:    128.032    26:   -13.3546    27:    30.1128    28:    125.778    
     29:   -113.234    30:    100.937    31:    43.9276    32:   -61.4709    
     33:    72.7079    34:   -45.8335    35:    47.6736    36:    9.91466    
;
_pd_proc_ls_peak_cutoff          0.00100
_pd_proc_ls_profile_function
;
 CW Profile function number 3 with  19 terms
 Pseudovoigt profile coefficients as parameterized in
 P. Thompson, D.E. Cox & J.B. Hastings (1987). J. Appl. Cryst.,20,79-83.
 Asymmetry correction of L.W. Finger, D.E. Cox & A. P. Jephcoat (1994).
 J. Appl. Cryst.,27,892-900.
 Peak tails are ignored  where the intensity is below 0.0010 times the peak
   Aniso. broadening axis   0.0   0.0   1.0
;
_pd_proc_ls_prof_R_factor        0.0274
_pd_proc_ls_prof_wR_expected     0.0086
_pd_proc_ls_prof_wR_factor       0.0404
_pd_proc_number_of_points        3500
_pd_spec_mounting                ' ?'
_refine_ls_goodness_of_fit_all   4.80
_refine_ls_matrix_type           full
_refine_ls_number_parameters     81
_refine_ls_number_restraints     35
_refine_ls_R_Fsqd_factor         0.15799
_refine_ls_shift/su_max          0.02
_refine_ls_shift/su_mean         0.00
_reflns_d_resolution_high        1.432
_reflns_d_resolution_low         8.948
_reflns_limit_h_max              4
_reflns_limit_h_min              0
_reflns_limit_k_max              6
_reflns_limit_k_min              -5
_reflns_limit_l_max              7
_reflns_limit_l_min              -6
_reflns_number_total             737
_cod_data_source_file            cg4014009_si_004.cif
_cod_data_source_block           3_publ
_cod_depositor_comments
;
The following automatic conversions were performed:

'_geom_bond_publ_flag' value 'N' changed to 'n' according to
/usr/data/users/saulius/automatic-downloads/current/ACS/lib/dictionaries/cif_core.dic
dictionary named 'cif_core.dic' version 2.4.2 from 2011-04-26 (53
times).

'_geom_angle_publ_flag' value 'N' changed to 'n' according
to
/usr/data/users/saulius/automatic-downloads/current/ACS/lib/dictionaries/cif_core.dic
dictionary named 'cif_core.dic' version 2.4.2 from 2011-04-26 (31
time).

Automatic conversion script
Id: cif_fix_values 2281 2013-09-26 08:29:07Z andrius 
;
_cod_original_cell_volume        514.64(13)
_cod_database_code               4509940
#BEGIN Tags that were not found in dictionaries:
_gsas_exptl_extinct_corr_t_min   1.00000
_gsas_exptl_extinct_corr_t_max   1.00000
#END Tags that were not found in dictionaries
loop_
_symmetry_equiv_pos_site_id
_symmetry_equiv_pos_as_xyz
1 +x,+y,+z
-1 -x,-y,-z
loop_
_atom_site_type_symbol
_atom_site_label
_atom_site_fract_x
_atom_site_fract_y
_atom_site_fract_z
_atom_site_occupancy
_atom_site_thermal_displace_type
_atom_site_U_iso_or_equiv
_atom_site_symmetry_multiplicity
Br Br1 0.3940(4) 0.07707(34) 0.28006(24) 1.0 Uiso 0.04 2
Br Br2 0.1703(5) 0.3197(4) 0.45568(28) 1.0 Uiso 0.04 2
O O1 0.3487(20) -0.3328(13) 0.4144(10) 1.0 Uiso 0.04 2
O O2 0.1246(22) -0.1598(14) 0.2177(10) 1.0 Uiso 0.04 2
C C2 0.0746(19) 0.1341(14) 0.4800(18) 1.0 Uiso 0.04 2
C C1 0.1638(17) 0.0351(18) 0.4041(11) 1.0 Uiso 0.04 2
C C3 0.0952(21) -0.1044(13) 0.4280(12) 1.0 Uiso 0.04 2
C C4 0.1953(20) -0.2094(12) 0.3475(8) 1.0 Uiso 0.04 2
N N1 0.385 0.4215 0.7595 1.0 Uiso 0.04 2
H H1 0.4804 0.402 0.7005 1.0 Uiso 0.06 2
C C5 0.2675 0.3166 0.827 1.0 Uiso 0.04 2
H H5 0.289 0.2222 0.8102 1.0 Uiso 0.06 2
C C7 0.0822 0.4829 0.9482 1.0 Uiso 0.04 2
C C8 0.2081 0.59 0.876 1.0 Uiso 0.04 2
H H8 0.1926 0.684 0.8924 1.0 Uiso 0.06 2
C C6 0.116 0.3443 0.9212 1.0 Uiso 0.04 2
H H6 0.0348 0.269 0.9676 1.0 Uiso 0.06 2
C C9 0.356 0.5577 0.78 1.0 Uiso 0.04 2
H H9 0.4368 0.6322 0.7294 1.0 Uiso 0.057 2
O O1W 0.2508 0.9064 0.9261 1.0 Uiso 0.04 2
H H1W1 0.1118 0.9756 0.8781 1.0 Uiso 0.06 2
H H2W1 0.1642 0.9035 1.0272 1.0 Uiso 0.06 2
loop_
_atom_type_symbol
_atom_type_number_in_cell
_atom_type_scat_dispersion_real
_atom_type_scat_dispersion_imag
_atom_type_scat_Cromer_Mann_a1
_atom_type_scat_Cromer_Mann_a2
_atom_type_scat_Cromer_Mann_a3
_atom_type_scat_Cromer_Mann_a4
_atom_type_scat_Cromer_Mann_b1
_atom_type_scat_Cromer_Mann_b2
_atom_type_scat_Cromer_Mann_b3
_atom_type_scat_Cromer_Mann_b4
_atom_type_scat_Cromer_Mann_c
_atom_type_scat_source
Br 4.0 0.000 0.000 17.1789 2.17230 5.23580 16.5796 5.63770 0.26090 3.98510
41.4328 2.95570 International_Tables_Vol_C
O 6.0 0.000 0.000 3.04850 13.2771 2.28680 5.70110 1.54630 0.32390 0.86700
32.9089 0.25080 International_Tables_Vol_C
C 18.0 0.000 0.000 2.31000 20.8439 1.02000 10.2075 1.58860 0.56870 0.86500
51.6512 0.21560 International_Tables_Vol_C
N 2.0 0.000 0.000 12.2126 0.00570 3.13220 9.89330 2.01250 28.9975 1.16630
0.58260 -11.529 International_Tables_Vol_C
H 14.0 0.000 0.000 0.49300 10.5109 0.32291 26.1257 0.14019 3.14236 0.04081
57.7997 0.00304 International_Tables_Vol_C
loop_
_geom_angle_atom_site_label_1
_geom_angle_atom_site_label_2
_geom_angle_atom_site_label_3
_geom_angle
_geom_angle_site_symmetry_1
_geom_angle_site_symmetry_3
_geom_angle_publ_flag
Br2 C2 C1 122.0(6) 1_555 1_555 n
Br2 C2 C3 116.6(8) 1_555 -1_556 n
C1 C2 C3 121.3(5) 1_555 -1_556 n
Br1 C1 C2 120.8(6) 1_555 1_555 n
Br1 C1 C3 118.2(7) 1_555 1_555 n
C2 C1 C3 120.8(4) 1_555 1_555 n
C2 C3 C1 117.7(6) -1_556 1_555 n
C2 C3 C4 122.5(8) -1_556 1_555 n
C1 C3 C4 119.7(6) 1_555 1_555 n
O1 C4 O2 126.1(6) 1_555 1_555 n
O1 C4 C3 116.5(6) 1_555 1_555 n
O2 C4 C3 117.3(6) 1_555 1_555 n
H1 N1 C5 119.838(5) 1_555 1_555 n
H1 N1 C9 119.3949(22) 1_555 1_555 n
C5 N1 C9 120.761(5) 1_555 1_555 n
N1 C5 H5 119.513(5) 1_555 1_555 n
N1 C5 C6 120.995(5) 1_555 1_555 n
H5 C5 C6 119.4910(23) 1_555 1_555 n
C7 C7 C8 120.915(5) -1_567 1_555 n
C7 C7 C6 121.9868(22) -1_567 1_555 n
C8 C7 C6 117.097(5) 1_555 1_555 n
C7 C8 H8 120.010(5) 1_555 1_555 n
C7 C8 C9 120.066(5) 1_555 1_555 n
H8 C8 C9 119.9243(24) 1_555 1_555 n
C5 C6 C7 120.4480(23) 1_555 1_555 n
C5 C6 H6 119.700(5) 1_555 1_555 n
C7 C6 H6 119.852(5) 1_555 1_555 n
N1 C9 C8 120.5931(22) 1_555 1_555 n
N1 C9 H9 119.839(5) 1_555 1_555 n
C8 C9 H9 119.567(5) 1_555 1_555 n
H1W1 O1W H2W1 81.694(6) 1_555 1_555 n
loop_
_geom_bond_atom_site_label_1
_geom_bond_atom_site_label_2
_geom_bond_distance
_geom_bond_site_symmetry_2
_geom_bond_publ_flag
Br1 Br2 3.3782(29) 1_555 n
Br1 C2 2.872(8) 1_555 n
Br1 C1 1.883(4) 1_555 n
Br1 C3 2.826(9) 1_555 n
Br2 Br1 3.3782(29) 1_555 n
Br2 C2 1.894(5) 1_555 n
Br2 C1 2.899(9) 1_555 n
Br2 C3 2.806(10) -1_556 n
O1 C4 1.237(5) 1_555 n
O2 C4 1.243(5) 1_555 n
C2 Br1 2.872(8) 1_555 n
C2 Br2 1.894(5) 1_555 n
C2 C1 1.409(5) 1_555 n
C2 C3 1.390(5) -1_556 n
C1 Br1 1.883(4) 1_555 n
C1 Br2 2.899(9) 1_555 n
C1 C2 1.409(5) 1_555 n
C1 C3 1.397(5) 1_555 n
C3 Br1 2.826(9) 1_555 n
C3 Br2 2.806(10) -1_556 n
C3 C2 1.390(5) -1_556 n
C3 C1 1.397(5) 1_555 n
C3 C4 1.501(5) 1_555 n
C4 O1 1.237(5) 1_555 n
C4 O2 1.243(5) 1_555 n
C4 C3 1.501(5) 1_555 n
N1 H1 0.85922(6) 1_555 n
N1 C5 1.31953(9) 1_555 n
N1 C9 1.32022(12) 1_555 n
H1 N1 0.85922(6) 1_555 n
C5 N1 1.31953(9) 1_555 n
C5 H5 0.92858(9) 1_555 n
C5 C6 1.35917(9) 1_555 n
H5 C5 0.92858(9) 1_555 n
C7 C7 1.49633(10) -1_567 n
C7 C8 1.38123(9) 1_555 n
C7 C6 1.37522(13) 1_555 n
C8 C7 1.38123(9) 1_555 n
C8 H8 0.92838(9) 1_555 n
C8 C9 1.37118(9) 1_555 n
H8 C8 0.92838(9) 1_555 n
C6 C5 1.35917(9) 1_555 n
C6 C7 1.37522(13) 1_555 n
C6 H6 0.92919(6) 1_555 n
H6 C6 0.92919(6) 1_555 n
C9 N1 1.32022(12) 1_555 n
C9 C8 1.37118(9) 1_555 n
C9 H9 0.92870(6) 1_555 n
H9 C9 0.92870(6) 1_555 n
O1W H1W1 0.96126(8) 1_555 n
O1W H2W1 1.11073(9) 1_555 n
H1W1 O1W 0.96126(8) 1_555 n
H2W1 O1W 1.11073(9) 1_555 n
loop_
_pd_meas_counts_total
_pd_proc_ls_weight
_pd_proc_intensity_bkg_calc
_pd_calc_intensity_total
33698.0 0.0 33809.26953 .
33508.0 0.0000298 33591.84375 33591.89844
33625.0 0.0000297 33388.34766 33388.37891
33231.0 0.0000301 33196.37109 33196.38672
33055.0 0.0000303 33013.79688 33013.80078
32573.0 0.0000307 32838.77344 32838.76953
32690.0 0.0000306 32669.68945 32669.67969
32563.0 0.0000307 32505.15039 32505.13672
32500.0 0.0000308 32343.97461 32343.95898
32440.0 0.0000308 32185.14453 32185.12695
31929.0 0.0000313 32027.80859 32027.79492
31829.0 0.0000314 31871.26563 31871.25391
31439.0 0.0000318 31714.95117 31714.94141
31724.0 0.0000315 31558.40234 31558.39648
31272.0 0.0000320 31401.27148 31401.26953
31228.0 0.0000320 31243.31055 31243.31250
31280.0 0.0000320 31084.33789 31084.34180
30938.0 0.0000323 30924.24609 30924.25586
30566.0 0.0000327 30762.99609 30763.00977
30508.0 0.0000328 30600.60352 30600.62109
30153.0 0.0000332 30437.12500 30437.14453
30273.0 0.0000330 30272.65625 30272.67969
29929.0 0.0000334 30107.32422 30107.34961
29927.0 0.0000334 29941.29102 29941.31836
29686.0 0.0000337 29774.72852 29774.75781
29772.0 0.0000336 29607.83398 29607.86523
29242.0 0.0000342 29440.81836 29440.84961
29440.0 0.0000340 29273.88672 29273.91992
28947.0 0.0000345 29107.26953 29107.30469
28945.0 0.0000345 28941.17578 28941.21094
28822.0 0.0000347 28775.84570 28775.87891
28594.0 0.0000350 28611.48438 28611.51758
28517.0 0.0000351 28448.31055 28448.34180
28182.0 0.0000355 28286.52344 28286.55469
27798.0 0.0000360 28126.33203 28126.36328
27826.0 0.0000359 27967.92383 27967.95313
27905.0 0.0000358 27811.47266 27811.50000
27817.0 0.0000359 27657.14453 27657.16992
27818.0 0.0000359 27505.09375 27505.11914
27625.0 0.0000362 27355.46875 27355.49219
27032.0 0.0000370 27208.39453 27208.41602
27078.0 0.0000369 27063.98633 27064.00586
27170.0 0.0000368 26922.34961 26922.36719
27120.0 0.0000369 26783.56836 26783.58398
26784.0 0.0000373 26647.71875 26647.73242
26610.0 0.0000376 26514.86328 26514.87500
26465.0 0.0000378 26385.05469 26385.06641
26467.0 0.0000378 26258.32227 26258.33203
26262.0 0.0000381 26134.70117 26134.70898
26124.0 0.0000383 26014.19727 26014.20508
26099.0 0.0000383 25896.81445 25896.82031
26086.0 0.0000383 25782.54102 25782.54688
25707.0 0.0000389 25671.36328 25671.36719
25543.0 0.0000391 25563.24805 25563.25195
25409.0 0.0000394 25458.16016 25458.16211
25469.0 0.0000393 25356.04688 25356.05078
25379.0 0.0000394 25256.86328 25256.86523
25180.0 0.0000397 25160.54102 25160.54492
25121.0 0.0000398 25067.01367 25067.01758
25091.0 0.0000399 24976.20898 24976.21094
25026.0 0.0000400 24888.04688 24888.04883
24871.0 0.0000402 24802.43945 24802.44336
24638.0 0.0000406 24719.30273 24719.30859
24495.0 0.0000408 24638.53711 24638.54297
24474.0 0.0000409 24560.05859 24560.06641
24466.0 0.0000409 24483.75977 24483.76758
24189.0 0.0000413 24409.54102 24409.55078
24179.0 0.0000414 24337.30664 24337.31641
24380.0 0.0000410 24266.95117 24266.96289
24156.0 0.0000414 24198.36328 24198.37695
23761.0 0.0000421 24131.45117 24131.46484
23696.0 0.0000422 24066.10352 24066.11914
23719.0 0.0000422 24002.22070 24002.23828
23647.0 0.0000423 23939.69727 23939.71484
23686.0 0.0000422 23878.43555 23878.45703
23846.0 0.0000419 23818.33789 23818.36133
23712.0 0.0000422 23759.30664 23759.33008
23486.0 0.0000426 23701.24219 23701.26758
23593.0 0.0000424 23644.05859 23644.08398
23480.0 0.0000426 23587.66211 23587.69141
23177.0 0.0000431 23531.96875 23532.00000
23155.0 0.0000432 23476.89258 23476.92383
23059.0 0.0000434 23422.35352 23422.38867
22866.0 0.0000437 23368.28125 23368.31445
22657.0 0.0000441 23314.59375 23314.63086
22617.0 0.0000442 23261.22656 23261.26367
22735.0 0.0000440 23208.11133 23208.15039
22930.0 0.0000436 23155.19141 23155.23047
22737.0 0.0000440 23102.40039 23102.44141
22406.0 0.0000446 23049.69531 23049.73633
22405.0 0.0000446 22997.01758 22997.06250
22528.0 0.0000444 22944.32617 22944.36914
22554.0 0.0000443 22891.57617 22891.62109
22487.0 0.0000445 22838.73438 22838.78125
22689.0 0.0000441 22785.76563 22785.81055
22769.0 0.0000439 22732.63477 22732.68164
22988.0 0.0000435 22679.32031 22679.36914
23478.0 0.0000426 22625.80273 22625.84961
24008.0 0.0000417 22572.05859 22572.10742
24319.0 0.0000411 22518.07422 22518.12305
24894.0 0.0000402 22463.84180 22463.88867
25793.0 0.0000388 22409.35156 22409.40039
25708.0 0.0000389 22354.59766 22354.64648
24212.0 0.0000413 22299.58203 22299.62891
22612.0 0.0000442 22244.30664 22244.35352
21946.0 0.0000456 22188.77539 22188.82227
21877.0 0.0000457 22132.99805 22133.04297
21889.0 0.0000457 22076.98242 22077.02734
21796.0 0.0000459 22020.74414 22020.78906
21552.0 0.0000464 21964.30078 21964.34570
21548.0 0.0000464 21907.66992 21907.71094
21324.0 0.0000469 21850.87305 21850.91406
21314.0 0.0000469 21793.92969 21793.97070
21151.0 0.0000473 21736.86719 21736.90625
21248.0 0.0000471 21679.71484 21679.75195
21357.0 0.0000468 21622.49805 21622.53516
21249.0 0.0000471 21565.24805 21565.28320
21282.0 0.0000470 21507.99219 21508.02539
21245.0 0.0000471 21450.76953 21450.80078
20827.0 0.0000480 21393.60938 21393.64063
20993.0 0.0000476 21336.54688 21336.57617
21030.0 0.0000476 21279.61914 21279.64648
20981.0 0.0000477 21222.85938 21222.88672
20732.0 0.0000482 21166.31055 21166.33594
20860.0 0.0000479 21110.00391 21110.02734
20814.0 0.0000480 21053.97852 21054.00000
20705.0 0.0000483 20998.27539 20998.29492
20580.0 0.0000486 20942.92969 20942.94922
20492.0 0.0000488 20887.98047 20887.99805
20796.0 0.0000481 20833.46484 20833.48047
20666.0 0.0000484 20779.41992 20779.43359
20768.0 0.0000482 20725.88477 20725.89844
20627.0 0.0000485 20672.89648 20672.90625
20558.0 0.0000486 20620.49023 20620.50000
20426.0 0.0000490 20568.70313 20568.71094
20484.0 0.0000488 20517.56836 20517.57617
20351.0 0.0000491 20467.12109 20467.12891
20297.0 0.0000493 20417.39844 20417.40430
20265.0 0.0000493 20368.42773 20368.43164
20204.0 0.0000495 20320.24414 20320.24609
20233.0 0.0000494 20272.87695 20272.87891
20227.0 0.0000494 20226.35742 20226.35938
20150.0 0.0000496 20180.71289 20180.71289
19985.0 0.0000500 20135.96875 20135.96875
20383.0 0.0000491 20092.15430 20092.15234
20051.0 0.0000499 20049.29297 20049.29102
20170.0 0.0000496 20007.40625 20007.40625
19971.0 0.0000501 19966.51953 19966.51758
19868.0 0.0000503 19926.65234 19926.65039
20112.0 0.0000497 19887.82422 19887.82227
19891.0 0.0000503 19850.05273 19850.05078
19751.0 0.0000506 19813.35156 19813.34961
19951.0 0.0000501 19777.74219 19777.74219
19814.0 0.0000505 19743.23242 19743.23242
19938.0 0.0000502 19709.83984 19709.83984
19580.0 0.0000511 19677.57031 19677.57031
19843.0 0.0000504 19646.43555 19646.43555
19666.0 0.0000508 19616.44141 19616.44141
19914.0 0.0000502 19587.59766 19587.59766
19505.0 0.0000513 19559.90430 19559.90820
19522.0 0.0000512 19533.37109 19533.37500
19706.0 0.0000507 19507.99414 19507.99805
19808.0 0.0000505 19483.77734 19483.78320
19592.0 0.0000510 19460.72070 19460.72852
19779.0 0.0000506 19438.82031 19438.83008
19575.0 0.0000511 19418.07422 19418.08398
19767.0 0.0000506 19398.47852 19398.49023
19633.0 0.0000509 19380.02539 19380.03906
19482.0 0.0000513 19362.71094 19362.72656
19674.0 0.0000508 19346.52344 19346.53906
19495.0 0.0000513 19331.45703 19331.47461
19321.0 0.0000518 19317.49805 19317.51953
19492.0 0.0000513 19304.63672 19304.66016
19491.0 0.0000513 19292.85938 19292.88477
19330.0 0.0000517 19282.15625 19282.18555
19534.0 0.0000512 19272.50977 19272.53906
19175.0 0.0000522 19263.90430 19263.93750
19146.0 0.0000522 19256.32617 19256.36133
19277.0 0.0000519 19249.75586 19249.79297
19142.0 0.0000522 19244.17773 19244.21680
19243.0 0.0000520 19239.57031 19239.61328
19269.0 0.0000519 19235.91797 19235.96289
19268.0 0.0000519 19233.19922 19233.24805
19266.0 0.0000519 19231.39453 19231.44531
19308.0 0.0000518 19230.48047 19230.53516
19274.0 0.0000519 19230.43945 19230.49609
19039.0 0.0000525 19231.25000 19231.30859
19030.0 0.0000525 19232.88477 19232.94531
19176.0 0.0000521 19235.32422 19235.38867
18865.0 0.0000530 19238.54688 19238.61328
18980.0 0.0000527 19242.52734 19242.59766
19185.0 0.0000521 19247.24414 19247.31836
19165.0 0.0000522 19252.67188 19252.75000
19303.0 0.0000518 19258.78906 19258.86914
19287.0 0.0000518 19265.57227 19265.65430
19330.0 0.0000517 19272.99414 19273.08008
19569.0 0.0000511 19281.03320 19281.12305
19956.0 0.0000501 19289.66602 19289.75781
19587.0 0.0000511 19298.86914 19298.96484
19038.0 0.0000525 19308.61914 19308.71680
19094.0 0.0000524 19318.89258 19318.99219
19056.0 0.0000525 19329.66602 19329.76758
19203.0 0.0000521 19340.91406 19341.01953
19166.0 0.0000522 19352.61914 19352.72852
19119.0 0.0000523 19364.75586 19364.86523
19083.0 0.0000524 19377.30078 19377.41406
19053.0 0.0000525 19390.23438 19390.34961
19134.0 0.0000523 19403.53516 19403.65430
19149.0 0.0000522 19417.18164 19417.30273
19015.0 0.0000526 19431.15430 19431.27734
19077.0 0.0000524 19445.43164 19445.55664
19088.0 0.0000524 19459.99609 19460.12305
19018.0 0.0000526 19474.82422 19474.95508
18985.0 0.0000527 19489.90430 19490.03711
18941.0 0.0000528 19505.21289 19505.34766
18959.0 0.0000527 19520.73828 19520.87500
19082.0 0.0000524 19536.45703 19536.59570
18967.0 0.0000527 19552.35547 19552.49609
19113.0 0.0000523 19568.41992 19769.77734
19167.0 0.0000522 19584.63477 19901.63086
19047.0 0.0000525 19600.98438 19945.75000
19132.0 0.0000523 19617.45508 19993.85938
19148.0 0.0000522 19634.03711 20046.71094
19349.0 0.0000517 19650.71484 20105.25586
19463.0 0.0000514 19667.47656 20170.73047
19730.0 0.0000507 19684.31445 20244.73438
20100.0 0.0000498 19701.21484 20329.39648
20516.0 0.0000487 19718.16992 20427.59766
21266.0 0.0000470 19735.17188 20543.32813
21859.0 0.0000457 19752.21094 20682.25781
21997.0 0.0000455 19769.28125 20852.78906
22088.0 0.0000453 19786.37305 21067.88672
22864.0 0.0000437 19803.48047 21348.96484
24711.0 0.0000405 19820.60156 21736.83203
27047.0 0.0000370 19837.73047 22366.73242
28175.0 0.0000355 19854.86133 23872.18359
29471.0 0.0000339 19871.99219 27773.91406
34610.0 0.0000289 19889.11914 35124.80859
43889.0 0.0000228 19906.24219 45773.02344
56760.0 0.0000176 19923.35742 59547.24609
75089.0 0.0000133 19940.46680 77200.24219
100234.0 9.98e-6 19957.56641 100714.19531
128357.0 7.79e-6 19974.66016 134490.10938
182160.0 5.49e-6 19991.74609 190370.14063
293552.0 3.407e-6 20008.82813 283305.75000
338524.0 2.954e-6 20025.90820 337877.15625
239328.0 4.18e-6 20042.98633 240466.76563
112890.0 8.86e-6 20060.07031 111482.69531
48015.0 0.0000208 20077.16016 46213.67969
30172.0 0.0000331 20094.26172 30464.93359
26254.0 0.0000381 20111.37891 26517.47656
24780.0 0.0000404 20128.51563 24618.32227
23911.0 0.0000418 20145.67969 23479.22656
23344.0 0.0000428 20162.87695 22740.78906
22823.0 0.0000438 20180.11133 22235.84180
22584.0 0.0000443 20197.39453 21876.55078
22491.0 0.0000445 20214.72656 21613.03711
21981.0 0.0000455 20232.12305 21415.18945
21529.0 0.0000464 20249.58398 21263.94336
21260.0 0.0000470 20267.12305 21146.71289
20876.0 0.0000479 20284.74609 21054.92969
20718.0 0.0000483 20302.46289 20982.58398
20755.0 0.0000482 20320.28125 20925.35547
20825.0 0.0000480 20338.21289 20880.07422
20695.0 0.0000483 20356.26172 20844.37695
20644.0 0.0000484 20374.44336 20816.46680
20527.0 0.0000487 20392.76172 20794.95703
20465.0 0.0000489 20411.23242 20778.77148
20622.0 0.0000485 20429.86133 20767.05664
20617.0 0.0000485 20448.65625 20759.13086
20346.0 0.0000491 20467.63281 20754.45117
20370.0 0.0000491 20486.79883 20580.75391
20563.0 0.0000486 20506.16211 20593.28516
20573.0 0.0000486 20525.73633 20525.84180
20319.0 0.0000492 20545.52930 20545.63281
20596.0 0.0000486 20565.55078 20565.65234
20790.0 0.0000481 20585.81055 20585.91016
20867.0 0.0000479 20606.32031 20606.41602
20724.0 0.0000483 20627.08984 20630.37695
20570.0 0.0000486 20648.12500 20651.67383
20884.0 0.0000479 20669.43945 20674.95508
21084.0 0.0000474 20691.04102 20697.03516
20879.0 0.0000479 20712.93945 20719.47656
20793.0 0.0000481 20735.14063 20756.19141
20746.0 0.0000482 20757.65820 20780.57813
20568.0 0.0000486 20780.49805 20812.82031
20824.0 0.0000480 20803.66797 20839.07617
20885.0 0.0000479 20827.17578 20866.14453
20893.0 0.0000479 20851.03125 20894.14844
21043.0 0.0000475 20875.24023 20923.23633
20923.0 0.0000478 20899.81250 20953.61133
20749.0 0.0000482 20924.75000 20985.53711
21163.0 0.0000473 20950.06445 21019.40625
21133.0 0.0000473 20975.75781 21055.79102
20900.0 0.0000478 21001.83984 21095.60547
21187.0 0.0000472 21028.31055 21140.73047
21384.0 0.0000468 21055.18164 21198.16016
21396.0 0.0000467 21082.45313 21290.91406
21807.0 0.0000459 21110.13086 21451.12109
22343.0 0.0000448 21138.21875 21692.93945
23003.0 0.0000435 21166.72070 22024.00000
23631.0 0.0000423 21195.64063 22489.15820
24446.0 0.0000409 21224.97656 23257.28906
26306.0 0.0000380 21254.73633 24631.68359
29314.0 0.0000341 21284.91602 26951.94531
30492.0 0.0000328 21315.52148 29820.86328
30631.0 0.0000326 21346.55273 31161.50977
29026.0 0.0000345 21378.00977 31850.25000
30145.0 0.0000332 21409.89063 34387.19922
36549.0 0.0000274 21442.19727 41134.54688
43920.0 0.0000228 21474.92578 48815.44141
40225.0 0.0000249 21508.07813 44669.17969
31482.0 0.0000318 21541.64844 33969.56641
24702.0 0.0000405 21575.63867 25662.62500
22534.0 0.0000444 21610.04297 22799.95313
21973.0 0.0000455 21644.85938 22253.68945
22002.0 0.0000455 21680.08008 22092.50391
21924.0 0.0000456 21715.70508 22017.28320
22068.0 0.0000453 21751.72852 21982.71094
22256.0 0.0000449 21788.14453 21971.16797
22215.0 0.0000450 21824.94531 21973.79492
22061.0 0.0000453 21862.12891 21985.70703
22199.0 0.0000450 21899.68359 22004.01367
22239.0 0.0000450 21937.60742 22026.92383
21978.0 0.0000455 21975.88672 22053.25391
22068.0 0.0000453 22014.51758 22082.20898
22165.0 0.0000451 22053.49219 22113.23242
22102.0 0.0000452 22092.79492 22145.92773
21898.0 0.0000457 22132.42578 22179.99414
22262.0 0.0000449 22172.36523 22215.20898
22058.0 0.0000453 22212.61133 22251.40820
22106.0 0.0000452 22253.14648 22288.44531
22469.0 0.0000445 22293.96484 22323.43555
22354.0 0.0000447 22335.05078 22360.62305
22199.0 0.0000450 22376.39453 22399.89453
22610.0 0.0000442 22417.98242 22439.65234
22510.0 0.0000444 22459.80469 22479.85156
22535.0 0.0000444 22501.84375 22508.44727
22654.0 0.0000441 22544.08984 22544.07422
22439.0 0.0000446 22586.52539 22586.51172
22753.0 0.0000440 22629.14258 22629.12695
22502.0 0.0000444 22671.91992 22671.90430
22850.0 0.0000438 22714.84766 22714.83008
22938.0 0.0000436 22757.90625 22757.88867
22795.0 0.0000439 22801.08594 22801.06836
22651.0 0.0000441 22844.36523 22844.34766
22914.0 0.0000436 22887.73242 22887.71680
22998.0 0.0000435 22931.16797 22931.15234
22857.0 0.0000438 22974.66016 22974.64453
23155.0 0.0000432 23018.18750 23018.17188
23135.0 0.0000432 23061.73828 23061.72070
23313.0 0.0000429 23105.29102 23105.27344
23567.0 0.0000424 23148.82813 23148.81250
23313.0 0.0000429 23192.33594 23192.32031
23412.0 0.0000427 23235.79102 23235.77734
23276.0 0.0000430 23279.18359 23279.16992
23411.0 0.0000427 23322.49023 23322.47656
23304.0 0.0000429 23365.69531 23365.68164
23461.0 0.0000426 23408.77734 23408.76367
23457.0 0.0000426 23451.72266 23451.71094
23484.0 0.0000426 23494.50977 23494.49805
23711.0 0.0000422 23537.12305 23537.11133
23674.0 0.0000422 23579.53906 23579.52930
23874.0 0.0000419 23621.74609 23621.73633
23864.0 0.0000419 23663.72070 23663.71094
23883.0 0.0000419 23705.44727 23705.43750
24145.0 0.0000414 23746.90234 23746.89453
24249.0 0.0000412 23788.07617 23788.06836
24060.0 0.0000416 23828.94141 23828.93555
24197.0 0.0000413 23869.48438 23869.47852
24312.0 0.0000411 23909.68555 23909.67969
24187.0 0.0000413 23949.52539 23949.52148
24240.0 0.0000413 23988.98828 23988.98438
24520.0 0.0000408 24028.05469 24028.05273
24411.0 0.0000410 24066.70508 24066.70313
24414.0 0.0000410 24104.92383 24104.92383
24361.0 0.0000410 24142.69336 24142.69336
24312.0 0.0000411 24179.99219 24179.99414
24400.0 0.0000410 24216.80664 24216.80859
24409.0 0.0000410 24253.11523 24253.11914
24239.0 0.0000413 24288.90820 24288.91211
24361.0 0.0000410 24324.16016 24324.16406
24607.0 0.0000406 24358.85742 24358.86328
24564.0 0.0000407 24392.98438 24392.99219
24404.0 0.0000410 24426.52539 24426.53320
24643.0 0.0000406 24459.46094 24459.46875
24833.0 0.0000403 24491.77539 24491.78516
24875.0 0.0000402 24523.45703 24523.46680
24885.0 0.0000402 24554.48633 24554.49805
24820.0 0.0000403 24584.84766 24584.86133
24779.0 0.0000404 24614.53125 24614.54492
24808.0 0.0000403 24643.51563 24643.53125
24708.0 0.0000405 24671.79297 24671.80859
24679.0 0.0000405 24699.34375 24699.35938
24790.0 0.0000403 24726.15625 24726.17383
24808.0 0.0000403 24752.21680 24752.23633
24839.0 0.0000403 24777.51563 24777.53516
24707.0 0.0000405 24802.03320 24802.05273
24728.0 0.0000404 24825.76172 24825.78320
24778.0 0.0000404 24848.68750 24848.70898
24894.0 0.0000402 24870.80078 24870.82422
24933.0 0.0000401 24892.08789 24892.11133
24729.0 0.0000404 24912.53906 24912.56250
24791.0 0.0000403 24932.14258 24932.16797
24879.0 0.0000402 24950.88672 24950.91406
24767.0 0.0000404 24968.76563 24968.79297
24891.0 0.0000402 24985.76563 24985.79297
25020.0 0.0000400 25001.88086 25001.91016
25093.0 0.0000399 25017.09961 25017.12891
25146.0 0.0000398 25031.41602 25031.44531
25106.0 0.0000398 25044.82031 25044.84961
25140.0 0.0000398 25057.30469 25057.33594
25007.0 0.0000400 25068.86328 25068.89648
25051.0 0.0000399 25079.49023 25079.52148
25127.0 0.0000398 25089.17578 25089.20898
24981.0 0.0000400 25097.91602 25097.94922
24924.0 0.0000401 25105.70508 25105.73828
25095.0 0.0000398 25112.53906 25112.57422
25061.0 0.0000399 25118.41211 25118.44727
25184.0 0.0000397 25123.31836 25123.35352
25365.0 0.0000394 25127.25586 25127.29102
25771.0 0.0000388 25130.22070 25130.25781
25845.0 0.0000387 25132.21094 25132.24805
26162.0 0.0000382 25133.22070 25133.25781
26082.0 0.0000383 25133.25195 25133.28906
25754.0 0.0000388 25132.30078 25132.33789
25283.0 0.0000396 25130.36328 25131.28906
25056.0 0.0000399 25127.44141 25128.84570
25076.0 0.0000399 25123.53711 25125.02539
24951.0 0.0000401 25118.64453 25120.22461
24754.0 0.0000404 25112.76563 25114.44922
24746.0 0.0000404 25105.90430 25107.69727
24781.0 0.0000404 25098.05859 25099.97266
24755.0 0.0000404 25089.22852 25091.28320
24587.0 0.0000407 25079.41797 25081.62500
24853.0 0.0000402 25068.63281 25071.00781
24749.0 0.0000404 25056.86719 25059.43555
24551.0 0.0000407 25044.13281 25046.91406
24656.0 0.0000406 25030.42578 25033.45508
24435.0 0.0000409 25015.75391 25019.06250
24577.0 0.0000407 25000.12109 25003.75000
24478.0 0.0000409 24983.53125 24987.53125
24452.0 0.0000409 24965.98828 24970.41797
24485.0 0.0000408 24947.49805 24952.43750
24684.0 0.0000405 24928.06641 24933.60547
24804.0 0.0000403 24907.69922 24913.96094
24692.0 0.0000405 24886.40234 24893.53711
24506.0 0.0000408 24864.18164 24872.39453
24544.0 0.0000407 24841.04688 24850.60742
24634.0 0.0000406 24817.00195 24828.28320
24590.0 0.0000407 24792.05469 24805.59180
24243.0 0.0000412 24766.21484 24782.79102
24265.0 0.0000412 24739.49023 24760.35547
24348.0 0.0000411 24711.88672 24739.41992
24158.0 0.0000414 24683.41602 24724.10938
24434.0 0.0000409 24654.08594 24726.09180
24045.0 0.0000416 24623.90625 24762.10742
24335.0 0.0000411 24592.88672 24845.87305
24477.0 0.0000409 24561.03711 24993.20703
24717.0 0.0000405 24528.36523 25244.38477
25230.0 0.0000396 24494.88281 25667.79492
25713.0 0.0000389 24460.60156 26132.32031
25246.0 0.0000396 24425.53320 26060.34766
25283.0 0.0000396 24389.68359 25526.77344
25122.0 0.0000398 24353.07031 24965.01367
25573.0 0.0000391 24315.69922 24552.69531
25910.0 0.0000386 24277.58789 24372.72852
27482.0 0.0000364 24238.74023 24293.35547
29111.0 0.0000344 24199.17578 24237.11328
28280.0 0.0000354 24158.90234 24187.06836
26381.0 0.0000379 24117.93750 24139.71875
25171.0 0.0000397 24076.28516 24093.65234
23801.0 0.0000420 24033.96484 24048.15039
23673.0 0.0000422 23990.98633 24002.79688
23562.0 0.0000424 23947.36719 23957.35547
23589.0 0.0000424 23903.11133 23911.67383
23802.0 0.0000420 23858.24023 23865.66406
24038.0 0.0000416 23812.76563 23819.26367
23784.0 0.0000420 23766.69727 23772.43359
23283.0 0.0000429 23720.05469 23725.16016
23120.0 0.0000433 23672.84375 23677.41406
22949.0 0.0000436 23625.08594 23629.20313
23207.0 0.0000431 23576.78906 23580.51758
22729.0 0.0000440 23527.97266 23531.36328
22985.0 0.0000435 23478.64453 23481.74219
22734.0 0.0000440 23428.82422 23431.66797
22726.0 0.0000440 23378.51953 23381.13867
22587.0 0.0000443 23327.75000 23330.16992
22688.0 0.0000441 23276.52734 23277.35352
22660.0 0.0000441 23224.86719 23225.63281
22476.0 0.0000445 23172.77930 23172.79883
22408.0 0.0000446 23120.28320 23120.30273
22557.0 0.0000443 23067.39063 23067.40820
22405.0 0.0000446 23014.11523 23014.13281
22526.0 0.0000444 22960.47070 22960.48633
22969.0 0.0000435 22906.47266 22938.10547
22964.0 0.0000435 22852.13477 22886.35742
22972.0 0.0000435 22797.47070 22850.47852
23367.0 0.0000428 22742.49219 22800.12109
23698.0 0.0000422 22687.21680 22750.10156
23415.0 0.0000427 22631.65430 22700.55469
23497.0 0.0000426 22575.82422 22651.64844
22904.0 0.0000437 22519.73633 22603.58984
22489.0 0.0000445 22463.40234 22556.64648
22137.0 0.0000452 22406.84180 22511.16016
22165.0 0.0000451 22350.06250 22467.57227
22197.0 0.0000451 22293.08203 22426.48047
21950.0 0.0000456 22235.90625 22388.70313
22003.0 0.0000454 22178.55859 22355.38281
21957.0 0.0000455 22121.04492 22328.16602
21863.0 0.0000457 22063.38281 22309.52734
22040.0 0.0000454 22005.57813 22303.29883
21948.0 0.0000456 21947.65234 22315.82227
22285.0 0.0000449 21889.61133 22358.85938
22356.0 0.0000447 21831.47070 22464.16406
23076.0 0.0000433 21773.24023 22748.93750
23937.0 0.0000418 21714.93555 23526.99219
25724.0 0.0000389 21656.56445 25226.19922
28474.0 0.0000351 21598.14453 28233.34375
34363.0 0.0000291 21539.67969 33218.79297
45069.0 0.0000222 21481.18945 41597.77734
57188.0 0.0000175 21422.67773 52896.73828
56788.0 0.0000176 21364.16211 57321.90625
47415.0 0.0000211 21305.64648 48906.41406
36696.0 0.0000273 21247.15039 38936.89063
27438.0 0.0000364 21188.67773 29325.46875
23169.0 0.0000432 21130.24023 24125.65625
22080.0 0.0000453 21071.85156 22470.59180
21647.0 0.0000462 21013.51563 21913.83203
21441.0 0.0000466 20955.25000 21605.66992
21075.0 0.0000474 20897.05664 21390.99805
20894.0 0.0000479 20838.95117 21227.36328
20845.0 0.0000480 20780.93945 21094.66992
20776.0 0.0000481 20723.03320 20981.90625
20645.0 0.0000484 20665.23438 20882.59570
20670.0 0.0000484 20607.56250 20792.72656
20575.0 0.0000486 20550.01758 20709.70313
20316.0 0.0000492 20492.61328 20631.78906
20351.0 0.0000491 20435.34961 20557.76953
20393.0 0.0000490 20378.24414 20486.80273
20253.0 0.0000494 20321.29883 20418.26953
20119.0 0.0000497 20264.52344 20351.72461
20182.0 0.0000495 20207.92188 20286.83594
20280.0 0.0000493 20151.50586 20223.37695
20316.0 0.0000492 20095.27734 20161.26172
20182.0 0.0000495 20039.24805 20100.70313
20019.0 0.0000500 19983.41797 20042.18359
19960.0 0.0000501 19927.80078 19986.22852
20114.0 0.0000497 19872.39453 19904.21875
20048.0 0.0000499 19817.21094 19858.91602
19995.0 0.0000500 19762.25195 19803.59961
20111.0 0.0000497 19707.52344 19756.16992
20116.0 0.0000497 19653.03125 19691.41406
20025.0 0.0000499 19598.78516 19624.44727
19817.0 0.0000505 19544.78125 19557.53320
19598.0 0.0000510 19491.02539 19495.84961
19410.0 0.0000515 19437.52344 19439.65625
19272.0 0.0000519 19384.28516 19385.60938
19121.0 0.0000523 19331.30469 19332.25586
19151.0 0.0000522 19278.58789 19279.30859
19278.0 0.0000519 19226.14258 19226.71094
19245.0 0.0000520 19173.97266 19174.42969
19353.0 0.0000517 19122.07422 19122.45313
19131.0 0.0000523 19070.45117 19070.77148
19020.0 0.0000526 19019.11133 19019.38477
19025.0 0.0000526 18968.05664 18968.29492
18925.0 0.0000528 18917.28320 18917.49219
18770.0 0.0000533 18866.79492 18869.29297
18725.0 0.0000534 18816.59570 18819.26367
18744.0 0.0000534 18766.69336 18770.70313
18829.0 0.0000531 18717.07617 18721.41211
18827.0 0.0000531 18667.75000 18672.45898
18678.0 0.0000535 18618.72070 18623.86133
18488.0 0.0000541 18569.98828 18575.62695
18569.0 0.0000539 18521.54688 18527.76953
18489.0 0.0000541 18473.40039 18480.30664
18494.0 0.0000541 18425.55273 18433.26172
18562.0 0.0000539 18377.99805 18386.63281
18523.0 0.0000540 18330.74609 18340.54883
18496.0 0.0000541 18283.78320 18294.99219
18489.0 0.0000541 18237.11914 18250.09570
18440.0 0.0000542 18190.74805 18205.95898
18249.0 0.0000548 18144.67578 18162.76367
18245.0 0.0000548 18098.89258 18120.78125
18110.0 0.0000552 18053.40234 18080.47852
18002.0 0.0000555 18008.20313 18042.68750
17996.0 0.0000556 17963.29883 18009.48047
18160.0 0.0000551 17918.67969 17988.25586
18310.0 0.0000546 17874.34570 18000.78320
18408.0 0.0000543 17830.29883 18083.18164
18672.0 0.0000536 17786.54102 18274.42188
19027.0 0.0000526 17743.06055 18641.00000
19702.0 0.0000508 17699.85938 19278.36328
20479.0 0.0000488 17656.93555 19986.94336
20248.0 0.0000494 17614.29297 19971.26758
19578.0 0.0000511 17571.91797 19311.78125
18633.0 0.0000537 17529.81445 18664.83398
17993.0 0.0000556 17487.98047 18016.00781
17569.0 0.0000569 17446.41406 17646.50195
17619.0 0.0000568 17405.10742 17500.71094
17297.0 0.0000578 17364.05859 17426.14258
17187.0 0.0000582 17323.26953 17368.42188
17518.0 0.0000571 17282.73242 17317.20703
17255.0 0.0000580 17242.45117 17269.67188
17151.0 0.0000583 17202.41211 17245.00195
17070.0 0.0000586 17162.61719 17202.72266
17207.0 0.0000581 17123.06445 17161.60742
17003.0 0.0000588 17083.75195 17132.26172
17260.0 0.0000579 17044.66992 17093.63867
16959.0 0.0000590 17005.82031 17055.81641
17198.0 0.0000581 16967.19336 17018.73242
17141.0 0.0000583 16928.79688 16982.36328
17101.0 0.0000585 16890.61523 16946.69922
17231.0 0.0000580 16852.64844 16911.75195
17099.0 0.0000585 16814.89453 16877.56055
17026.0 0.0000587 16777.35352 16844.17383
16895.0 0.0000592 16740.01172 16811.65039
16941.0 0.0000590 16702.87109 16780.09570
16776.0 0.0000596 16665.92578 16749.62109
16894.0 0.0000592 16629.17773 16720.38672
16838.0 0.0000594 16592.61328 16690.49023
16780.0 0.0000596 16556.23633 16664.52734
16726.0 0.0000598 16520.03711 16639.53125
16813.0 0.0000595 16484.01953 16623.68164
16609.0 0.0000602 16448.16992 16605.75977
16672.0 0.0000600 16412.49023 16594.47656
16524.0 0.0000605 16376.97363 16585.73438
16604.0 0.0000602 16341.61719 16583.67383
16610.0 0.0000602 16306.42188 16590.66992
16545.0 0.0000604 16271.37500 16610.25586
16823.0 0.0000594 16236.47754 16648.04492
16762.0 0.0000597 16201.72363 16713.40039
16980.0 0.0000589 16167.11426 16824.35547
17548.0 0.0000570 16132.63672 17030.12500
17959.0 0.0000557 16098.29297 17490.24609
19133.0 0.0000523 16064.07715 18593.01953
22138.0 0.0000452 16029.99023 20911.34766
29214.0 0.0000342 15996.01953 25201.25977
34652.0 0.0000289 15962.16699 32586.14844
40411.0 0.0000247 15928.42773 42776.71094
48313.0 0.0000207 15894.80078 48976.70703
43824.0 0.0000228 15861.27539 43958.26563
34877.0 0.0000287 15827.85449 36329.98438
28879.0 0.0000346 15794.52930 28388.39844
22209.0 0.0000450 15761.30371 21600.29688
18552.0 0.0000539 15728.16504 18536.52734
17789.0 0.0000562 15695.11621 17876.18750
18100.0 0.0000552 15662.14941 18292.86914
19030.0 0.0000525 15629.26758 19606.27930
21052.0 0.0000475 15596.45996 21831.49609
21866.0 0.0000457 15563.72754 23299.89844
20643.0 0.0000484 15531.06445 21964.51172
19213.0 0.0000520 15498.47070 20153.80273
17953.0 0.0000557 15465.94336 18373.41211
16361.0 0.0000611 15433.47656 16726.60352
15888.0 0.0000629 15401.06738 15973.98438
15607.0 0.0000641 15368.71387 15729.92773
15544.0 0.0000643 15336.41699 15614.11133
15447.0 0.0000647 15304.16797 15530.46289
15361.0 0.0000651 15271.96387 15461.92578
15182.0 0.0000659 15239.80762 15402.62695
15118.0 0.0000661 15207.69434 15349.45605
15250.0 0.0000656 15175.61914 15300.57031
15215.0 0.0000657 15143.58105 15254.80762
15081.0 0.0000663 15111.57910 15211.40430
15140.0 0.0000661 15079.61133 15169.82520
15013.0 0.0000666 15047.67188 15129.68652
15045.0 0.0000665 15015.76074 15090.70703
14832.0 0.0000674 14983.87695 15052.67773
15043.0 0.0000665 14952.01953 15015.43555
14911.0 0.0000671 14920.18359 14978.84570
14894.0 0.0000671 14888.36719 14942.81250
14906.0 0.0000671 14856.56934 14907.25195
14741.0 0.0000678 14824.79395 14872.10352
14776.0 0.0000677 14793.03027 14837.30273
14685.0 0.0000681 14761.28223 14782.40820
14459.0 0.0000692 14729.54688 14749.28125
14404.0 0.0000694 14697.82422 14716.30176
14570.0 0.0000686 14666.11426 14668.95703
14514.0 0.0000689 14634.41211 14634.45703
14595.0 0.0000685 14602.71777 14602.76172
14577.0 0.0000686 14571.03223 14571.07617
14625.0 0.0000684 14539.35449 14539.39844
14386.0 0.0000695 14507.68164 14507.72559
14125.0 0.0000708 14476.01270 14476.05664
14307.0 0.0000699 14444.34961 14444.39258
14316.0 0.0000699 14412.69238 14412.73535
14211.0 0.0000704 14381.03711 14381.08008
14148.0 0.0000707 14349.38477 14349.42676
14072.0 0.0000711 14317.73535 14317.77734
14168.0 0.0000706 14286.09082 14286.13281
14120.0 0.0000708 14254.44727 14254.48926
13858.0 0.0000722 14222.80566 14222.84668
13917.0 0.0000719 14191.16797 14191.20898
13891.0 0.0000720 14159.53320 14159.57422
13809.0 0.0000724 14127.90137 14127.94141
13898.0 0.0000720 14096.27051 14096.31055
13936.0 0.0000718 14064.64453 14064.68457
13920.0 0.0000718 14033.02441 14033.06348
13949.0 0.0000717 14001.40625 14001.44629
13985.0 0.0000715 13969.79297 13969.83203
14168.0 0.0000706 13938.18555 13938.22363
14331.0 0.0000698 13906.58301 13906.62109
14463.0 0.0000691 13874.99219 13875.03027
14410.0 0.0000694 13843.40430 13843.44238
14359.0 0.0000696 13811.82715 13811.87207
14501.0 0.0000690 13780.25781 13780.30371
14425.0 0.0000693 13748.70410 13748.75000
14086.0 0.0000710 13717.15820 13717.20801
13839.0 0.0000723 13685.62598 13685.67773
13588.0 0.0000736 13654.10742 13654.15820
13570.0 0.0000737 13622.60742 13622.66016
13427.0 0.0000745 13591.12109 13591.17383
13232.0 0.0000756 13559.65332 13559.70801
13167.0 0.0000759 13528.20508 13528.26074
13174.0 0.0000759 13496.78223 13498.01953
13201.0 0.0000758 13465.37793 13466.68652
13212.0 0.0000757 13433.99805 13435.38574
13216.0 0.0000757 13402.64551 13404.72266
13321.0 0.0000751 13371.32324 13373.53125
13378.0 0.0000747 13340.02832 13342.37793
13217.0 0.0000757 13308.76367 13311.27148
13090.0 0.0000764 13277.53418 13280.21582
13138.0 0.0000761 13246.34082 13249.21680
13074.0 0.0000765 13215.18359 13218.36523
13022.0 0.0000768 13184.06445 13187.49316
13051.0 0.0000766 13152.98828 13156.69922
12912.0 0.0000774 13121.95410 13126.02734
12813.0 0.0000780 13090.96875 13095.40527
12813.0 0.0000780 13060.02832 13064.87891
12688.0 0.0000788 13029.13770 13034.46973
12791.0 0.0000782 12998.29883 13004.18652
12783.0 0.0000782 12967.51855 12974.06055
12733.0 0.0000785 12936.79004 12945.07422
12751.0 0.0000784 12906.12305 12915.40625
12516.0 0.0000799 12875.51465 12900.40820
12548.0 0.0000797 12844.97461 12872.43359
12722.0 0.0000786 12814.49707 12845.43750
12747.0 0.0000784 12784.08887 12827.06152
12815.0 0.0000780 12753.75000 12804.19824
12763.0 0.0000784 12723.48828 12783.24902
12600.0 0.0000794 12693.29980 12760.93262
12767.0 0.0000783 12663.18945 12735.89063
12705.0 0.0000787 12633.15918 12713.45898
12613.0 0.0000793 12603.21582 12695.73926
12666.0 0.0000790 12573.35449 12690.07617
13002.0 0.0000769 12543.58301 12720.15527
13116.0 0.0000762 12513.90039 12831.95898
13481.0 0.0000742 12484.31641 13092.34277
14044.0 0.0000712 12454.82324 13588.04199
14713.0 0.0000680 12425.43066 14276.14355
14632.0 0.0000683 12396.13672 14635.43750
14254.0 0.0000702 12366.94824 14243.87012
13788.0 0.0000725 12337.86719 13779.01563
13239.0 0.0000755 12308.89258 13330.83398
12551.0 0.0000797 12280.03027 12836.50781
12470.0 0.0000802 12251.28027 12554.67773
12364.0 0.0000809 12222.65039 12452.61230
12282.0 0.0000814 12194.13574 12416.53906
12267.0 0.0000815 12165.74316 12402.11328
12324.0 0.0000811 12137.47363 12402.16504
12529.0 0.0000798 12109.33301 12418.39746
12503.0 0.0000800 12081.31836 12457.99023
12642.0 0.0000791 12053.43555 12539.48242
12916.0 0.0000774 12025.68652 12705.69141
13794.0 0.0000725 11998.07617 13052.70215
14666.0 0.0000682 11970.60156 13815.55566
16217.0 0.0000617 11943.26660 15428.09863
18696.0 0.0000535 11916.07617 18340.84570
21857.0 0.0000458 11889.03320 23101.97656
28700.0 0.0000348 11862.13574 29955.76758
35837.0 0.0000279 11835.38867 34979.38672
33485.0 0.0000299 11808.79395 32254.29492
27108.0 0.0000369 11782.35645 27183.47656
24343.0 0.0000411 11756.07324 22996.40234
18637.0 0.0000537 11729.94922 17859.24414
14395.0 0.0000695 11703.98633 14335.37793
12760.0 0.0000784 11678.18652 12916.43750
12376.0 0.0000808 11652.55469 12431.59277
12122.0 0.0000825 11627.08789 12199.83008
11880.0 0.0000842 11601.79004 12050.25977
11768.0 0.0000850 11576.66504 11943.08789
11674.0 0.0000857 11551.71387 11861.14063
11807.0 0.0000847 11526.93750 11795.82617
11798.0 0.0000848 11502.33789 11742.12402
11667.0 0.0000857 11477.91699 11696.96484
11762.0 0.0000850 11453.67969 11658.44629
11534.0 0.0000867 11429.62305 11625.38574
11480.0 0.0000871 11405.75000 11597.10547
11554.0 0.0000866 11382.06348 11573.31836
11731.0 0.0000852 11358.56641 11554.06445
11625.0 0.0000860 11335.25684 11539.73438
11391.0 0.0000878 11312.13770 11531.13184
11376.0 0.0000879 11289.21191 11529.64648
11494.0 0.0000870 11266.48145 11537.53418
11263.0 0.0000888 11243.94336 11558.50195
11616.0 0.0000861 11221.60254 11598.84766
11642.0 0.0000859 11199.45996 11670.59668
11964.0 0.0000836 11177.51855 11806.24219
12735.0 0.0000785 11155.77539 12122.03809
13721.0 0.0000729 11134.23438 12957.60645
16578.0 0.0000603 11112.89551 14970.84668
21521.0 0.0000465 11091.76074 19114.46680
28532.0 0.0000350 11070.83301 26081.34961
34195.0 0.0000292 11050.10938 33169.89844
32994.0 0.0000303 11029.59277 33180.83984
28722.0 0.0000348 11009.28418 27862.84961
23089.0 0.0000433 10989.18555 24031.65430
18774.0 0.0000533 10969.29492 19183.01563
14732.0 0.0000679 10949.61426 14585.88477
12199.0 0.0000820 10930.14453 12403.72559
11615.0 0.0000861 10910.88867 11699.61816
11330.0 0.0000883 10891.84277 11432.22070
11090.0 0.0000902 10873.01074 11277.19336
11127.0 0.0000899 10854.39160 11169.30566
11049.0 0.0000905 10835.98730 11088.60254
11187.0 0.0000894 10817.79590 11025.11816
11467.0 0.0000872 10799.81934 10973.13574
11424.0 0.0000875 10782.05762 10929.16895
11292.0 0.0000886 10764.51172 10890.98926
11068.0 0.0000904 10747.18066 10857.11133
11054.0 0.0000905 10730.06543 10826.51758
10898.0 0.0000918 10713.16406 10798.49414
10768.0 0.0000929 10696.48145 10772.52246
10509.0 0.0000952 10680.01270 10748.21484
10498.0 0.0000953 10663.75977 10725.29004
10509.0 0.0000952 10647.72266 10703.52539
10494.0 0.0000953 10631.90137 10682.75977
10461.0 0.0000956 10616.29590 10662.89355
10304.0 0.0000970 10600.90430 10643.75879
10385.0 0.0000963 10585.72852 10625.33398
10452.0 0.0000957 10570.76660 10585.08008
10413.0 0.0000960 10556.02051 10569.62207
10478.0 0.0000954 10541.48633 10554.98730
10486.0 0.0000954 10527.16602 10541.61719
10513.0 0.0000951 10513.05762 10529.97070
10480.0 0.0000954 10499.16406 10519.38867
10534.0 0.0000949 10485.48047 10506.75391
10440.0 0.0000958 10472.00781 10490.51758
10353.0 0.0000966 10458.74609 10474.51758
10336.0 0.0000967 10445.69434 10458.91895
10294.0 0.0000971 10432.85156 10442.99219
10181.0 0.0000982 10420.21582 10421.71191
10317.0 0.0000969 10407.78809 10408.60352
10383.0 0.0000963 10395.56738 10396.16113
10205.0 0.0000980 10383.55078 10384.05371
10254.0 0.0000975 10371.73926 10407.02051
10354.0 0.0000966 10360.13184 10398.14355
10310.0 0.0000970 10348.72656 10389.82910
10179.0 0.0000982 10337.52246 10399.73730
10142.0 0.0000986 10326.51855 10394.12500
10197.0 0.0000981 10315.71387 10389.45898
10292.0 0.0000972 10305.10742 10385.88379
10249.0 0.0000976 10294.69824 10383.57715
10157.0 0.0000985 10284.48340 10382.77148
10255.0 0.0000975 10274.46289 10383.76758
10342.0 0.0000967 10264.63574 10386.96875
10319.0 0.0000969 10255.00000 10392.96094
10192.0 0.0000981 10245.55371 10402.85742
10274.0 0.0000973 10236.29688 10418.24219
10346.0 0.0000967 10227.22656 10442.28320
10320.0 0.0000969 10218.34277 10479.19531
10424.0 0.0000959 10209.64258 10531.47363
10570.0 0.0000946 10201.12402 10593.59766
10813.0 0.0000925 10192.78809 10658.00586
11089.0 0.0000902 10184.63184 10746.51855
11626.0 0.0000860 10176.65234 10889.55566
12510.0 0.0000799 10168.84863 11137.69727
13404.0 0.0000746 10161.21973 11715.49512
14348.0 0.0000697 10153.76563 13319.38086
16948.0 0.0000590 10146.48047 17389.18359
25578.0 0.0000391 10139.36523 25968.75391
42077.0 0.0000238 10132.41797 39559.12500
54804.0 0.0000182 10125.63574 50225.90625
49626.0 0.0000202 10119.01855 45916.58203
39155.0 0.0000255 10112.56250 36918.98047
34303.0 0.0000292 10106.26660 31735.28320
25365.0 0.0000394 10100.12891 23534.16406
16031.0 0.0000624 10094.14941 15755.14453
12399.0 0.0000807 10088.32324 12270.27051
11365.0 0.0000880 10082.65039 11240.28613
10978.0 0.0000911 10077.12793 10875.46875
11028.0 0.0000907 10071.75488 10671.98242
10952.0 0.0000913 10066.52734 10536.30273
10720.0 0.0000933 10061.44531 10440.00488
10546.0 0.0000948 10056.50684 10368.78223
10395.0 0.0000962 10051.70898 10314.42871
10320.0 0.0000969 10047.04980 10272.03906
10365.0 0.0000965 10042.52832 10238.85938
10336.0 0.0000967 10038.14063 10214.37012
10221.0 0.0000978 10033.88574 10201.34277
10311.0 0.0000970 10029.76270 10206.26563
10343.0 0.0000967 10025.76758 10236.08301
10564.0 0.0000947 10021.89844 10281.19238
10510.0 0.0000951 10018.15527 10295.32910
10484.0 0.0000954 10014.53418 10251.27441
10216.0 0.0000979 10011.03320 10207.10254
10040.0 0.0000996 10007.65039 10171.21289
9929.0 0.0001007 10004.38477 10123.18848
9817.0 0.0001019 10001.23242 10084.68652
9759.0 0.0001025 9998.19336 10063.89746
9571.0 0.0001045 9995.26367 10021.01172
9578.0 0.0001044 9992.44141 10014.89648
9591.0 0.0001043 9989.72656 10000.15820
9442.0 0.0001059 9987.11426 9997.23047
9478.0 0.0001055 9984.60449 9994.65527
9419.0 0.0001062 9982.19336 9995.83496
9381.0 0.0001066 9979.88086 9993.98145
9498.0 0.0001053 9977.66406 9992.36426
9471.0 0.0001056 9975.53906 9990.96875
9439.0 0.0001059 9973.50684 9989.79395
9341.0 0.0001071 9971.56445 9988.84668
9365.0 0.0001068 9969.70801 9988.13477
9332.0 0.0001072 9967.93750 9987.66699
9323.0 0.0001073 9966.25098 9987.46777
9521.0 0.0001050 9964.64453 9987.55859
9412.0 0.0001062 9963.11816 9987.97461
9383.0 0.0001066 9961.66895 9988.75488
9378.0 0.0001066 9960.29492 9989.95117
9428.0 0.0001061 9958.99414 9991.62988
9480.0 0.0001055 9957.76465 9993.87891
9532.0 0.0001049 9956.60449 9996.80859
9426.0 0.0001061 9955.51172 10000.56934
9472.0 0.0001056 9954.48340 10005.35352
9309.0 0.0001074 9953.52051 10015.84473
9384.0 0.0001066 9952.61816 10023.85352
9457.0 0.0001057 9951.77539 10034.08008
9728.0 0.0001028 9950.99023 10049.48730
9516.0 0.0001051 9950.26172 10066.97559
9703.0 0.0001031 9949.58691 10090.29688
9809.0 0.0001019 9948.96484 10122.65332
9987.0 0.0001001 9948.39258 10169.20703
10220.0 0.0000978 9947.87012 10242.39063
10298.0 0.0000971 9947.39355 10384.53027
11072.0 0.0000903 9946.96191 10734.52832
11809.0 0.0000847 9946.57422 11629.94824
12687.0 0.0000788 9946.22754 13605.20703
14804.0 0.0000675 9945.92188 16923.93750
18717.0 0.0000534 9945.65332 20165.53711
20030.0 0.0000499 9945.42188 20215.07617
18291.0 0.0000547 9945.22559 17894.94727
17668.0 0.0000566 9945.06152 16436.06641
16396.0 0.0000610 9944.93066 14824.10449
14154.0 0.0000707 9944.82813 12563.86523
12408.0 0.0000806 9944.75488 11076.40625
11559.0 0.0000865 9944.70898 10492.84082
10773.0 0.0000928 9944.68848 10302.37793
10341.0 0.0000967 9944.69043 10221.66113
10177.0 0.0000983 9944.71582 10176.72559
9843.0 0.0001016 9944.76172 10150.92773
9819.0 0.0001018 9944.82813 10138.64941
9545.0 0.0001048 9944.91113 10137.89941
9587.0 0.0001043 9945.01074 10149.23438
9639.0 0.0001037 9945.12695 10176.81055
9891.0 0.0001011 9945.25488 10236.17090
10338.0 0.0000967 9945.39746 10384.02930
11209.0 0.0000892 9945.54980 10780.74316
12511.0 0.0000799 9945.71289 11735.44238
13884.0 0.0000720 9945.88477 13546.56641
16015.0 0.0000624 9946.06348 15795.33887
16806.0 0.0000595 9946.24902 16695.49219
15268.0 0.0000655 9946.43848 15430.79004
13765.0 0.0000726 9946.63281 14273.60449
13397.0 0.0000746 9946.82910 13512.86816
12349.0 0.0000810 9947.02734 12166.43262
11180.0 0.0000894 9947.22656 10965.38086
10694.0 0.0000935 9947.42383 10396.02148
10557.0 0.0000947 9947.62012 10282.26758
10572.0 0.0000946 9947.81445 10212.96777
10568.0 0.0000946 9948.00391 10176.76270
10511.0 0.0000951 9948.18945 10380.15820
10443.0 0.0000958 9948.36914 10379.79688
10438.0 0.0000958 9948.54199 10386.32910
10441.0 0.0000958 9948.70703 10490.46094
10436.0 0.0000958 9948.86426 10506.33984
10501.0 0.0000952 9949.01270 10533.10254
10488.0 0.0000953 9949.15039 10565.14941
10548.0 0.0000948 9949.27734 10599.10645
10816.0 0.0000925 9949.39258 10641.44629
11403.0 0.0000877 9949.49512 10689.96094
12163.0 0.0000822 9949.58398 10745.15430
12262.0 0.0000816 9949.66016 10807.99902
12224.0 0.0000818 9949.72070 10879.72266
12190.0 0.0000820 9949.76660 10961.87012
11939.0 0.0000838 9949.79688 11056.39941
11751.0 0.0000851 9949.80957 11165.78516
11823.0 0.0000846 9949.80566 11293.20410
11717.0 0.0000853 9949.78418 11442.77441
11954.0 0.0000837 9949.74414 11619.89746
12422.0 0.0000805 9949.68555 11831.78516
12570.0 0.0000796 9949.60742 12088.23926
12750.0 0.0000784 9949.50977 12402.87207
12890.0 0.0000776 9949.39063 12795.07520
13216.0 0.0000757 9949.25195 13293.30957
13855.0 0.0000722 9949.09180 13940.92871
14741.0 0.0000678 9948.91016 14803.65723
16094.0 0.0000621 9948.70703 16021.69238
18404.0 0.0000543 9948.48047 17909.41016
22320.0 0.0000448 9948.23242 21358.18750
29039.0 0.0000344 9947.96094 28603.91406
41794.0 0.0000239 9947.66602 43776.96484
65782.0 0.0000152 9947.34766 71063.06250
102256.0 9.78e-6 9947.00586 109115.62500
147785.0 6.77e-6 9946.64063 147405.98438
205552.0 4.86e-6 9946.25000 184714.32813
250400.0 3.99e-6 9945.83594 234812.87500
253376.0 3.95e-6 9945.39648 260266.87500
225462.0 4.44e-6 9944.93262 218827.96875
174963.0 5.72e-6 9944.44434 167579.29688
132261.0 7.56e-6 9943.93164 136576.31250
94919.0 0.0000105 9943.39258 98339.25781
56070.0 0.0000178 9942.83008 58209.81641
31586.0 0.0000317 9942.24121 33914.67969
21382.0 0.0000468 9941.62695 23373.44141
17688.0 0.0000565 9940.98828 19061.88672
15878.0 0.0000630 9940.32324 16828.45898
14686.0 0.0000681 9939.63379 15385.79785
14144.0 0.0000707 9938.91992 14365.36035
13706.0 0.0000730 9938.17969 13612.02246
13120.0 0.0000762 9937.41504 13038.66309
12607.0 0.0000793 9936.62500 12591.41602
12293.0 0.0000813 9935.80957 12235.34668
12026.0 0.0000832 9934.97070 11946.93457
11548.0 0.0000866 9934.10645 11709.84570
11116.0 0.0000900 9933.21777 11512.43262
10837.0 0.0000923 9932.30469 11346.19727
10785.0 0.0000927 9931.36719 11204.81836
10933.0 0.0000915 9930.40625 11083.50391
10990.0 0.0000910 9929.42090 10978.57422
11217.0 0.0000892 9928.41211 10887.15820
11628.0 0.0000860 9927.38086 10806.98828
12150.0 0.0000823 9926.32520 10736.25977
12730.0 0.0000786 9925.24707 10673.51172
13106.0 0.0000763 9924.14746 10617.55957
12623.0 0.0000792 9923.02441 10567.42871
11901.0 0.0000840 9921.87891 10522.31543
11714.0 0.0000854 9920.71289 10481.55078
11321.0 0.0000883 9919.52441 10444.56836
10803.0 0.0000926 9918.31543 10331.66309
10452.0 0.0000957 9917.08496 10305.18359
10225.0 0.0000978 9915.83594 10280.93262
10044.0 0.0000996 9914.56543 10028.72266
9908.0 0.0001009 9913.27441 10020.66113
9952.0 0.0001005 9911.96582 10013.16602
9978.0 0.0001002 9910.63770 10006.17090
9958.0 0.0001004 9909.29102 9909.28125
9859.0 0.0001014 9907.92578 9907.91699
9830.0 0.0001017 9906.54297 9906.53418
9882.0 0.0001012 9905.14355 9905.13574
9872.0 0.0001013 9903.72656 9903.71973
9924.0 0.0001008 9902.29297 9925.56738
10000.0 0.0001000 9900.84375 9925.50879
9993.0 0.0001001 9899.37988 9925.56250
9854.0 0.0001015 9897.89941 9937.11914
9805.0 0.0001020 9896.40527 9938.12207
9654.0 0.0001036 9894.89648 9939.35938
9733.0 0.0001027 9893.37402 9940.86230
9761.0 0.0001024 9891.83789 9942.67188
9703.0 0.0001031 9890.29004 9944.83594
9734.0 0.0001027 9888.72949 9947.41113
9640.0 0.0001037 9887.15625 9954.92285
9675.0 0.0001034 9885.57324 9958.79688
9676.0 0.0001033 9883.97852 9963.35352
9709.0 0.0001030 9882.37402 9968.71484
9739.0 0.0001027 9880.75977 9977.33496
9822.0 0.0001018 9879.13574 9984.94043
9717.0 0.0001029 9877.50293 9993.94434
9642.0 0.0001037 9875.86230 10004.65430
9695.0 0.0001031 9874.21387 10017.46387
9738.0 0.0001027 9872.55859 10032.88867
9599.0 0.0001042 9870.89648 10051.61230
9711.0 0.0001030 9869.22754 10074.55957
9806.0 0.0001020 9867.55371 10103.00781
9778.0 0.0001023 9865.87402 10138.75781
9850.0 0.0001015 9864.19043 10184.42090
9930.0 0.0001007 9862.50293 10243.90430
10115.0 0.0000989 9860.81152 10323.27246
10172.0 0.0000983 9859.11719 10432.44141
10741.0 0.0000931 9857.42090 10589.59961
11007.0 0.0000909 9855.72168 10838.92383
11602.0 0.0000862 9854.02148 11319.99707
12691.0 0.0000788 9852.32031 12446.59180
14775.0 0.0000677 9850.61816 15131.24316
19582.0 0.0000511 9848.91699 20463.10156
26376.0 0.0000379 9847.21582 28012.72461
33270.0 0.0000301 9845.51660 33621.36328
33638.0 0.0000297 9843.81836 31987.09766
27625.0 0.0000362 9842.12305 27233.37500
24349.0 0.0000411 9840.42969 24778.85547
23360.0 0.0000428 9838.74023 22084.57227
19208.0 0.0000521 9837.05371 17515.75586
14995.0 0.0000667 9835.37109 13907.06934
13568.0 0.0000737 9833.69434 12386.47363
14073.0 0.0000711 9832.02148 12536.65918
15110.0 0.0000662 9830.35547 13892.06445
15785.0 0.0000634 9828.69531 15677.54590
15853.0 0.0000631 9827.04102 16217.46582
14572.0 0.0000686 9825.39355 14966.49609
13269.0 0.0000754 9823.75488 13915.21973
12635.0 0.0000791 9822.12305 13454.96973
11855.0 0.0000844 9820.50000 12507.95996
10964.0 0.0000912 9818.88574 11305.86133
10109.0 0.0000989 9817.28125 10572.76953
9923.0 0.0001008 9815.68652 10265.26074
9721.0 0.0001029 9814.10156 10146.13184
9768.0 0.0001024 9812.52637 10089.34570
9655.0 0.0001036 9810.96289 10047.29004
9552.0 0.0001047 9809.41113 10016.18164
9547.0 0.0001047 9807.87109 9992.27148
9492.0 0.0001054 9806.34277 9973.44043
9602.0 0.0001041 9804.82715 9958.36523
9593.0 0.0001042 9803.32520 9946.18359
9389.0 0.0001065 9801.83594 9936.31836
9697.0 0.0001031 9800.36035 9928.37109
9757.0 0.0001025 9798.89941 9922.07324
9685.0 0.0001033 9797.45215 9917.25293
9685.0 0.0001033 9796.01953 9913.80078
9736.0 0.0001027 9794.60254 9911.67188
9778.0 0.0001023 9793.20020 9910.87598
9644.0 0.0001037 9791.81348 9911.48730
9567.0 0.0001045 9790.44336 9915.88770
9653.0 0.0001036 9789.08887 9910.97363
9765.0 0.0001024 9787.75098 9918.96094
9726.0 0.0001028 9786.43066 9930.53711
9907.0 0.0001009 9785.12695 9933.08496
9822.0 0.0001018 9783.83984 9958.14746
9885.0 0.0001012 9782.57031 9982.44727
9906.0 0.0001009 9781.31934 10018.04492
9973.0 0.0001003 9780.08594 10061.77637
9825.0 0.0001018 9778.87012 10124.31250
10073.0 0.0000993 9777.67383 10221.25586
10361.0 0.0000965 9776.49512 10390.15137
10600.0 0.0000943 9775.33594 10699.36719
11229.0 0.0000891 9774.19531 11338.36816
12385.0 0.0000807 9773.07324 12743.83398
14901.0 0.0000671 9771.97070 15584.69434
18508.0 0.0000540 9770.88770 19866.43945
22173.0 0.0000451 9769.82422 23302.24219
23942.0 0.0000418 9768.78027 22527.69336
20649.0 0.0000484 9767.75586 19606.25977
17709.0 0.0000565 9766.75098 18181.49609
17329.0 0.0000577 9765.76563 17113.11719
15670.0 0.0000638 9764.80078 14684.91016
12771.0 0.0000783 9763.85547 12361.74316
11147.0 0.0000897 9762.93066 11118.99805
10619.0 0.0000942 9762.02539 10652.62207
10415.0 0.0000960 9761.13965 10496.14258
10434.0 0.0000958 9760.27441 10442.69141
10461.0 0.0000956 9759.42871 10439.65918
10780.0 0.0000928 9758.60352 10478.42285
11043.0 0.0000906 9757.79785 10566.59180
11365.0 0.0000880 9757.01270 10740.05273
11871.0 0.0000842 9756.24707 11123.46484
13155.0 0.0000760 9755.50098 12059.87988
15497.0 0.0000645 9754.77441 14178.81348
18613.0 0.0000537 9754.06738 17860.44922
20889.0 0.0000479 9753.37988 22017.87305
21707.0 0.0000461 9752.71191 23514.71875
22177.0 0.0000451 9752.06348 21390.84180
21142.0 0.0000473 9751.43262 19581.64648
19839.0 0.0000504 9750.82227 19418.68359
19274.0 0.0000519 9750.22949 19023.42969
18315.0 0.0000546 9749.65625 18158.03516
17673.0 0.0000566 9749.10059 17722.36133
18393.0 0.0000544 9748.56348 18089.68555
19929.0 0.0000502 9748.04297 19877.51758
20878.0 0.0000479 9747.54102 21950.25586
21267.0 0.0000470 9747.05664 22280.55078
21410.0 0.0000467 9746.58984 20850.00000
21351.0 0.0000468 9746.13867 20585.83984
24841.0 0.0000403 9745.70508 24047.04883
34400.0 0.0000291 9745.28711 32028.27344
43689.0 0.0000229 9744.88574 41676.03125
42253.0 0.0000237 9744.49902 44491.05859
34589.0 0.0000289 9744.12793 37056.09375
31105.0 0.0000321 9743.77148 30781.61914
29102.0 0.0000344 9743.43066 29241.90820
24348.0 0.0000411 9743.10352 25731.18164
18900.0 0.0000529 9742.79004 19329.52539
15037.0 0.0000665 9742.48926 15062.55762
13799.0 0.0000725 9742.20215 13895.00293
13879.0 0.0000721 9741.92773 14050.48340
13955.0 0.0000717 9741.66602 13821.20508
13497.0 0.0000741 9741.41504 13016.53418
12737.0 0.0000785 9741.17578 12457.18848
12332.0 0.0000811 9740.94629 12134.69629
11884.0 0.0000841 9740.72754 11589.18652
11119.0 0.0000899 9740.51953 10938.51953
10536.0 0.0000949 9740.31934 10487.95703
10235.0 0.0000977 9740.12891 10254.94141
10047.0 0.0000995 9739.94629 10147.95703
10083.0 0.0000992 9739.77148 10084.01563
10424.0 0.0000959 9739.60352 10039.78027
10753.0 0.0000930 9739.44238 10006.23828
10983.0 0.0000910 9739.28711 9982.66406
10801.0 0.0000926 9739.13770 9961.66699
10618.0 0.0000942 9738.99219 9944.70703
10527.0 0.0000950 9738.85156 9930.96484
10506.0 0.0000952 9738.71387 9920.29004
10370.0 0.0000964 9738.57910 9913.25391
10200.0 0.0000980 9738.44727 9906.67773
9933.0 0.0001007 9738.31641 9902.08594
9877.0 0.0001012 9738.18750 9899.68359
9819.0 0.0001018 9738.05762 9900.07129
9654.0 0.0001036 9737.92871 9903.83398
9596.0 0.0001042 9737.79785 9909.83691
9551.0 0.0001047 9737.66504 9918.72363
9661.0 0.0001035 9737.53027 9932.89160
9670.0 0.0001034 9737.39258 9959.38477
9702.0 0.0001031 9737.25098 9996.16504
9860.0 0.0001014 9737.10352 10066.11621
10042.0 0.0000996 9736.95215 10231.43262
10436.0 0.0000958 9736.79395 10685.20508
11473.0 0.0000872 9736.62891 11697.00098
13402.0 0.0000746 9736.45605 13258.68066
15394.0 0.0000650 9736.27539 14496.92969
14744.0 0.0000678 9736.08496 14224.94141
12946.0 0.0000772 9735.88379 13143.96973
12547.0 0.0000797 9735.67285 12658.70703
12672.0 0.0000789 9735.45020 12463.11426
11703.0 0.0000854 9735.21484 11744.19141
10486.0 0.0000954 9734.96582 10863.50391
9974.0 0.0001003 9734.70313 10331.09082
9706.0 0.0001030 9734.42578 10122.29102
9553.0 0.0001047 9734.13281 10071.15137
9491.0 0.0001054 9733.82227 10057.17480
9523.0 0.0001050 9733.49512 10064.89258
9657.0 0.0001036 9733.14941 10078.06445
9808.0 0.0001020 9732.78418 10129.78516
9816.0 0.0001019 9732.39941 10204.77930
10040.0 0.0000996 9731.99414 10336.90723
10451.0 0.0000957 9731.56641 10610.67090
10962.0 0.0000912 9731.11523 11278.10254
12133.0 0.0000824 9730.64160 12738.71387
14552.0 0.0000687 9730.14355 15177.82910
18158.0 0.0000551 9729.61914 17780.45313
19002.0 0.0000526 9729.06934 18635.24219
17310.0 0.0000578 9728.49219 17563.98828
16403.0 0.0000610 9727.88672 17108.81641
17473.0 0.0000572 9727.25293 17711.30078
17943.0 0.0000557 9726.58887 17429.80273
16272.0 0.0000615 9725.89355 15783.29102
14611.0 0.0000684 9725.16699 14671.76172
14605.0 0.0000685 9724.40820 14856.83887
15895.0 0.0000629 9723.61523 15172.11816
15786.0 0.0000633 9722.78809 14452.78223
14125.0 0.0000708 9721.92480 13249.53320
12749.0 0.0000784 9721.02637 12610.04980
12457.0 0.0000803 9720.08984 12411.65039
12617.0 0.0000793 9719.11621 12162.20801
12411.0 0.0000806 9718.10254 12120.41504
13570.0 0.0000737 9717.04883 12850.36523
15121.0 0.0000661 9715.95508 14302.02344
15226.0 0.0000657 9714.81836 15519.34277
14925.0 0.0000670 9713.63965 15340.06152
14852.0 0.0000673 9712.41699 14549.27148
15267.0 0.0000655 9711.15039 14768.05664
16076.0 0.0000622 9709.83789 16523.02539
18883.0 0.0000530 9708.47852 19826.41797
25589.0 0.0000391 9707.07227 24032.08789
26722.0 0.0000374 9705.61719 25887.22461
21722.0 0.0000460 9704.11426 22982.40430
18179.0 0.0000550 9702.56055 19718.78320
19208.0 0.0000521 9700.95508 18865.42773
18036.0 0.0000554 9699.29883 18082.06445
14879.0 0.0000672 9697.58887 15442.64648
12509.0 0.0000799 9695.82617 12798.33203
11275.0 0.0000887 9694.00879 11371.82910
10582.0 0.0000945 9692.13574 10858.13574
10361.0 0.0000965 9690.20703 10719.11230
10665.0 0.0000938 9688.22070 10714.45313
10640.0 0.0000940 9686.17676 10793.47168
11015.0 0.0000908 9684.07324 10976.57129
11417.0 0.0000876 9681.91113 11373.28613
12252.0 0.0000816 9679.68750 12351.74805
14368.0 0.0000696 9677.40332 14859.75488
19110.0 0.0000523 9675.05664 20232.81250
30599.0 0.0000327 9672.64648 28512.83008
39737.0 0.0000252 9670.17285 35665.27734
33965.0 0.0000294 9667.63477 35361.40625
27207.0 0.0000368 9665.03125 29700.51367
26432.0 0.0000378 9662.36133 26853.98047
28286.0 0.0000354 9659.62402 27297.31641
25437.0 0.0000393 9656.81934 26227.27930
21817.0 0.0000458 9653.94629 22421.85938
18203.0 0.0000549 9651.00391 18005.36719
15097.0 0.0000662 9647.99121 15021.28906
14184.0 0.0000705 9644.90820 13988.75781
14651.0 0.0000683 9641.75293 13609.40234
14226.0 0.0000703 9638.52637 12701.91309
12855.0 0.0000778 9635.22656 11693.54590
12040.0 0.0000831 9631.85254 11202.23828
12009.0 0.0000833 9628.40527 11263.17188
12294.0 0.0000813 9624.88281 11656.79785
12357.0 0.0000809 9621.28418 12068.98633
12231.0 0.0000818 9617.60938 12140.67188
11700.0 0.0000855 9613.85840 11890.30566
11408.0 0.0000877 9610.02930 11757.61035
11443.0 0.0000874 9606.12207 11823.60840
11648.0 0.0000859 9602.13672 11907.37598
11949.0 0.0000837 9598.07129 12078.47852
12789.0 0.0000782 9593.92676 12856.71973
14792.0 0.0000676 9589.70117 15133.59180
18926.0 0.0000528 9585.39551 20023.49805
27159.0 0.0000368 9581.00781 27450.61914
36112.0 0.0000277 9576.53809 34006.76953
35699.0 0.0000280 9571.98535 34368.68359
29121.0 0.0000343 9567.35156 30752.76953
29785.0 0.0000336 9562.63281 30963.61523
36671.0 0.0000273 9557.83008 36464.84766
40902.0 0.0000244 9552.94336 41842.12891
41133.0 0.0000243 9547.97168 41021.03906
35615.0 0.0000281 9542.91504 33431.75781
26507.0 0.0000377 9537.77344 26699.71094
23500.0 0.0000426 9532.54492 24576.66797
23329.0 0.0000429 9527.23047 23305.23633
20681.0 0.0000484 9521.83008 19340.51953
15600.0 0.0000641 9516.34180 14977.03320
12468.0 0.0000802 9510.76660 12303.13672
11110.0 0.0000900 9505.10449 11134.14258
10526.0 0.0000950 9499.35352 10655.43652
10289.0 0.0000972 9493.51465 10416.05566
10044.0 0.0000996 9487.58789 10254.06641
9880.0 0.0001012 9481.57227 10131.25977
9707.0 0.0001030 9475.46875 10038.07910
9635.0 0.0001038 9469.27539 9964.37402
9457.0 0.0001057 9462.99219 9906.28711
9340.0 0.0001071 9456.62109 9835.29199
9321.0 0.0001073 9450.16113 9795.61621
9204.0 0.0001086 9443.61035 9761.54883
9231.0 0.0001083 9436.97070 9732.41016
9299.0 0.0001075 9430.24023 9707.28418
9323.0 0.0001073 9423.42188 9685.79785
9366.0 0.0001068 9416.51172 9666.84961
9461.0 0.0001057 9409.51270 9650.36230
9627.0 0.0001039 9402.42383 9636.04883
9925.0 0.0001008 9395.24609 9623.71973
10389.0 0.0000963 9387.97754 9613.24219
10725.0 0.0000932 9380.61914 9604.54492
10929.0 0.0000915 9373.17188 9597.67188
10832.0 0.0000923 9365.63477 9590.22070
10567.0 0.0000946 9358.00781 9587.09180
10515.0 0.0000951 9350.29199 9586.01660
10503.0 0.0000952 9342.48730 9587.25195
10188.0 0.0000982 9334.59375 9590.39160
9767.0 0.0001024 9326.61035 9597.29395
9700.0 0.0001031 9318.53906 9607.84375
9784.0 0.0001022 9310.37988 9622.83691
9835.0 0.0001017 9302.13184 9643.36426
9869.0 0.0001013 9293.79688 9670.92578
9924.0 0.0001008 9285.37305 9707.61035
9930.0 0.0001007 9276.86230 9739.71289
9879.0 0.0001012 9268.26465 9805.69824
9889.0 0.0001011 9259.58105 9894.74414
10049.0 0.0000995 9250.81055 10017.30762
10294.0 0.0000971 9241.95605 10160.76855
10686.0 0.0000936 9233.01465 10428.38281
11277.0 0.0000887 9223.98828 10903.22070
12357.0 0.0000809 9214.87695 11920.06738
14244.0 0.0000702 9205.68164 14225.23633
18432.0 0.0000543 9196.40234 18809.10742
24745.0 0.0000404 9187.04004 25624.51758
30075.0 0.0000333 9177.59570 31828.36133
32681.0 0.0000306 9168.07031 32815.96094
31313.0 0.0000319 9158.46191 28786.67773
27878.0 0.0000359 9148.77246 26039.60742
25628.0 0.0000390 9139.00293 26007.17383
24281.0 0.0000412 9129.15332 25355.22852
21822.0 0.0000458 9119.22461 21673.37500
17815.0 0.0000561 9109.21777 17262.01563
14433.0 0.0000693 9099.13281 14457.63086
12982.0 0.0000770 9088.97266 13340.05664
12646.0 0.0000791 9078.73438 12856.20801
12245.0 0.0000817 9068.41992 12193.23730
11271.0 0.0000887 9058.03027 11363.46582
10623.0 0.0000941 9047.56738 10660.66309
10425.0 0.0000959 9037.03027 10279.18262
10309.0 0.0000970 9026.41992 10107.23535
10095.0 0.0000991 9015.73828 9925.32520
9645.0 0.0001037 9004.98633 9690.43848
9271.0 0.0001079 8994.16504 9498.92969
9136.0 0.0001095 8983.27246 9383.83105
8978.0 0.0001114 8972.31152 9326.92188
9017.0 0.0001109 8961.28320 9303.46875
8880.0 0.0001126 8950.18848 9290.30176
9050.0 0.0001105 8939.02734 9264.08105
8955.0 0.0001117 8927.80078 9218.90820
9054.0 0.0001104 8916.51172 9182.68750
8844.0 0.0001131 8905.16016 9159.65527
8891.0 0.0001125 8893.74609 9138.24414
8931.0 0.0001120 8882.26953 9110.68262
8857.0 0.0001129 8870.73340 9084.54297
8837.0 0.0001132 8859.13867 9076.70801
8814.0 0.0001135 8847.48633 9066.41699
8780.0 0.0001139 8835.77637 9061.95410
8736.0 0.0001145 8824.01074 9062.47754
8697.0 0.0001150 8812.19238 9068.53320
8778.0 0.0001139 8800.31836 9087.16211
8820.0 0.0001134 8788.39160 9110.00781
9032.0 0.0001107 8776.41309 9146.43262
8997.0 0.0001111 8764.38477 9203.62500
9234.0 0.0001083 8752.30664 9297.68848
9420.0 0.0001062 8740.18066 9475.73535
10026.0 0.0000997 8728.00781 9890.68652
10912.0 0.0000916 8715.78809 10851.15234
13064.0 0.0000765 8703.52734 12801.64160
15784.0 0.0000634 8691.22070 15716.29102
18181.0 0.0000550 8678.87109 18308.26172
18879.0 0.0000530 8666.48145 18522.07813
16241.0 0.0000616 8654.05176 16535.40430
14585.0 0.0000686 8641.58301 15024.22363
14099.0 0.0000709 8629.07715 14640.24805
14016.0 0.0000713 8616.53516 14115.06836
12503.0 0.0000800 8603.95996 12571.50977
10442.0 0.0000958 8591.34961 10932.18359
9438.0 0.0001060 8578.70605 9873.72949
9117.0 0.0001097 8566.03223 9359.13965
8996.0 0.0001112 8553.32813 9133.51367
8819.0 0.0001134 8540.59570 9024.33691
9037.0 0.0001107 8527.83496 8959.76855
9002.0 0.0001111 8515.04980 8919.75977
8903.0 0.0001123 8502.24121 8896.79297
9088.0 0.0001100 8489.40723 8888.38965
8999.0 0.0001111 8476.55176 8894.13086
9184.0 0.0001089 8463.67480 8917.49707
9156.0 0.0001092 8450.77832 8966.82422
9032.0 0.0001107 8437.86426 9068.06738
9347.0 0.0001070 8424.93262 9288.56738
9849.0 0.0001015 8411.98535 9758.03711
10507.0 0.0000952 8399.02441 10618.12402
11312.0 0.0000884 8386.05371 11815.36426
12450.0 0.0000803 8373.06738 12888.42773
13276.0 0.0000753 8360.07227 13226.35840
13432.0 0.0000744 8347.06738 12994.62891
13730.0 0.0000728 8334.05566 13290.52637
15861.0 0.0000630 8321.03711 15411.40430
20157.0 0.0000496 8308.01367 20034.67773
26497.0 0.0000377 8294.98730 26026.19336
28705.0 0.0000348 8281.96094 29251.73047
25441.0 0.0000393 8268.93066 26207.84375
20803.0 0.0000481 8255.90039 21296.99219
19111.0 0.0000523 8242.87305 19473.77148
19510.0 0.0000513 8229.84766 19716.98828
17994.0 0.0000556 8216.82715 18271.42969
14811.0 0.0000675 8203.81250 14970.27148
12502.0 0.0000800 8190.80469 12535.15820
12131.0 0.0000824 8177.80762 12192.30176
13517.0 0.0000740 8164.81738 13859.81445
15722.0 0.0000636 8151.83838 16603.30859
18840.0 0.0000531 8138.87158 18377.60742
18443.0 0.0000542 8125.91797 17445.54688
15651.0 0.0000639 8112.97900 15653.21094
14342.0 0.0000697 8100.05615 15100.22852
15293.0 0.0000654 8087.15088 15302.58887
15552.0 0.0000643 8074.26367 14488.82031
13081.0 0.0000764 8061.39893 12550.93652
10573.0 0.0000946 8048.55273 10898.73340
9575.0 0.0001044 8035.72900 9984.56055
9282.0 0.0001077 8022.92871 9497.09180
8965.0 0.0001115 8010.15283 9079.04199
8439.0 0.0001185 7997.40283 8728.17871
8374.0 0.0001194 7984.68018 8493.56543
8154.0 0.0001226 7971.98584 8355.43164
8056.0 0.0001241 7959.32373 8276.24707
7935.0 0.0001260 7946.68945 8217.00977
7932.0 0.0001261 7934.08740 8170.05518
7937.0 0.0001260 7921.51807 8130.67188
7877.0 0.0001270 7908.98291 8099.14014
7679.0 0.0001302 7896.48291 8069.32861
7776.0 0.0001286 7884.01953 8042.72754
7740.0 0.0001292 7871.59375 8018.74023
7702.0 0.0001298 7859.20898 7996.96533
7732.0 0.0001293 7846.86133 7977.13867
7752.0 0.0001290 7834.55420 7959.13428
7699.0 0.0001299 7822.28906 7942.95459
7632.0 0.0001310 7810.06689 7928.77637
7629.0 0.0001311 7797.88818 7917.10889
7689.0 0.0001301 7785.75488 7907.55078
7736.0 0.0001293 7773.66748 7907.10889
7849.0 0.0001274 7761.62646 7929.11230
8069.0 0.0001239 7749.63623 7995.36768
8270.0 0.0001209 7737.69238 8126.70215
8234.0 0.0001214 7725.79785 8302.36523
8358.0 0.0001196 7713.95459 8423.42578
8444.0 0.0001184 7702.16260 8364.93652
8305.0 0.0001204 7690.42334 8222.26074
8221.0 0.0001216 7678.73730 8132.98340
8216.0 0.0001217 7667.10547 8107.52930
8261.0 0.0001211 7655.53076 8058.38330
8301.0 0.0001205 7644.01025 7957.34082
8359.0 0.0001196 7632.54590 7847.60107
8519.0 0.0001174 7621.13965 7772.92041
8644.0 0.0001157 7609.79150 7732.05762
8631.0 0.0001159 7598.50244 7714.17285
8523.0 0.0001173 7587.27344 7702.29004
8415.0 0.0001188 7576.10449 7686.60791
8267.0 0.0001210 7564.99902 7683.57959
8116.0 0.0001232 7553.95361 7684.33984
7967.0 0.0001255 7542.97119 7690.03613
7836.0 0.0001276 7532.05176 7695.75098
7736.0 0.0001293 7521.19629 7715.37012
7611.0 0.0001314 7510.40527 7747.30615
7608.0 0.0001314 7499.67969 7811.40137
7688.0 0.0001301 7489.01904 7913.30469
7852.0 0.0001274 7478.42578 8144.68115
8372.0 0.0001194 7467.90088 8689.56348
9430.0 0.0001060 7457.44141 9807.15918
11246.0 0.0000889 7447.04980 11527.50195
13246.0 0.0000755 7436.72656 13161.84961
13917.0 0.0000719 7426.47266 13485.81641
12720.0 0.0000786 7416.28711 12340.73633
11140.0 0.0000898 7406.17188 11271.15723
10659.0 0.0000938 7396.12695 10980.17285
10876.0 0.0000919 7386.15430 10906.99023
10534.0 0.0000949 7376.25049 10250.84668
9576.0 0.0001044 7366.41846 9232.13574
8628.0 0.0001159 7356.65771 8433.48145
8054.0 0.0001242 7346.96875 7990.98486
7934.0 0.0001260 7337.35205 7790.54688
7853.0 0.0001273 7327.80811 7702.70605
7874.0 0.0001270 7318.33643 7659.81885
8049.0 0.0001242 7308.93994 7639.03174
8139.0 0.0001229 7299.61523 7634.95801
8122.0 0.0001231 7290.36328 7654.17139
8230.0 0.0001215 7281.18555 7705.99902
8348.0 0.0001198 7272.08105 7842.95410
8528.0 0.0001173 7263.05078 8126.83789
8722.0 0.0001147 7254.09473 8598.27539
8862.0 0.0001128 7245.21240 9127.27539
9113.0 0.0001097 7236.40479 9421.24902
9444.0 0.0001059 7227.67236 9461.54297
10076.0 0.0000992 7219.01318 9853.44043
11477.0 0.0000871 7210.42822 11105.23438
13432.0 0.0000744 7201.91797 12971.79492
14754.0 0.0000678 7193.48145 14264.46680
13420.0 0.0000745 7185.12012 13785.91016
11583.0 0.0000863 7176.83252 12241.93945
10901.0 0.0000917 7168.61914 11273.05664
11399.0 0.0000877 7160.48193 11153.21777
11330.0 0.0000883 7152.41699 11064.46680
10468.0 0.0000955 7144.42627 10336.94922
9570.0 0.0001045 7136.50879 9437.10645
9275.0 0.0001078 7128.66553 8915.41309
9621.0 0.0001039 7120.89551 8953.11914
10550.0 0.0000948 7113.19873 9726.87988
12204.0 0.0000819 7105.57568 11636.56836
15040.0 0.0000665 7098.02686 14952.15625
18772.0 0.0000533 7090.54883 18840.25000
21176.0 0.0000472 7083.14355 21035.11719
19827.0 0.0000504 7075.81055 20145.16602
17725.0 0.0000564 7068.54932 18613.74023
17945.0 0.0000557 7061.35986 18357.52734
18826.0 0.0000531 7054.24170 18394.95313
17635.0 0.0000567 7047.19434 17138.83984
14897.0 0.0000671 7040.21777 15036.32617
13427.0 0.0000745 7033.31250 13797.03906
13786.0 0.0000725 7026.47607 13783.08789
14511.0 0.0000689 7019.70898 14074.16016
14202.0 0.0000704 7013.01074 13658.58398
12282.0 0.0000814 7006.38232 12376.55859
10531.0 0.0000950 6999.82129 11143.02539
10199.0 0.0000980 6993.32861 10624.50977
10638.0 0.0000940 6986.90283 10528.72559
10369.0 0.0000964 6980.54541 10222.06250
9584.0 0.0001043 6974.25342 9634.38281
9192.0 0.0001088 6968.02734 9299.04004
9467.0 0.0001056 6961.86670 9689.86230
10824.0 0.0000924 6955.77100 11079.70117
13313.0 0.0000751 6949.73975 13452.25488
15684.0 0.0000638 6943.77246 16164.52441
18238.0 0.0000548 6937.86865 17944.40625
18410.0 0.0000543 6932.02881 17776.98242
16041.0 0.0000623 6926.25000 15803.41992
13777.0 0.0000726 6920.53271 14086.36621
13059.0 0.0000766 6914.87695 13423.96484
13349.0 0.0000749 6909.28125 13039.13965
12434.0 0.0000804 6903.74561 11993.52734
10878.0 0.0000919 6898.26953 10454.82910
9450.0 0.0001058 6892.85205 9414.42676
9259.0 0.0001080 6887.49268 9082.09082
9161.0 0.0001092 6882.19141 8979.83496
8930.0 0.0001120 6876.94629 8643.95605
8249.0 0.0001212 6871.75684 8215.65625
7999.0 0.0001250 6866.62354 7992.52588
7952.0 0.0001258 6861.54492 7957.67432
8024.0 0.0001246 6856.52002 7883.65479
7677.0 0.0001303 6851.54883 7644.27637
7402.0 0.0001351 6846.63086 7377.94287
6936.0 0.0001442 6841.76563 7194.71729
6849.0 0.0001460 6836.95117 7096.98145
6961.0 0.0001437 6832.18701 7048.10205
6987.0 0.0001431 6827.47314 7023.58057
6853.0 0.0001459 6822.80908 7004.80078
6779.0 0.0001475 6818.19336 6992.06299
6948.0 0.0001439 6813.62549 6986.10840
7030.0 0.0001422 6809.10547 6993.41064
7075.0 0.0001413 6804.63232 7020.77246
7227.0 0.0001384 6800.20459 7082.06494
7345.0 0.0001361 6795.82178 7174.90430
7500.0 0.0001333 6791.48340 7261.84033
7349.0 0.0001361 6787.18896 7277.09570
7109.0 0.0001407 6782.93701 7211.82373
7091.0 0.0001410 6778.72803 7145.37988
6992.0 0.0001430 6774.56055 7120.86279
7024.0 0.0001424 6770.43359 7117.93604
6864.0 0.0001457 6766.34814 7092.24219
6925.0 0.0001444 6762.30127 7040.59521
6735.0 0.0001485 6758.29248 6994.45752
6727.0 0.0001487 6754.32227 6971.99512
6816.0 0.0001467 6750.38965 6971.48975
6881.0 0.0001453 6746.49316 6988.90137
6783.0 0.0001474 6742.63281 7007.61182
6839.0 0.0001462 6738.80811 7070.40186
7074.0 0.0001414 6735.01855 7189.81299
7402.0 0.0001351 6731.26172 7455.92627
7933.0 0.0001261 6727.53809 8075.14160
9096.0 0.0001099 6723.84717 9348.50000
11159.0 0.0000896 6720.18799 11311.22461
14205.0 0.0000704 6716.56055 13122.86621
14531.0 0.0000688 6712.96289 13330.15137
11342.0 0.0000882 6709.39551 11889.56738
9728.0 0.0001028 6705.85742 10601.76367
9927.0 0.0001007 6702.34766 10336.98730
10992.0 0.0000910 6698.86572 10521.04102
10589.0 0.0000944 6695.41064 10110.23438
8874.0 0.0001127 6691.98242 9054.23926
7888.0 0.0001268 6688.58008 8073.64795
7450.0 0.0001342 6685.20313 7483.24658
7121.0 0.0001404 6681.85107 7224.48047
7043.0 0.0001420 6678.52295 7142.48047
7142.0 0.0001400 6675.21924 7137.62158
7288.0 0.0001372 6671.93750 7194.11768
7441.0 0.0001344 6668.67871 7395.18506
7823.0 0.0001278 6665.44141 7922.70898
8695.0 0.0001150 6662.22510 8943.55762
9868.0 0.0001013 6659.02979 10293.36426
10907.0 0.0000917 6655.85449 11204.00879
10894.0 0.0000918 6652.69922 10868.82422
9705.0 0.0001030 6649.56348 9844.12109
8868.0 0.0001128 6646.44531 9249.85840
8979.0 0.0001114 6643.34570 9308.71973
9261.0 0.0001080 6640.26318 9455.18652
8989.0 0.0001112 6637.19824 9072.57715
8320.0 0.0001202 6634.14941 8317.26270
7639.0 0.0001309 6631.11719 7645.97119
7143.0 0.0001400 6628.10059 7257.48877
6937.0 0.0001442 6625.10010 7099.34668
6961.0 0.0001437 6622.11328 7035.66748
6904.0 0.0001448 6619.14111 6963.74316
6676.0 0.0001498 6616.18311 6876.84521
6529.0 0.0001532 6613.23877 6803.66162
6476.0 0.0001544 6610.30713 6757.68115
6491.0 0.0001541 6607.38867 6733.30664
6585.0 0.0001519 6604.48242 6722.59717
6621.0 0.0001510 6601.58887 6724.90674
6658.0 0.0001502 6598.70703 6746.41992
6755.0 0.0001480 6595.83643 6809.02539
6841.0 0.0001462 6592.97754 6937.31787
7011.0 0.0001426 6590.12891 7122.62939
7324.0 0.0001365 6587.29053 7279.05078
7415.0 0.0001349 6584.46289 7278.28467
7148.0 0.0001399 6581.64502 7136.47461
7022.0 0.0001424 6578.83691 7014.43506
7013.0 0.0001426 6576.03955 6981.18848
7014.0 0.0001426 6573.25000 6986.60938
6907.0 0.0001448 6570.47021 6939.38135
6795.0 0.0001472 6567.69873 6834.02490
6732.0 0.0001485 6564.93652 6733.63721
6711.0 0.0001490 6562.18213 6668.62646
6610.0 0.0001513 6559.43652 6634.63184
6537.0 0.0001530 6556.69873 6617.73535
6577.0 0.0001520 6553.96973 6608.55859
6622.0 0.0001510 6551.24805 6602.16406
6719.0 0.0001488 6548.53418 6597.79541
6694.0 0.0001494 6545.82764 6595.59619
6633.0 0.0001508 6543.12939 6597.22852
6674.0 0.0001498 6540.43848 6606.56885
6649.0 0.0001504 6537.75439 6623.76563
6617.0 0.0001511 6535.07813 6661.11035
6688.0 0.0001495 6532.40918 6696.21240
6724.0 0.0001487 6529.74756 6701.18506
6707.0 0.0001491 6527.09326 6673.07813
6655.0 0.0001503 6524.44580 6641.48242
6668.0 0.0001500 6521.80566 6632.12109
6688.0 0.0001495 6519.17285 6633.61084
6851.0 0.0001460 6516.54736 6626.97314
6944.0 0.0001440 6513.92920 6606.66748
6841.0 0.0001462 6511.31836 6584.02832
6838.0 0.0001462 6508.71533 6569.66504
6754.0 0.0001481 6506.11963 6567.59521
6675.0 0.0001498 6503.53125 6565.77588
6694.0 0.0001494 6500.95020 6570.47559
6712.0 0.0001490 6498.37695 6572.97705
6713.0 0.0001490 6495.81201 6577.64063
6645.0 0.0001505 6493.25488 6586.95361
6515.0 0.0001535 6490.70557 6596.67480
6594.0 0.0001517 6488.16504 6609.97754
6632.0 0.0001508 6485.63232 6629.96484
6572.0 0.0001522 6483.10840 6655.96387
6599.0 0.0001515 6480.59277 6695.26611
6674.0 0.0001498 6478.08594 6763.74316
6831.0 0.0001464 6475.58838 6905.25293
7108.0 0.0001407 6473.10010 7216.99902
7538.0 0.0001327 6470.62109 7833.95654
8111.0 0.0001233 6468.15186 8817.16602
8951.0 0.0001117 6465.69336 9907.49219
9586.0 0.0001043 6463.24365 10463.12793
10489.0 0.0000953 6460.80469 10024.65723
10000.0 0.0001000 6458.37598 9202.88184
8762.0 0.0001141 6455.95801 8746.77148
8315.0 0.0001203 6453.55127 8730.94629
8323.0 0.0001201 6451.15576 8732.95801
8460.0 0.0001182 6448.77148 8348.06055
8263.0 0.0001210 6446.39990 7746.54492
7567.0 0.0001322 6444.03955 7254.32666
6978.0 0.0001433 6441.69141 6968.83545
6750.0 0.0001481 6439.35645 6843.46826
6765.0 0.0001478 6437.03418 6810.69775
6904.0 0.0001448 6434.72510 6845.09766
7031.0 0.0001422 6432.42920 6973.16699
7025.0 0.0001423 6430.14697 7242.74365
7299.0 0.0001370 6427.87988 7643.27686
7673.0 0.0001303 6425.62646 8006.90820
7916.0 0.0001263 6423.38721 8061.27734
8056.0 0.0001241 6421.16357 7806.73193
7688.0 0.0001301 6418.95508 7574.91650
7543.0 0.0001326 6416.76270 7547.61572
7598.0 0.0001316 6414.58545 7660.06836
7604.0 0.0001315 6412.42480 7733.81006
7858.0 0.0001273 6410.28076 7749.58203
8057.0 0.0001241 6408.15430 7987.94043
8718.0 0.0001147 6406.04395 8890.60059
10290.0 0.0000972 6403.95166 10945.85449
14119.0 0.0000708 6401.87744 14224.39746
17927.0 0.0000558 6399.82080 17576.76367
18974.0 0.0000527 6397.78320 18891.80859
18025.0 0.0000555 6395.76416 18023.41797
16649.0 0.0000601 6393.76465 16722.16797
16233.0 0.0000616 6391.78467 15620.37402
15613.0 0.0000640 6389.82373 14905.82520
14531.0 0.0000688 6387.88330 14083.24316
13207.0 0.0000757 6385.96338 12755.94336
11686.0 0.0000856 6384.06396 11354.12500
10451.0 0.0000957 6382.18555 9958.88477
9486.0 0.0001054 6380.32861 8807.55957
8636.0 0.0001158 6378.49316 8240.96289
8362.0 0.0001196 6376.68018 8207.69629
8571.0 0.0001167 6374.88916 8365.28809
8655.0 0.0001155 6373.12012 8319.44141
8501.0 0.0001176 6371.37402 8097.51172
8181.0 0.0001222 6369.65137 8126.56787
8418.0 0.0001188 6367.95166 8714.36523
9527.0 0.0001050 6366.27588 9819.30566
10396.0 0.0000962 6364.62354 10906.70996
11516.0 0.0000868 6362.99561 11171.14746
11198.0 0.0000893 6361.39209 10466.12402
9862.0 0.0001014 6359.81348 9803.67285
9603.0 0.0001041 6358.25928 10087.57324
10306.0 0.0000970 6356.72998 11430.98828
12292.0 0.0000814 6355.22607 13095.50879
14100.0 0.0000709 6353.74805 13729.36426
13964.0 0.0000716 6352.29541 12597.28320
12096.0 0.0000827 6350.86865 10858.99316
10184.0 0.0000982 6349.46826 9797.86621
9508.0 0.0001052 6348.09424 9648.65527
9751.0 0.0001026 6346.74609 9812.71191
10100.0 0.0000990 6345.42480 9445.49414
9431.0 0.0001060 6344.13037 8585.82520
8331.0 0.0001200 6342.86328 7781.10986
7490.0 0.0001335 6341.62256 7273.00000
7126.0 0.0001403 6340.40918 7031.60400
7011.0 0.0001426 6339.22363 6940.10693
7091.0 0.0001410 6338.06494 6909.29297
6965.0 0.0001436 6336.93359 6919.48047
7054.0 0.0001418 6335.83057 7005.39307
7258.0 0.0001378 6334.75439 7258.46240
7677.0 0.0001303 6333.70654 7843.10938
8824.0 0.0001133 6332.68604 8918.91699
10841.0 0.0000922 6331.69385 10398.30859
12142.0 0.0000824 6330.72900 11673.96582
11395.0 0.0000878 6329.79248 11925.96680
10645.0 0.0000939 6328.88330 11376.09082
10779.0 0.0000928 6328.00244 10980.87207
11471.0 0.0000872 6327.14893 10890.70898
11501.0 0.0000869 6326.32373 10754.61133
10474.0 0.0000955 6325.52588 10310.97559
9843.0 0.0001016 6324.75586 9843.92871
9680.0 0.0001033 6324.01318 9611.64746
9259.0 0.0001080 6323.29883 9269.42578
8294.0 0.0001206 6322.61133 8587.92578
7708.0 0.0001297 6321.95166 7919.64014
7423.0 0.0001347 6321.31885 7557.78809
7392.0 0.0001353 6320.71338 7466.23682
7456.0 0.0001341 6320.13477 7409.03271
7242.0 0.0001381 6319.58350 7224.06885
7044.0 0.0001420 6319.05811 6977.47705
6888.0 0.0001452 6318.55957 6788.94775
6812.0 0.0001468 6318.08740 6698.10986
6801.0 0.0001470 6317.64111 6726.29004
6800.0 0.0001471 6317.22070 6872.72998
6951.0 0.0001439 6316.82617 7144.33057
7114.0 0.0001406 6316.45654 7484.55029
7346.0 0.0001361 6316.11230 7699.62451
7520.0 0.0001330 6315.79297 7595.53809
7443.0 0.0001344 6315.49805 7328.62158
7112.0 0.0001406 6315.22705 7142.79443
6994.0 0.0001430 6314.98047 7108.96191
7159.0 0.0001397 6314.75732 7140.71826
7299.0 0.0001370 6314.55762 7079.27002
7344.0 0.0001362 6314.38037 6910.81299
7099.0 0.0001409 6314.22559 6743.47559
6895.0 0.0001450 6314.09326 6635.43457
6860.0 0.0001458 6313.98291 6602.49609
6809.0 0.0001469 6313.89355 6634.44629
6943.0 0.0001440 6313.82520 6760.36914
7074.0 0.0001414 6313.77734 7021.07959
7217.0 0.0001386 6313.75000 7423.00732
7596.0 0.0001316 6313.74170 7844.86816
7889.0 0.0001268 6313.75293 8007.23779
7749.0 0.0001290 6313.78271 7770.40039
7496.0 0.0001334 6313.83057 7442.82617
7355.0 0.0001360 6313.89648 7272.39893
7283.0 0.0001373 6313.97900 7284.63770
7338.0 0.0001363 6314.07861 7318.87109
7260.0 0.0001377 6314.19385 7194.11523
7027.0 0.0001423 6314.32520 6956.36182
6853.0 0.0001459 6314.47119 6739.86475
6710.0 0.0001490 6314.63184 6600.86035
6580.0 0.0001520 6314.80615 6529.20898
6478.0 0.0001544 6314.99365 6497.89258
6508.0 0.0001537 6315.19385 6482.87646
6518.0 0.0001534 6315.40625 6475.04297
6459.0 0.0001548 6315.62988 6475.07227
6358.0 0.0001573 6315.86475 6482.74756
6361.0 0.0001572 6316.10938 6500.59570
6361.0 0.0001572 6316.36377 6535.50098
6491.0 0.0001541 6316.62695 6607.05566
6622.0 0.0001510 6316.89795 6756.96924
6758.0 0.0001480 6317.17676 7046.17090
7186.0 0.0001392 6317.46240 7488.77783
7628.0 0.0001311 6317.75439 7943.83203
8127.0 0.0001230 6318.05127 8103.05322
8327.0 0.0001201 6318.35352 7844.40576
7684.0 0.0001301 6318.65918 7490.62012
7207.0 0.0001388 6318.96826 7323.07422
7119.0 0.0001405 6319.28027 7382.21729
7280.0 0.0001374 6319.59375 7500.83008
7744.0 0.0001291 6319.90869 7533.24463
7723.0 0.0001295 6320.22412 7601.96143
7913.0 0.0001264 6320.53857 7923.07275
8341.0 0.0001199 6320.85254 8480.66797
8670.0 0.0001153 6321.16406 8902.45410
8599.0 0.0001163 6321.47314 8773.31445
8289.0 0.0001206 6321.77881 8275.73926
7753.0 0.0001290 6322.08008 7855.95557
7570.0 0.0001321 6322.37646 7746.19189
7644.0 0.0001308 6322.66699 7839.16113
7582.0 0.0001319 6322.95117 7820.53418
7484.0 0.0001336 6323.22852 7572.48291
7238.0 0.0001382 6323.49707 7250.35107
6935.0 0.0001442 6323.75684 7014.14941
6861.0 0.0001458 6324.00684 6910.03271
6852.0 0.0001459 6324.24707 6917.70264
6859.0 0.0001458 6324.47510 7022.81689
7085.0 0.0001411 6324.69189 7269.58057
7219.0 0.0001385 6324.89502 7791.29883
7797.0 0.0001283 6325.08545 8780.36621
8885.0 0.0001125 6325.26074 10344.57031
11812.0 0.0000847 6325.42139 12231.82227
15554.0 0.0000643 6325.56592 13501.39844
14602.0 0.0000685 6325.69287 13133.18359
11654.0 0.0000858 6325.80322 11823.40234
9905.0 0.0001010 6325.89502 10879.48926
9921.0 0.0001008 6325.96777 10831.79297
11576.0 0.0000864 6326.02051 11429.56055
12640.0 0.0000791 6326.05273 11847.57715
11752.0 0.0000851 6326.06299 11546.35156
10470.0 0.0000955 6326.05176 10636.03320
9444.0 0.0001059 6326.01709 9519.37598
8662.0 0.0001154 6325.95898 8725.53320
8201.0 0.0001219 6325.87646 8469.93066
8257.0 0.0001211 6325.76855 8674.55371
8691.0 0.0001151 6325.63477 9035.65625
8711.0 0.0001148 6325.47412 9177.54102
8794.0 0.0001137 6325.28662 8911.76172
8845.0 0.0001131 6325.07080 8360.33594
8459.0 0.0001182 6324.82617 7869.41602
7665.0 0.0001305 6324.55176 7619.97266
7307.0 0.0001369 6324.24756 7587.61182
7381.0 0.0001355 6323.91211 7619.04639
7580.0 0.0001319 6323.54541 7585.76855
7862.0 0.0001272 6323.14600 7602.47314
8151.0 0.0001227 6322.71436 7849.98242
8369.0 0.0001195 6322.24902 8319.08691
9125.0 0.0001096 6321.74902 8697.57715
9292.0 0.0001076 6321.21484 8550.07813
9021.0 0.0001109 6320.64502 8028.81787
8312.0 0.0001203 6320.03906 7608.18018
8048.0 0.0001243 6319.39648 7493.89941
7839.0 0.0001276 6318.71631 7597.82813
7853.0 0.0001273 6317.99902 7635.77051
8038.0 0.0001244 6317.24316 7430.22900
7608.0 0.0001314 6316.44824 7141.26465
7181.0 0.0001393 6315.61377 6923.65625
6919.0 0.0001445 6314.73975 6791.01563
6735.0 0.0001485 6313.82568 6702.99658
6542.0 0.0001529 6312.86963 6641.87549
6595.0 0.0001516 6311.87305 6599.67383
6422.0 0.0001557 6310.83398 6578.02930
6599.0 0.0001515 6309.75293 6570.79688
6521.0 0.0001534 6308.62842 6558.56250
6536.0 0.0001530 6307.46143 6537.74951
6443.0 0.0001552 6306.25049 6516.48682
6546.0 0.0001528 6304.99609 6499.90723
6601.0 0.0001515 6303.69678 6491.52295
6741.0 0.0001483 6302.35303 6493.61279
6669.0 0.0001499 6300.96387 6503.48584
6570.0 0.0001522 6299.52930 6520.55566
6602.0 0.0001515 6298.04883 6545.72998
6503.0 0.0001538 6296.52246 6581.98291
6661.0 0.0001501 6294.95020 6636.17480
6699.0 0.0001493 6293.33105 6724.20801
6769.0 0.0001477 6291.66504 6882.98730
6992.0 0.0001430 6289.95166 7191.77490
7320.0 0.0001366 6288.19141 7790.77490
8181.0 0.0001222 6286.38330 8823.92871
9561.0 0.0001046 6284.52783 10283.98730
11601.0 0.0000862 6282.62451 11850.79395
12704.0 0.0000787 6280.67285 12759.45898
11706.0 0.0000854 6278.67334 12626.21680
10639.0 0.0000940 6276.62646 11884.27930
10504.0 0.0000952 6274.53027 10959.47168
10390.0 0.0000962 6272.38574 10372.92871
10595.0 0.0000944 6270.19287 10177.01172
10194.0 0.0000981 6267.95166 9920.88477
9076.0 0.0001102 6265.66211 9398.55957
8395.0 0.0001191 6263.32373 8666.35938
7868.0 0.0001271 6260.93701 7866.51514
7406.0 0.0001350 6258.50244 7241.06689
7060.0 0.0001416 6256.01855 6859.39307
6912.0 0.0001447 6253.48682 6663.27002
6524.0 0.0001533 6250.90674 6571.21240
6438.0 0.0001553 6248.27832 6528.84521
6304.0 0.0001586 6245.60205 6499.84961
6401.0 0.0001562 6242.87842 6480.09912
6366.0 0.0001571 6240.10645 6467.22266
6284.0 0.0001591 6237.28760 6459.85400
6291.0 0.0001590 6234.42090 6459.02441
6383.0 0.0001567 6231.50732 6466.80811
6332.0 0.0001579 6228.54688 6479.74854
6402.0 0.0001562 6225.53955 6504.32910
6401.0 0.0001562 6222.48633 6550.99854
6583.0 0.0001519 6219.38672 6650.41357
6928.0 0.0001443 6216.24121 6849.41797
7252.0 0.0001379 6213.05078 7198.55713
7617.0 0.0001313 6209.81543 7700.05615
8228.0 0.0001215 6206.53516 8229.13477
8639.0 0.0001158 6203.21045 8492.78418
8672.0 0.0001153 6199.84131 8381.52441
8617.0 0.0001160 6196.42920 8275.83691
8488.0 0.0001178 6192.97363 8556.58789
8779.0 0.0001139 6189.47510 9308.49805
9439.0 0.0001059 6185.93506 10215.71191
10231.0 0.0000977 6182.35303 10544.05371
10324.0 0.0000969 6178.72998 9941.62012
9378.0 0.0001066 6175.06543 9047.14844
8520.0 0.0001174 6171.36084 8498.75879
8323.0 0.0001201 6167.61621 8493.37207
8640.0 0.0001157 6163.83301 8877.84961
9219.0 0.0001085 6160.01074 9262.33301
9507.0 0.0001052 6156.15088 9389.85742
9264.0 0.0001079 6152.25391 9193.63672
8859.0 0.0001129 6148.31934 8650.75781
8377.0 0.0001194 6144.34814 8058.54980
7907.0 0.0001265 6140.34180 7698.23779
7695.0 0.0001300 6136.30029 7633.30420
7802.0 0.0001282 6132.22461 7786.76318
8003.0 0.0001250 6128.11523 8027.60449
8319.0 0.0001202 6123.97314 8382.29492
8836.0 0.0001132 6119.79834 9032.05176
9470.0 0.0001056 6115.59277 9871.32715
10116.0 0.0000989 6111.35596 10277.28906
10014.0 0.0000999 6107.08887 9738.77832
8944.0 0.0001118 6102.79199 8805.71191
8103.0 0.0001234 6098.46680 8183.29199
7918.0 0.0001263 6094.11377 8089.87012
8202.0 0.0001219 6089.73340 8320.17480
8527.0 0.0001173 6085.32617 8388.21973
8344.0 0.0001198 6080.89502 8038.51855
8040.0 0.0001244 6076.43799 7545.61621
7723.0 0.0001295 6071.95703 7159.56348
7744.0 0.0001291 6067.45264 6937.61621
7772.0 0.0001287 6062.92578 6844.71436
7478.0 0.0001337 6058.37744 6874.21289
7307.0 0.0001369 6053.80811 7093.66846
7223.0 0.0001384 6049.21924 7659.00586
7635.0 0.0001310 6044.61230 8774.13672
8597.0 0.0001163 6039.98584 10493.04785
10250.0 0.0000976 6035.34229 12379.76270
13015.0 0.0000768 6030.68164 13271.90820
14770.0 0.0000677 6026.00586 12382.87402
13145.0 0.0000761 6021.31494 10777.21387
10294.0 0.0000971 6016.61035 9694.81348
8867.0 0.0001128 6011.89258 9516.27051
8990.0 0.0001112 6007.16260 9874.91406
9933.0 0.0001007 6002.42188 9919.22266
10409.0 0.0000961 5997.66943 9189.01367
9509.0 0.0001052 5992.90820 8168.45801
7914.0 0.0001264 5988.13770 7338.83691
7129.0 0.0001403 5983.35889 6832.15869
6523.0 0.0001533 5978.57373 6580.78271
6350.0 0.0001575 5973.78223 6474.41504
6342.0 0.0001577 5968.98535 6442.58008
6370.0 0.0001570 5964.18457 6460.15479
6403.0 0.0001562 5959.37988 6528.45605
6702.0 0.0001492 5954.57227 6674.21875
7080.0 0.0001412 5949.76270 6941.22949
7699.0 0.0001299 5944.95215 7403.23730
8264.0 0.0001210 5940.14160 8121.15723
9230.0 0.0001083 5935.33154 9004.74512
9810.0 0.0001019 5930.52295 9762.52344
9852.0 0.0001015 5925.71777 9975.47070
9428.0 0.0001061 5920.91504 9509.48242
8749.0 0.0001143 5916.11621 8911.70508
8454.0 0.0001183 5911.32178 8639.53613
8803.0 0.0001136 5906.53369 8678.41504
8920.0 0.0001121 5901.75195 8710.30371
8443.0 0.0001184 5896.97705 8448.04590
7748.0 0.0001291 5892.21045 7887.22363
7153.0 0.0001398 5887.45264 7316.62598
6756.0 0.0001480 5882.70557 6922.79785
6679.0 0.0001497 5877.96777 6688.57959
6469.0 0.0001546 5873.24121 6511.23633
6334.0 0.0001579 5868.52637 6354.10498
6206.0 0.0001611 5863.82422 6237.16162
6194.0 0.0001614 5859.13525 6169.40869
6161.0 0.0001623 5854.46045 6161.52783
6231.0 0.0001605 5849.80029 6224.89746
6458.0 0.0001548 5845.15674 6370.77686
6609.0 0.0001513 5840.52832 6572.33740
7045.0 0.0001419 5835.91650 6710.61182
6971.0 0.0001435 5831.32227 6650.89355
6540.0 0.0001529 5826.74609 6457.34668
6326.0 0.0001581 5822.18896 6294.13086
6145.0 0.0001627 5817.65088 6239.81543
6361.0 0.0001572 5813.13281 6277.36621
6453.0 0.0001550 5808.63623 6315.97705
6568.0 0.0001523 5804.15967 6275.60010
6336.0 0.0001578 5799.70459 6179.95654
6182.0 0.0001618 5795.27197 6107.45361
6085.0 0.0001643 5790.86230 6109.18262
6076.0 0.0001646 5786.47559 6200.04785
6384.0 0.0001566 5782.11279 6365.63281
6555.0 0.0001526 5777.77393 6543.17871
6572.0 0.0001522 5773.46045 6615.08350
6417.0 0.0001558 5769.17236 6518.83740
6227.0 0.0001606 5764.90869 6352.73047
6205.0 0.0001612 5760.67188 6241.02148
6267.0 0.0001596 5756.46094 6212.47949
6109.0 0.0001637 5752.27686 6236.94336
6292.0 0.0001589 5748.12012 6238.80908
6052.0 0.0001652 5743.99072 6167.83545
5791.0 0.0001727 5739.88916 6062.02930
5892.0 0.0001697 5735.81641 5969.88916
5861.0 0.0001706 5731.77148 5910.86865
5636.0 0.0001774 5727.75488 5876.03174
5756.0 0.0001737 5723.76758 5858.80469
5808.0 0.0001722 5719.80957 5851.07617
5823.0 0.0001717 5715.88086 5848.34424
5716.0 0.0001749 5711.98193 5849.03809
5871.0 0.0001703 5708.11279 5852.35693
5870.0 0.0001704 5704.27441 5858.71826
5887.0 0.0001699 5700.46484 5869.34375
5976.0 0.0001673 5696.68652 5886.78320
6025.0 0.0001660 5692.93799 5914.81641
6126.0 0.0001632 5689.22021 5961.67871
6284.0 0.0001591 5685.53271 6041.80322
6533.0 0.0001531 5681.87598 6170.59375
6670.0 0.0001499 5678.24951 6360.64258
6809.0 0.0001469 5674.65430 6600.47510
7013.0 0.0001426 5671.09033 6818.80908
7159.0 0.0001397 5667.55615 6893.71338
7129.0 0.0001403 5664.05225 6820.57861
6911.0 0.0001447 5660.57959 6751.88330
7091.0 0.0001410 5657.13672 6824.95703
7374.0 0.0001356 5653.72510 7154.29053
8088.0 0.0001236 5650.34326 7895.98096
9333.0 0.0001071 5646.99170 9220.02246
10955.0 0.0000913 5643.67090 11185.91602
12931.0 0.0000773 5640.37891 13412.17676
14460.0 0.0000692 5637.11670 14719.04102
14317.0 0.0000698 5633.88428 14040.51465
12158.0 0.0000823 5630.68115 12145.24609
10146.0 0.0000986 5627.50684 10553.41699
9539.0 0.0001048 5624.36133 9985.27832
9854.0 0.0001015 5621.24414 10281.09082
10264.0 0.0000974 5618.15576 10631.99219
10174.0 0.0000983 5615.09521 10199.72852
9183.0 0.0001089 5612.06152 9084.41406
7932.0 0.0001261 5609.05566 7955.52002
7149.0 0.0001399 5606.07666 7192.38770
6831.0 0.0001464 5603.12402 6869.72559
7001.0 0.0001428 5600.19824 6932.79834
7297.0 0.0001370 5597.29785 7306.87158
7848.0 0.0001274 5594.42285 7889.34814
8373.0 0.0001194 5591.57324 8466.05762
8475.0 0.0001180 5588.74756 8759.89746
8500.0 0.0001176 5585.94629 8812.15625
8716.0 0.0001147 5583.16846 8809.33398
8932.0 0.0001120 5580.41406 8688.71191
8785.0 0.0001138 5577.68213 8414.79785
8278.0 0.0001208 5574.97266 8136.67188
7886.0 0.0001268 5572.28418 7877.62012
7498.0 0.0001334 5569.61816 7645.50098
7315.0 0.0001367 5566.97168 7497.73193
7295.0 0.0001371 5564.34521 7387.11768
7271.0 0.0001375 5561.73877 7303.90771
7309.0 0.0001368 5559.15088 7420.46631
7633.0 0.0001310 5556.58154 7886.16699
8663.0 0.0001154 5554.02979 8650.37109
10095.0 0.0000991 5551.49561 9368.02246
10438.0 0.0000958 5548.97803 9482.31152
9084.0 0.0001101 5546.47656 8881.90137
7615.0 0.0001313 5543.98975 8123.10400
7072.0 0.0001414 5541.51807 7660.44238
7237.0 0.0001382 5539.06055 7590.64600
7731.0 0.0001293 5536.61670 7739.30762
8164.0 0.0001225 5534.18506 7760.07568
7983.0 0.0001253 5531.76611 7464.31641
7483.0 0.0001336 5529.35840 7063.64844
7205.0 0.0001388 5526.96191 6812.15479
7122.0 0.0001404 5524.57568 6794.92383
7084.0 0.0001412 5522.19873 6927.21973
7046.0 0.0001419 5519.83057 7007.08398
6775.0 0.0001476 5517.47070 6972.84668
6470.0 0.0001546 5515.11865 6919.13379
6445.0 0.0001552 5512.77295 6849.20313
6434.0 0.0001554 5510.43408 6734.46387
6337.0 0.0001578 5508.10010 6626.96631
6380.0 0.0001567 5505.77148 6523.40820
6305.0 0.0001586 5503.44678 6399.00488
6106.0 0.0001638 5501.12500 6291.90137
6137.0 0.0001629 5498.80664 6194.12939
6100.0 0.0001639 5496.49023 6065.99268
5841.0 0.0001712 5494.17529 5924.90625
5790.0 0.0001727 5491.86084 5807.58838
5870.0 0.0001704 5489.54688 5726.72266
5831.0 0.0001715 5487.23242 5678.76318
5771.0 0.0001733 5484.91650 5652.83984
5743.0 0.0001741 5482.59863 5639.84717
5712.0 0.0001751 5480.27832 5635.19434
5641.0 0.0001773 5477.95508 5637.06592
5643.0 0.0001772 5475.62793 5642.39941
5658.0 0.0001767 5473.29590 5661.10205
5697.0 0.0001755 5470.95947 5708.19092
5757.0 0.0001737 5468.61719 5805.32080
5826.0 0.0001716 5466.26855 5990.99951
6058.0 0.0001651 5463.91309 6294.63623
6580.0 0.0001520 5461.54980 6684.68994
6768.0 0.0001478 5459.17871 7016.27637
6587.0 0.0001518 5456.79932 7082.33154
6414.0 0.0001559 5454.41016 6836.23584
6169.0 0.0001621 5452.01172 6514.82813
6037.0 0.0001656 5449.60352 6332.07373
6181.0 0.0001618 5447.18359 6344.84766
6237.0 0.0001603 5444.75244 6471.93408
6285.0 0.0001591 5442.30957 6556.29590
6377.0 0.0001568 5439.85449 6462.17285
6289.0 0.0001590 5437.38623 6215.68457
6069.0 0.0001648 5434.90479 5968.79199
5879.0 0.0001701 5432.40967 5822.98193
5832.0 0.0001715 5429.90137 5778.89111
5785.0 0.0001729 5427.37744 5803.05957
5673.0 0.0001763 5424.83887 5864.88232
5801.0 0.0001724 5422.28467 5946.14941
6061.0 0.0001650 5419.71436 6067.72998
6220.0 0.0001608 5417.12842 6288.41113
6412.0 0.0001560 5414.52588 6644.85449
6886.0 0.0001452 5411.90674 7162.78320
7534.0 0.0001327 5409.27002 7874.61035
9242.0 0.0001082 5406.61670 8680.49121
10787.0 0.0000927 5403.94531 9213.78223
9604.0 0.0001041 5401.25537 9062.77832
7660.0 0.0001305 5398.54785 8403.91406
6862.0 0.0001457 5395.82129 7735.28613
6668.0 0.0001500 5393.07666 7381.71582
7116.0 0.0001405 5390.31299 7366.17725
7885.0 0.0001268 5387.53027 7481.75684
7762.0 0.0001288 5384.72949 7409.87646
6771.0 0.0001477 5381.90820 7031.04492
6101.0 0.0001639 5379.06787 6554.79492
5868.0 0.0001704 5376.20801 6158.95898
5629.0 0.0001777 5373.32861 5904.03662
5512.0 0.0001814 5370.42969 5764.01123
5621.0 0.0001779 5367.51123 5699.27686
5583.0 0.0001791 5364.57275 5669.61328
5741.0 0.0001742 5361.61523 5651.22754
5769.0 0.0001733 5358.63818 5636.17090
5879.0 0.0001701 5355.64111 5630.14258
5982.0 0.0001672 5352.62451 5677.30371
6353.0 0.0001574 5349.58887 5872.31494
6729.0 0.0001486 5346.53369 6329.90967
7035.0 0.0001421 5343.45996 7045.94043
7796.0 0.0001283 5340.36670 7817.26807
8337.0 0.0001199 5337.25439 8285.54688
8274.0 0.0001209 5334.12451 8287.58691
8324.0 0.0001201 5330.97607 8192.63672
8502.0 0.0001176 5327.80908 8387.14746
8707.0 0.0001149 5324.62402 8871.41699
8983.0 0.0001113 5321.42139 9235.08203
8659.0 0.0001155 5318.20166 9110.56641
8235.0 0.0001214 5314.96484 8580.64258
7845.0 0.0001275 5311.71143 7981.55615
7824.0 0.0001278 5308.44238 7608.71680
7749.0 0.0001290 5305.15674 7538.85107
8163.0 0.0001225 5301.85547 7653.04248
8364.0 0.0001196 5298.53906 7768.21240
8463.0 0.0001182 5295.20850 7883.21484
8417.0 0.0001188 5291.86377 8082.28223
8277.0 0.0001208 5288.50488 8239.39258
7616.0 0.0001313 5285.13281 8004.69629
7232.0 0.0001383 5281.74902 7434.09424
6816.0 0.0001467 5278.35254 6907.74805
6764.0 0.0001478 5274.94434 6639.82422
6985.0 0.0001432 5271.52490 6638.09912
6990.0 0.0001431 5268.09521 6779.45459
6898.0 0.0001450 5264.65576 6817.75244
6554.0 0.0001526 5261.20703 6585.39600
6085.0 0.0001643 5257.75000 6228.28564
5860.0 0.0001706 5254.28467 5921.02686
5698.0 0.0001755 5250.81299 5728.47314
5722.0 0.0001748 5247.33398 5637.46973
5686.0 0.0001759 5243.84912 5606.80127
5732.0 0.0001745 5240.35986 5591.72412
5623.0 0.0001778 5236.86572 5573.94873
5581.0 0.0001792 5233.36768 5555.14453
5689.0 0.0001758 5229.86719 5539.62354
5693.0 0.0001757 5226.36426 5532.30811
5687.0 0.0001758 5222.86133 5537.48877
5704.0 0.0001753 5219.35645 5555.20508
5738.0 0.0001743 5215.85254 5582.04492
5668.0 0.0001764 5212.34961 5617.47314
5700.0 0.0001754 5208.84912 5660.85889
5947.0 0.0001682 5205.35107 5714.35986
5964.0 0.0001677 5201.85645 5777.64795
5971.0 0.0001675 5198.36719 5845.11426
6156.0 0.0001624 5194.88330 5915.58008
6571.0 0.0001522 5191.40527 6043.34131
7455.0 0.0001341 5187.93506 6420.24707
9159.0 0.0001092 5184.47266 7420.74121
10944.0 0.0000914 5181.01904 9521.05371
12452.0 0.0000803 5177.57568 12776.59961
13956.0 0.0000717 5174.14307 15614.91309
14697.0 0.0000680 5170.72266 15714.95020
13972.0 0.0000716 5167.31494 13472.27734
12010.0 0.0000833 5163.92139 11079.09668
10469.0 0.0000955 5160.54199 9710.76563
9914.0 0.0001009 5157.17822 9704.69824
9962.0 0.0001004 5153.83105 10661.13867
10204.0 0.0000980 5150.50146 11246.03027
10222.0 0.0000978 5147.18994 10498.57910
9319.0 0.0001073 5143.89844 9055.65430
7973.0 0.0001254 5140.62695 7745.52783
6940.0 0.0001441 5137.37744 6819.41943
6325.0 0.0001581 5134.14941 6258.84131
6094.0 0.0001641 5130.94531 5953.83350
5963.0 0.0001677 5127.76465 5786.76172
5818.0 0.0001719 5124.60938 5686.58594
5710.0 0.0001751 5121.47998 5619.18066
5850.0 0.0001709 5118.37793 5571.98242
5768.0 0.0001734 5115.30371 5544.18848
5680.0 0.0001761 5112.25928 5526.78320
5584.0 0.0001791 5109.24316 5522.23145
5647.0 0.0001771 5106.25879 5534.24170
5695.0 0.0001756 5103.30518 5578.35010
5755.0 0.0001738 5100.38428 5672.46191
5888.0 0.0001698 5097.49756 5840.33789
6034.0 0.0001657 5094.64453 6097.27246
6229.0 0.0001605 5091.82666 6421.10205
6499.0 0.0001539 5089.04492 6728.97607
6853.0 0.0001459 5086.30078 6893.59521
7115.0 0.0001405 5083.59326 6909.20361
7243.0 0.0001381 5080.92529 6878.99170
7305.0 0.0001369 5078.29590 6836.25928
7118.0 0.0001405 5075.70752 6811.95068
6935.0 0.0001442 5073.15918 6921.67871
6929.0 0.0001443 5070.65332 7261.87598
7233.0 0.0001383 5068.18945 7854.47949
7713.0 0.0001297 5065.77002 8635.13672
8010.0 0.0001248 5063.39355 9296.17871
8173.0 0.0001224 5061.06201 9340.63574
8439.0 0.0001185 5058.77588 8812.13086
8748.0 0.0001143 5056.53613 8343.74219
9098.0 0.0001099 5054.34229 8379.82520
9273.0 0.0001078 5052.19678 8953.64941
9017.0 0.0001109 5050.09863 9714.46289
8713.0 0.0001148 5048.04980 10116.86719
8643.0 0.0001157 5046.04980 9833.47852
8697.0 0.0001150 5044.09961 9086.05371
8498.0 0.0001177 5042.19971 8280.17871
8104.0 0.0001234 5040.35107 7712.44824
7693.0 0.0001300 5038.55273 7453.95752
7379.0 0.0001355 5036.80713 7360.97803
7156.0 0.0001397 5035.11328 7254.58057
6998.0 0.0001429 5033.47266 7069.54932
6899.0 0.0001449 5031.88525 6818.80957
6674.0 0.0001498 5030.35107 6522.39648
6361.0 0.0001572 5028.87061 6245.86670
6094.0 0.0001641 5027.44434 6068.22607
6047.0 0.0001654 5026.07227 6041.89941
6339.0 0.0001578 5024.75586 6194.41309
6854.0 0.0001459 5023.49365 6524.83887
7344.0 0.0001362 5022.28711 6966.43359
7637.0 0.0001309 5021.13623 7352.34717
7363.0 0.0001358 5020.04102 7484.43994
6894.0 0.0001451 5019.00098 7306.32324
6674.0 0.0001498 5018.01758 7027.67334
6675.0 0.0001498 5017.08936 6916.88330
7078.0 0.0001413 5016.21777 7127.84668
7850.0 0.0001274 5015.40234 7689.24219
9177.0 0.0001090 5014.64258 8507.81934
10565.0 0.0000947 5013.93994 9407.09863
11189.0 0.0000894 5013.29248 10207.26367
11061.0 0.0000904 5012.70166 11093.02344
11802.0 0.0000847 5012.16650 12565.15820
15121.0 0.0000661 5011.68750 14802.35352
18747.0 0.0000533 5011.26367 17085.38086
18501.0 0.0000541 5010.89551 18102.10742
15793.0 0.0000633 5010.58252 17072.03711
12733.0 0.0000785 5010.32471 14787.13281
10711.0 0.0000934 5010.12158 12689.25488
10310.0 0.0000970 5009.97314 11678.09668
11683.0 0.0000856 5009.87842 11754.04980
13120.0 0.0000762 5009.83789 12174.01172
12363.0 0.0000809 5009.85010 12022.06738
10847.0 0.0000922 5009.91602 10966.00684
9584.0 0.0001043 5010.03369 9584.01660
8809.0 0.0001135 5010.20410 8619.06836
8832.0 0.0001132 5010.42578 8387.46484
9017.0 0.0001109 5010.69873 8710.35156
8711.0 0.0001148 5011.02148 9018.69824
8185.0 0.0001222 5011.39502 8796.19629
7423.0 0.0001347 5011.81738 8087.40137
7136.0 0.0001401 5012.28857 7340.87061
7089.0 0.0001411 5012.80762 6880.56787
7082.0 0.0001412 5013.37402 6793.83984
7151.0 0.0001398 5013.98682 6955.68994
7143.0 0.0001400 5014.64600 7082.12061
6690.0 0.0001495 5015.35010 6948.48438
6372.0 0.0001569 5016.09863 6599.06543
6083.0 0.0001644 5016.89014 6234.54932
5895.0 0.0001696 5017.72461 5987.66895
5938.0 0.0001684 5018.60107 5907.40869
6086.0 0.0001643 5019.51807 5998.69531
6291.0 0.0001590 5020.47510 6242.37305
6525.0 0.0001533 5021.47119 6602.67334
6984.0 0.0001432 5022.50537 7036.36572
7487.0 0.0001336 5023.57666 7571.51563
8081.0 0.0001237 5024.68408 8313.57715
8983.0 0.0001113 5025.82666 9197.96973
9934.0 0.0001007 5027.00293 9894.03125
10256.0 0.0000975 5028.21240 10061.62988
9675.0 0.0001034 5029.45361 9649.13770
8622.0 0.0001160 5030.72559 8838.77051
7900.0 0.0001266 5032.02734 8070.96680
7530.0 0.0001328 5033.35742 7676.41748
7621.0 0.0001312 5034.71533 7635.43311
7772.0 0.0001287 5036.09863 7680.06787
7716.0 0.0001296 5037.50781 7555.25781
7318.0 0.0001366 5038.93994 7181.04883
6818.0 0.0001467 5040.39502 6629.52295
6235.0 0.0001604 5041.87109 6098.97461
5652.0 0.0001769 5043.36768 5714.87744
5632.0 0.0001776 5044.88232 5483.84326
5482.0 0.0001824 5046.41504 5360.83447
5298.0 0.0001888 5047.96387 5297.44482
5308.0 0.0001884 5049.52783 5263.41846
5292.0 0.0001890 5051.10498 5242.04248
5263.0 0.0001900 5052.69482 5227.27051
5274.0 0.0001896 5054.29541 5215.58789
5203.0 0.0001922 5055.90527 5206.22363
5170.0 0.0001934 5057.52393 5196.63672
5127.0 0.0001950 5059.14941 5188.45947
5129.0 0.0001950 5060.77979 5181.01318
5052.0 0.0001979 5062.41553 5176.88379
5169.0 0.0001935 5064.05322 5177.21436
5082.0 0.0001968 5065.69287 5182.56689
5099.0 0.0001961 5067.33203 5192.85840
5247.0 0.0001906 5068.96973 5205.83398
5292.0 0.0001890 5070.60498 5217.74707
5314.0 0.0001882 5072.23682 5219.66943
5262.0 0.0001900 5073.86230 5209.76172
5219.0 0.0001916 5075.48145 5195.73047
5115.0 0.0001955 5077.09180 5185.37939
5301.0 0.0001886 5078.69336 5182.69922
5238.0 0.0001909 5080.28320 5180.92432
5239.0 0.0001909 5081.86084 5186.18896
5209.0 0.0001920 5083.42480 5188.14307
5293.0 0.0001889 5084.97363 5185.23486
5155.0 0.0001940 5086.50586 5180.05322
5194.0 0.0001925 5088.02051 5176.03418
5155.0 0.0001940 5089.51611 5174.94922
5201.0 0.0001923 5090.99072 5173.86035
5220.0 0.0001916 5092.44385 5175.36719
5118.0 0.0001954 5093.87354 5177.16895
5099.0 0.0001961 5095.27881 5175.37256
5240.0 0.0001908 5096.65869 5166.86230
5321.0 0.0001879 5098.01123 5151.55859
5436.0 0.0001840 5099.33496 5134.73145
5531.0 0.0001808 5100.62988 5148.01807
5406.0 0.0001850 5101.89355 5238.64063
5490.0 0.0001821 5103.12549 5466.68066
5725.0 0.0001747 5104.32373 5859.80176
5989.0 0.0001670 5105.48730 6409.09717
6394.0 0.0001564 5106.61523 7018.14014
6894.0 0.0001451 5107.70654 7446.63721
7564.0 0.0001322 5108.75928 7409.77637
7831.0 0.0001277 5109.77344 6980.75635
6998.0 0.0001429 5110.74658 6510.08984
6095.0 0.0001641 5111.67920 6225.70117
5769.0 0.0001733 5112.56836 6187.10156
5859.0 0.0001707 5113.41455 6327.14648
6040.0 0.0001656 5114.21582 6479.59912
6334.0 0.0001579 5114.97168 6450.95313
6531.0 0.0001531 5115.68066 6221.47900
6189.0 0.0001616 5116.34229 5935.58398
5705.0 0.0001753 5116.95508 5708.45068
5481.0 0.0001824 5117.51855 5582.14258
5479.0 0.0001825 5118.03125 5555.49512
5552.0 0.0001801 5118.49316 5614.59180
5807.0 0.0001722 5118.90234 5755.08301
6251.0 0.0001600 5119.25879 5964.61035
6552.0 0.0001526 5119.56152 6230.72070
6815.0 0.0001467 5119.80957 6536.34961
7174.0 0.0001394 5120.00195 6884.11816
7599.0 0.0001316 5120.13867 7215.59277
7443.0 0.0001344 5120.21826 7344.82471
6762.0 0.0001479 5120.24072 7161.18115
6305.0 0.0001586 5120.20459 6819.28467
6150.0 0.0001626 5120.11035 6519.20947
6221.0 0.0001607 5119.95605 6343.77734
6307.0 0.0001586 5119.74219 6302.96973
6415.0 0.0001559 5119.46729 6342.70166
6413.0 0.0001559 5119.13184 6335.07813
6122.0 0.0001633 5118.73486 6173.77588
5866.0 0.0001705 5118.27539 5907.99414
5955.0 0.0001679 5117.75439 5684.43115
6181.0 0.0001618 5117.17041 5664.18701
6672.0 0.0001499 5116.52246 6018.96582
7689.0 0.0001301 5115.81152 6842.72607
8585.0 0.0001165 5115.03711 7941.94092
8681.0 0.0001152 5114.19775 8753.09570
7978.0 0.0001253 5113.29443 8728.60352
6978.0 0.0001433 5112.32617 8034.72217
6457.0 0.0001549 5111.29395 7260.63135
6529.0 0.0001532 5110.19580 6805.28662
6953.0 0.0001438 5109.03320 6787.95361
7374.0 0.0001356 5107.80469 7084.44141
7507.0 0.0001332 5106.51123 7400.62305
7280.0 0.0001374 5105.15186 7412.05225
7028.0 0.0001423 5103.72705 7085.75146
6891.0 0.0001451 5102.23682 6645.49951
6554.0 0.0001526 5100.68164 6246.91895
6201.0 0.0001613 5099.06055 5941.71729
5855.0 0.0001708 5097.37451 5723.51025
5593.0 0.0001788 5095.62256 5574.20801
5544.0 0.0001804 5093.80615 5482.20459
5688.0 0.0001758 5091.92432 5432.76465
5695.0 0.0001756 5089.97803 5404.24512
5680.0 0.0001761 5087.96680 5373.20166
5571.0 0.0001795 5085.89111 5333.43994
5402.0 0.0001851 5083.75195 5296.01416
5209.0 0.0001920 5081.54883 5270.68506
5125.0 0.0001951 5079.28125 5260.80518
5042.0 0.0001983 5076.95117 5265.01465
5103.0 0.0001960 5074.55811 5278.27344
5101.0 0.0001960 5072.10254 5289.38135
5036.0 0.0001986 5069.58496 5282.68457
5066.0 0.0001974 5067.00537 5253.88965
5060.0 0.0001976 5064.36475 5214.87451
5046.0 0.0001982 5061.66406 5175.36475
5021.0 0.0001992 5058.90186 5135.87695
5158.0 0.0001939 5056.08057 5092.90088
5140.0 0.0001946 5053.19971 5047.75977
5240.0 0.0001908 5050.26025 5011.48975
5241.0 0.0001908 5047.26172 5007.78662
5169.0 0.0001935 5044.20654 5035.03809
5079.0 0.0001969 5041.09375 5071.18750
5147.0 0.0001943 5037.92529 5099.19482
5129.0 0.0001950 5034.70020 5112.93506
5151.0 0.0001941 5031.42041 5117.13379
5239.0 0.0001909 5028.08545 5126.53711
5203.0 0.0001922 5024.69678 5168.15430
5270.0 0.0001898 5021.25488 5261.68164
5531.0 0.0001808 5017.76025 5423.48145
5710.0 0.0001751 5014.21436 5676.17139
5973.0 0.0001674 5010.61768 6038.75732
6358.0 0.0001573 5006.96973 6494.93359
6882.0 0.0001453 5003.27246 6950.54492
7491.0 0.0001335 4999.52637 7207.96582
7341.0 0.0001362 4995.73193 7117.73926
6612.0 0.0001512 4991.89014 6809.07080
6247.0 0.0001601 4988.00146 6529.23340
6261.0 0.0001597 4984.06738 6432.73340
6673.0 0.0001499 4980.08789 6570.08643
7308.0 0.0001368 4976.06543 6901.84375
7827.0 0.0001278 4971.99805 7301.32471
7761.0 0.0001288 4967.88867 7579.02979
7324.0 0.0001365 4963.73730 7650.00684
7115.0 0.0001405 4959.54492 7625.05469
7272.0 0.0001375 4955.31201 7641.26465
7431.0 0.0001346 4951.04004 7703.33008
8002.0 0.0001250 4946.72949 7753.53320
8246.0 0.0001213 4942.38184 7737.52832
7892.0 0.0001267 4937.99658 7574.10400
7339.0 0.0001363 4933.57520 7271.34863
6880.0 0.0001453 4929.11816 6949.17236
6863.0 0.0001457 4924.62744 6717.52783
6678.0 0.0001497 4920.10254 6598.77979
6778.0 0.0001475 4915.54492 6545.75391
6814.0 0.0001468 4910.95508 6506.70898
6587.0 0.0001518 4906.33545 6421.62939
6296.0 0.0001588 4901.68408 6244.42822
5973.0 0.0001674 4897.00391 6000.67529
5690.0 0.0001757 4892.29443 5760.94971
5677.0 0.0001761 4887.55713 5592.04834
5593.0 0.0001788 4882.79248 5530.59180
5436.0 0.0001840 4878.00195 5593.36279
5484.0 0.0001823 4873.18555 5783.97559
5660.0 0.0001767 4868.34424 6080.58203
6235.0 0.0001604 4863.48047 6413.14355
6741.0 0.0001483 4858.59229 6655.14697
7087.0 0.0001411 4853.68164 6653.84033
6740.0 0.0001484 4848.74902 6400.47070
6000.0 0.0001667 4843.79590 6067.48438
5557.0 0.0001800 4838.82178 5807.31885
5388.0 0.0001856 4833.82910 5682.46631
5433.0 0.0001841 4828.81689 5686.73877
5728.0 0.0001746 4823.78857 5755.17725
5870.0 0.0001704 4818.74121 5783.98975
5740.0 0.0001742 4813.67773 5695.36328
5716.0 0.0001749 4808.59814 5525.21826
5352.0 0.0001868 4803.50342 5351.73193
5212.0 0.0001919 4798.39404 5219.06738
4974.0 0.0002010 4793.27100 5133.39893
4940.0 0.0002024 4788.13428 5081.88721
4979.0 0.0002008 4782.98633 5047.57422
4952.0 0.0002019 4777.82568 5019.55518
4872.0 0.0002053 4772.65332 4989.14648
4787.0 0.0002089 4767.47070 4958.55762
4848.0 0.0002063 4762.27832 4934.26953
4841.0 0.0002066 4757.07568 4918.38965
4828.0 0.0002071 4751.86523 4908.96094
4899.0 0.0002041 4746.64551 4900.71436
4893.0 0.0002044 4741.41943 4891.76611
4892.0 0.0002044 4736.18604 4879.82178
4883.0 0.0002048 4730.94629 4864.41357
4846.0 0.0002064 4725.70020 4849.61475
4949.0 0.0002021 4720.44873 4840.58008
4803.0 0.0002082 4715.19238 4837.66260
4938.0 0.0002025 4709.93213 4843.43018
4932.0 0.0002028 4704.66797 4856.22461
4907.0 0.0002038 4699.40088 4871.51270
4892.0 0.0002044 4694.13184 4881.39014
4864.0 0.0002056 4688.86035 4880.30957
4952.0 0.0002019 4683.58691 4871.19922
4954.0 0.0002019 4678.31250 4865.89551
4937.0 0.0002026 4673.03711 4870.58398
5030.0 0.0001988 4667.76270 4890.70752
5077.0 0.0001970 4662.48779 4932.42822
5174.0 0.0001933 4657.21484 5006.84863
5216.0 0.0001917 4651.94336 5132.30127
5426.0 0.0001843 4646.67383 5331.98242
5565.0 0.0001797 4641.40625 5616.18408
5726.0 0.0001746 4636.14209 5957.06543
6042.0 0.0001655 4630.88086 6260.40186
6350.0 0.0001575 4625.62402 6401.54736
6792.0 0.0001472 4620.37158 6405.50342
7080.0 0.0001412 4615.12402 6479.00537
7317.0 0.0001367 4609.88281 6786.44336
7342.0 0.0001362 4604.64795 7315.42041
7092.0 0.0001410 4599.41895 7833.19092
6839.0 0.0001462 4594.19678 7988.95264
6661.0 0.0001501 4588.98242 7696.08643
6595.0 0.0001516 4583.77588 7181.65381
6656.0 0.0001502 4578.57861 6730.36768
6969.0 0.0001435 4573.38965 6510.60791
7051.0 0.0001418 4568.21143 6527.91895
6703.0 0.0001492 4563.04395 6688.87207
6490.0 0.0001541 4557.88672 6838.91553
6389.0 0.0001565 4552.74023 6834.39014
6239.0 0.0001603 4547.60645 6683.70752
6100.0 0.0001639 4542.48486 6444.33203
5961.0 0.0001678 4537.37695 6171.31055
5954.0 0.0001680 4532.28223 5939.55566
5940.0 0.0001684 4527.20264 5810.07178
5898.0 0.0001695 4522.13867 5808.08496
5983.0 0.0001671 4517.08936 5929.66846
6217.0 0.0001608 4512.05664 6119.24902
6299.0 0.0001588 4507.04102 6275.63818
6292.0 0.0001589 4502.04297 6301.48730
6441.0 0.0001553 4497.06348 6221.92529
6406.0 0.0001561 4492.10303 6112.92139
6125.0 0.0001633 4487.16260 6021.86963
5956.0 0.0001679 4482.24268 5998.92920
5867.0 0.0001704 4477.34521 6071.82617
5848.0 0.0001710 4472.46875 6197.95068
5958.0 0.0001678 4467.61523 6285.15674
6079.0 0.0001645 4462.78564 6294.58398
6219.0 0.0001608 4457.98047 6289.12207
6335.0 0.0001579 4453.20068 6308.21094
6424.0 0.0001557 4448.44775 6319.48486
6387.0 0.0001566 4443.72119 6288.40723
6419.0 0.0001558 4439.02393 6233.08203
6545.0 0.0001528 4434.35449 6166.94580
6500.0 0.0001538 4429.71533 6087.37744
6291.0 0.0001590 4425.10645 6039.08643
6091.0 0.0001642 4420.52979 6089.22949
6061.0 0.0001650 4415.98535 6254.25488
6208.0 0.0001611 4411.47510 6469.62012
6427.0 0.0001556 4407.00000 6611.82666
6622.0 0.0001510 4402.56152 6568.98389
6584.0 0.0001519 4398.15869 6353.03857
6362.0 0.0001572 4393.79346 6108.56982
6075.0 0.0001646 4389.46777 5973.85059
5978.0 0.0001673 4385.18213 6025.72021
6297.0 0.0001588 4380.93799 6264.42773
6674.0 0.0001498 4376.73584 6605.12158
6957.0 0.0001437 4372.57764 6878.13330
6981.0 0.0001432 4368.46387 6955.47559
7003.0 0.0001428 4364.39697 6936.59131
6917.0 0.0001446 4360.37646 7009.09570
7003.0 0.0001428 4356.40381 7216.05225
7027.0 0.0001423 4352.48096 7417.27148
6945.0 0.0001440 4348.60938 7388.24268
6549.0 0.0001527 4344.78906 7092.19189
6431.0 0.0001555 4341.02246 6673.61963
6308.0 0.0001585 4337.30957 6271.72754
6168.0 0.0001621 4333.65381 6000.38672
6140.0 0.0001629 4330.05420 5905.93359
6159.0 0.0001624 4326.51318 5932.59033
6036.0 0.0001657 4323.03174 5946.85010
5945.0 0.0001682 4319.61133 5823.86133
5794.0 0.0001726 4316.25293 5577.78418
5561.0 0.0001798 4312.95850 5311.85498
5531.0 0.0001808 4309.72852 5104.76270
5481.0 0.0001824 4306.56543 4995.04053
5418.0 0.0001846 4303.46924 5005.65332
5641.0 0.0001773 4300.44189 5164.14551
5710.0 0.0001751 4297.48438 5503.08984
5995.0 0.0001668 4294.59863 6028.29053
6518.0 0.0001534 4291.78516 6667.22217
7036.0 0.0001421 4289.04639 7213.42822
7486.0 0.0001336 4286.38232 7363.37549
7331.0 0.0001364 4283.79492 7054.32031
6825.0 0.0001465 4281.28564 6567.42236
6481.0 0.0001543 4278.85498 6181.92480
6139.0 0.0001629 4276.50439 6042.44531
6108.0 0.0001637 4274.23535 6173.42139
6552.0 0.0001526 4272.04883 6510.17188
6970.0 0.0001435 4269.94678 6888.26221
7378.0 0.0001355 4267.92871 7080.35400
7500.0 0.0001333 4265.99707 7009.84717
7123.0 0.0001404 4264.15283 6812.09229
6570.0 0.0001522 4262.39697 6630.09814
6496.0 0.0001539 4260.72998 6538.88086
6291.0 0.0001590 4259.15332 6496.36279
6117.0 0.0001635 4257.66797 6386.17480
6196.0 0.0001614 4256.27441 6223.63477
6147.0 0.0001627 4254.97461 6119.16162
5970.0 0.0001675 4253.76855 6059.65625
5844.0 0.0001711 4252.65771 5973.87109
5791.0 0.0001727 4251.64209 5849.13330
5592.0 0.0001788 4250.72314 5731.14551
5658.0 0.0001767 4249.90039 5638.46338
5722.0 0.0001748 4249.17627 5561.32178
5640.0 0.0001773 4248.54980 5559.49365
5776.0 0.0001731 4248.02295 5706.72217
5993.0 0.0001669 4247.59473 5968.69922
6273.0 0.0001594 4247.26660 6240.25635
6329.0 0.0001580 4247.03857 6452.68359
6498.0 0.0001539 4246.91162 6606.69287
6627.0 0.0001509 4246.88477 6682.63770
6778.0 0.0001475 4246.95947 6588.16406
6613.0 0.0001512 4247.13477 6295.62988
6454.0 0.0001549 4247.41162 5957.86914
6289.0 0.0001590 4247.78955 5746.59375
6320.0 0.0001582 4248.26904 5723.42969
6236.0 0.0001604 4248.84912 5892.90039
6308.0 0.0001585 4249.53076 6260.27930
6539.0 0.0001529 4250.31250 6794.04248
7002.0 0.0001428 4251.19482 7365.04541
7162.0 0.0001396 4252.17725 7765.77930
7085.0 0.0001411 4253.25879 7772.66162
6684.0 0.0001496 4254.43896 7322.00098
6008.0 0.0001664 4255.71777 6660.56787
5624.0 0.0001778 4257.09326 6069.57715
5437.0 0.0001839 4258.56641 5710.31152
5658.0 0.0001767 4260.13477 5623.66943
5763.0 0.0001735 4261.79834 5744.52686
5845.0 0.0001711 4263.55518 5929.38281
5719.0 0.0001749 4265.40527 5990.79102
5677.0 0.0001761 4267.34619 5834.37793
5348.0 0.0001870 4269.37793 5552.92822
5358.0 0.0001866 4271.49805 5280.16943
5305.0 0.0001885 4273.70508 5097.24072
5296.0 0.0001888 4275.99805 5033.75439
5439.0 0.0001839 4278.37549 5083.23877
5507.0 0.0001816 4280.83496 5218.85107
5632.0 0.0001776 4283.37500 5412.94043
6001.0 0.0001666 4285.99414 5662.08594
6071.0 0.0001647 4288.68945 5981.25928
6226.0 0.0001606 4291.45996 6343.99561
6421.0 0.0001557 4294.30176 6663.59033
6403.0 0.0001562 4297.21484 6834.89453
6280.0 0.0001592 4300.19531 6767.63916
6020.0 0.0001661 4303.24219 6492.00244
5780.0 0.0001730 4306.35107 6159.02002
5738.0 0.0001743 4309.52148 5897.66504
5663.0 0.0001766 4312.74902 5768.27539
5839.0 0.0001713 4316.03174 5761.81152
5779.0 0.0001730 4319.36670 5814.69141
5681.0 0.0001760 4322.75146 5856.95947
5637.0 0.0001774 4326.18262 5821.38818
5669.0 0.0001764 4329.65820 5704.99756
5653.0 0.0001769 4333.17383 5565.98926
5740.0 0.0001742 4336.72656 5444.57520
5684.0 0.0001759 4340.31396 5355.03223
5451.0 0.0001835 4343.93213 5337.93945
5493.0 0.0001820 4347.57764 5459.77100
5697.0 0.0001755 4351.24756 5771.57080
6193.0 0.0001615 4354.93799 6246.43115
6757.0 0.0001480 4358.64648 6761.82910
7106.0 0.0001407 4362.36865 7070.51123
6753.0 0.0001481 4366.10107 6962.30371
5920.0 0.0001689 4369.83984 6533.45215
5536.0 0.0001806 4373.58252 6044.47705
5479.0 0.0001825 4377.32324 5694.28076
5448.0 0.0001836 4381.06006 5572.38477
5740.0 0.0001742 4384.78857 5658.24170
6085.0 0.0001643 4388.50586 5852.01221
6242.0 0.0001602 4392.20703 5987.14844
5930.0 0.0001686 4395.88916 5917.30566
5510.0 0.0001815 4399.54785 5672.96973
5211.0 0.0001919 4403.17969 5397.63428
5139.0 0.0001946 4406.78027 5198.41895
5224.0 0.0001914 4410.34570 5116.66748
5437.0 0.0001839 4413.87305 5141.80469
5677.0 0.0001761 4417.35840 5216.14697
5601.0 0.0001785 4420.79785 5280.08740
5433.0 0.0001841 4424.18652 5315.53320
5182.0 0.0001930 4427.52246 5374.08545
5180.0 0.0001931 4430.80029 5501.50293
5526.0 0.0001810 4434.01807 5678.92139
6035.0 0.0001657 4437.17041 5806.86475
6266.0 0.0001596 4440.25439 5773.33154
5917.0 0.0001690 4443.26709 5595.75098
5472.0 0.0001827 4446.20410 5383.49414
5173.0 0.0001933 4449.06250 5221.05615
4946.0 0.0002022 4451.83887 5156.27637
4976.0 0.0002010 4454.52979 5197.99805
5166.0 0.0001936 4457.13232 5308.39111
5365.0 0.0001864 4459.64258 5410.93506
5440.0 0.0001838 4462.05811 5410.06250
5293.0 0.0001889 4464.37549 5281.95557
5046.0 0.0001982 4466.59277 5098.90332
4819.0 0.0002075 4468.70605 4933.51172
4757.0 0.0002102 4470.71338 4821.91406
4740.0 0.0002110 4472.61133 4762.80078
4724.0 0.0002117 4474.39844 4743.12207
4698.0 0.0002129 4476.07129 4745.51709
4689.0 0.0002133 4477.62842 4747.60303
4689.0 0.0002133 4479.06787 4732.97803
4675.0 0.0002139 4480.38721 4701.20313
4680.0 0.0002137 4481.58447 4664.87793
4654.0 0.0002149 4482.65820 4634.05225
4651.0 0.0002150 4483.60645 4612.41211
4641.0 0.0002155 4484.42871 4601.41064
4686.0 0.0002134 4485.12256 4598.04443
4687.0 0.0002134 4485.68799 4600.23584
4603.0 0.0002172 4486.12256 4605.53564
4611.0 0.0002169 4486.42725 4613.93555
4694.0 0.0002130 4486.60010 4626.93506
4778.0 0.0002093 4486.64111 4647.92285
4758.0 0.0002102 4486.54980 4682.64990
4847.0 0.0002063 4486.32617 4738.11523
5018.0 0.0001993 4485.97021 4820.58252
5155.0 0.0001940 4485.48193 4937.95557
5150.0 0.0001942 4484.86230 5091.79346
5290.0 0.0001890 4484.11133 5278.63184
5393.0 0.0001854 4483.22949 5483.18604
5634.0 0.0001775 4482.21826 5672.85498
5778.0 0.0001731 4481.07861 5811.45947
5880.0 0.0001701 4479.81152 5857.46240
5805.0 0.0001723 4478.41895 5778.00781
5690.0 0.0001757 4476.90186 5614.03174
5634.0 0.0001775 4475.26318 5455.89551
5482.0 0.0001824 4473.50391 5363.46777
5462.0 0.0001831 4471.62646 5354.87793
5525.0 0.0001810 4469.63281 5404.61182
5449.0 0.0001835 4467.52637 5469.59082
5609.0 0.0001783 4465.30957 5498.57617
5599.0 0.0001786 4462.98486 5444.66602
5415.0 0.0001847 4460.55566 5313.70410
5263.0 0.0001900 4458.02539 5162.28564
5236.0 0.0001910 4455.39697 5038.68115
5231.0 0.0001912 4452.67432 4972.23633
5294.0 0.0001889 4449.86035 4965.88330
5469.0 0.0001828 4446.96045 5033.98047
5845.0 0.0001711 4443.97705 5197.22168
6071.0 0.0001647 4440.91504 5484.34131
6446.0 0.0001551 4437.77881 5936.11963
6463.0 0.0001547 4434.57275 6578.37598
6664.0 0.0001501 4431.30176 7252.14307
6912.0 0.0001447 4427.96973 7642.50732
7452.0 0.0001342 4424.58203 7721.65625
7942.0 0.0001259 4421.14355 7695.53955
7740.0 0.0001292 4417.65869 7627.69629
6973.0 0.0001434 4414.13379 7407.29834
6436.0 0.0001554 4410.57324 7052.55029
6327.0 0.0001581 4406.98242 6775.65820
6195.0 0.0001614 4403.36768 6695.54834
6241.0 0.0001602 4399.73340 6715.39063
6477.0 0.0001544 4396.08496 6725.55371
7133.0 0.0001402 4392.42822 6741.96045
7286.0 0.0001372 4388.76953 6746.56006
6672.0 0.0001499 4385.11426 6617.66406
5990.0 0.0001669 4381.46729 6288.80615
5359.0 0.0001866 4377.83545 5871.92236
5209.0 0.0001920 4374.22363 5509.31006
5029.0 0.0001988 4370.63867 5271.07764
5127.0 0.0001950 4367.08496 5164.52979
5104.0 0.0001959 4363.56885 5155.36377
5447.0 0.0001836 4360.09619 5184.72119
5187.0 0.0001928 4356.67236 5184.87695
5120.0 0.0001953 4353.30322 5120.75391
5022.0 0.0001991 4349.99414 5017.40527
4976.0 0.0002010 4346.75049 4918.91602
4962.0 0.0002015 4343.57861 4854.51807
5061.0 0.0001976 4340.48242 4835.99170
5015.0 0.0001994 4337.46826 4862.64697
5165.0 0.0001936 4334.54102 4923.01758
5407.0 0.0001849 4331.70508 4995.61523
5509.0 0.0001815 4328.96631 5058.05176
5421.0 0.0001845 4326.32910 5110.78174
5394.0 0.0001854 4323.79785 5192.78076
5374.0 0.0001861 4321.37744 5364.97656
5365.0 0.0001864 4319.07275 5681.73828
5655.0 0.0001768 4316.88672 6159.02783
5909.0 0.0001692 4314.82373 6745.48438
6531.0 0.0001531 4312.88867 7287.51611
6906.0 0.0001448 4311.08398 7560.13184
7048.0 0.0001419 4309.41357 7462.12451
6914.0 0.0001446 4307.88086 7105.06104
6753.0 0.0001481 4306.48877 6652.64209
6155.0 0.0001625 4305.24072 6237.74561
5861.0 0.0001706 4304.13818 5966.82764
5726.0 0.0001746 4303.18457 5881.98535
5707.0 0.0001752 4302.38086 5939.20947
5739.0 0.0001742 4301.73096 6012.19043
5803.0 0.0001723 4301.23438 5973.25391
5646.0 0.0001771 4300.89453 5801.58301
5576.0 0.0001793 4300.71143 5551.66406
5393.0 0.0001854 4300.68652 5274.41846
5304.0 0.0001885 4300.81982 5013.78418
5025.0 0.0001990 4301.11328 4804.35205
4862.0 0.0002057 4301.56592 4659.64795
4848.0 0.0002063 4302.17871 4572.75000
4654.0 0.0002149 4302.94971 4526.59570
4597.0 0.0002175 4303.88037 4504.28760
4679.0 0.0002137 4304.96826 4495.89941
4598.0 0.0002175 4306.21387 4494.26123
4579.0 0.0002184 4307.61475 4496.12158
4638.0 0.0002156 4309.16992 4500.12012
4558.0 0.0002194 4310.87744 4506.15137
4595.0 0.0002176 4312.73584 4514.71973
4675.0 0.0002139 4314.74268 4527.29297
4633.0 0.0002158 4316.89453 4545.41650
4644.0 0.0002153 4319.18994 4570.67236
4676.0 0.0002139 4321.62549 4605.03711
4628.0 0.0002161 4324.19775 4651.97070
4746.0 0.0002107 4326.90430 4719.67578
4784.0 0.0002090 4329.74023 4829.42285
4986.0 0.0002006 4332.70361 5029.38818
5197.0 0.0001924 4335.78857 5404.38867
5517.0 0.0001813 4338.99268 6061.30322
6104.0 0.0001638 4342.31055 7072.44092
7435.0 0.0001345 4345.73779 8385.29297
10004.0 0.0001000 4349.26904 9727.99219
13390.0 0.0000747 4352.90088 10559.63086
13825.0 0.0000723 4356.62842 10373.41406
10536.0 0.0000949 4360.44531 9339.20703
7494.0 0.0001334 4364.34668 8092.95947
6260.0 0.0001597 4368.32764 7126.17773
5905.0 0.0001693 4372.38184 6663.64014
5831.0 0.0001715 4376.50391 6710.85986
6494.0 0.0001540 4380.68750 7109.61084
7990.0 0.0001252 4384.92773 7575.23730
9339.0 0.0001071 4389.21777 7745.33936
8948.0 0.0001118 4393.55225 7427.65381
7334.0 0.0001364 4397.92334 6813.80078
6111.0 0.0001636 4402.32617 6194.14795
5492.0 0.0001821 4406.75342 5741.02393
5275.0 0.0001896 4411.19824 5498.49121
5432.0 0.0001841 4415.65430 5419.22656
5610.0 0.0001783 4420.11377 5406.95508
5699.0 0.0001755 4424.57178 5363.74268
5434.0 0.0001840 4429.01904 5257.38916
5063.0 0.0001975 4433.44922 5126.09424
4981.0 0.0002008 4437.85449 5020.15283
4952.0 0.0002019 4442.22803 4965.79834
4916.0 0.0002034 4446.56152 4974.20898
4996.0 0.0002002 4450.84668 5039.44531
5169.0 0.0001935 4455.07617 5145.00488
5380.0 0.0001859 4459.24121 5255.72949
5404.0 0.0001850 4463.33398 5335.09131
5299.0 0.0001887 4467.34619 5370.97803
5237.0 0.0001909 4471.26758 5376.51025
5155.0 0.0001940 4475.08984 5363.59863
5127.0 0.0001950 4478.80322 5324.56592
5095.0 0.0001963 4482.39893 5250.69775
4970.0 0.0002012 4485.86572 5156.21533
4935.0 0.0002026 4489.19531 5071.58447
4868.0 0.0002054 4492.37598 5019.77881
4876.0 0.0002051 4495.39697 5005.21826
4981.0 0.0002008 4498.24707 5022.20313
5068.0 0.0001973 4500.91553 5067.02588
5399.0 0.0001852 4503.39014 5133.99512
5712.0 0.0001751 4505.65918 5210.19043
5810.0 0.0001721 4507.70898 5278.96582
5701.0 0.0001754 4509.52832 5321.43262
5413.0 0.0001847 4511.10449 5311.27344
5153.0 0.0001941 4512.42285 5242.38477
5008.0 0.0001997 4513.47070 5157.21533
5014.0 0.0001994 4514.23389 5109.68750
5044.0 0.0001983 4514.69922 5135.17090
5246.0 0.0001906 4514.85205 5244.53760
5646.0 0.0001771 4514.67871 5419.23682
5864.0 0.0001705 4514.16504 5612.16943
5879.0 0.0001701 4513.29785 5742.44482
5542.0 0.0001804 4512.06250 5741.00684
5331.0 0.0001876 4510.44727 5625.49854
5272.0 0.0001897 4508.43896 5476.93994
5289.0 0.0001891 4506.02588 5355.45947
5330.0 0.0001876 4503.19678 5279.67236
5454.0 0.0001834 4499.94287 5247.93555
5379.0 0.0001859 4496.25684 5246.01172
5225.0 0.0001914 4492.13037 5247.75049
5113.0 0.0001956 4487.56055 5221.23975
5026.0 0.0001990 4482.54443 5152.35205
4937.0 0.0002026 4477.08594 5061.34912
4827.0 0.0002072 4471.18848 4978.64551
4914.0 0.0002035 4464.85840 4920.77539
4937.0 0.0002026 4458.11377 4888.47266
4864.0 0.0002056 4450.96777 4876.28125
4726.0 0.0002116 4443.45020 4873.54590
4725.0 0.0002116 4435.58740 4862.21680
4696.0 0.0002129 4427.42383 4825.12451
4502.0 0.0002221 4418.99951 4762.93701
4502.0 0.0002221 4410.38086 4693.98584
4490.0 0.0002227 4401.62988 4634.64600
4571.0 0.0002188 4392.82471 4594.19336
4545.0 0.0002200 4384.06592 4574.57568
4579.0 0.0002184 4375.45508 4570.47021
4728.0 0.0002115 4367.12451 4577.52100
4682.0 0.0002136 4359.21240 4582.48438
4562.0 0.0002192 4351.88818 4576.00879
4579.0 0.0002184 4345.33594 4561.43750
4584.0 0.0002182 4339.76709 4553.19189
4568.0 0.0002189 4335.42334 4570.63232
4718.0 0.0002120 4332.57373 4628.50977
4821.0 0.0002074 4331.52002 4734.61768
5098.0 0.0001962 4332.60303 4880.85596
5261.0 0.0001901 4336.19971 5033.82178
5382.0 0.0001858 4342.73486 5132.65576
5171.0 0.0001934 4352.67285 5122.63135
4874.0 0.0002052 4366.53564 5022.54639
4728.0 0.0002115 4384.90967 4901.31592
4758.0 0.0002102 4408.41797 4814.46338
4782.0 0.0002091 4437.78418 4788.15723
4906.0 0.0002038 4473.76318 4825.85596
5005.0 0.0001998 4517.23926 4914.88281
5194.0 0.0001925 4569.11670 5032.24268
5351.0 0.0001869 4630.46973 5152.10596
5623.0 0.0001778 4702.38428 5269.06104
5649.0 0.0001770 4786.12012 5428.33740
5983.0 0.0001671 4883.06934 5706.79590
6472.0 0.0001545 4994.64160 6159.73633
6920.0 0.0001445 5122.53955 6774.49609
7681.0 0.0001302 5268.42334 7457.84033
8253.0 0.0001212 5434.32813 8022.83398
7999.0 0.0001250 5622.21387 8286.68750
7280.0 0.0001374 5834.41016 8206.18457
6549.0 0.0001527 6073.47266 7865.94434
6317.0 0.0001583 6341.89697 7403.66699
6505.0 0.0001537 6642.78955 6971.20508
6847.0 0.0001460 6979.05859 6696.44092
7342.0 0.0001362 7354.37109 6692.07129
7927.0 0.0001262 7772.10254 7066.24268
8354.0 0.0001197 8236.56445 7822.16357
7816.0 . . .
7300.0 . . .
6900.0 . . .
6958.0 . . .
7005.0 . . .
6716.0 . . .
6283.0 . . .
6072.0 . . .
5853.0 . . .
5745.0 . . .
5461.0 . . .
5539.0 . . .
5859.0 . . .
5958.0 . . .
5739.0 . . .
5221.0 . . .
4846.0 . . .
4846.0 . . .
4868.0 . . .
4752.0 . . .
4767.0 . . .
4768.0 . . .
4739.0 . . .
4664.0 . . .
4511.0 . . .
4576.0 . . .
4565.0 . . .
4571.0 . . .
4589.0 . . .
4641.0 . . .
4731.0 . . .
5039.0 . . .
5353.0 . . .
5578.0 . . .
5591.0 . . .
5362.0 . . .
5126.0 . . .
4839.0 . . .
4699.0 . . .
4632.0 . . .
4745.0 . . .
4904.0 . . .
4979.0 . . .
4930.0 . . .
4899.0 . . .
4844.0 . . .
4678.0 . . .
4642.0 . . .
4779.0 . . .
4829.0 . . .
4864.0 . . .
4977.0 . . .
4935.0 . . .
4853.0 . . .
4808.0 . . .
4741.0 . . .
4932.0 . . .
5183.0 . . .
5269.0 . . .
5262.0 . . .
5030.0 . . .
4882.0 . . .
4806.0 . . .
4724.0 . . .
4683.0 . . .
4739.0 . . .
4842.0 . . .
4906.0 . . .
4873.0 . . .
4666.0 . . .
4579.0 . . .
4517.0 . . .
4405.0 . . .
4378.0 . . .
4299.0 . . .
4268.0 . . .
4380.0 . . .
4377.0 . . .
4305.0 . . .
4357.0 . . .
4304.0 . . .
4257.0 . . .
4260.0 . . .
4298.0 . . .
4366.0 . . .
4410.0 . . .
4701.0 . . .
5181.0 . . .
5862.0 . . .
6124.0 . . .
5435.0 . . .
4763.0 . . .
4502.0 . . .
4388.0 . . .
4387.0 . . .
4533.0 . . .
4704.0 . . .
4933.0 . . .
5206.0 . . .
5015.0 . . .
4731.0 . . .
4562.0 . . .
4376.0 . . .
4264.0 . . .
4284.0 . . .
4310.0 . . .
4410.0 . . .
4466.0 . . .
4462.0 . . .
4385.0 . . .
4393.0 . . .
4358.0 . . .
4322.0 . . .
4237.0 . . .
4343.0 . . .
4361.0 . . .
4456.0 . . .
4495.0 . . .
4534.0 . . .
4553.0 . . .
4729.0 . . .
4938.0 . . .
5275.0 . . .
5703.0 . . .
5888.0 . . .
5625.0 . . .
5001.0 . . .
4729.0 . . .
4754.0 . . .
4721.0 . . .
4831.0 . . .
5135.0 . . .
5378.0 . . .
5581.0 . . .
5802.0 . . .
5822.0 . . .
5778.0 . . .
5395.0 . . .
5079.0 . . .
4931.0 . . .
4679.0 . . .
4561.0 . . .
4821.0 . . .
4828.0 . . .
4929.0 . . .
5037.0 . . .
5086.0 . . .
4906.0 . . .
4636.0 . . .
4437.0 . . .
4402.0 . . .
4457.0 . . .
4552.0 . . .
4472.0 . . .
4512.0 . . .
4496.0 . . .
4451.0 . . .
4449.0 . . .
4307.0 . . .
4288.0 . . .
4346.0 . . .
4325.0 . . .
4328.0 . . .
4331.0 . . .
4268.0 . . .
4249.0 . . .
4342.0 . . .
4212.0 . . .
4402.0 . . .
4370.0 . . .
4372.0 . . .
4440.0 . . .
4513.0 . . .
4506.0 . . .
4392.0 . . .
4416.0 . . .
4352.0 . . .
4431.0 . . .
4492.0 . . .
4590.0 . . .
4707.0 . . .
5041.0 . . .
5301.0 . . .
5768.0 . . .
6331.0 . . .
6917.0 . . .
7256.0 . . .
6869.0 . . .
6238.0 . . .
5608.0 . . .
5288.0 . . .
5223.0 . . .
5336.0 . . .
5410.0 . . .
5604.0 . . .
5959.0 . . .
6068.0 . . .
5946.0 . . .
5635.0 . . .
5306.0 . . .
5120.0 . . .
5125.0 . . .
5053.0 . . .
4906.0 . . .
4634.0 . . .
4565.0 . . .
4635.0 . . .
4704.0 . . .
4746.0 . . .
4812.0 . . .
4918.0 . . .
4897.0 . . .
4801.0 . . .
4610.0 . . .
4645.0 . . .
4674.0 . . .
4715.0 . . .
4739.0 . . .
4761.0 . . .
4716.0 . . .
4584.0 . . .
4504.0 . . .
4484.0 . . .
4428.0 . . .
4409.0 . . .
4379.0 . . .
4426.0 . . .
4513.0 . . .
4495.0 . . .
4433.0 . . .
4315.0 . . .
4288.0 . . .
4200.0 . . .
4123.0 . . .
4177.0 . . .
4173.0 . . .
4165.0 . . .
4191.0 . . .
4159.0 . . .
4208.0 . . .
4229.0 . . .
4258.0 . . .
4328.0 . . .
4354.0 . . .
4410.0 . . .
4460.0 . . .
4448.0 . . .
4316.0 . . .
4274.0 . . .
4238.0 . . .
4298.0 . . .
4363.0 . . .
4403.0 . . .
4434.0 . . .
4511.0 . . .
4546.0 . . .
4615.0 . . .
4554.0 . . .
4442.0 . . .
4328.0 . . .
4273.0 . . .
4259.0 . . .
4218.0 . . .
4308.0 . . .
4260.0 . . .
4344.0 . . .
4335.0 . . .
4381.0 . . .
4329.0 . . .
4418.0 . . .
4492.0 . . .
4440.0 . . .
4440.0 . . .
4426.0 . . .
4441.0 . . .
4609.0 . . .
4910.0 . . .
5190.0 . . .
5365.0 . . .
5299.0 . . .
5381.0 . . .
5284.0 . . .
5080.0 . . .
4949.0 . . .
4807.0 . . .
4759.0 . . .
4908.0 . . .
5103.0 . . .
5076.0 . . .
5047.0 . . .
5205.0 . . .
5257.0 . . .
5148.0 . . .
5011.0 . . .
4949.0 . . .
4882.0 . . .
4898.0 . . .
4862.0 . . .
4951.0 . . .
4974.0 . . .
4877.0 . . .
4918.0 . . .
4881.0 . . .
4970.0 . . .
4803.0 . . .
4658.0 . . .
4729.0 . . .
4703.0 . . .
4786.0 . . .
4836.0 . . .
4770.0 . . .
4609.0 . . .
4573.0 . . .
4601.0 . . .
4337.0 . . .
4379.0 . . .
4373.0 . . .
4363.0 . . .
4384.0 . . .
4407.0 . . .
4474.0 . . .
4294.0 . . .
4283.0 . . .
4226.0 . . .
4278.0 . . .
4246.0 . . .
4169.0 . . .
4223.0 . . .
4229.0 . . .
4214.0 . . .
4252.0 . . .
4309.0 . . .
4301.0 . . .
4440.0 . . .
4614.0 . . .
4528.0 . . .
4320.0 . . .
4223.0 . . .
4137.0 . . .
4134.0 . . .
4204.0 . . .
4206.0 . . .
4208.0 . . .
4264.0 . . .
4291.0 . . .
4321.0 . . .
4374.0 . . .
4204.0 . . .
4332.0 . . .
4399.0 . . .
4422.0 . . .
4314.0 . . .
4284.0 . . .
4456.0 . . .
4506.0 . . .
4464.0 . . .
4447.0 . . .
4334.0 . . .
4307.0 . . .
4265.0 . . .
4317.0 . . .
4328.0 . . .
4388.0 . . .
4358.0 . . .
4365.0 . . .
4457.0 . . .
4527.0 . . .
4490.0 . . .
4612.0 . . .
4728.0 . . .
4812.0 . . .
4913.0 . . .
4992.0 . . .
5270.0 . . .
5606.0 . . .
5793.0 . . .
5711.0 . . .
5331.0 . . .
5023.0 . . .
4860.0 . . .
4829.0 . . .
4877.0 . . .
4903.0 . . .
4995.0 . . .
5168.0 . . .
5381.0 . . .
5580.0 . . .
5484.0 . . .
5193.0 . . .
4903.0 . . .
4644.0 . . .
4475.0 . . .
4484.0 . . .
4528.0 . . .
4587.0 . . .
4801.0 . . .
5098.0 . . .
5283.0 . . .
5297.0 . . .
5167.0 . . .
4903.0 . . .
4683.0 . . .
4565.0 . . .
4632.0 . . .
4715.0 . . .
4758.0 . . .
4836.0 . . .
4867.0 . . .
4864.0 . . .
4787.0 . . .
4698.0 . . .
4560.0 . . .
4440.0 . . .
4376.0 . . .
4417.0 . . .
4427.0 . . .
4489.0 . . .
4466.0 . . .
4356.0 . . .
4320.0 . . .
4331.0 . . .
4311.0 . . .
4261.0 . . .
4337.0 . . .
4271.0 . . .
4225.0 . . .
4213.0 . . .
4244.0 . . .
4230.0 . . .
4228.0 . . .
4209.0 . . .
4264.0 . . .
4313.0 . . .
4268.0 . . .
4388.0 . . .
4396.0 . . .
4337.0 . . .
4406.0 . . .
4560.0 . . .
4447.0 . . .
4586.0 . . .
4575.0 . . .
4641.0 . . .
4518.0 . . .
4465.0 . . .
4417.0 . . .
4378.0 . . .
4637.0 . . .
4658.0 . . .
4567.0 . . .
4564.0 . . .
4620.0 . . .
4560.0 . . .
4648.0 . . .
4492.0 . . .
4501.0 . . .
4263.0 . . .
4353.0 . . .
4362.0 . . .
4443.0 . . .
4389.0 . . .
4326.0 . . .
4427.0 . . .
4519.0 . . .
4539.0 . . .
4650.0 . . .
4795.0 . . .
4712.0 . . .
4810.0 . . .
4883.0 . . .
4779.0 . . .
4697.0 . . .
4717.0 . . .
4788.0 . . .
4810.0 . . .
4894.0 . . .
4862.0 . . .
4973.0 . . .
5126.0 . . .
4970.0 . . .
4879.0 . . .
4830.0 . . .
4614.0 . . .
4695.0 . . .
4824.0 . . .
4930.0 . . .
5001.0 . . .
5016.0 . . .
5070.0 . . .
4882.0 . . .
4773.0 . . .
4694.0 . . .
4527.0 . . .
4463.0 . . .
4444.0 . . .
4406.0 . . .
4579.0 . . .
4767.0 . . .
4748.0 . . .
4782.0 . . .
loop_
_refln_index_h
_refln_index_k
_refln_index_l
_pd_refln_wavelength_id
_refln_observed_status
_refln_F_squared_meas
_refln_F_squared_calc
_refln_phase_calc
_refln_d_spacing
_gsas_i100_meas
0 0 1 1 o 4634.484 4622.446 180.00 8.94823 100.00
0 0 1 2 o 4644.264 4622.446 180.00 8.94823 49.86
0 1 0 1 o 562.324 433.799 0.00 7.97254 2.10
0 1 0 2 o 470.990 433.799 0.00 7.97254 0.87
0 1 1 1 o 511.219 605.170 180.00 7.90251 6.91
0 1 1 2 o 501.578 605.170 180.00 7.90251 3.37
1 0 0 1 o 4.856 154.394 0.00 6.22235 0.06
1 0 0 2 o 245.963 154.394 0.00 6.22235 0.45
1 1 0 1 o 5377.999 5192.985 180.00 5.73683 12.42
1 1 0 2 o 4851.173 5192.985 180.00 5.73683 5.53
1 1 1 1 o 287.391 20.097 180.00 5.52918 0.12
1 1 1 2 o 460.158 20.097 180.00 5.52918 0.10
1 0 -1 1 o 813.296 584.427 0.00 5.25067 1.18
1 0 -1 2 o 704.515 584.427 0.00 5.25067 0.50
1 0 1 1 o 2930.366 2807.484 180.00 4.97753 12.20
0 1 -1 1 o 1.934 1.680 180.00 4.97330 0.07
1 0 1 2 o 2807.005 2807.484 180.00 4.97753 5.80
0 1 -1 2 o 1.758 1.680 180.00 4.97330 0.03
0 1 2 1 o 427.614 507.532 180.00 4.92242 2.00
0 1 2 2 o 405.206 507.532 180.00 4.92242 0.94
0 0 2 1 o 28.800 1.073 180.00 4.47412 0.16
0 0 2 2 o 0.178 1.073 180.00 4.47412 0.00
1 -1 -1 1 o 622.181 804.549 0.00 4.42929 0.56
1 -1 -1 2 o 574.997 804.549 0.00 4.42929 0.26
0 2 1 1 o 14.452 15.448 0.00 4.42797 0.03
0 2 1 2 o 11.836 15.448 0.00 4.42797 0.01
1 -1 0 1 o 353.278 319.204 0.00 4.35454 0.56
1 -1 0 2 o 321.435 319.204 0.00 4.35454 0.25
1 1 -1 1 o 5026.753 4984.017 0.00 4.34218 8.27
1 1 -1 2 o 5202.492 4984.017 0.00 4.34218 4.27
1 2 1 1 o 6439.954 5887.567 0.00 4.20616 9.11
1 2 1 2 o 5786.439 5887.567 0.00 4.20616 4.07
1 1 2 1 o 0.433 2.112 0.00 4.08204 0.00
1 1 2 2 o 0.433 2.112 0.00 4.08204 0.00
0 2 0 1 o 9.261 19.993 0.00 3.98627 0.01
0 2 0 2 o 26.717 19.993 0.00 3.98627 0.01
0 2 2 1 o 4692.465 4297.609 180.00 3.95126 15.70
0 2 2 2 o 4711.585 4297.609 180.00 3.95126 7.84
1 2 0 1 o 206.945 247.174 180.00 3.88054 0.06
1 2 0 2 o 24.776 247.174 180.00 3.88054 0.00
1 2 2 1 o 987.019 1454.677 0.00 3.73672 2.54
1 0 -2 1 o 58.622 89.425 180.00 3.73473 0.19
1 2 2 2 o 1540.807 1454.677 0.00 3.73672 2.01
1 0 -2 2 o 107.382 89.425 180.00 3.73473 0.16
1 -1 -2 1 o 2857.790 2791.507 0.00 3.67149 2.64
1 -1 -2 2 o 2862.153 2791.507 0.00 3.67149 1.32
1 -1 1 1 o 14339.035 14219.840 180.00 3.54708 35.58
1 -1 1 2 o 14692.783 14219.840 180.00 3.54708 18.14
1 0 2 1 o 38918.02 37668.56 0.00 3.53832 87.87
1 0 2 2 o 37575.75 37668.56 0.00 3.53832 42.17
0 1 -2 1 o 4915.010 5201.469 180.00 3.33137 9.65
0 1 -2 2 o 5348.279 5201.469 180.00 3.33137 5.26
0 1 3 1 o 835.534 838.922 0.00 3.30578 2.41
0 1 3 2 o 628.757 838.922 0.00 3.30578 0.89
2 1 0 1 o 24.475 28.400 0.00 3.21590 0.13
2 1 0 2 o 27.077 28.400 0.00 3.21590 0.07
1 -2 -1 1 o 5966.594 6288.230 0.00 3.20853 5.37
1 -2 -1 2 o 6495.070 6288.230 0.00 3.20853 2.92
2 1 1 1 o 3553.654 3560.112 0.00 3.14560 1.49
0 2 -1 1 o 5615.013 5376.813 0.00 3.16484 6.06
2 1 1 2 o 3700.231 3560.112 0.00 3.14560 0.77
0 2 -1 2 o 5672.198 5376.813 0.00 3.16484 3.04
1 1 -2 1 o 330.450 321.318 180.00 3.15176 1.67
1 1 -2 2 o 319.101 321.318 180.00 3.15176 0.80
1 2 -1 1 o 2364.633 2367.721 180.00 3.14240 2.94
1 2 -1 2 o 2496.350 2367.721 180.00 3.14240 1.55
2 0 0 1 o 1960.519 1857.409 180.00 3.11117 1.58
0 2 3 1 o 7379.431 7292.771 0.00 3.12992 13.61
2 0 0 2 o 2143.002 1857.409 180.00 3.11117 0.86
0 2 3 2 o 7181.570 7292.771 0.00 3.12992 6.58
1 -2 -2 1 o 2332.565 2356.624 180.00 3.04091 1.99
1 -2 -2 2 o 2119.797 2356.624 180.00 3.04091 0.89
1 -2 0 1 o 4058.694 4331.048 180.00 2.99999 3.58
1 -2 0 2 o 4268.536 4331.048 180.00 2.99999 1.88
2 0 -1 1 o 1.698 1.723 0.00 2.99193 0.00
2 0 -1 2 o 1.926 1.723 0.00 2.99193 0.00
1 1 3 1 o 241.069 225.119 0.00 2.98416 0.30
0 0 3 1 o 585.629 531.119 180.00 2.98274 1.35
1 1 3 2 o 247.666 225.119 0.00 2.98416 0.15
0 0 3 2 o 584.576 531.119 180.00 2.98274 0.67
1 2 3 1 o 247.827 250.401 180.00 2.99222 0.87
1 3 1 1 o 1361.656 1354.309 0.00 2.99071 0.49
2 2 1 1 o 2149.238 2065.091 180.00 2.96564 2.46
1 2 3 2 o 264.855 250.401 180.00 2.99222 0.46
1 3 1 2 o 1485.857 1354.309 0.00 2.99071 0.26
2 2 1 2 o 2066.093 2065.091 180.00 2.96564 1.18
1 3 2 1 o 8524.542 8601.674 0.00 2.95285 6.41
1 3 2 2 o 8223.271 8601.674 0.00 2.95285 3.07
2 1 -1 1 o 580.241 573.151 180.00 2.91978 0.98
2 1 -1 2 o 567.007 573.151 180.00 2.91978 0.48
0 3 1 1 o 12874.620 12725.784 180.00 2.91782 10.86
0 3 1 2 o 12646.436 12725.784 180.00 2.91782 5.30
0 3 2 1 o 2147.261 2136.066 0.00 2.90744 2.27
2 0 1 1 o 683.678 619.264 0.00 2.88806 0.92
0 3 2 2 o 2600.872 2136.066 0.00 2.90744 1.38
2 0 1 2 o 580.931 619.264 0.00 2.88806 0.38
2 2 0 1 o 16297.491 16245.567 0.00 2.86841 11.32
2 2 0 2 o 16102.673 16245.567 0.00 2.86841 5.56
1 -1 -3 1 o 18063.645 17974.607 180.00 2.85860 10.62
1 -1 -3 2 o 18252.645 17974.607 180.00 2.85860 5.34
2 1 2 1 o 10587.740 10355.839 180.00 2.76913 11.98
2 2 2 1 o 16.263 15.762 180.00 2.76459 0.00
2 1 2 2 o 10523.265 10355.839 180.00 2.76913 5.92
1 -1 2 1 o 347.681 345.136 0.00 2.76078 1.89
2 2 2 2 o 15.720 15.762 180.00 2.76459 0.00
1 -1 2 2 o 335.985 345.136 0.00 2.76078 0.90
1 0 -3 1 o 915.940 940.308 180.00 2.75144 0.41
1 0 -3 2 o 933.258 940.308 180.00 2.75144 0.21
1 3 0 1 o 6.629 38.336 180.00 2.73286 0.01
1 3 0 2 o 3.410 38.336 180.00 2.73286 0.00
2 -1 -1 1 o 10887.210 11269.396 180.00 2.69595 4.75
2 -1 -1 2 o 10366.601 11269.396 180.00 2.69595 2.24
2 -1 0 1 o 964.052 989.360 0.00 2.65938 1.09
0 3 0 1 o 2658.667 2665.464 0.00 2.65751 0.99
2 -1 0 2 o 1010.793 989.360 0.00 2.65938 0.57
0 3 0 2 o 2690.427 2665.464 0.00 2.65751 0.50
1 3 3 1 o 13022.407 13220.454 180.00 2.64859 8.72
1 3 3 2 o 12810.663 13220.454 180.00 2.64859 4.26
1 -2 -3 1 o 12.043 347.514 180.00 2.63410 0.00
1 0 3 1 o 2338.945 2388.105 180.00 2.63191 5.10
1 -2 -3 2 o 12.043 347.514 180.00 2.63410 0.00
1 0 3 2 o 2351.711 2388.105 180.00 2.63191 2.55
2 0 -2 1 o 2073.631 2098.132 180.00 2.62534 0.69
0 3 3 1 o 38.505 39.620 0.00 2.63417 0.05
2 0 -2 2 o 1729.851 2098.132 180.00 2.62534 0.28
0 3 3 2 o 39.163 39.620 0.00 2.63417 0.02
1 -2 1 1 o 442.916 389.545 180.00 2.58144 0.38
1 -2 1 2 o 795.565 389.545 180.00 2.58144 0.33
2 2 -1 1 o 5856.850 5527.659 180.00 2.54530 3.26
2 2 -1 2 o 6066.122 5527.659 180.00 2.54530 1.68
2 3 1 1 o 1011.605 919.493 0.00 2.51734 0.86
2 3 1 2 o 983.353 919.493 0.00 2.51734 0.42
2 -1 -2 1 o 7376.930 7092.162 0.00 2.50978 3.23
2 0 2 1 o 179.117 178.917 180.00 2.48876 0.16
2 -1 -2 2 o 7457.411 7092.162 0.00 2.50978 1.62
2 0 2 2 o 179.452 178.917 180.00 2.48876 0.08
1 2 -2 1 o 10451.629 10266.563 0.00 2.49138 6.58
0 2 -2 1 o 1630.184 1630.658 180.00 2.48665 1.84
1 2 -2 2 o 10316.486 10266.563 0.00 2.49138 3.23
0 2 -2 2 o 1641.669 1630.658 180.00 2.48665 0.92
2 3 2 1 o 1092.479 1082.153 180.00 2.47891 1.03
2 1 -2 1 o 3418.204 3418.201 180.00 2.47775 1.49
2 3 2 2 o 1054.318 1082.153 180.00 2.47891 0.49
2 1 -2 2 o 3353.036 3418.201 180.00 2.47775 0.73
0 1 -3 1 o 2784.637 2835.116 0.00 2.46362 2.08
0 2 4 1 o 3486.691 3473.664 180.00 2.46121 3.80
0 1 -3 2 o 2842.981 2835.116 0.00 2.46362 1.06
0 2 4 2 o 3574.823 3473.664 180.00 2.46121 1.94
0 1 4 1 o 726.079 690.054 0.00 2.44910 0.78
0 1 4 2 o 678.771 690.054 0.00 2.44910 0.36
2 -1 1 1 o 218.177 200.801 180.00 2.42404 0.22
2 -1 1 2 o 115.337 200.801 180.00 2.42404 0.06
2 2 3 1 o 41.383 47.938 180.00 2.40454 0.02
2 2 3 2 o 46.111 47.938 180.00 2.40454 0.01
1 1 -3 1 o 14.691 15.633 180.00 2.40231 0.01
1 -3 -2 1 o 5163.641 5223.423 180.00 2.40032 3.26
1 1 -3 2 o 14.697 15.633 180.00 2.40231 0.01
1 -3 -2 2 o 5097.660 5223.423 180.00 2.40032 1.60
1 -3 -1 1 o 298.144 312.567 0.00 2.39204 0.05
1 -3 -1 2 o 299.954 312.567 0.00 2.39204 0.03
1 2 4 1 o 3795.412 4099.696 180.00 2.37867 2.09
1 2 4 2 o 3719.479 4099.696 180.00 2.37867 1.02
2 3 0 1 o 447.355 493.263 0.00 2.37122 0.19
2 3 0 2 o 307.695 493.263 0.00 2.37122 0.06
1 3 -1 1 o 757.239 798.612 180.00 2.35072 0.33
1 3 -1 2 o 799.394 798.612 180.00 2.35072 0.18
2 1 3 1 o 97.768 71.726 180.00 2.32661 0.10
2 1 3 2 o 214.693 71.726 180.00 2.32661 0.10
1 1 4 1 o 1348.635 1435.416 180.00 2.29686 1.94
1 1 4 2 o 1476.090 1435.416 180.00 2.29686 1.06
1 4 2 1 o 475.590 555.122 180.00 2.29886 0.06
1 4 2 2 o 562.502 555.122 180.00 2.29886 0.03
2 3 3 1 o 781.249 837.049 0.00 2.27837 0.69
0 3 -1 1 o 16.791 15.487 0.00 2.28988 0.01
2 3 3 2 o 834.411 837.049 0.00 2.27837 0.37
0 3 -1 2 o 15.340 15.487 0.00 2.28988 0.00
2 -2 -1 1 o 519.455 518.099 180.00 2.26497 1.69
2 -2 -1 2 o 549.390 518.099 180.00 2.26497 0.89
0 3 4 1 o 2322.625 2318.548 180.00 2.26507 3.54
1 3 4 1 o 770.308 749.280 0.00 2.26228 2.68
1 -1 -4 1 o 196.270 4824.137 0.00 2.26140 0.00
0 3 4 2 o 2466.644 2318.548 180.00 2.26507 1.87
1 3 4 2 o 824.744 749.280 0.00 2.26228 1.44
1 -1 -4 2 o 196.270 4824.137 0.00 2.26140 0.00
1 -3 -3 1 o 1200.380 1068.519 0.00 2.25110 0.75
0 0 4 1 o 2679.839 2563.488 0.00 2.23706 3.10
1 -3 -3 2 o 1056.396 1068.519 0.00 2.25110 0.33
1 4 1 1 o 5776.067 5729.975 0.00 2.24423 2.01
0 0 4 2 o 2893.126 2563.488 0.00 2.23706 1.67
1 -3 0 1 o 102.243 90.048 0.00 2.23077 0.08
1 4 1 2 o 5665.242 5729.975 0.00 2.24423 0.98
1 -3 0 2 o 101.547 90.048 0.00 2.23077 0.04
2 -2 -2 1 o 102.622 1626.972 0.00 2.21465 0.00
2 -2 -2 2 o 102.622 1626.972 0.00 2.21465 0.00
2 0 -3 1 o 3931.650 3921.229 0.00 2.21707 2.79
0 4 2 1 o 2188.445 2151.086 0.00 2.21398 1.01
2 0 -3 2 o 4091.532 3921.229 0.00 2.21707 1.45
1 4 3 1 o 172.437 171.849 180.00 2.20929 0.01
2 -1 -3 1 o 860.893 859.696 0.00 2.20917 0.28
0 4 2 2 o 2120.989 2151.086 0.00 2.21398 0.48
1 -2 -4 1 o 158.300 162.630 180.00 2.20818 0.52
1 -1 3 1 o 683.301 740.353 0.00 2.19318 0.67
1 4 3 2 o 168.549 171.849 180.00 2.20929 0.01
2 -1 -3 2 o 847.590 859.696 0.00 2.20917 0.14
1 -2 -4 2 o 165.902 162.630 180.00 2.20818 0.27
1 -1 3 2 o 902.846 740.353 0.00 2.19318 0.45
2 -2 0 1 o 3178.877 3156.527 180.00 2.17727 0.93
2 -2 0 2 o 3364.366 3156.527 180.00 2.17727 0.49
2 2 -2 1 o 48.927 44.605 180.00 2.17109 0.02
2 2 -2 2 o 47.269 44.605 180.00 2.17109 0.01
1 -2 2 1 o 5.250 6.837 180.00 2.16172 0.00
3 1 0 1 o 3.490 7.902 180.00 2.15838 0.01
1 -2 2 2 o 5.855 6.837 180.00 2.16172 0.00
3 1 0 2 o 7.677 7.902 180.00 2.15838 0.01
1 0 -4 1 o 2787.240 2929.565 180.00 2.14437 0.98
0 4 1 1 o 1885.106 2020.747 180.00 2.15476 0.83
1 0 -4 2 o 2646.200 2929.565 180.00 2.14437 0.46
0 4 1 2 o 1934.721 2020.747 180.00 2.15476 0.42
0 4 3 1 o 585.270 621.734 0.00 2.14364 0.29
0 4 3 2 o 560.491 621.734 0.00 2.14364 0.14
3 1 1 1 o 4084.681 4197.877 180.00 2.12683 4.09
3 1 1 2 o 4137.566 4197.877 180.00 2.12683 2.06
3 2 1 1 o 3980.800 4018.834 180.00 2.11984 1.27
2 3 -1 1 o 33.242 34.881 180.00 2.11820 0.01
3 2 1 2 o 3789.451 4018.834 180.00 2.11984 0.60
2 -1 2 1 o 1994.937 2001.675 0.00 2.11312 0.98
2 3 -1 2 o 34.977 34.881 180.00 2.11820 0.00
2 -1 2 2 o 2048.137 2001.675 0.00 2.11312 0.50
2 4 2 1 o 4394.854 3560.654 180.00 2.10308 1.44
2 0 3 2 o 162.074 169.038 180.00 2.09435 0.04
2 4 2 2 o 4663.051 3560.654 180.00 2.10308 0.76
2 0 3 1 o 198.588 169.038 180.00 2.09435 0.11
3 2 0 1 o 30.078 28.553 0.00 2.09277 0.03
3 2 0 2 o 29.228 28.553 0.00 2.09277 0.01
3 0 0 1 o 823.106 945.110 180.00 2.07412 0.26
1 4 0 1 o 3624.865 4018.758 180.00 2.07235 2.22
3 1 -1 1 o 877.528 961.615 0.00 2.07070 0.77
2 4 1 1 o 800.972 871.465 0.00 2.07002 1.12
2 1 -3 1 o 56.712 1510.758 0.00 2.06968 0.00
3 0 0 2 o 897.115 945.110 180.00 2.07412 0.14
1 0 4 1 o -5.563 235.194 0.00 2.06799 0.00
1 4 0 2 o 3967.024 4018.758 180.00 2.07235 1.21
3 1 -1 2 o 953.259 961.615 0.00 2.07070 0.42
2 4 1 2 o 873.707 871.465 0.00 2.07002 0.61
2 1 -3 2 o 56.712 1510.758 0.00 2.06968 0.00
1 0 4 2 o -5.563 235.194 0.00 2.06799 0.00
2 -2 -3 1 o 1.531 5.522 180.00 2.05056 0.00
3 0 -1 1 o 5987.680 5934.930 0.00 2.04634 1.19
2 -2 -3 2 o 1.531 5.522 180.00 2.05056 0.00
3 2 2 1 o 3830.160 3703.204 0.00 2.03398 1.25
3 0 -1 2 o 5720.369 5934.930 0.00 2.04634 0.56
2 2 4 1 o 3221.664 3328.811 0.00 2.04102 1.78
3 2 2 2 o 3745.008 3703.204 0.00 2.03398 0.61
2 2 4 2 o 3316.023 3328.811 0.00 2.04102 0.91
2 4 3 1 o 6194.572 6229.881 0.00 2.02530 2.08
2 4 3 2 o 6909.696 6229.881 0.00 2.02530 1.16
1 4 4 1 o 84.973 61.697 0.00 2.01820 0.07
1 2 -3 1 o 2344.305 1588.405 180.00 2.01650 0.12
1 -3 -4 1 o 1.328 12.385 0.00 2.01583 0.00
1 4 4 2 o 60.864 61.697 0.00 2.01820 0.02
1 2 -3 2 o 1456.374 1588.405 180.00 2.01650 0.04
1 -3 -4 2 o 1.328 12.385 0.00 2.01583 0.00
2 3 4 1 o 2982.084 2961.343 0.00 2.00996 4.07
3 0 1 1 o 109.849 106.800 180.00 1.99571 0.09
0 2 -3 1 o 12.155 11.496 180.00 2.00568 0.01
2 3 4 2 o 3282.472 2961.343 0.00 2.00996 2.24
2 -2 1 1 o 155.979 2638.407 0.00 1.99227 0.00
3 0 1 2 o 106.695 106.800 180.00 1.99571 0.04
0 2 -3 2 o 12.025 11.496 180.00 2.00568 0.00
3 1 2 1 o 3.778 17.038 0.00 1.99021 0.00
2 -2 1 2 o 155.979 2638.407 0.00 1.99227 0.00
3 1 2 2 o 3.778 17.038 0.00 1.99021 0.00
0 4 0 1 o 2099.931 2013.125 180.00 1.99313 0.42
1 -3 1 1 o 3466.451 3434.392 180.00 1.99160 2.11
0 4 0 2 o 2004.405 2013.125 180.00 1.99313 0.20
1 3 -2 1 o 1294.181 1299.306 0.00 1.98805 0.01
0 2 5 1 o 318.111 319.103 180.00 1.98785 0.33
1 -3 1 2 o 3386.021 3434.392 180.00 1.99160 1.02
1 3 -2 2 o 1243.779 1299.306 0.00 1.98805 0.00
0 2 5 2 o 303.771 319.103 180.00 1.98785 0.16
3 3 1 1 o 46.964 44.683 0.00 1.97851 0.01
0 4 4 1 o 623.417 527.941 180.00 1.97563 0.47
3 3 1 2 o 49.331 44.683 0.00 1.97851 0.01
0 4 4 2 o 647.384 527.941 180.00 1.97563 0.24
3 2 -1 1 o 1284.184 1368.351 0.00 1.96457 0.44
3 3 2 1 o 1.590 1.824 0.00 1.95204 0.00
3 2 -1 2 o 1099.482 1368.351 0.00 1.96457 0.19
3 3 2 2 o 2.361 1.824 0.00 1.95204 0.00
2 1 4 1 o 276.271 195.398 0.00 1.94610 0.03
2 1 4 2 o 229.307 195.398 0.00 1.94610 0.01
0 1 -4 1 o 49.780 37.085 0.00 1.94481 0.02
0 3 -2 1 o 1416.174 1152.708 0.00 1.94329 0.66
2 4 0 1 o 134.708 117.832 180.00 1.94027 0.01
0 1 -4 2 o 42.013 37.085 0.00 1.94481 0.01
0 3 -2 2 o 1223.394 1152.708 0.00 1.94329 0.28
1 2 5 1 o 6693.437 6713.295 0.00 1.93613 2.10
0 1 5 1 o 5155.964 5195.906 180.00 1.93560 3.17
2 4 0 2 o 116.763 117.832 180.00 1.94027 0.01
1 2 5 2 o 6472.828 6713.295 0.00 1.93613 1.01
0 1 5 2 o 5047.425 5195.906 180.00 1.93560 1.54
3 0 -2 1 o 3555.944 3645.811 180.00 1.92401 1.28
1 -4 -2 1 o 21.858 22.400 180.00 1.92289 0.05
0 3 5 1 o 154.111 155.082 180.00 1.92206 0.06
1 1 -4 1 o 3434.998 3410.583 180.00 1.92143 1.04
3 0 -2 2 o 3665.396 3645.811 180.00 1.92401 0.66
1 -4 -2 2 o 21.969 22.400 180.00 1.92289 0.02
0 3 5 2 o 150.338 155.082 180.00 1.92206 0.03
3 3 0 2 o 7098.525 6632.673 180.00 1.91228 1.18
1 1 -4 2 o 3300.932 3410.583 180.00 1.92143 0.50
3 -1 -1 1 o 13.722 1427.060 0.00 1.90396 0.00
1 3 5 1 o 86.404 83.365 180.00 1.91316 0.15
3 3 0 1 o 6831.322 6632.673 180.00 1.91228 2.28
3 -1 -1 2 o 13.722 1427.060 0.00 1.90396 0.00
1 3 5 2 o 84.009 83.365 180.00 1.91316 0.07
3 1 -2 2 o 629.606 654.549 0.00 1.90085 0.23
2 -1 -4 1 o 378.642 366.917 180.00 1.90338 0.70
3 1 -2 1 o 559.762 654.549 0.00 1.90085 0.42
2 -1 -4 2 o 315.452 366.917 180.00 1.90338 0.29
3 -1 0 1 o 1008.378 1207.155 0.00 1.88407 0.18
3 -1 0 2 o 1021.265 1207.155 0.00 1.88407 0.09
2 -3 -2 1 o 62.709 61.195 0.00 1.88818 0.00
2 -3 -1 1 o 732.245 761.173 0.00 1.87734 0.35
2 -3 -2 2 o 48.906 61.195 0.00 1.88818 0.00
1 -4 -3 1 o 712.167 888.789 180.00 1.88305 0.58
2 -3 -1 2 o 674.200 761.173 0.00 1.87734 0.16
3 2 3 1 o 895.699 970.740 180.00 1.87029 0.27
1 -4 -3 2 o 792.628 888.789 180.00 1.88305 0.32
1 -4 -1 1 o 21.387 341.375 180.00 1.87691 0.00
3 2 3 2 o 879.459 970.740 180.00 1.87029 0.13
1 -4 -1 2 o 21.387 341.375 180.00 1.87691 0.00
2 4 4 1 o 509.617 504.002 180.00 1.86836 0.24
2 0 -4 1 o 3872.431 3859.709 180.00 1.86737 2.00
2 4 4 2 o 460.737 504.002 180.00 1.86836 0.11
2 0 -4 2 o 3524.778 3859.709 180.00 1.86737 0.90
1 1 5 1 o 2258.657 2068.613 0.00 1.85125 1.81
1 1 5 2 o 2046.130 2068.613 0.00 1.85125 0.81
1 -2 -5 1 o 19.570 382.674 0.00 1.85369 0.00
3 3 3 1 o 777.096 696.793 0.00 1.84306 0.01
3 0 2 1 o 1862.961 1689.490 180.00 1.84215 0.38
1 4 -1 1 o 177.396 169.719 0.00 1.85018 0.00
3 -1 -2 1 o 68.367 749.924 180.00 1.84121 0.00
1 -2 -5 2 o 19.570 382.674 0.00 1.85369 0.00
2 3 -2 1 o 6478.976 6537.631 180.00 1.84780 1.62
3 3 3 2 o 723.018 696.793 0.00 1.84306 0.00
3 0 2 2 o 1792.525 1689.490 180.00 1.84215 0.18
1 4 -1 2 o 172.983 169.719 0.00 1.85018 0.00
3 -1 -2 2 o 68.367 749.924 180.00 1.84121 0.00
1 -1 -5 1 o 106.206 102.527 0.00 1.84525 0.07
2 3 -2 2 o 7278.424 6537.631 180.00 1.84780 0.91
2 2 -3 1 o 0.616 0.578 0.00 1.84139 0.00
1 -1 -5 2 o 107.913 102.527 0.00 1.84525 0.04
1 5 2 1 o 2581.212 2490.261 180.00 1.84045 1.56
2 2 -3 2 o 0.612 0.578 0.00 1.84139 0.00
1 5 2 2 o 2630.847 2490.261 180.00 1.84045 0.79
2 -2 -4 1 o 346.932 329.904 180.00 1.83575 0.09
2 -2 -4 2 o 393.736 329.904 180.00 1.83575 0.05
1 5 3 1 o 35.647 28.302 180.00 1.82980 0.02
2 -1 3 1 o 11618.328 10479.163 180.00 1.81760 14.31
1 -2 3 1 o 220.245 4665.139 0.00 1.81698 0.00
1 5 3 2 o 36.302 28.302 180.00 1.82980 0.01
2 -1 3 2 o 10734.474 10479.163 180.00 1.81760 6.56
1 -2 3 2 o 220.245 4665.139 0.00 1.81698 0.00
2 -3 -3 1 o 62.520 2394.876 0.00 1.81904 0.00
2 -3 -3 2 o 62.520 2394.876 0.00 1.81904 0.00
3 1 3 2 o 1596.507 1693.681 0.00 1.79943 0.39
3 1 3 1 o 1737.470 1693.681 0.00 1.79943 0.85
1 -1 4 1 o 1326.834 1244.810 180.00 1.79728 0.53
1 -1 4 2 o 1114.116 1244.810 180.00 1.79728 0.22
2 -3 0 1 o 230.675 5240.604 180.00 1.79039 0.00
0 0 5 1 o 704.875 730.578 180.00 1.78965 0.47
3 -1 1 1 o 2232.540 2371.051 180.00 1.78872 1.33
0 4 -1 1 o 3325.114 3479.404 0.00 1.78728 0.61
2 -3 0 2 o 230.675 5240.604 180.00 1.79039 0.00
0 0 5 2 o 745.456 730.578 180.00 1.78965 0.25
1 4 5 1 o 775.994 890.124 0.00 1.79282 1.66
3 -1 1 2 o 2419.833 2371.051 180.00 1.78872 0.72
3 4 2 1 o 142.855 138.950 0.00 1.78282 0.00
0 4 -1 2 o 3582.159 3479.404 0.00 1.78728 0.33
3 2 -2 1 o 235.959 225.893 180.00 1.78217 0.16
1 4 5 2 o 818.594 890.124 0.00 1.79282 0.87
3 4 2 2 o 148.358 138.950 0.00 1.78282 0.00
3 2 -2 2 o 238.707 225.893 180.00 1.78217 0.08
3 3 -1 1 o 1950.092 1867.498 0.00 1.77767 0.39
2 -2 2 1 o 200.354 192.842 180.00 1.77354 0.10
3 3 -1 2 o 1961.187 1867.498 0.00 1.77767 0.20
2 -2 2 2 o 192.480 192.842 180.00 1.77354 0.05
2 0 4 1 o 7027.744 7044.519 0.00 1.76916 3.30
1 5 1 1 o 1683.477 1684.784 0.00 1.77679 0.85
3 4 1 1 o 698.595 729.435 0.00 1.76817 0.45
2 5 2 1 o 937.382 976.377 0.00 1.76523 0.10
2 0 4 2 o 6892.983 7044.519 0.00 1.76916 1.61
1 5 1 2 o 1819.534 1684.784 0.00 1.77679 0.46
3 4 1 2 o 733.884 729.435 0.00 1.76817 0.23
1 -4 -4 1 o 7269.530 6742.278 0.00 1.77176 1.34
1 -4 0 1 o 210.636 4186.396 0.00 1.76156 0.00
2 5 2 2 o 973.711 976.377 0.00 1.76523 0.05
0 4 5 1 o 2066.723 2135.084 180.00 1.76840 1.90
1 -3 -5 1 o 1888.920 1964.004 0.00 1.76827 2.09
2 4 -1 1 o 2503.484 2584.695 0.00 1.75991 1.78
1 -4 -4 2 o 6216.046 6742.278 0.00 1.77176 0.57
1 -4 0 2 o 210.636 4186.396 0.00 1.76156 0.00
0 5 2 1 o 626.943 631.621 180.00 1.76450 0.16
0 4 5 2 o 2149.692 2135.084 180.00 1.76840 0.99
1 -3 -5 2 o 1981.014 1964.004 0.00 1.76827 1.09
2 4 -1 2 o 2545.121 2584.695 0.00 1.75991 0.90
0 5 3 1 o 1334.657 1347.263 0.00 1.76066 0.43
0 5 2 2 o 613.007 631.621 180.00 1.76450 0.08
2 5 3 1 o 1070.554 1084.386 0.00 1.75032 0.48
3 0 -3 1 o 76.344 77.347 0.00 1.75022 0.01
0 5 3 2 o 1361.866 1347.263 0.00 1.76066 0.22
2 3 5 1 o 3868.779 3905.817 180.00 1.74770 1.70
1 0 -5 1 o 3479.226 3501.471 0.00 1.74654 1.53
2 5 3 2 o 1074.332 1084.386 0.00 1.75032 0.24
3 0 -3 2 o 76.782 77.347 0.00 1.75022 0.01
1 -3 2 1 o 24.107 552.273 0.00 1.74541 0.00
2 3 5 2 o 4019.704 3905.817 180.00 1.74770 0.88
2 1 -4 1 o 12.256 154.173 0.00 1.74344 0.00
1 0 -5 2 o 3713.745 3501.471 0.00 1.74654 0.82
1 -3 2 2 o 24.107 552.273 0.00 1.74541 0.00
1 5 4 1 o 550.789 561.515 180.00 1.74849 0.19
2 1 -4 2 o 12.256 154.173 0.00 1.74344 0.00
1 5 4 2 o 564.780 561.515 180.00 1.74849 0.10
2 2 5 1 o 66.988 70.369 180.00 1.73520 0.01
2 2 5 2 o 64.296 70.369 180.00 1.73520 0.00
3 4 3 1 o 144.725 120.521 0.00 1.72938 0.05
3 4 3 2 o 170.022 120.521 0.00 1.72938 0.03
3 -1 -3 1 o 11.016 925.242 0.00 1.71731 0.00
2 5 1 1 o 4880.249 4252.048 180.00 1.71396 1.85
3 -1 -3 2 o 11.016 925.242 0.00 1.71731 0.00
2 5 1 2 o 4139.827 4252.048 180.00 1.71396 0.77
3 -2 -1 1 o 2268.316 2005.027 180.00 1.70405 0.37
0 5 1 1 o 2.908 2.284 180.00 1.70309 0.00
3 1 -3 1 o 5841.753 5693.582 180.00 1.70183 1.37
3 -2 -1 2 o 1919.336 2005.027 180.00 1.70405 0.16
0 5 1 2 o 2.229 2.284 180.00 1.70309 0.00
3 1 -3 2 o 6170.888 5693.582 180.00 1.70183 0.72
3 3 4 1 o 2372.372 2109.213 180.00 1.68713 0.20
1 0 5 1 o 33.504 669.249 180.00 1.69448 0.00
2 -3 -4 1 o 3206.246 3033.261 180.00 1.69292 2.01
3 3 4 2 o 2956.510 2109.213 180.00 1.68713 0.12
1 0 5 2 o 33.504 669.249 180.00 1.69448 0.00
3 4 0 1 o 508.289 515.942 180.00 1.69015 0.17
1 3 -3 1 o 125.565 127.783 0.00 1.69021 0.09
2 -3 -4 2 o 3171.907 3033.261 180.00 1.69292 0.99
3 -2 -2 1 o 12.158 10.821 180.00 1.68720 0.02
3 2 4 1 o 30.222 121.294 0.00 1.67832 0.03
3 4 0 2 o 611.075 515.942 180.00 1.69015 0.10
1 3 -3 2 o 151.472 127.783 0.00 1.69021 0.06
0 5 4 1 o 3168.159 3068.047 180.00 1.69281 0.74
3 -2 -2 2 o 15.319 10.821 180.00 1.68720 0.01
3 2 4 2 o 67.814 121.294 0.00 1.67832 0.03
0 5 4 2 o 3215.936 3068.047 180.00 1.69281 0.37
2 4 5 1 o 3.174 4.527 180.00 1.68043 0.00
1 2 -4 1 o 0.377 28.934 0.00 1.67666 0.00
2 4 5 2 o 1.986 4.527 180.00 1.68043 0.00
2 5 4 1 o 3.565 286.887 180.00 1.67394 0.00
1 2 -4 2 o 0.377 28.934 0.00 1.67666 0.00
2 5 4 2 o 3.565 286.887 180.00 1.67394 0.00
3 -2 0 1 o 3459.109 3449.916 0.00 1.66105 0.74
3 0 3 1 o 2273.004 2291.493 0.00 1.65918 0.82
0 2 -4 1 o 3621.540 3603.605 0.00 1.66568 1.51
3 -2 0 2 o 3595.543 3449.916 0.00 1.66105 0.38
3 0 3 2 o 2414.898 2291.493 0.00 1.65918 0.43
2 -3 1 1 o 1636.258 1545.642 0.00 1.65483 0.02
0 2 -4 2 o 3677.050 3603.605 0.00 1.66568 0.76
1 5 0 1 o 3.762 3.797 0.00 1.65915 0.00
2 -3 1 2 o 1459.448 1545.642 0.00 1.65483 0.01
0 3 -3 1 o 2349.962 2273.283 180.00 1.65777 1.02
2 1 5 1 o 1395.276 1444.266 0.00 1.64773 1.50
3 -1 2 1 o 7.463 475.696 0.00 1.64765 0.00
1 5 0 2 o 3.970 3.797 0.00 1.65915 0.00
0 3 -3 2 o 2385.617 2273.283 180.00 1.65777 0.51
0 2 6 1 o 352.276 341.251 180.00 1.65289 0.22
2 1 5 2 o 1371.690 1444.266 0.00 1.64773 0.73
3 -1 2 2 o 7.463 475.696 0.00 1.64765 0.00
0 2 6 2 o 312.230 341.251 180.00 1.65289 0.09
0 3 6 1 o 78.075 99.664 0.00 1.64081 0.03
2 -1 -5 1 o 26.331 38.416 180.00 1.63929 0.03
0 3 6 2 o 76.405 99.664 0.00 1.64081 0.01
2 -1 -5 2 o 38.446 38.416 180.00 1.63929 0.03
3 4 4 1 o 4221.455 4038.044 180.00 1.62417 1.07
1 3 6 1 o 67.540 55.698 0.00 1.63080 0.06
1 4 -2 1 o 0.619 1.449 180.00 1.62998 0.00
3 4 4 2 o 3686.763 4038.044 180.00 1.62417 0.46
1 3 6 2 o 67.766 55.698 0.00 1.63080 0.03
1 4 -2 2 o 0.619 1.449 180.00 1.62998 0.00
1 2 6 1 o 743.316 748.339 180.00 1.61844 0.25
4 2 1 1 o 1820.900 1949.330 0.00 1.61580 0.48
1 -4 -5 1 o 80.614 1342.907 180.00 1.62205 0.00
1 2 6 2 o 732.927 748.339 180.00 1.61844 0.12
1 5 5 1 o 1473.160 1596.829 0.00 1.62116 1.06
2 -2 -5 1 o 567.026 621.462 180.00 1.62087 0.50
4 1 0 1 o 272.346 266.911 0.00 1.61316 0.06
4 2 1 2 o 2014.692 1949.330 0.00 1.61580 0.27
1 -4 -5 2 o 80.614 1342.907 180.00 1.62205 0.00
1 -4 1 1 o 1374.429 1342.301 180.00 1.61033 0.41
1 5 5 2 o 1523.422 1596.829 0.00 1.62116 0.54
2 -2 -5 2 o 584.539 621.462 180.00 1.62087 0.26
4 1 0 2 o 261.043 266.911 0.00 1.61316 0.03
3 -2 -3 1 o 239.168 255.201 180.00 1.61547 0.15
4 2 0 1 o 518.299 546.383 180.00 1.60795 0.54
1 -4 1 2 o 1339.757 1342.301 180.00 1.61033 0.20
3 3 -2 1 o 216.058 210.477 180.00 1.61290 0.02
2 5 0 1 o 2548.654 2460.002 0.00 1.61191 0.52
3 -2 -3 2 o 264.524 255.201 180.00 1.61547 0.08
4 2 0 2 o 587.985 546.383 180.00 1.60795 0.31
0 1 -5 1 o 274.501 258.190 0.00 1.60334 0.08
3 3 -2 2 o 202.982 210.477 180.00 1.61290 0.01
3 1 4 1 o 3222.883 3175.657 180.00 1.60090 1.10
2 5 0 2 o 2315.525 2460.002 0.00 1.61191 0.23
0 1 -5 2 o 267.323 258.190 0.00 1.60334 0.04
2 3 -3 1 o 1711.435 1658.811 0.00 1.60569 0.57
2 -4 -2 1 o 1930.068 1785.656 0.00 1.60427 0.30
3 1 4 2 o 3209.333 3175.657 180.00 1.60090 0.54
4 1 1 1 o 9.005 9.168 180.00 1.59569 0.01
2 3 -3 2 o 1671.953 1658.811 0.00 1.60569 0.28
2 -4 -2 2 o 1832.138 1785.656 0.00 1.60427 0.14
4 1 1 2 o 9.785 9.168 180.00 1.59569 0.00
0 1 6 1 o 2150.737 2125.242 0.00 1.59703 0.89
0 5 0 1 o 3379.902 3552.720 180.00 1.59451 0.38
1 1 -5 1 o 2549.422 2679.524 0.00 1.59429 1.20
0 1 6 2 o 2084.492 2125.242 0.00 1.59703 0.43
2 0 -5 1 o 98.506 88.740 0.00 1.59094 0.02
0 5 0 2 o 4005.508 3552.720 180.00 1.59451 0.23
1 1 -5 2 o 3062.008 2679.524 0.00 1.59429 0.72
3 2 -3 1 o 417.587 358.362 180.00 1.58996 0.06
0 4 -2 1 o 770.573 726.468 180.00 1.58242 0.17
3 5 2 2 o 4460.071 4217.970 0.00 1.58457 0.25
2 0 -5 2 o 113.393 88.740 0.00 1.59094 0.01
4 1 -1 1 o 2244.318 2161.751 180.00 1.57957 0.48
3 2 -3 2 o 411.254 358.362 180.00 1.58996 0.03
0 4 -2 2 o 728.913 726.468 180.00 1.58242 0.08
2 -4 -3 1 o 39.612 397.511 180.00 1.58497 0.00
1 -5 -3 1 o 1490.665 1395.440 0.00 1.58479 2.03
3 5 2 1 o 4507.804 4217.970 0.00 1.58457 0.51
1 -5 -2 1 o 3143.568 2939.624 180.00 1.58350 0.09
4 1 -1 2 o 2125.162 2161.751 180.00 1.57957 0.23
2 -4 -3 2 o 39.612 397.511 180.00 1.58497 0.00
1 -5 -3 2 o 1477.044 1395.440 0.00 1.58479 1.00
0 5 5 1 o 928.661 876.623 0.00 1.58050 0.39
2 -4 -1 1 o 11.661 177.288 180.00 1.57327 0.00
1 -5 -2 2 o 3065.231 2939.624 180.00 1.58350 0.04
4 2 2 1 o 64.312 62.704 180.00 1.57280 0.01
4 3 1 1 o 2098.812 2054.230 0.00 1.57179 0.50
1 4 6 1 o 878.245 898.359 180.00 1.57777 1.16
3 4 -1 1 o 3.669 497.938 180.00 1.57086 0.00
1 -2 -6 1 o 26.826 483.788 180.00 1.57733 0.00
3 -2 1 1 o 184.106 176.150 180.00 1.57041 0.20
0 5 5 2 o 852.657 876.623 0.00 1.58050 0.18
3 5 3 1 o 4008.226 3701.607 180.00 1.56979 1.29
2 -4 -1 2 o 11.661 177.288 180.00 1.57327 0.00
2 2 -4 1 o 553.420 564.559 0.00 1.57588 0.51
4 2 2 2 o 70.718 62.704 180.00 1.57280 0.00
2 -1 4 1 o 55.243 726.953 0.00 1.56861 0.00
4 3 1 2 o 2312.281 2054.230 0.00 1.57179 0.28
1 4 6 2 o 912.892 898.359 180.00 1.57777 0.60
3 4 -1 2 o 3.669 497.938 180.00 1.57086 0.00
1 -2 -6 2 o 26.826 483.788 180.00 1.57733 0.00
3 -2 1 2 o 179.188 176.150 180.00 1.57041 0.10
3 0 -4 1 o 172.448 177.360 0.00 1.56607 0.03
3 5 3 2 o 3541.709 3701.607 180.00 1.56979 0.56
2 2 -4 2 o 576.420 564.559 0.00 1.57588 0.26
2 -1 4 2 o 55.243 726.953 0.00 1.56861 0.00
2 4 -2 1 o 1162.516 1135.569 180.00 1.57120 0.28
2 -2 3 1 o 90.602 103.056 180.00 1.56389 0.19
3 0 -4 2 o 165.589 177.360 0.00 1.56607 0.02
3 -1 -4 2 o 25.891 27.027 0.00 1.56525 0.00
2 4 -2 2 o 1243.360 1135.569 180.00 1.57120 0.15
2 -2 3 2 o 106.364 103.056 180.00 1.56389 0.11
3 -1 -4 1 o 24.729 27.027 0.00 1.56525 0.01
0 4 6 1 o 4114.273 4668.336 0.00 1.56496 1.54
4 0 0 1 o 3564.544 3585.378 180.00 1.55559 0.57
4 3 2 1 o 5156.534 5565.687 180.00 1.55456 1.29
0 4 6 2 o 4473.839 4668.336 0.00 1.56496 0.83
4 0 0 2 o 3442.141 3585.378 180.00 1.55559 0.27
4 2 -1 1 o 4.348 4.560 0.00 1.55137 0.00
3 5 1 1 o 1.518 1.538 180.00 1.55097 0.00
2 5 5 1 o 1467.183 1263.578 180.00 1.55733 0.24
4 3 2 2 o 5509.647 5565.687 180.00 1.55456 0.69
1 -2 4 1 o 1603.715 1508.018 180.00 1.54897 0.22
4 2 -1 2 o 4.796 4.560 0.00 1.55137 0.00
4 0 -1 1 o 8.497 8.169 0.00 1.54754 0.00
3 5 1 2 o 1.554 1.538 180.00 1.55097 0.00
2 5 5 2 o 1136.137 1263.578 180.00 1.55733 0.09
1 -2 4 2 o 1402.680 1508.018 180.00 1.54897 0.09
1 1 6 1 o 209.490 227.159 0.00 1.54487 0.06
4 0 -1 2 o 7.629 8.169 0.00 1.54754 0.00
1 -1 -6 1 o 214.918 199.217 0.00 1.54892 0.09
4 3 0 1 o 8.654 8.539 180.00 1.54169 0.00
1 1 6 2 o 232.065 227.159 0.00 1.54487 0.03
1 -3 -6 1 o 3305.116 3502.531 180.00 1.54575 1.52
4 1 2 1 o 940.739 1002.029 0.00 1.53181 0.26
1 -1 -6 2 o 182.034 199.217 0.00 1.54892 0.04
4 3 0 2 o 9.235 8.539 180.00 1.54169 0.00
1 -3 -6 2 o 3554.710 3502.531 180.00 1.54575 0.82
2 -3 -5 1 o 1226.366 1208.875 0.00 1.54193 0.14
1 -5 -1 1 o 13.679 122.960 0.00 1.53496 0.00
4 1 2 2 o 970.452 1002.029 0.00 1.53181 0.13
1 -5 -4 1 o 874.975 759.494 0.00 1.53847 0.36
2 -3 -5 2 o 1352.505 1208.875 0.00 1.54193 0.08
1 -5 -1 2 o 13.679 122.960 0.00 1.53496 0.00
1 6 3 1 o 2242.812 2116.117 180.00 1.53587 0.87
1 -5 -4 2 o 781.273 759.494 0.00 1.53847 0.16
1 -3 3 1 o 0.939 8.840 0.00 1.52611 0.00
1 6 3 2 o 1965.896 2116.117 180.00 1.53587 0.38
4 0 1 1 o 2896.045 2691.985 0.00 1.51809 0.96
1 -3 3 2 o 0.939 8.840 0.00 1.52611 0.00
2 0 5 1 o 367.435 318.800 180.00 1.51448 0.23
4 0 1 2 o 3121.605 2691.985 0.00 1.51809 0.52
2 3 6 1 o 531.451 418.856 0.00 1.52104 0.02
3 3 5 1 o 973.771 893.572 0.00 1.51929 0.30
2 0 5 2 o 422.894 318.800 180.00 1.51448 0.13
2 3 6 2 o 454.820 418.856 0.00 1.52104 0.01
1 5 -1 1 o 88.680 1100.782 180.00 1.51662 0.00
3 3 5 2 o 1002.470 893.572 0.00 1.51929 0.16
2 -4 -4 1 o 240.655 202.083 180.00 1.52045 0.04
1 6 2 1 o 20.906 17.467 180.00 1.52023 0.02
1 -1 5 1 o 14.528 328.176 0.00 1.51406 0.00
1 5 -1 2 o 88.680 1100.782 180.00 1.51662 0.00
2 -4 -4 2 o 221.829 202.083 180.00 1.52045 0.02
3 5 4 1 o 682.295 525.549 0.00 1.51045 0.16
1 6 2 2 o 19.628 17.467 180.00 1.52023 0.01
1 -1 5 2 o 14.528 328.176 0.00 1.51406 0.00
3 1 -4 1 o 167.178 3569.138 0.00 1.50966 0.00
3 -3 -2 1 o 2587.150 2426.376 180.00 1.50916 3.66
3 -2 -4 1 o 214.895 5487.989 0.00 1.50747 0.00
3 5 4 2 o 484.594 525.549 0.00 1.51045 0.05
3 1 -4 2 o 167.178 3569.138 0.00 1.50966 0.00
3 -3 -2 2 o 2257.630 2426.376 180.00 1.50916 1.57
3 -2 -4 2 o 214.895 5487.989 0.00 1.50747 0.00
4 1 -2 1 o 3402.754 3533.954 0.00 1.50365 0.54
2 -3 2 1 o 71.172 75.662 0.00 1.50184 0.01
1 6 4 1 o 5138.543 5472.044 0.00 1.50731 2.33
4 3 3 1 o 2.458 2.441 0.00 1.49438 0.00
2 6 3 1 o 156.539 171.192 0.00 1.50671 0.00
3 -3 -1 1 o 335.303 321.178 0.00 1.50014 0.17
2 -4 0 1 o 152.878 144.656 0.00 1.50000 0.03
4 1 -2 2 o 3727.923 3533.954 0.00 1.50365 0.29
3 2 5 1 o 640.383 691.995 180.00 1.49214 0.20
3 -1 3 1 o -0.470 14.373 180.00 1.49213 0.00
2 -3 2 2 o 89.194 75.662 0.00 1.50184 0.01
1 6 4 2 o 5261.535 5472.044 0.00 1.50731 1.19
4 3 3 2 o 2.383 2.441 0.00 1.49438 0.00
2 6 3 2 o 158.349 171.192 0.00 1.50671 0.00
4 2 3 1 o 77.619 1064.367 180.00 1.48995 0.00
3 -3 -1 2 o 411.116 321.178 0.00 1.50014 0.11
2 -4 0 2 o 187.462 144.656 0.00 1.50000 0.02
2 4 6 1 o 29.476 23.826 180.00 1.49611 0.02
4 0 -2 1 o 1878.765 1512.324 0.00 1.49597 0.22
2 6 2 1 o 967.741 823.644 0.00 1.49535 0.05
3 2 5 2 o 723.901 691.995 180.00 1.49214 0.11
3 -1 3 2 o -0.470 14.373 180.00 1.49213 0.00
4 2 3 2 o 77.619 1064.367 180.00 1.48995 0.00
3 4 5 1 o 3261.571 3631.679 0.00 1.49273 1.60
2 4 6 2 o 21.804 23.826 180.00 1.49611 0.01
4 0 -2 2 o 1388.529 1512.324 0.00 1.49597 0.08
2 2 6 1 o 818.088 886.498 180.00 1.49208 0.17
2 6 2 2 o 769.295 823.644 0.00 1.49535 0.02
2 1 -5 1 o 159.470 2661.198 180.00 1.49152 0.00
0 0 6 1 o 1185.096 1253.170 180.00 1.49137 0.54
3 4 5 2 o 3598.129 3631.679 0.00 1.49273 0.88
2 2 6 2 o 929.526 886.498 180.00 1.49208 0.09
2 1 -5 2 o 159.470 2661.198 180.00 1.49152 0.00
0 0 6 2 o 1444.586 1253.170 180.00 1.49137 0.33
3 0 4 1 o 61.390 58.881 180.00 1.47955 0.02
2 5 -1 1 o 6.057 4.350 180.00 1.48361 0.00
4 4 2 1 o 39.137 28.060 180.00 1.48282 0.01
3 0 4 2 o 61.663 58.881 180.00 1.47955 0.01
2 5 -1 2 o 4.690 4.350 180.00 1.48361 0.00
4 4 2 2 o 28.183 28.060 180.00 1.48282 0.00
4 4 1 1 o 157.616 164.473 180.00 1.47765 0.03
3 5 0 1 o 304.581 315.036 180.00 1.47742 0.02
2 6 4 1 o 14.473 13.640 0.00 1.47642 0.00
3 -3 -3 1 o 75.851 1408.638 0.00 1.47643 0.00
1 5 6 1 o 4107.306 3807.745 180.00 1.47623 5.01
4 4 1 2 o 157.386 164.473 180.00 1.47765 0.01
3 5 0 2 o 302.124 315.036 180.00 1.47742 0.01
2 6 4 2 o 14.438 13.640 0.00 1.47642 0.00
3 -3 -3 2 o 75.851 1408.638 0.00 1.47643 0.00
1 5 6 2 o 4127.075 3807.745 180.00 1.47623 2.50
4 3 -1 1 o 116.290 108.036 180.00 1.47176 0.01
4 -1 -1 1 o 1018.331 1068.380 0.00 1.46523 0.20
0 6 3 1 o 491.831 456.054 180.00 1.47599 0.09
1 0 -6 1 o 1241.057 1170.910 180.00 1.46938 0.57
4 3 -1 2 o 110.410 108.036 180.00 1.47176 0.00
4 -1 -1 2 o 1045.325 1068.380 0.00 1.46523 0.10
0 6 3 2 o 500.482 456.054 180.00 1.47599 0.04
1 0 -6 2 o 1145.501 1170.910 180.00 1.46938 0.26
1 6 1 1 o 206.793 234.349 180.00 1.46421 0.10
1 -4 -6 1 o 58.728 67.589 180.00 1.46399 0.03
0 5 -1 1 o 2350.825 2719.606 0.00 1.46356 0.24
1 6 1 2 o 270.335 234.349 180.00 1.46421 0.06
1 -4 -6 2 o 80.662 67.589 180.00 1.46399 0.02
0 5 -1 2 o 3269.175 2719.606 0.00 1.46356 0.17
4 2 -2 1 o 1.387 1.244 180.00 1.45989 0.00
3 -2 2 1 o 22.245 392.887 180.00 1.45325 0.00
4 -1 0 1 o 1692.260 1720.362 180.00 1.45296 0.07
0 6 2 1 o 2687.163 2357.793 0.00 1.45891 0.45
3 -3 0 1 o 155.086 170.610 0.00 1.45151 0.02
4 2 -2 2 o 1.253 1.244 180.00 1.45989 0.00
1 -5 -5 1 o 565.053 558.950 180.00 1.45586 0.04
3 -2 2 2 o 22.245 392.887 180.00 1.45325 0.00
4 -1 0 2 o 1426.876 1720.362 180.00 1.45296 0.03
1 3 -4 1 o 2280.266 2298.255 180.00 1.45549 0.66
0 6 2 2 o 2320.468 2357.793 0.00 1.45891 0.19
4 4 3 1 o 388.429 522.972 180.00 1.44853 0.08
3 -3 0 2 o 119.999 170.610 0.00 1.45151 0.01
1 -4 2 1 o 600.310 619.276 180.00 1.45252 0.07
1 -5 -5 2 o 538.919 558.950 180.00 1.45586 0.02
1 3 -4 2 o 2151.625 2298.255 180.00 1.45549 0.31
4 4 3 2 o 575.616 522.972 180.00 1.44853 0.06
1 -5 0 1 o 0.038 0.429 0.00 1.45091 0.00
0 6 4 2 o 486.295 554.298 180.00 1.45372 0.05
4 0 2 1 o 0.051 0.044 180.00 1.44403 0.00
1 -4 2 2 o 478.917 619.276 180.00 1.45252 0.03
0 5 6 1 o 81.171 113.848 0.00 1.44843 0.04
0 6 4 1 o 545.512 554.298 180.00 1.45372 0.11
3 3 -3 1 o 3.627 4.850 180.00 1.44739 0.00
1 -5 0 2 o 0.038 0.429 0.00 1.45091 0.00
4 0 2 2 o 0.046 0.044 180.00 1.44403 0.00
4 -1 -2 1 o -0.089 0.615 0.00 1.43909 0.00
2 6 1 1 o 689.220 624.771 180.00 1.44502 0.01
0 5 6 2 o 127.973 113.848 0.00 1.44843 0.04
3 3 -3 2 o 5.431 4.850 180.00 1.44739 0.00
4 1 3 1 o 147.680 2601.752 180.00 1.43652 0.00
2 6 1 2 o 686.866 624.771 180.00 1.44502 0.01
4 -1 -2 2 o -0.089 0.615 0.00 1.43909 0.00
1 6 5 1 o 1544.678 1404.169 180.00 1.44137 0.58
4 1 3 2 o 147.680 2601.752 180.00 1.43652 0.00
1 6 5 2 o 1761.696 1404.169 180.00 1.44137 0.33
1 0 6 1 o 152.600 2739.697 0.00 1.43194 0.00
3 4 -2 1 o 2445.568 2708.240 0.00 1.43529 0.18
1 4 -3 1 o 3078.839 3768.475 0.00 1.43500 1.38
4 4 0 1 o 2282.598 4057.379 0.00 1.43421 0.45
3 4 -2 2 o 479.336 2708.240 0.00 1.43529 0.01
0 3 -4 1 o 238.797 1155.402 0.00 1.43161 0.06
1 4 -3 2 o 653.026 3768.475 0.00 1.43500 0.12
