#------------------------------------------------------------------------------
#$Date: 2016-03-24 03:23:26 +0200 (Thu, 24 Mar 2016) $
#$Revision: 179628 $
#$URL: svn://www.crystallography.net/cod/cif/4/50/92/4509268.cif $
#------------------------------------------------------------------------------
#
# This file is available in the Crystallography Open Database (COD),
# http://www.crystallography.net/. The original data for this entry
# were provided the Crystal Eye server at
# http://wwmm.ch.cam.ac.uk/crystaleye/, created by Nick Day at the
# Peter Murray-Rust laboratory.
#
# The file may be used within the scientific community so long as
# proper attribution is given to the journal article from which the
# data were obtained.
#
data_4509268
loop_
_publ_author_name
'Fujii, Kotaro'
'Ashida, Yasunari'
'Uekusa, Hidehiro'
'Hirano, Shinya'
'Toyota, Shinji'
'Toda, Fumio'
'Pan, Zhigang'
'Harris, Kenneth D. M.'
_publ_section_title
;
 Vapour Induced Crystalline Transformation Investigated byab initioPowder
 X-ray Diffraction Analysis
;
_journal_issue                   2
_journal_name_full               'Crystal Growth &amp; Design'
_journal_page_first              1201
_journal_paper_doi               10.1021/cg801142p
_journal_volume                  9
_journal_year                    2009
_chemical_formula_moiety         'C6 H7 N O, C9 H6 O6, H2 O'
_chemical_formula_sum            'C15 H15 N O8'
_chemical_formula_weight         337.28
_chemical_name_common
;
hydrate of 5-methyl-2-pyridone and trimesic acid
;
_chemical_name_systematic        ' ?'
_space_group_IT_number           2
_symmetry_cell_setting           triclinic
_symmetry_space_group_name_Hall  '-P 1'
_symmetry_space_group_name_H-M   'P -1'
_audit_creation_date             2008-06-24T18:40
_audit_creation_method           'from EXP file using GSAS2CIF'
_audit_update_record
' 2008-06-24T18:40  Initial CIF as created by GSAS2CIF'
_cell_angle_alpha                107.9097(15)
_cell_angle_beta                 97.7465(14)
_cell_angle_gamma                88.0882(10)
_cell_formula_units_Z            2
_cell_length_a                   10.54226(20)
_cell_length_b                   10.94869(29)
_cell_length_c                   7.09935(10)
_cell_volume                     772.58(3)
_computing_molecular_graphics    'Mercury (CCDC)'
_computing_publication_material  'GSAS (A.C. Larson and R.B. Von Dreele 2000)'
_computing_structure_refinement  GSAS
_diffrn_radiation_polarisn_ratio 0.9
_diffrn_radiation_probe          x-ray
_diffrn_radiation_wavelength     1.2368
_exptl_absorpt_correction_T_max  0.73545
_exptl_absorpt_correction_T_min  0.73110
_exptl_absorpt_process_details
;   GSAS Absorption/surface roughness correction: function number 0
 Debye-Scherrer absorption correction
Term (= MU.r/wave) =     0.15000    
Correction is not refined.
;
_exptl_crystal_colour            white
_pd_block_id                     2008-06-24T18:40|TODA1|Kotaro_Fujii|BL19B2
_pd_calc_method                  'Rietveld Refinement'
_pd_instr_location               ' ?'
_pd_meas_2theta_range_inc        0.01
_pd_meas_2theta_range_max        70.0
_pd_meas_2theta_range_min        5.0
_pd_meas_number_of_points        6501
_pd_phase_name
'from C:/data/powder/sp8_19B2_20060313/toda1/gsas/toda1_060320_RRR_'
_pd_proc_2theta_range_inc        0.01
_pd_proc_2theta_range_max        69.99673
_pd_proc_2theta_range_min        4.99673
_pd_proc_info_datetime           2008-06-24T18:40:15
_pd_proc_info_excluded_regions   ' ?'
_pd_proc_ls_background_function
;   GSAS Background function number 1 with 30 terms.
 Shifted Chebyshev function of 1st kind
      1:    6390.06     2:   -2786.61     3:    604.316     4:    330.390    
      5:   -620.791     6:    41.6928     7:    255.789     8:   -391.699    
      9:    122.397    10:    252.622    11:   -273.294    12:    145.352    
     13:    8.52929    14:   -201.574    15:    143.405    16:   -61.6304    
     17:   -45.9863    18:    33.7409    19:   -42.6375    20:    43.4506    
     21:    16.7749    22:   -65.1150    23:    43.5639    24:    47.2818    
     25:   -91.8905    26:    20.0581    27:    41.0822    28:   -43.6528    
     29:    48.2281    30:   -48.5181    
;
_pd_proc_ls_peak_cutoff          0.00100
_pd_proc_ls_pref_orient_corr
;   March-Dollase
 AXIS  1 Ratio=   0.98087  h= 1.000  k= 0.000  l= 0.000
 Prefered orientation correction range: Min=   0.97145, Max=   1.05964
;
_pd_proc_ls_profile_function
;
 CW Profile function number 2 with  18 terms
 Profile coefficients for Simpson's rule integration of pseudovoigt function
 C.J. Howard (1982). J. Appl. Cryst.,15,615-620.
 P. Thompson, D.E. Cox & J.B. Hastings (1987). J. Appl. Cryst.,20,79-83.
 Peak tails are ignored  where the intensity is below 0.0010 times the peak
   Aniso. broadening axis   0.0   0.0   1.0
;
_pd_proc_ls_prof_R_factor        0.0353
_pd_proc_ls_prof_wR_expected     0.0106
_pd_proc_ls_prof_wR_factor       0.0517
_pd_proc_number_of_points        6501
_pd_spec_mounting                ' ?'
_refine_ls_goodness_of_fit_all   4.91
_refine_ls_matrix_type           full
_refine_ls_number_parameters     126
_refine_ls_number_restraints     113
_refine_ls_R_Fsqd_factor         0.08028
_refine_ls_shift/su_max          0.12
_refine_ls_shift/su_mean         0.01
_refine_ls_weighting_scheme      sigma
_reflns_d_resolution_high        1.078
_reflns_d_resolution_low         10.446
_reflns_limit_h_max              10
_reflns_limit_h_min              0
_reflns_limit_k_max              10
_reflns_limit_k_min              -10
_reflns_limit_l_max              6
_reflns_limit_l_min              -6
_reflns_number_total             1302
_cod_data_source_file            cg801142psup1.cif
_cod_data_source_block           TODA1_publ
_cod_depositor_comments
;
The following automatic conversions were performed:

'_geom_bond_publ_flag' value 'N' changed to 'n' according to
/home/saulius/struct/CIF-dictionaries/cif_core.dic dictionary named
'cif_core.dic' version 2.4.2 from 2011-04-26 (134
times).

'_geom_angle_publ_flag' value 'N' changed to 'n' according
to /home/saulius/struct/CIF-dictionaries/cif_core.dic dictionary
named 'cif_core.dic' version 2.4.2 from 2011-04-26 (57 times).

Automatic conversion script
Id: cif_fix_values 1891 2012-01-12 08:04:46Z andrius 
;
_cod_original_cell_volume        772.583(28)
_cod_database_code               4509268
#BEGIN Tags that were not found in dictionaries:
_gsas_exptl_extinct_corr_t_min   1.00000
_gsas_exptl_extinct_corr_t_max   1.00000
#END Tags that were not found in dictionaries
loop_
_symmetry_equiv_pos_site_id
_symmetry_equiv_pos_as_xyz
1 +x,+y,+z
-1 -x,-y,-z
loop_
_atom_site_type_symbol
_atom_site_label
_atom_site_fract_x
_atom_site_fract_y
_atom_site_fract_z
_atom_site_occupancy
_atom_site_thermal_displace_type
_atom_site_U_iso_or_equiv
_atom_site_symmetry_multiplicity
C C1 0.7826(6) 0.7040(4) -0.0008(5) 1.0 Uiso 0.0362(5) 2
C C6 0.8855(5) 0.7896(5) 0.0610(5) 1.0 Uiso 0.0362(5) 2
C C5 0.8678(5) 0.9174(5) 0.1663(5) 1.0 Uiso 0.0362(5) 2
C C4 0.7447(5) 0.9575(5) 0.2053(5) 1.0 Uiso 0.0362(5) 2
C C3 0.6421(5) 0.8718(5) 0.1431(5) 1.0 Uiso 0.0362(5) 2
C C2 0.6602(6) 0.7441(5) 0.0393(5) 1.0 Uiso 0.0362(5) 2
C C7 0.8054(5) 0.5712(4) -0.1301(4) 1.0 Uiso 0.0362(5) 2
C C9 0.9788(5) 1.0073(5) 0.2578(4) 1.0 Uiso 0.0362(5) 2
C C8 0.5097(4) 0.9142(5) 0.1830(4) 1.0 Uiso 0.0362(5) 2
O O1 0.9106(5) 0.5374(6) -0.1779(6) 1.0 Uiso 0.0362(5) 2
O O2 0.7029(5) 0.4973(6) -0.1771(4) 1.0 Uiso 0.0362(5) 2
O O5 0.9649(6) 1.1121(5) 0.3758(5) 1.0 Uiso 0.0362(5) 2
O O6 1.0891(6) 0.9590(6) 0.2042(5) 1.0 Uiso 0.0362(5) 2
O O3 0.4242(5) 0.8408(5) 0.1751(6) 1.0 Uiso 0.0362(5) 2
O O4 0.5007(6) 1.0392(5) 0.25540(35) 1.0 Uiso 0.0362(5) 2
H H6 0.7203(12) 0.4171(6) -0.2507(5) 1.0 Uiso 0.0364(6) 2
H H3 0.9688(6) 0.7606(10) 0.0326(8) 1.0 Uiso 0.0364(6) 2
H H5 1.1539(8) 1.0142(12) 0.2667(7) 1.0 Uiso 0.0364(6) 2
H H2 0.7305(10) 1.0446(5) 0.2767(7) 1.0 Uiso 0.0364(6) 2
H H4 0.4237(7) 1.0612(12) 0.2970(6) 1.0 Uiso 0.0364(6) 2
H H1 0.5902(8) 0.6853(8) -0.0035(7) 1.0 Uiso 0.0364(6) 2
C C10 0.7217(5) 0.7694(4) 0.5447(5) 1.0 Uiso 0.0362(5) 2
C C11 0.6117(5) 0.6896(5) 0.4796(5) 1.0 Uiso 0.0362(5) 2
C C12 0.6229(5) 0.5634(5) 0.3770(5) 1.0 Uiso 0.0362(5) 2
C C13 0.7424(6) 0.5087(4) 0.3325(5) 1.0 Uiso 0.0362(5) 2
C C14 0.8460(5) 0.5879(5) 0.3957(5) 1.0 Uiso 0.0362(5) 2
C C15 0.7547(7) 0.3685(5) 0.2185(6) 1.0 Uiso 0.0362(5) 2
N N1 0.8351(5) 0.7147(5) 0.4992(5) 1.0 Uiso 0.0362(5) 2
O O7 0.7234(6) 0.8888(4) 0.6419(5) 1.0 Uiso 0.0362(5) 2
H H7 0.5314(7) 0.7270(10) 0.5102(7) 1.0 Uiso 0.0364(6) 2
H H8 0.5478(8) 0.5113(9) 0.3349(6) 1.0 Uiso 0.0364(6) 2
H H9 0.9311(6) 0.5617(10) 0.3745(7) 1.0 Uiso 0.0364(6) 2
H H10 0.9065(7) 0.7670(9) 0.5415(6) 1.0 Uiso 0.0364(6) 2
H H11 0.761(7) 0.3178(15) 0.3116(26) 1.0 Uiso 0.0364(6) 2
H H12 0.831(4) 0.3562(21) 0.151(9) 1.0 Uiso 0.0364(6) 2
H H13 0.679(4) 0.3411(14) 0.119(7) 1.0 Uiso 0.0364(6) 2
O O8 0.7444(7) 0.2502(9) -0.3629(12) 1.0 Uiso 0.0362(5) 2
H H14 0.7096(21) 0.218(8) -0.272(7) 1.0 Uiso 0.0364(6) 2
H H15 0.8244(18) 0.216(5) -0.3979(28) 1.0 Uiso 0.0364(6) 2
loop_
_atom_type_symbol
_atom_type_number_in_cell
_atom_type_scat_dispersion_real
_atom_type_scat_dispersion_imag
_atom_type_scat_Cromer_Mann_a1
_atom_type_scat_Cromer_Mann_a2
_atom_type_scat_Cromer_Mann_a3
_atom_type_scat_Cromer_Mann_a4
_atom_type_scat_Cromer_Mann_b1
_atom_type_scat_Cromer_Mann_b2
_atom_type_scat_Cromer_Mann_b3
_atom_type_scat_Cromer_Mann_b4
_atom_type_scat_Cromer_Mann_c
_atom_type_scat_source
C 30.0 0.000 0.000 2.31000 20.8439 1.02000 10.2075 1.58860 0.56870 0.86500
51.6512 0.21560 International_Tables_Vol_C
O 16.0 0.000 0.000 3.04850 13.2771 2.28680 5.70110 1.54630 0.32390 0.86700
32.9089 0.25080 International_Tables_Vol_C
H 30.0 0.000 0.000 0.49300 10.5109 0.32291 26.1257 0.14019 3.14236 0.04081
57.7997 0.00304 International_Tables_Vol_C
N 2.0 0.000 0.000 12.2126 0.00570 3.13220 9.89330 2.01250 28.9975 1.16630
0.58260 -11.529 International_Tables_Vol_C
loop_
_geom_angle_atom_site_label_1
_geom_angle_atom_site_label_2
_geom_angle_atom_site_label_3
_geom_angle
_geom_angle_site_symmetry_1
_geom_angle_site_symmetry_3
_geom_angle_publ_flag
C6 C1 C2 121.07(33) 1_555 1_555 n
C6 C1 C7 117.84(34) 1_555 1_555 n
C2 C1 C7 120.78(34) 1_555 1_555 n
C1 C6 C5 120.47(34) 1_555 1_555 n
C1 C6 H3 120.1(5) 1_555 1_555 n
C5 C6 H3 119.5(5) 1_555 1_555 n
C6 C5 C4 118.34(34) 1_555 1_555 n
C6 C5 C9 121.5(4) 1_555 1_555 n
C4 C5 C9 119.8(4) 1_555 1_555 n
C5 C4 C3 121.03(35) 1_555 1_555 n
C5 C4 H2 119.7(5) 1_555 1_555 n
C3 C4 H2 119.3(5) 1_555 1_555 n
C4 C3 C2 120.49(34) 1_555 1_555 n
C4 C3 C8 121.3(4) 1_555 1_555 n
C2 C3 C8 118.15(35) 1_555 1_555 n
C1 C2 C3 118.60(33) 1_555 1_555 n
C1 C2 H1 120.8(5) 1_555 1_555 n
C3 C2 H1 120.6(5) 1_555 1_555 n
C1 C7 O1 121.6(4) 1_555 1_555 n
C1 C7 O2 113.1(4) 1_555 1_555 n
O1 C7 O2 125.3(4) 1_555 1_555 n
C5 C9 O5 121.2(4) 1_555 1_555 n
C5 C9 O6 113.7(4) 1_555 1_555 n
O5 C9 O6 125.1(4) 1_555 1_555 n
C3 C8 O3 123.4(4) 1_555 1_555 n
C3 C8 O4 112.8(4) 1_555 1_555 n
O3 C8 O4 123.1(4) 1_555 1_555 n
C7 O2 H6 111.0(7) 1_555 1_555 n
C9 O6 H5 111.0(7) 1_555 1_555 n
C8 O4 H4 110.7(7) 1_555 1_555 n
O6 H5 O7 174.2(6) 1_555 -1_776 n
C11 C10 N1 117.21(34) 1_555 1_555 n
C11 C10 O7 125.7(4) 1_555 1_555 n
N1 C10 O7 117.1(4) 1_555 1_555 n
C10 C11 C12 120.0(4) 1_555 1_555 n
C10 C11 H7 118.0(5) 1_555 1_555 n
C12 C11 H7 122.0(5) 1_555 1_555 n
C11 C12 C13 121.7(4) 1_555 1_555 n
C11 C12 H8 118.7(5) 1_555 1_555 n
C13 C12 H8 119.7(5) 1_555 1_555 n
C12 C13 C14 116.98(34) 1_555 1_555 n
C12 C13 C15 121.7(4) 1_555 1_555 n
C14 C13 C15 121.4(4) 1_555 1_555 n
C13 C14 N1 121.5(4) 1_555 1_555 n
C13 C14 H9 124.4(5) 1_555 1_555 n
N1 C14 H9 114.1(5) 1_555 1_555 n
C13 C15 H11 109.4(8) 1_555 1_555 n
C13 C15 H12 109.5(16) 1_555 1_555 n
C13 C15 H13 109.2(16) 1_555 1_555 n
H11 C15 H12 109.8(12) 1_555 1_555 n
H11 C15 H13 109.7(14) 1_555 1_555 n
H12 C15 H13 109.2(6) 1_555 1_555 n
C10 N1 C14 122.7(4) 1_555 1_555 n
C10 N1 H10 117.0(5) 1_555 1_555 n
C14 N1 H10 120.4(5) 1_555 1_555 n
H5 O7 C10 128.9(7) -1_776 1_555 n
H14 O8 H15 115.5(31) 1_555 1_555 n
loop_
_geom_bond_atom_site_label_1
_geom_bond_atom_site_label_2
_geom_bond_distance
_geom_bond_site_symmetry_2
_geom_bond_publ_flag
C1 C6 1.3898(21) 1_555 n
C1 C2 1.3869(21) 1_555 n
C1 C7 1.4939(21) 1_555 n
C1 H3 2.039(6) 1_555 n
C1 H1 2.043(6) 1_555 n
C6 C1 1.3898(21) 1_555 n
C6 C5 1.3891(21) 1_555 n
C6 H3 0.9500(11) 1_555 n
C5 C6 1.3891(21) 1_555 n
C5 C4 1.3921(21) 1_555 n
C5 C9 1.4958(21) 1_555 n
C5 H3 2.032(6) 1_555 n
C5 H2 2.037(5) 1_555 n
C4 C5 1.3921(21) 1_555 n
C4 C3 1.3892(21) 1_555 n
C4 H2 0.9500(11) 1_555 n
C3 C4 1.3892(21) 1_555 n
C3 C2 1.3857(21) 1_555 n
C3 C8 1.4917(21) 1_555 n
C3 H2 2.031(5) 1_555 n
C3 H1 2.041(5) 1_555 n
C2 C1 1.3869(21) 1_555 n
C2 C3 1.3857(21) 1_555 n
C2 H1 0.9499(11) 1_555 n
C7 C1 1.4939(21) 1_555 n
C7 O1 1.2156(21) 1_555 n
C7 O2 1.3152(21) 1_555 n
C7 H6 1.840(7) 1_555 n
C9 C5 1.4958(21) 1_555 n
C9 O5 1.2132(21) 1_555 n
C9 O6 1.3159(21) 1_555 n
C9 H5 1.842(7) 1_555 n
C8 C3 1.4917(21) 1_555 n
C8 O3 1.2115(21) 1_555 n
C8 O4 1.3115(21) 1_555 n
C8 H4 1.835(7) 1_555 n
O1 C7 1.2156(21) 1_555 n
O2 C7 1.3152(21) 1_555 n
O2 H6 0.8999(11) 1_555 n
O5 C9 1.2132(21) 1_555 n
O5 H10 1.833(7) -1_776 n
O6 C9 1.3159(21) 1_555 n
O6 H5 0.8999(11) 1_555 n
O3 C8 1.2115(21) 1_555 n
O3 H14 1.8626(22) -1_665 n
O4 C8 1.3115(21) 1_555 n
O4 H4 0.9001(11) 1_555 n
H6 C7 1.840(7) 1_555 n
H6 O2 0.8999(11) 1_555 n
H6 O8 1.780(10) 1_555 n
H3 C1 2.039(6) 1_555 n
H3 C6 0.9500(11) 1_555 n
H3 C5 2.032(6) 1_555 n
H5 C9 1.842(7) 1_555 n
H5 O6 0.8999(11) 1_555 n
H5 O7 1.632(8) -1_776 n
H2 C5 2.037(5) 1_555 n
H2 C4 0.9500(11) 1_555 n
H2 C3 2.031(5) 1_555 n
H4 C8 1.835(7) 1_555 n
H4 O4 0.9001(11) 1_555 n
H4 O7 1.695(8) -1_676 n
H1 C1 2.043(6) 1_555 n
H1 C3 2.041(5) 1_555 n
H1 C2 0.9499(11) 1_555 n
C10 C11 1.4126(21) 1_555 n
C10 N1 1.3530(21) 1_555 n
C10 O7 1.2764(21) 1_555 n
C10 H7 2.039(6) 1_555 n
C10 H10 1.951(6) 1_555 n
C11 C10 1.4126(21) 1_555 n
C11 C12 1.3587(21) 1_555 n
C11 H7 0.9500(11) 1_555 n
C11 H8 1.997(6) 1_555 n
C12 C11 1.3587(21) 1_555 n
C12 C13 1.4097(21) 1_555 n
C12 H7 2.029(5) 1_555 n
C12 H8 0.9501(11) 1_555 n
C13 C12 1.4097(21) 1_555 n
C13 C14 1.3551(21) 1_555 n
C13 C15 1.5095(21) 1_555 n
C13 H8 2.053(6) 1_555 n
C13 H9 2.048(5) 1_555 n
C13 H11 2.055(10) 1_555 n
C13 H12 2.056(19) 1_555 n
C13 H13 2.052(20) 1_555 n
C14 C13 1.3551(21) 1_555 n
C14 N1 1.3662(21) 1_555 n
C14 H9 0.9500(11) 1_555 n
C14 H10 1.996(5) 1_555 n
C15 C13 1.5095(21) 1_555 n
C15 H11 0.9804(11) 1_555 n
C15 H12 0.9801(11) 1_555 n
C15 H13 0.9801(11) 1_555 n
N1 C10 1.3530(21) 1_555 n
N1 C14 1.3662(21) 1_555 n
N1 H9 1.957(6) 1_555 n
N1 H10 0.9201(11) 1_555 n
O7 H5 1.632(8) -1_776 n
O7 H4 1.695(8) -1_676 n
O7 C10 1.2764(21) 1_555 n
H7 C10 2.039(6) 1_555 n
H7 C11 0.9500(11) 1_555 n
H7 C12 2.029(5) 1_555 n
H8 C11 1.997(6) 1_555 n
H8 C12 0.9501(11) 1_555 n
H8 C13 2.053(6) 1_555 n
H9 C13 2.048(5) 1_555 n
H9 C14 0.9500(11) 1_555 n
H9 N1 1.957(6) 1_555 n
H10 O5 1.833(7) -1_776 n
H10 C10 1.951(6) 1_555 n
H10 C14 1.996(5) 1_555 n
H10 N1 0.9201(11) 1_555 n
H11 C13 2.055(10) 1_555 n
H11 C15 0.9804(11) 1_555 n
H11 H12 1.604(12) 1_555 n
H11 H13 1.603(14) 1_555 n
H12 C13 2.056(19) 1_555 n
H12 C15 0.9801(11) 1_555 n
H12 H11 1.604(12) 1_555 n
H12 H13 1.598(6) 1_555 n
H13 C13 2.052(20) 1_555 n
H13 C15 0.9801(11) 1_555 n
H13 H11 1.603(14) 1_555 n
H13 H12 1.598(6) 1_555 n
O8 H6 1.780(10) 1_555 n
O8 H14 0.9428(11) 1_555 n
O8 H15 0.9423(11) 1_555 n
H14 O3 1.8626(22) -1_665 n
H14 O8 0.9428(11) 1_555 n
H14 H15 1.594(28) 1_555 n
H15 O8 0.9423(11) 1_555 n
H15 H14 1.594(28) 1_555 n
loop_
_pd_meas_counts_total
_pd_proc_ls_weight
_pd_proc_intensity_bkg_calc
_pd_calc_intensity_total
9158.0 0.0001092 9283.75977 9283.75977
9125.0 0.0001096 9256.40234 9256.40234
9185.0 0.0001089 9231.25098 9231.25098
9133.0 0.0001095 9208.18945 9208.18945
9209.0 0.0001086 9187.12109 9187.12109
9060.0 0.0001104 9167.92969 9167.92969
9118.0 0.0001097 9150.52051 9150.52051
9055.0 0.0001104 9134.79688 9134.79688
9110.0 0.0001098 9120.66797 9120.66797
9159.0 0.0001092 9108.04590 9108.04590
8935.0 0.0001119 9096.84082 9096.84082
9077.0 0.0001102 9086.97461 9086.97461
9069.0 0.0001103 9078.36328 9078.36328
9194.0 0.0001088 9070.94043 9070.94043
9235.0 0.0001083 9064.61523 9064.61523
9034.0 0.0001107 9059.33594 9059.33594
9017.0 0.0001109 9055.02637 9055.02637
8999.0 0.0001111 9051.62500 9051.62500
9226.0 0.0001084 9049.06836 9049.06836
9177.0 0.0001090 9047.29590 9047.29590
9171.0 0.0001090 9046.25293 9046.25293
9085.0 0.0001101 9045.88965 9045.88965
9240.0 0.0001082 9046.14258 9046.14258
9034.0 0.0001107 9046.97461 9046.97461
9238.0 0.0001082 9048.32813 9048.32813
9105.0 0.0001098 9050.16699 9050.16699
9054.0 0.0001104 9052.44629 9052.44629
9147.0 0.0001093 9055.11914 9055.11914
9041.0 0.0001106 9058.15137 9058.15137
9173.0 0.0001090 9061.50391 9061.50391
9152.0 0.0001093 9065.13867 9065.13867
9166.0 0.0001091 9069.02734 9069.02734
9159.0 0.0001092 9073.13574 9073.13574
8944.0 0.0001118 9077.43066 9077.43066
9281.0 0.0001077 9081.89063 9081.89063
9127.0 0.0001096 9086.47852 9086.47852
9075.0 0.0001102 9091.17773 9091.17773
9245.0 0.0001082 9095.95703 9095.95703
9088.0 0.0001100 9100.80273 9100.80273
9110.0 0.0001098 9105.68359 9105.68359
9127.0 0.0001096 9110.58203 9110.58203
9097.0 0.0001099 9115.48242 9115.48242
9122.0 0.0001096 9120.36523 9120.36523
9272.0 0.0001079 9125.21680 9125.21680
9050.0 0.0001105 9130.00586 9130.00586
9120.0 0.0001096 9134.73926 9134.73926
9350.0 0.0001070 9139.39160 9139.39160
9218.0 0.0001085 9143.95313 9143.95313
9086.0 0.0001101 9148.41406 9148.41406
9152.0 0.0001093 9152.76270 9152.76270
9237.0 0.0001083 9156.99023 9156.99023
9071.0 0.0001102 9161.08203 9161.08203
8962.0 0.0001116 9165.03516 9165.03516
9182.0 0.0001089 9168.84277 9168.84277
9199.0 0.0001087 9172.49902 9172.49902
9134.0 0.0001095 9175.99023 9175.99023
9134.0 0.0001095 9179.32129 9179.32129
9190.0 0.0001088 9182.48145 9182.48145
9148.0 0.0001093 9185.47266 9185.47266
9034.0 0.0001107 9188.28613 9188.28613
9169.0 0.0001091 9190.91992 9190.91992
9179.0 0.0001089 9193.37109 9193.37109
9266.0 0.0001079 9195.64063 9195.64063
9243.0 0.0001082 9197.72559 9197.72559
9135.0 0.0001095 9199.62793 9199.62793
9322.0 0.0001073 9201.34668 9201.34668
9085.0 0.0001101 9202.87598 9202.87598
8995.0 0.0001112 9204.22559 9204.22559
9024.0 0.0001108 9205.38770 9205.38770
9023.0 0.0001108 9206.37109 9206.37109
9012.0 0.0001110 9207.17188 9207.17188
9116.0 0.0001097 9207.79492 9207.79492
9177.0 0.0001090 9208.24219 9208.24219
9291.0 0.0001076 9208.51270 9208.51270
9025.0 0.0001108 9208.61230 9208.61230
9129.0 0.0001095 9208.54395 9208.54395
9105.0 0.0001098 9208.31055 9208.31055
9057.0 0.0001104 9207.91797 9207.91797
9079.0 0.0001101 9207.36426 9207.36426
9138.0 0.0001094 9206.65723 9206.65723
9271.0 0.0001079 9205.79980 9205.79980
9098.0 0.0001099 9204.79688 9204.79688
9146.0 0.0001093 9203.64844 9203.64844
9015.0 0.0001109 9202.36719 9202.36719
9073.0 0.0001102 9200.95117 9200.95117
9066.0 0.0001103 9199.40527 9199.40527
9145.0 0.0001093 9197.73828 9197.73828
9057.0 0.0001104 9195.95020 9195.95020
9176.0 0.0001090 9194.04883 9194.04883
9219.0 0.0001085 9192.03418 9192.03418
9251.0 0.0001081 9189.92090 9189.92090
9148.0 0.0001093 9187.70801 9187.70801
9185.0 0.0001089 9185.39453 9185.39453
9198.0 0.0001087 9183.00000 9183.00000
9165.0 0.0001091 9180.51855 9180.51855
9089.0 0.0001100 9177.95801 9177.95801
9077.0 0.0001102 9175.32129 9175.32129
9224.0 0.0001084 9172.62012 9172.62012
9266.0 0.0001079 9169.85059 9169.85059
9101.0 0.0001099 9167.02441 9167.02441
9200.0 0.0001087 9164.14746 9164.14746
9180.0 0.0001089 9161.21875 9161.21875
9113.0 0.0001097 9158.24512 9158.24512
9135.0 0.0001095 9155.23828 9155.23828
9113.0 0.0001097 9152.19141 9152.19141
9093.0 0.0001100 9149.12109 9149.12109
9214.0 0.0001085 9146.02148 9146.02148
9021.0 0.0001109 9142.90527 9142.90527
9022.0 0.0001108 9139.77930 9139.77930
9143.0 0.0001094 9136.63379 9136.63379
9083.0 0.0001101 9133.48633 9133.48633
9225.0 0.0001084 9130.34180 9130.34180
9197.0 0.0001087 9127.19531 9127.19531
9148.0 0.0001093 9124.05859 9124.05859
9072.0 0.0001102 9120.93262 9120.93262
9155.0 0.0001092 9117.82031 9117.82031
9114.0 0.0001097 9114.73047 9114.73047
9106.0 0.0001098 9111.66504 9111.66504
9196.0 0.0001087 9108.62402 9108.62402
9145.0 0.0001093 9105.61914 9105.61914
9061.0 0.0001104 9102.64258 9102.64258
9128.0 0.0001096 9099.71289 9099.71289
9062.0 0.0001104 9096.81641 9096.81641
9015.0 0.0001109 9093.97168 9093.97168
9143.0 0.0001094 9091.17285 9091.17285
9206.0 0.0001086 9088.42480 9092.85352
9172.0 0.0001090 9085.73438 9090.33496
9113.0 0.0001097 9083.09766 9132.68066
9173.0 0.0001090 9080.52148 9132.03711
9195.0 0.0001088 9078.01074 9131.57422
9116.0 0.0001097 9075.56543 9131.30273
9159.0 0.0001092 9073.18848 9131.23340
9277.0 0.0001078 9070.88477 9131.38379
9165.0 0.0001091 9068.64551 9131.75879
9267.0 0.0001079 9066.48828 9132.38672
9155.0 0.0001092 9064.40918 9133.28223
8963.0 0.0001116 9062.40723 9134.46191
9006.0 0.0001110 9060.48535 9135.94531
9037.0 0.0001107 9058.64746 9137.76172
9274.0 0.0001078 9056.89551 9139.93555
9163.0 0.0001091 9055.23242 9142.49609
9139.0 0.0001094 9053.64941 9145.46875
9293.0 0.0001076 9052.16406 9148.90527
9221.0 0.0001084 9050.76270 9152.83203
9277.0 0.0001078 9049.45703 9157.30664
9210.0 0.0001086 9048.24121 9162.37598
9198.0 0.0001087 9047.12012 9168.10645
9290.0 0.0001076 9046.09277 9174.56543
9291.0 0.0001076 9045.15820 9181.83398
9321.0 0.0001073 9044.32031 9190.00977
9384.0 0.0001066 9043.58496 9199.20996
9368.0 0.0001067 9042.93848 9209.55078
9440.0 0.0001059 9042.39355 9221.19727
9303.0 0.0001075 9041.94727 9234.33008
9415.0 0.0001062 9041.59668 9249.16602
9414.0 0.0001062 9041.34863 9265.97363
9448.0 0.0001058 9041.19238 9285.06348
9346.0 0.0001070 9041.13965 9306.83691
9367.0 0.0001068 9041.18262 9331.77051
9501.0 0.0001053 9041.32031 9360.46191
9471.0 0.0001056 9041.55859 9393.67188
9490.0 0.0001054 9041.89453 9432.35938
9548.0 0.0001047 9042.32910 9477.75684
9467.0 0.0001056 9042.85352 9531.46777
9652.0 0.0001036 9043.47949 9595.63281
9898.0 0.0001010 9044.20117 9673.11035
9842.0 0.0001016 9045.01172 9767.82129
9915.0 0.0001009 9045.92188 9885.32324
10089.0 0.0000991 9046.92090 10033.84961
10387.0 0.0000963 9048.01563 10227.12207
10634.0 0.0000940 9049.20020 10492.34863
11050.0 0.0000905 9050.47070 10892.50781
11770.0 0.0000850 9051.83301 11578.17383
13008.0 0.0000769 9053.28320 12879.44336
15066.0 0.0000664 9054.81836 15410.88867
19091.0 0.0000524 9056.43945 20084.72070
25586.0 0.0000391 9058.14844 27858.39063
35551.0 0.00002813 9059.93555 39056.96094
49093.0 0.00002037 9061.80273 52200.66406
61669.0 0.00001622 9063.75195 63806.24609
69312.0 0.00001443 9065.78027 68966.42969
66122.0 0.00001512 9067.88477 63082.94922
53865.0 0.00001856 9070.06348 48995.67578
39113.0 0.00002557 9072.31738 34135.44922
26493.0 0.0000377 9074.64355 23059.22852
18494.0 0.0000541 9077.03809 16526.30664
14499.0 0.0000690 9079.50391 13282.08203
12309.0 0.0000812 9082.03418 11795.63867
11026.0 0.0000907 9084.62598 11071.96094
10597.0 0.0000944 9087.28613 10653.09082
10402.0 0.0000961 9090.00488 10369.01465
9923.0 0.0001008 9092.78418 10159.41699
9775.0 0.0001023 9095.62012 9998.71387
9720.0 0.0001029 9098.51367 9872.77539
9744.0 0.0001026 9101.45801 9772.45215
9571.0 0.0001045 9104.45703 9691.44043
9536.0 0.0001049 9107.50000 9625.24902
9427.0 0.0001061 9110.59473 9570.62598
9476.0 0.0001055 9113.73535 9525.15625
9458.0 0.0001057 9116.91699 9487.02246
9341.0 0.0001071 9120.14355 9454.84082
9276.0 0.0001078 9123.40723 9427.53320
9276.0 0.0001078 9126.70410 9404.25488
9198.0 0.0001087 9130.04297 9384.34863
9249.0 0.0001081 9133.41016 9367.26855
9341.0 0.0001071 9136.81250 9352.59082
9198.0 0.0001087 9140.24219 9339.95508
9365.0 0.0001068 9143.69629 9329.07129
9272.0 0.0001079 9147.17773 9319.70313
9392.0 0.0001065 9150.67969 9311.64453
9297.0 0.0001076 9154.20215 9304.73047
9244.0 0.0001082 9157.74512 9298.81836
9209.0 0.0001086 9161.30273 9293.78418
9306.0 0.0001075 9164.87695 9289.52734
9206.0 0.0001086 9168.46094 9285.95410
9417.0 0.0001062 9172.05469 9282.98926
9436.0 0.0001060 9175.65527 9280.56543
9217.0 0.0001085 9179.26074 9278.62305
9152.0 0.0001093 9182.87207 9277.11523
9242.0 0.0001082 9186.48438 9275.99414
9136.0 0.0001095 9190.09277 9275.21680
9270.0 0.0001079 9193.70020 9274.75293
9166.0 0.0001091 9197.30957 9274.57617
9263.0 0.0001080 9200.90527 9274.64453
9332.0 0.0001072 9204.49316 9274.94043
9167.0 0.0001091 9208.07324 9275.44531
9247.0 0.0001081 9211.63477 9276.12793
9198.0 0.0001087 9215.18262 9276.97754
9269.0 0.0001079 9218.71973 9277.98242
9245.0 0.0001082 9222.23242 9279.11523
9195.0 0.0001088 9225.72559 9280.36914
9303.0 0.0001075 9229.19531 9277.26855
9232.0 0.0001083 9232.64453 9278.89160
9220.0 0.0001085 9236.06641 9236.06641
9308.0 0.0001074 9239.45801 9239.45801
9202.0 0.0001087 9242.82227 9242.82227
9232.0 0.0001083 9246.15234 9246.15234
9338.0 0.0001071 9249.45410 9249.45410
9261.0 0.0001080 9252.71777 9252.71777
9241.0 0.0001082 9255.94434 9255.94434
9127.0 0.0001096 9259.13379 9259.13379
9160.0 0.0001092 9262.28027 9262.28027
9182.0 0.0001089 9265.38672 9265.38672
9175.0 0.0001090 9268.44922 9268.44922
9352.0 0.0001069 9271.46777 9271.46777
9313.0 0.0001074 9274.43848 9274.43848
9255.0 0.0001080 9277.36523 9277.36523
9166.0 0.0001091 9280.23828 9280.23828
9202.0 0.0001087 9283.05957 9283.05957
9178.0 0.0001090 9285.83105 9285.83105
9195.0 0.0001088 9288.54980 9288.54980
9272.0 0.0001079 9291.21094 9291.21094
9209.0 0.0001086 9293.81641 9293.81641
9315.0 0.0001074 9296.36328 9296.36328
9298.0 0.0001076 9298.85156 9298.85156
9325.0 0.0001072 9301.28027 9301.28027
9379.0 0.0001066 9303.64551 9303.64551
9252.0 0.0001081 9305.94922 9305.94922
9242.0 0.0001082 9308.18652 9308.18652
9287.0 0.0001077 9310.36328 9310.36328
9259.0 0.0001080 9312.47168 9312.47168
9166.0 0.0001091 9314.51465 9314.51465
9274.0 0.0001078 9316.48438 9316.48438
9256.0 0.0001080 9318.38867 9318.38867
9239.0 0.0001082 9320.21973 9320.21973
9348.0 0.0001070 9321.98340 9321.98340
9254.0 0.0001081 9323.67285 9323.67285
9186.0 0.0001089 9325.29004 9325.29004
9308.0 0.0001074 9326.83594 9326.83594
9289.0 0.0001077 9328.30566 9328.30566
9309.0 0.0001074 9329.69824 9329.69824
9224.0 0.0001084 9331.01660 9331.01660
9301.0 0.0001075 9332.25488 9332.25488
9141.0 0.0001094 9333.41797 9333.41797
9201.0 0.0001087 9334.50391 9334.50391
9127.0 0.0001096 9335.51074 9335.51074
9115.0 0.0001097 9336.43945 9336.43945
9047.0 0.0001105 9337.28711 9337.28711
9148.0 0.0001093 9338.05371 9338.05371
9178.0 0.0001090 9338.73926 9338.73926
9293.0 0.0001076 9339.34668 9339.34668
9142.0 0.0001094 9339.87207 9339.87207
9255.0 0.0001080 9340.31348 9340.31348
9324.0 0.0001073 9340.67383 9340.67383
9260.0 0.0001080 9340.95215 9340.95215
9252.0 0.0001081 9341.14648 9341.14648
9264.0 0.0001079 9341.25586 9341.25586
9189.0 0.0001088 9341.28613 9341.28613
9215.0 0.0001085 9341.22949 9341.22949
9208.0 0.0001086 9341.09180 9341.09180
9187.0 0.0001088 9340.86914 9340.86914
9188.0 0.0001088 9340.56152 9340.56152
9335.0 0.0001071 9340.17090 9340.17090
9190.0 0.0001088 9339.69629 9339.69629
9192.0 0.0001088 9339.13574 9339.13574
9244.0 0.0001082 9338.49316 9338.49316
9228.0 0.0001084 9337.76758 9337.76758
9274.0 0.0001078 9336.95508 9336.95508
9214.0 0.0001085 9336.06152 9336.06152
9258.0 0.0001080 9335.08594 9335.08594
9258.0 0.0001080 9334.02246 9334.02246
9260.0 0.0001080 9332.87793 9332.87793
9149.0 0.0001093 9331.65234 9331.65234
9293.0 0.0001076 9330.34082 9330.34082
9335.0 0.0001071 9328.94531 9328.94531
9210.0 0.0001086 9327.47266 9327.47266
9038.0 0.0001106 9325.91602 9325.91602
9243.0 0.0001082 9324.27734 9324.27734
9179.0 0.0001089 9322.55957 9322.55957
9219.0 0.0001085 9320.75684 9320.75684
9188.0 0.0001088 9318.87598 9318.87598
9275.0 0.0001078 9316.91504 9316.91504
9321.0 0.0001073 9314.87402 9314.87402
9187.0 0.0001088 9312.75684 9312.75684
9214.0 0.0001085 9310.55957 9310.55957
9160.0 0.0001092 9308.28418 9308.28418
9114.0 0.0001097 9305.93066 9305.93066
9128.0 0.0001096 9303.50098 9303.50098
9323.0 0.0001073 9300.99512 9300.99512
9301.0 0.0001075 9298.41602 9298.41602
9316.0 0.0001073 9295.75684 9295.75684
9253.0 0.0001081 9293.02637 9293.02637
9114.0 0.0001097 9290.22070 9290.22070
9303.0 0.0001075 9287.34570 9287.34570
9216.0 0.0001085 9284.39941 9284.39941
9121.0 0.0001096 9281.37793 9281.37793
9142.0 0.0001094 9278.28320 9278.28320
9209.0 0.0001086 9275.12500 9275.12500
9300.0 0.0001075 9271.89355 9271.89355
9253.0 0.0001081 9268.59863 9268.59863
9254.0 0.0001081 9265.23047 9265.23047
9267.0 0.0001079 9261.79980 9261.79980
9093.0 0.0001100 9258.30371 9258.30371
9265.0 0.0001079 9254.73730 9254.73730
9227.0 0.0001084 9251.11230 9251.11230
9207.0 0.0001086 9247.41992 9247.41992
9330.0 0.0001072 9243.66895 9243.66895
9260.0 0.0001080 9239.85645 9239.85645
9154.0 0.0001092 9235.97949 9235.97949
9198.0 0.0001087 9232.04785 9232.04785
9202.0 0.0001087 9228.05273 9228.05273
9160.0 0.0001092 9224.00586 9224.00586
9185.0 0.0001089 9219.90039 9219.90039
9191.0 0.0001088 9215.73828 9215.73828
9154.0 0.0001092 9211.52441 9211.52441
9150.0 0.0001093 9207.25488 9207.25488
9263.0 0.0001080 9202.93164 9202.93164
9327.0 0.0001072 9198.55664 9198.55664
9040.0 0.0001106 9194.13477 9194.13477
9259.0 0.0001080 9189.66211 9189.66211
9260.0 0.0001080 9185.14160 9185.14160
9362.0 0.0001068 9180.57324 9180.57324
9281.0 0.0001077 9175.95605 9175.95605
9243.0 0.0001082 9171.29980 9171.29980
9137.0 0.0001094 9166.59766 9166.59766
9271.0 0.0001079 9161.84766 9161.84766
9293.0 0.0001076 9157.05957 9157.05957
9229.0 0.0001084 9152.23438 9152.23438
9269.0 0.0001079 9147.36230 9147.36230
9191.0 0.0001088 9142.45605 9142.45605
9171.0 0.0001090 9137.51465 9137.51465
9350.0 0.0001070 9132.53320 9132.53320
9287.0 0.0001077 9127.51758 9127.51758
9227.0 0.0001084 9122.46777 9122.46777
9409.0 0.0001063 9117.38672 9117.77246
9190.0 0.0001088 9112.26758 9112.65723
9201.0 0.0001087 9107.12500 9107.51855
9147.0 0.0001093 9101.94922 9102.34766
9207.0 0.0001086 9096.74805 9097.15039
9259.0 0.0001080 9091.51563 9091.92188
9283.0 0.0001077 9086.26074 9086.67188
9235.0 0.0001083 9080.98047 9081.39551
9284.0 0.0001077 9075.67676 9076.09668
9233.0 0.0001083 9070.34961 9070.77344
9209.0 0.0001086 9064.99902 9065.42773
9230.0 0.0001083 9059.63086 9060.06445
9212.0 0.0001086 9054.23926 9054.67773
9160.0 0.0001092 9048.83398 9049.27734
9331.0 0.0001072 9043.41016 9043.85840
9366.0 0.0001068 9037.97070 9038.42383
9331.0 0.0001072 9032.51660 9032.97461
9162.0 0.0001091 9027.04688 9027.50977
9302.0 0.0001075 9021.56445 9022.03223
9318.0 0.0001073 9016.07422 9016.54785
9179.0 0.0001089 9010.57031 9011.04883
9255.0 0.0001080 9005.06055 9005.54492
9286.0 0.0001077 8999.53809 9000.02832
9269.0 0.0001079 8994.01367 9104.30664
9264.0 0.0001079 8988.47656 9101.96289
9155.0 0.0001092 8982.93848 9099.75977
9240.0 0.0001082 8977.39648 9097.70117
9345.0 0.0001070 8971.85059 9095.79785
9317.0 0.0001073 8966.30566 9094.06250
9379.0 0.0001066 8960.75586 9092.50293
9416.0 0.0001062 8955.20996 9091.13574
9225.0 0.0001084 8949.66309 9089.96973
9339.0 0.0001071 8944.11621 9089.02051
9351.0 0.0001069 8938.58008 9088.31055
9407.0 0.0001063 8933.04102 9087.84375
9276.0 0.0001078 8927.51367 9087.65137
9407.0 0.0001063 8921.98828 9087.74219
9405.0 0.0001063 8916.47266 9088.14258
9327.0 0.0001072 8910.96484 9088.87402
9444.0 0.0001059 8905.46387 9089.95898
9460.0 0.0001057 8899.97754 9091.43164
9344.0 0.0001070 8894.50000 9093.31348
9406.0 0.0001063 8889.03418 9095.64063
9279.0 0.0001078 8883.58594 9098.45313
9342.0 0.0001070 8878.14648 9101.78027
9518.0 0.0001051 8872.72559 9105.67383
9526.0 0.0001050 8867.32031 9110.17773
9487.0 0.0001054 8861.93359 9115.34570
9433.0 0.0001060 8856.56055 9121.23047
9570.0 0.0001045 8851.20703 9240.86426
9477.0 0.0001055 8845.87305 9252.81152
9561.0 0.0001046 8840.56055 9265.96387
9677.0 0.0001033 8835.26953 9280.43164
9527.0 0.0001050 8830.00000 9296.33984
9697.0 0.0001031 8824.75195 9313.82617
9485.0 0.0001054 8819.52832 9333.05176
9611.0 0.0001040 8814.32910 9354.19531
9757.0 0.0001025 8809.15918 9377.46191
9646.0 0.0001037 8804.00977 9403.07617
9690.0 0.0001032 8798.88965 9431.30371
9677.0 0.0001033 8793.79492 9462.44336
9664.0 0.0001035 8788.72754 9496.84082
9586.0 0.0001043 8783.69434 9534.90234
9723.0 0.0001028 8778.68652 9577.08301
9800.0 0.0001020 8773.71191 9623.92773
9620.0 0.0001040 8768.77051 9676.06738
9784.0 0.0001022 8763.85449 9734.23633
9943.0 0.0001006 8758.97461 9799.32617
9831.0 0.0001017 8754.12695 9872.38086
9991.0 0.0001001 8749.31543 9954.65918
10030.0 0.0000997 8744.53516 10047.67090
10211.0 0.0000979 8739.79004 10153.26465
10222.0 0.0000978 8735.08301 10273.70703
10362.0 0.0000965 8730.41113 10411.79004
10372.0 0.0000964 8725.77246 10571.00684
10520.0 0.0000951 8721.17383 10755.77539
10774.0 0.0000928 8716.61719 10971.73047
10919.0 0.0000916 8712.09668 11226.14844
11140.0 0.0000898 8707.61230 11528.58105
11347.0 0.0000881 8703.16602 11891.74707
11785.0 0.0000849 8698.76367 12332.93750
12379.0 0.0000808 8694.40332 12876.30469
13016.0 0.0000768 8690.07715 13557.51367
13866.0 0.0000721 8685.79590 14434.87012
15139.0 0.0000661 8681.55762 15618.08789
17231.0 0.0000580 8677.36328 17337.51367
20281.0 0.0000493 8673.20801 20081.69531
25239.0 0.0000396 8669.09961 24796.70117
33833.0 0.00002956 8665.03027 33025.65625
47201.0 0.00002119 8661.00684 46697.21875
67758.0 0.00001476 8657.02441 67188.71875
94703.0 0.00001056 8653.08594 93468.28125
124019.0 8.06e-6 8649.19922 120096.97656
141633.0 7.06e-6 8645.35352 137383.14063
138499.0 7.22e-6 8641.55176 135505.04688
117099.0 8.54e-6 8637.79980 116132.61719
94822.0 0.00001055 8634.09473 93630.76563
83895.0 0.00001192 8630.43359 81952.41406
93866.0 0.00001065 8626.81641 90429.84375
125661.0 7.96e-6 8623.25000 122445.36719
172783.0 5.79e-6 8619.72754 169789.73438
209180.0 4.78e-6 8616.25586 210003.98438
208786.0 4.79e-6 8612.83008 214858.00000
167820.0 5.96e-6 8609.44922 175315.18750
114071.0 8.77e-6 8606.12402 117632.30469
67959.0 0.00001471 8602.83887 69186.81250
40097.0 0.00002494 8599.60742 39491.83984
25499.0 0.0000392 8596.42188 25061.14648
18830.0 0.0000531 8593.28418 18911.81055
15517.0 0.0000644 8590.19727 16171.46191
13480.0 0.0000742 8587.15625 14658.87207
12260.0 0.0000816 8584.16602 13634.71094
11369.0 0.0000880 8581.22363 12868.00684
10891.0 0.0000918 8578.32813 12269.61621
10694.0 0.0000935 8575.48926 11791.53613
10268.0 0.0000974 8572.69336 11407.22949
10008.0 0.0000999 8569.94922 11086.28320
9926.0 0.0001007 8567.25586 10817.83789
9787.0 0.0001022 8564.60840 10590.74121
9859.0 0.0001014 8562.00879 10396.69238
9754.0 0.0001025 8559.45898 10229.41211
9543.0 0.0001048 8556.96191 10084.06348
9311.0 0.0001074 8554.51367 9956.86914
9333.0 0.0001071 8552.11133 9844.84570
9213.0 0.0001085 8549.76172 9745.61523
9165.0 0.0001091 8547.46191 9657.24707
9294.0 0.0001076 8545.20508 9578.16699
9227.0 0.0001084 8543.00000 9507.09180
9210.0 0.0001086 8540.84473 9442.94727
9369.0 0.0001067 8538.73730 9384.84082
9488.0 0.0001054 8536.67773 9332.02051
9241.0 0.0001082 8534.66797 9283.85352
9133.0 0.0001095 8532.70605 9239.79492
9279.0 0.0001078 8530.79102 9199.38379
9083.0 0.0001101 8528.92480 9162.22559
9185.0 0.0001089 8527.10742 9127.97559
9014.0 0.0001109 8525.33984 9096.33691
9151.0 0.0001093 8523.61133 9067.04395
9093.0 0.0001100 8521.93848 9039.88281
9179.0 0.0001089 8520.30859 9014.64453
9106.0 0.0001098 8518.72949 8991.16309
9316.0 0.0001073 8517.19141 8969.27148
9079.0 0.0001101 8515.70605 8948.84863
8963.0 0.0001116 8514.26465 8929.76270
8913.0 0.0001122 8512.86621 8911.90625
9042.0 0.0001106 8511.51563 8895.18750
8925.0 0.0001120 8510.21094 8879.52051
8875.0 0.0001127 8508.95020 8864.82617
8889.0 0.0001125 8507.73535 8851.03613
8967.0 0.0001115 8506.56152 8838.08691
8949.0 0.0001117 8505.43652 8825.92969
8835.0 0.0001132 8504.35645 8814.51270
8734.0 0.0001145 8503.31836 8803.78711
8868.0 0.0001128 8502.32031 8793.71387
8881.0 0.0001126 8501.37012 8784.26270
8988.0 0.0001113 8500.45801 8775.39355
8814.0 0.0001135 8499.59082 8767.08789
8976.0 0.0001114 8498.76660 8759.31836
8845.0 0.0001131 8497.98047 8752.05566
8807.0 0.0001135 8497.23828 8745.29004
8876.0 0.0001127 8496.53906 8739.00684
8779.0 0.0001139 8495.87793 8733.18555
8863.0 0.0001128 8495.25879 8727.82422
8714.0 0.0001148 8494.67773 8722.91016
8892.0 0.0001125 8494.13867 8718.44434
8889.0 0.0001125 8493.63477 8714.41992
8859.0 0.0001129 8493.16992 8710.84277
8902.0 0.0001123 8492.74609 8707.72266
8925.0 0.0001120 8492.35938 8705.06641
8858.0 0.0001129 8492.00879 8702.88867
8884.0 0.0001126 8491.69727 8701.21289
8731.0 0.0001145 8491.42090 8700.06250
8809.0 0.0001135 8491.18359 8699.47559
8767.0 0.0001141 8490.97852 8699.49023
8800.0 0.0001136 8490.80957 8700.16406
8773.0 0.0001140 8490.67578 8701.56738
9106.0 0.0001098 8490.57520 8703.78320
8965.0 0.0001115 8490.51074 8706.92871
8833.0 0.0001132 8490.48242 8711.14648
8754.0 0.0001142 8490.48047 8716.64063
8826.0 0.0001133 8490.51660 8723.58691
8656.0 0.0001155 8490.58398 8732.30664
8874.0 0.0001127 8490.68164 8743.16113
8878.0 0.0001126 8490.80859 8756.60254
8941.0 0.0001118 8490.97070 8773.17188
9007.0 0.0001110 8491.16309 8793.50488
8903.0 0.0001123 8491.38379 8818.32813
8887.0 0.0001125 8491.63086 8848.43359
8866.0 0.0001128 8491.91113 8884.64063
8887.0 0.0001125 8492.21680 8927.64453
9027.0 0.0001108 8492.55371 8977.83691
9247.0 0.0001081 8492.91406 9034.90332
9409.0 0.0001063 8493.30566 9097.38965
9518.0 0.0001051 8493.71973 9162.38281
9673.0 0.0001034 8494.16406 9226.04785
9578.0 0.0001044 8494.63574 9285.61035
9624.0 0.0001039 8495.12695 9343.03809
9704.0 0.0001031 8495.64355 9409.39844
9530.0 0.0001049 8496.18848 9508.50098
9667.0 0.0001034 8496.75195 9679.17188
9871.0 0.0001013 8497.33691 9974.82617
10314.0 0.0000970 8497.95020 10455.89258
11105.0 0.0000900 8498.58496 11168.77539
12209.0 0.0000819 8499.24121 12105.32031
13537.0 0.0000739 8499.91309 13140.75195
14412.0 0.0000694 8500.61133 13984.76855
14509.0 0.0000689 8501.33105 14246.87109
13490.0 0.0000741 8502.06445 13735.77051
12071.0 0.0000828 8502.82129 12722.73828
10658.0 0.0000938 8503.59668 11635.93945
9980.0 0.0001002 8504.38770 10721.53223
9454.0 0.0001058 8505.20020 10048.49414
9230.0 0.0001083 8506.02734 9595.74902
9022.0 0.0001108 8506.87207 9308.10742
8953.0 0.0001117 8507.73340 9128.41992
8789.0 0.0001138 8508.60938 9012.99316
8845.0 0.0001131 8509.50195 8934.25098
8755.0 0.0001142 8510.40723 8876.87207
8589.0 0.0001164 8511.33008 8832.85547
8651.0 0.0001156 8512.26367 8797.93359
8753.0 0.0001142 8513.21191 8769.63379
8647.0 0.0001156 8514.17090 8746.35547
8716.0 0.0001147 8515.14258 8726.98633
8653.0 0.0001156 8516.13086 8710.71582
8604.0 0.0001162 8517.12793 8696.92578
8637.0 0.0001158 8518.13867 8685.15234
8616.0 0.0001161 8519.15723 8675.03320
8699.0 0.0001150 8520.18359 8666.28320
8622.0 0.0001160 8521.22266 8658.68262
8620.0 0.0001160 8522.26855 8652.04590
8583.0 0.0001165 8523.32813 8646.23730
8560.0 0.0001168 8524.39355 8641.12891
8649.0 0.0001156 8525.46777 8636.62695
8647.0 0.0001156 8526.54492 8632.64355
8538.0 0.0001171 8527.63086 8629.12012
8610.0 0.0001161 8528.72656 8626.00000
8667.0 0.0001154 8529.82520 8623.22656
8660.0 0.0001155 8530.93066 8620.76660
8554.0 0.0001169 8532.04102 8618.58203
8700.0 0.0001149 8533.16113 8616.64746
8598.0 0.0001163 8534.28027 8614.92969
8696.0 0.0001150 8535.40430 8613.40723
8684.0 0.0001152 8536.53223 8612.06543
8736.0 0.0001145 8537.66504 8610.88379
8538.0 0.0001171 8538.79883 8609.84570
8420.0 0.0001188 8539.93359 8608.93945
8598.0 0.0001163 8541.07520 8608.15625
8585.0 0.0001165 8542.21387 8607.47852
8696.0 0.0001150 8543.35742 8606.90430
8706.0 0.0001149 8544.50000 8606.41992
8726.0 0.0001146 8545.64551 8606.02148
8630.0 0.0001159 8546.78711 8605.69629
8711.0 0.0001148 8547.92871 8605.44238
8606.0 0.0001162 8549.07324 8605.25781
8630.0 0.0001159 8550.21484 8605.13086
8644.0 0.0001157 8551.35742 8605.06152
8525.0 0.0001173 8552.49609 8605.04004
8470.0 0.0001181 8553.63281 8605.06836
8574.0 0.0001166 8554.76660 8605.13965
8570.0 0.0001167 8555.89941 8605.25293
8502.0 0.0001176 8557.02930 8605.40430
8660.0 0.0001155 8558.15625 8605.58984
8721.0 0.0001147 8559.27734 8605.80566
8733.0 0.0001145 8560.39844 8606.05664
8660.0 0.0001155 8561.51465 8606.33398
8597.0 0.0001163 8562.61914 8606.63086
8523.0 0.0001173 8563.72852 8606.95996
8484.0 0.0001179 8564.83105 8607.30957
8359.0 0.0001196 8565.92676 8607.67773
8411.0 0.0001189 8567.01563 8608.06445
8447.0 0.0001184 8568.09668 8608.46680
8478.0 0.0001180 8569.17480 8608.88867
8429.0 0.0001186 8570.24902 8609.32813
8626.0 0.0001159 8571.31445 8609.77832
8681.0 0.0001152 8572.37500 8610.24316
8490.0 0.0001178 8573.42383 8610.71387
8521.0 0.0001174 8574.46875 8611.20117
8435.0 0.0001186 8575.50488 8612.08496
8383.0 0.0001193 8576.53223 8612.60352
8537.0 0.0001171 8577.55566 8613.13379
8557.0 0.0001169 8578.56738 8613.66992
8471.0 0.0001180 8579.56836 8614.21289
8495.0 0.0001177 8580.56836 8614.77051
8613.0 0.0001161 8581.55566 8615.33008
8566.0 0.0001167 8582.53516 8615.89941
8508.0 0.0001175 8583.50195 8616.47070
8467.0 0.0001181 8584.46289 8617.05371
8475.0 0.0001180 8585.40918 8617.63379
8582.0 0.0001165 8586.34863 8618.22754
8578.0 0.0001166 8587.28320 8618.83203
8521.0 0.0001174 8588.20508 8619.44043
8560.0 0.0001168 8589.11426 8620.05273
8545.0 0.0001170 8590.01465 8620.67578
8650.0 0.0001156 8590.90527 8621.30957
8656.0 0.0001155 8591.78516 8621.95215
8585.0 0.0001165 8592.65332 8622.60547
8496.0 0.0001177 8593.51270 8623.27637
8464.0 0.0001181 8594.36133 8623.96289
8600.0 0.0001163 8595.19824 8624.66895
8570.0 0.0001167 8596.02539 8625.39941
8606.0 0.0001162 8596.83887 8626.15723
8540.0 0.0001171 8597.64453 8626.95410
8536.0 0.0001172 8598.43652 8627.79199
8669.0 0.0001154 8599.21484 8628.91992
8711.0 0.0001148 8599.98828 8629.89844
8623.0 0.0001160 8600.74609 8630.97363
8634.0 0.0001158 8601.49414 8632.19043
8536.0 0.0001172 8602.22656 8633.59863
8530.0 0.0001172 8602.94922 8635.28320
8575.0 0.0001166 8603.66406 8637.35645
8516.0 0.0001174 8604.36621 8639.94141
8576.0 0.0001166 8605.05273 8643.18848
8566.0 0.0001167 8605.73340 8647.25488
8772.0 0.0001140 8606.39746 8652.22266
8742.0 0.0001144 8607.05078 8658.06055
8719.0 0.0001147 8607.69238 8664.42773
8692.0 0.0001150 8608.32520 8670.52148
8743.0 0.0001144 8608.94629 8675.05762
8578.0 0.0001166 8609.55273 8676.85156
8603.0 0.0001162 8610.14941 8675.75879
8544.0 0.0001170 8610.73535 8672.90430
8859.0 0.0001129 8611.30664 8669.88281
8706.0 0.0001149 8611.87012 8668.05078
8685.0 0.0001151 8612.42188 8668.77734
8686.0 0.0001151 8612.95898 8674.80371
8777.0 0.0001139 8613.48633 8692.75488
8832.0 0.0001132 8614.00293 8735.48926
8910.0 0.0001122 8614.51074 8819.60938
9223.0 0.0001084 8615.00488 8951.88184
9154.0 0.0001092 8615.48633 9106.80664
9274.0 0.0001078 8615.95996 9217.39453
9280.0 0.0001078 8616.42188 9208.99121
9194.0 0.0001088 8616.87402 9082.92188
9082.0 0.0001101 8617.31543 8923.12500
8911.0 0.0001122 8617.74414 8795.61621
8821.0 0.0001134 8618.16699 8718.62500
8865.0 0.0001128 8618.57227 8680.85059
8763.0 0.0001141 8618.97461 8664.38965
8829.0 0.0001133 8619.36621 8656.96875
8727.0 0.0001146 8619.74219 8652.95703
8789.0 0.0001138 8620.11328 8650.35547
8712.0 0.0001148 8620.47168 8648.48926
8778.0 0.0001139 8620.82324 8647.09863
8620.0 0.0001160 8621.16406 8646.04102
8595.0 0.0001163 8621.49902 8645.22656
8676.0 0.0001153 8621.82422 8644.59180
8635.0 0.0001158 8622.13770 8644.08984
8648.0 0.0001156 8622.44531 8643.69727
8819.0 0.0001134 8622.74316 8643.38281
8642.0 0.0001157 8623.03320 8643.13477
8637.0 0.0001158 8623.31445 8642.93750
8694.0 0.0001150 8623.59180 8642.78320
8601.0 0.0001163 8623.86035 8642.66211
8773.0 0.0001140 8624.11621 8642.56152
8639.0 0.0001158 8624.37012 8642.48828
8702.0 0.0001149 8624.61230 8642.42969
8613.0 0.0001161 8624.85156 8642.38770
8613.0 0.0001161 8625.08398 8642.35938
8650.0 0.0001156 8625.30859 8642.33984
8811.0 0.0001135 8625.53320 8642.33203
8632.0 0.0001158 8625.74512 8642.32715
8680.0 0.0001152 8625.95508 8642.97363
8641.0 0.0001157 8626.15430 8642.98730
8684.0 0.0001152 8626.35254 8643.00977
8664.0 0.0001154 8626.54492 8643.03906
8752.0 0.0001143 8626.73242 8643.06738
8798.0 0.0001137 8626.91797 8643.10352
8634.0 0.0001158 8627.09961 8643.14258
8691.0 0.0001151 8627.27441 8643.18066
8647.0 0.0001156 8627.44531 8643.21973
8667.0 0.0001154 8627.61719 8643.26855
8667.0 0.0001154 8627.78125 8643.31152
8830.0 0.0001133 8627.94629 8643.36328
8627.0 0.0001159 8628.10449 8643.41016
8658.0 0.0001155 8628.26465 8643.46582
8577.0 0.0001166 8628.42188 8643.52148
8863.0 0.0001128 8628.57520 8643.58008
8643.0 0.0001157 8628.72656 8643.63867
8838.0 0.0001131 8628.88086 8643.70313
8634.0 0.0001158 8629.03320 8643.77148
8611.0 0.0001161 8629.18457 8643.84180
8623.0 0.0001160 8629.33691 8643.91602
8647.0 0.0001156 8629.48926 8643.99414
8719.0 0.0001147 8629.64258 8644.07715
8644.0 0.0001157 8629.79492 8644.16504
8586.0 0.0001165 8629.95020 8644.25781
8672.0 0.0001153 8630.10449 8644.35156
8796.0 0.0001137 8630.26172 8644.45313
8675.0 0.0001153 8630.42188 8644.56152
8530.0 0.0001172 8630.58398 8644.67383
8616.0 0.0001161 8630.74805 8644.79492
8708.0 0.0001148 8630.91895 8633.58789
8595.0 0.0001163 8631.08594 8633.79980
8729.0 0.0001146 8631.26270 8634.02344
8588.0 0.0001164 8631.43848 8634.24902
8640.0 0.0001157 8631.62305 8634.48633
8650.0 0.0001156 8631.80762 8643.40430
8685.0 0.0001151 8632.00098 8643.76270
8739.0 0.0001144 8632.19922 8644.13086
8757.0 0.0001142 8632.40625 8644.51270
8641.0 0.0001157 8632.61523 8644.90234
8804.0 0.0001136 8632.83203 8645.30566
8592.0 0.0001164 8633.05078 8645.71680
8683.0 0.0001152 8633.28320 8646.14941
8654.0 0.0001156 8633.51953 8646.59082
8703.0 0.0001149 8633.76172 8647.04492
8672.0 0.0001153 8634.01563 8647.51855
8747.0 0.0001143 8634.27930 8648.00781
8782.0 0.0001139 8634.54980 8648.51270
8705.0 0.0001149 8634.82715 8649.03320
8933.0 0.0001119 8635.11719 8649.57422
8717.0 0.0001147 8635.41699 8650.13477
8789.0 0.0001138 8635.72363 8650.71191
8854.0 0.0001129 8636.04590 8651.31445
8794.0 0.0001137 8636.37695 8651.93652
8729.0 0.0001146 8636.71875 8652.57910
8805.0 0.0001136 8637.07324 8653.24707
8855.0 0.0001129 8637.43555 8653.93652
8857.0 0.0001129 8637.81641 8654.65527
8853.0 0.0001130 8638.20508 8655.39844
8856.0 0.0001129 8638.60938 8656.17188
8956.0 0.0001117 8639.02539 8656.97363
8803.0 0.0001136 8639.45508 8657.80469
8766.0 0.0001141 8639.89941 8658.66992
8825.0 0.0001133 8640.36328 8659.57520
8979.0 0.0001114 8640.83301 8699.92188
8825.0 0.0001133 8641.32324 8702.03223
8814.0 0.0001135 8641.82910 8704.23242
8795.0 0.0001137 8642.34863 8706.52637
9019.0 0.0001109 8642.88574 8729.29590
9086.0 0.0001101 8643.43750 8732.38770
8987.0 0.0001113 8644.00781 8735.62109
9021.0 0.0001109 8644.59375 8739.00195
8853.0 0.0001130 8645.20020 8742.54590
8830.0 0.0001133 8645.82422 8746.25977
8949.0 0.0001117 8646.46387 8750.15137
8769.0 0.0001140 8647.12500 8754.24121
8888.0 0.0001125 8647.79883 8758.53516
8908.0 0.0001123 8648.49902 8763.06250
8964.0 0.0001116 8649.21484 8767.82617
8874.0 0.0001127 8649.95215 8772.85645
8935.0 0.0001119 8650.70996 8778.17285
8934.0 0.0001119 8651.48730 8783.79883
8814.0 0.0001135 8652.28809 8789.76758
8806.0 0.0001136 8653.10645 8796.10352
8858.0 0.0001129 8653.95117 8802.85449
8859.0 0.0001129 8654.81445 8810.05273
9070.0 0.0001103 8655.70117 8817.75293
9133.0 0.0001095 8656.60840 8826.01367
8971.0 0.0001115 8657.54102 8834.90527
8965.0 0.0001115 8658.49414 8844.50098
8908.0 0.0001123 8659.47461 8854.91211
8950.0 0.0001117 8660.47656 8866.25586
8824.0 0.0001133 8661.50391 8878.69043
8910.0 0.0001122 8662.55469 8892.41895
9051.0 0.0001105 8663.62988 8907.71094
9001.0 0.0001111 8664.73047 8924.82227
9105.0 0.0001098 8665.85742 8944.43555
9070.0 0.0001103 8667.00977 8967.05859
9011.0 0.0001110 8668.18945 8993.47266
9240.0 0.0001082 8669.39648 9024.63672
9011.0 0.0001110 8670.62402 9061.66602
9172.0 0.0001090 8671.88574 9105.85742
9275.0 0.0001078 8673.17285 9158.59473
9236.0 0.0001083 8674.47852 9221.25684
9253.0 0.0001081 8675.82715 9294.93750
9341.0 0.0001071 8677.19336 9379.77637
9473.0 0.0001056 8678.58887 9474.54980
9556.0 0.0001046 8680.01660 9577.37695
9746.0 0.0001026 8681.46582 9688.37500
9792.0 0.0001021 8682.95605 9811.54688
10020.0 0.0000998 8684.46680 9950.28906
10143.0 0.0000986 8686.00879 10095.85938
10208.0 0.0000980 8687.58398 10217.01855
10314.0 0.0000970 8689.18750 10269.44336
10275.0 0.0000973 8690.82031 10234.95117
10240.0 0.0000977 8692.48535 10146.48145
10203.0 0.0000980 8694.18066 10055.23438
10065.0 0.0000994 8695.90527 9994.50195
10095.0 0.0000991 8697.66504 9977.64941
9930.0 0.0001007 8699.45313 10007.63574
9870.0 0.0001013 8701.27832 10083.73438
10184.0 0.0000982 8703.13086 10205.35938
10280.0 0.0000973 8705.01758 10374.61816
10609.0 0.0000943 8706.93555 10598.19531
10988.0 0.0000910 8708.88867 10889.63281
11283.0 0.0000886 8710.87500 11274.56348
12071.0 0.0000828 8712.89551 11812.80957
12991.0 0.0000770 8714.94727 12608.50195
14604.0 0.0000685 8717.03223 13931.96387
17584.0 0.0000569 8719.15039 16302.83887
22136.0 0.0000452 8721.30566 20554.22656
29259.0 0.00003418 8723.49316 27658.03125
39353.0 0.00002541 8725.71875 38167.36719
51814.0 0.00001930 8727.97461 51295.53516
63824.0 0.00001567 8730.26660 63963.26172
70047.0 0.00001428 8732.59180 71281.61719
69941.0 0.00001430 8734.95703 70717.70313
64913.0 0.00001541 8737.35352 65269.00000
56307.0 0.00001776 8739.78711 58114.01563
46459.0 0.00002152 8742.25684 49377.00000
36509.0 0.00002739 8744.76172 39336.56641
28096.0 0.0000356 8747.30078 29986.98633
21534.0 0.0000464 8749.88184 22756.08398
17248.0 0.0000580 8752.49609 17848.17383
14534.0 0.0000688 8755.13965 14831.04785
12810.0 0.0000781 8757.83105 13084.50879
11875.0 0.0000842 8760.55371 12071.03613
11245.0 0.0000889 8763.31250 11440.99121
10793.0 0.0000927 8766.11230 11009.37207
10263.0 0.0000974 8768.94727 10689.63867
10019.0 0.0000998 8771.82031 10441.57813
9960.0 0.0001004 8774.72852 10244.19238
9830.0 0.0001017 8777.67285 10084.65234
9824.0 0.0001018 8780.65918 9954.22754
9537.0 0.0001049 8783.67871 9846.62793
9441.0 0.0001059 8786.74219 9757.22168
9502.0 0.0001052 8789.84082 9682.50879
9392.0 0.0001065 8792.97559 9619.82617
9582.0 0.0001044 8796.15039 9567.12402
9345.0 0.0001070 8799.36133 9522.79102
9403.0 0.0001063 8802.61426 9485.56934
9297.0 0.0001076 8805.90137 9454.45020
9165.0 0.0001091 8809.22363 9428.64063
9412.0 0.0001062 8812.59082 9407.50684
9447.0 0.0001059 8815.99414 9390.54102
9414.0 0.0001062 8819.44141 9377.34473
9338.0 0.0001071 8822.92188 9367.59961
9413.0 0.0001062 8826.43945 9361.06738
9340.0 0.0001071 8829.99805 9357.58008
9250.0 0.0001081 8833.59180 9357.01660
9295.0 0.0001076 8837.22559 9359.31836
9301.0 0.0001075 8840.90234 9364.48145
9432.0 0.0001060 8844.61133 9372.53711
9403.0 0.0001063 8848.36426 9383.58594
9390.0 0.0001065 8852.15625 9397.77734
9313.0 0.0001074 8855.98340 9415.32031
9428.0 0.0001061 8859.84961 9436.50098
9354.0 0.0001069 8863.75488 9461.68652
9370.0 0.0001067 8867.70020 9491.34277
9484.0 0.0001054 8871.68457 9526.05859
9405.0 0.0001063 8875.70801 9566.58008
9472.0 0.0001056 8879.76465 9613.84766
9524.0 0.0001050 8883.86719 9669.10156
9622.0 0.0001039 8888.00293 9733.93262
9531.0 0.0001049 8892.18066 9810.49023
9745.0 0.0001026 8896.39844 9901.67090
9779.0 0.0001023 8900.65039 10013.68066
9909.0 0.0001009 8904.94141 10147.46094
9985.0 0.0001002 8909.27344 10312.36523
10127.0 0.0000987 8913.63965 10517.80957
10280.0 0.0000973 8918.04883 10775.77832
10664.0 0.0000938 8922.49121 11100.84277
10883.0 0.0000919 8926.97852 11509.88965
11413.0 0.0000876 8931.49609 12021.12012
12212.0 0.0000819 8936.05664 12652.08105
13282.0 0.0000753 8940.65430 13415.57910
14850.0 0.0000673 8945.29199 14311.77734
16576.0 0.0000603 8949.96582 15313.81055
18762.0 0.0000533 8954.67188 16346.81543
20866.0 0.0000479 8959.42188 17270.58984
22207.0 0.0000450 8964.20313 17893.88672
22160.0 0.0000451 8969.02539 18101.30273
20320.0 0.0000492 8973.88477 17737.25391
18140.0 0.0000551 8978.78320 16963.94531
16026.0 0.0000624 8983.71289 15978.45020
14173.0 0.0000706 8988.68457 14951.37500
12788.0 0.0000782 8993.69141 13997.45801
12031.0 0.0000831 8998.73340 13167.24902
11269.0 0.0000887 9003.80957 12472.83496
10899.0 0.0000918 9008.92383 11906.76563
10656.0 0.0000938 9014.07910 11453.30371
10379.0 0.0000963 9019.26172 11094.25293
10297.0 0.0000971 9024.48730 10811.93750
10088.0 0.0000991 9029.74316 10590.59766
10105.0 0.0000990 9035.03516 10417.10156
10158.0 0.0000984 9040.36230 10281.14355
10034.0 0.0000997 9045.72559 10175.45703
10333.0 0.0000968 9051.12207 10097.42285
10351.0 0.0000966 9056.55859 10056.56250
10690.0 0.0000935 9062.02344 10095.95215
10941.0 0.0000914 9067.52441 10324.71289
11189.0 0.0000894 9073.06152 10909.74023
11832.0 0.0000845 9078.62793 11933.32129
12252.0 0.0000816 9084.22949 13141.19043
12277.0 0.0000815 9089.86523 13883.66406
12143.0 0.0000824 9095.53320 13584.60938
12023.0 0.0000832 9101.23535 12446.02832
11540.0 0.0000867 9106.97168 11203.11816
10991.0 0.0000910 9112.73535 10339.99023
10620.0 0.0000942 9118.53711 9905.46875
10316.0 0.0000969 9124.36328 9733.61816
10143.0 0.0000986 9130.22656 9672.02832
10093.0 0.0000991 9136.12012 9693.75977
10071.0 0.0000993 9142.04590 9681.27832
9895.0 0.0001011 9148.00391 9677.66406
9785.0 0.0001022 9153.99023 9674.15723
9849.0 0.0001015 9160.00781 9673.45020
9830.0 0.0001017 9166.05273 9675.07715
9895.0 0.0001011 9172.12598 9678.74121
9912.0 0.0001009 9178.23535 9684.22754
9905.0 0.0001010 9184.37305 9691.38379
10002.0 0.0001000 9190.53809 9700.10645
9961.0 0.0001004 9196.72949 9710.32129
10016.0 0.0000998 9202.95508 9722.00098
10066.0 0.0000993 9209.20215 9735.11035
9888.0 0.0001011 9215.48145 9749.66504
9961.0 0.0001004 9221.78613 9765.67383
9970.0 0.0001003 9228.12012 9783.18066
10054.0 0.0000995 9234.47949 9802.22559
9969.0 0.0001003 9240.86621 9822.88379
10013.0 0.0000999 9247.28027 9845.23730
10171.0 0.0000983 9253.72168 9869.38477
10010.0 0.0000999 9260.18457 9901.44531
10049.0 0.0000995 9266.67285 9929.62988
9944.0 0.0001006 9273.18750 9960.03516
10092.0 0.0000991 9279.72949 9992.85059
9959.0 0.0001004 9286.29590 10028.29395
10225.0 0.0000978 9292.88281 10066.61719
10181.0 0.0000982 9299.49414 10108.11328
10149.0 0.0000985 9306.12988 10153.12500
10082.0 0.0000992 9312.78418 10202.03809
10234.0 0.0000977 9319.46680 10255.33008
10195.0 0.0000981 9326.17383 10313.52148
10307.0 0.0000970 9332.89844 10377.24121
10322.0 0.0000969 9339.64648 10447.22852
10539.0 0.0000949 9346.41699 10524.35840
10525.0 0.0000950 9353.20313 10609.65820
10510.0 0.0000951 9360.01172 10704.37207
10607.0 0.0000943 9366.84180 10809.99414
10744.0 0.0000931 9373.69238 10928.31250
10653.0 0.0000939 9380.56250 11061.53320
10833.0 0.0000923 9387.45020 11212.34961
10969.0 0.0000912 9394.35742 11384.11035
11030.0 0.0000907 9401.28125 11580.46289
11157.0 0.0000896 9408.22363 11807.85840
11467.0 0.0000872 9415.18555 12072.62305
11637.0 0.0000859 9422.16406 12383.80176
12006.0 0.0000833 9429.15820 12753.52051
12509.0 0.0000799 9436.16992 13198.35156
12927.0 0.0000774 9443.19824 13741.42188
13666.0 0.0000732 9450.23828 14415.97363
14824.0 0.0000675 9457.29688 15272.28809
16145.0 0.0000619 9464.37207 16393.23242
17910.0 0.0000558 9471.45215 17929.49805
20439.0 0.0000489 9478.55664 20169.47461
24774.0 0.0000404 9485.66895 23645.14258
30653.0 0.00003262 9492.79785 29223.25977
39651.0 0.00002522 9499.93848 38047.56250
51571.0 0.00001939 9507.09082 51159.24219
67976.0 0.00001471 9514.25684 68704.89063
86512.0 0.00001156 9521.43164 88744.01563
101621.0 9.84e-6 9528.61523 105970.32813
109136.0 9.16e-6 9535.81348 112630.74219
104434.0 9.58e-6 9543.01953 105001.09375
89717.0 0.00001115 9550.23633 88209.53906
71937.0 0.00001390 9557.46680 69944.18750
56281.0 0.00001777 9564.70313 55118.23828
46077.0 0.00002170 9571.94336 46238.26563
42590.0 0.00002348 9579.19727 44366.59375
47191.0 0.00002119 9586.45703 49595.94922
58393.0 0.00001713 9593.72363 60756.39453
74951.0 0.00001334 9600.99707 74393.42188
89177.0 0.00001121 9608.27637 84027.38281
90955.0 0.00001099 9615.56152 82961.28906
78396.0 0.00001276 9622.85449 71357.97656
59567.0 0.00001679 9630.15234 55649.75391
41308.0 0.00002421 9637.45215 41106.41797
28201.0 0.0000355 9644.75781 30123.05078
21034.0 0.0000475 9652.06445 22975.52930
16965.0 0.0000589 9659.38184 18756.88281
14771.0 0.0000677 9666.69629 16355.26758
13314.0 0.0000751 9674.01172 14944.29199
12608.0 0.0000793 9681.33301 14042.93652
11967.0 0.0000836 9688.65332 13409.92480
11688.0 0.0000856 9695.97754 12930.88379
11527.0 0.0000868 9703.29492 12554.00293
11308.0 0.0000884 9710.61816 12260.61621
11458.0 0.0000873 9717.94629 12068.82520
11390.0 0.0000878 9725.26465 12046.89746
11460.0 0.0000873 9732.58203 12275.77930
11530.0 0.0000867 9739.90234 12706.63770
11522.0 0.0000868 9747.22070 13048.07422
11379.0 0.0000879 9754.53418 12953.90723
11348.0 0.0000881 9761.84375 12399.68457
11280.0 0.0000887 9769.15430 11714.48340
10911.0 0.0000917 9776.45801 11208.44629
10808.0 0.0000925 9783.75586 10939.63867
10908.0 0.0000917 9791.05078 10814.61621
10706.0 0.0000934 9798.33887 10746.16504
10623.0 0.0000941 9805.62207 10695.81152
10653.0 0.0000939 9812.89941 10652.68848
10633.0 0.0000940 9820.16992 10614.34668
10543.0 0.0000948 9827.43457 10580.02441
10559.0 0.0000947 9834.68848 10549.23926
10404.0 0.0000961 9841.93848 10521.60840
10362.0 0.0000965 9849.17871 10496.78809
10221.0 0.0000978 9856.40820 10474.48730
10163.0 0.0000984 9863.62891 10454.45898
10373.0 0.0000964 9870.83887 10436.47656
10336.0 0.0000967 9878.04102 10420.35547
10352.0 0.0000966 9885.23145 10405.91895
10440.0 0.0000958 9892.40918 10393.01953
10397.0 0.0000962 9899.58008 10381.52930
10453.0 0.0000957 9906.73145 10371.32227
10503.0 0.0000952 9913.87695 10362.30371
10273.0 0.0000973 9921.00391 10354.37305
10179.0 0.0000982 9928.12109 10347.45703
10318.0 0.0000969 9935.22461 10348.08398
10210.0 0.0000979 9942.31348 10343.23242
10142.0 0.0000986 9949.38965 10339.21094
10232.0 0.0000977 9956.44629 10335.96582
10281.0 0.0000973 9963.49023 10333.45410
10257.0 0.0000975 9970.51465 10331.63672
10401.0 0.0000961 9977.52441 10330.48047
10189.0 0.0000981 9984.51855 10329.95898
10283.0 0.0000972 9991.49316 10330.03906
10251.0 0.0000976 9998.45117 10330.71191
10326.0 0.0000968 10005.39063 10331.94922
10314.0 0.0000970 10012.31348 10333.75586
10253.0 0.0000975 10019.21680 10336.10938
10246.0 0.0000976 10026.09570 10346.92578
10392.0 0.0000962 10032.95703 10350.61133
10436.0 0.0000958 10039.79980 10354.87305
10393.0 0.0000962 10046.62305 10359.71777
10402.0 0.0000961 10053.42188 10365.17188
10350.0 0.0000966 10060.19629 10371.26172
10529.0 0.0000950 10066.94922 10378.02930
10465.0 0.0000956 10073.68359 10371.28613
10338.0 0.0000967 10080.39258 10379.73438
10480.0 0.0000954 10087.07813 10389.06543
10397.0 0.0000962 10093.74121 10399.38281
10385.0 0.0000963 10100.37988 10410.82715
10388.0 0.0000963 10106.99219 10423.57910
10461.0 0.0000956 10113.58203 10437.87109
10567.0 0.0000946 10120.14453 10454.01465
10519.0 0.0000951 10126.67871 10472.44141
10572.0 0.0000946 10133.18848 10493.79688
10579.0 0.0000945 10139.67090 10519.12207
10597.0 0.0000944 10146.12695 10550.26855
10744.0 0.0000931 10152.55469 10590.64258
10717.0 0.0000933 10158.95313 10646.31543
10810.0 0.0000925 10165.32520 10727.14355
10889.0 0.0000918 10171.66797 10846.87598
11099.0 0.0000901 10177.98047 11020.92969
11232.0 0.0000890 10184.26367 11260.64160
11409.0 0.0000877 10190.51855 11563.42871
11793.0 0.0000848 10196.73926 11897.17969
11831.0 0.0000845 10202.93457 12182.15430
11959.0 0.0000836 10209.09570 12305.97949
12154.0 0.0000823 10215.22852 12216.57910
12080.0 0.0000828 10221.32422 11989.29980
12082.0 0.0000828 10227.38770 11744.28320
12461.0 0.0000803 10233.41895 11563.83105
12523.0 0.0000799 10239.41895 11502.89844
12817.0 0.0000780 10245.38281 11633.24512
13010.0 0.0000769 10251.31641 12080.24121
13805.0 0.0000724 10257.21387 13010.84668
14499.0 0.0000690 10263.07617 14521.72070
15293.0 0.0000654 10268.90234 16438.00195
15811.0 0.0000632 10274.69727 18139.36133
16025.0 0.0000624 10280.45313 18699.79492
16205.0 0.0000617 10286.17773 17724.68945
15585.0 0.0000642 10291.85840 15921.69629
14963.0 0.0000668 10297.50586 14196.20996
14513.0 0.0000689 10303.11621 12995.92188
14019.0 0.0000713 10308.68750 12364.62988
13563.0 0.0000737 10314.22363 12151.82715
13408.0 0.0000746 10319.72168 12194.54102
13315.0 0.0000751 10325.17871 12396.75098
13444.0 0.0000744 10330.59473 12726.00977
13885.0 0.0000720 10335.98145 13184.86719
14368.0 0.0000696 10341.32031 13788.27539
14960.0 0.0000668 10346.61816 14549.52832
16078.0 0.0000622 10351.87988 15466.90527
17222.0 0.0000581 10357.10254 16503.25977
18273.0 0.0000547 10362.28223 17556.08789
19782.0 0.0000506 10367.41797 18436.15234
20480.0 0.0000488 10372.51563 18905.86719
20562.0 0.0000486 10377.57129 18808.61133
20088.0 0.0000498 10382.58398 18191.18359
18998.0 0.0000526 10387.54980 17269.41016
17398.0 0.0000575 10392.47949 16281.04199
16408.0 0.0000609 10397.36328 15392.99512
15813.0 0.0000632 10402.20703 14707.12109
15357.0 0.0000651 10407.00488 14308.67090
15445.0 0.0000647 10411.75977 14309.03613
15910.0 0.0000629 10416.46680 14850.75293
16674.0 0.0000600 10421.13281 16046.86816
17542.0 0.0000570 10425.75195 17850.17969
18341.0 0.0000545 10430.32910 19880.56055
19308.0 0.0000518 10434.85645 21306.87109
19658.0 0.0000509 10439.33887 21195.41406
19045.0 0.0000525 10443.78125 19512.47266
17946.0 0.0000557 10448.17480 17193.34766
16592.0 0.0000603 10452.52148 15070.52246
15396.0 0.0000650 10456.81836 13495.17188
14234.0 0.0000703 10461.07520 12484.23926
13394.0 0.0000747 10465.27441 11896.43359
12634.0 0.0000792 10469.43848 11566.16113
12308.0 0.0000812 10473.54688 11371.73340
11932.0 0.0000838 10477.60840 11244.71191
11782.0 0.0000849 10481.62207 11152.70313
11406.0 0.0000877 10485.58887 11081.41992
11388.0 0.0000878 10489.50391 11024.15332
11146.0 0.0000897 10493.37598 10977.21289
11174.0 0.0000895 10497.19727 10938.19238
11130.0 0.0000898 10500.96387 10905.39844
11026.0 0.0000907 10504.68164 10877.59473
10860.0 0.0000921 10508.35938 10853.83984
11088.0 0.0000902 10511.97559 10833.39355
10902.0 0.0000917 10515.54688 10815.70410
11072.0 0.0000903 10519.06738 10800.32227
11066.0 0.0000904 10522.53711 10786.88672
10990.0 0.0000910 10525.95605 10775.10840
10759.0 0.0000929 10529.32715 10764.75488
10688.0 0.0000936 10532.64355 10755.62012
10755.0 0.0000930 10535.90723 10747.54395
10774.0 0.0000928 10539.12109 10705.09375
10721.0 0.0000933 10542.28613 10699.18652
10746.0 0.0000931 10545.39648 10693.97559
10797.0 0.0000926 10548.45215 10689.38086
10789.0 0.0000927 10551.45996 10685.33594
10866.0 0.0000920 10554.41406 10681.76953
10738.0 0.0000931 10557.31543 10678.63184
10799.0 0.0000926 10560.16309 10675.87402
10759.0 0.0000929 10562.95703 10673.45117
10755.0 0.0000930 10565.70313 10671.33691
10601.0 0.0000943 10568.39258 10669.48828
10744.0 0.0000931 10571.02832 10667.87891
10586.0 0.0000945 10573.61133 10666.48633
10498.0 0.0000953 10576.13867 10665.28223
10596.0 0.0000944 10578.61328 10664.77148
10679.0 0.0000936 10581.03711 10663.90430
10736.0 0.0000931 10583.40527 10663.17383
10920.0 0.0000916 10585.71582 10662.56152
10684.0 0.0000936 10587.97363 10662.05957
10748.0 0.0000930 10590.17676 10661.65234
10829.0 0.0000923 10592.33105 10661.33789
10678.0 0.0000937 10594.42578 10661.09375
10666.0 0.0000938 10596.46582 10660.91602
10525.0 0.0000950 10598.45117 10660.79688
10597.0 0.0000944 10600.38574 10660.73145
11037.0 0.0000906 10602.25781 10660.70117
10649.0 0.0000939 10604.08301 10660.71680
10731.0 0.0000932 10605.84375 10660.75293
10944.0 0.0000914 10607.55469 10660.82031
10706.0 0.0000934 10609.21094 10660.90820
10821.0 0.0000924 10610.80957 10661.01074
10816.0 0.0000925 10612.35352 10661.12500
10837.0 0.0000923 10613.84180 10661.24707
10649.0 0.0000939 10615.27637 10661.37402
10619.0 0.0000942 10616.65234 10661.49805
10500.0 0.0000952 10617.97461 10661.62305
10481.0 0.0000954 10619.23828 10661.73926
10521.0 0.0000950 10620.44922 10661.84863
10620.0 0.0000942 10621.59668 10661.93848
10663.0 0.0000938 10622.69922 10662.02832
10893.0 0.0000918 10623.73828 10662.09375
10727.0 0.0000932 10624.72461 10668.06250
10741.0 0.0000931 10625.65723 10668.20215
10775.0 0.0000928 10626.52637 10668.31543
10728.0 0.0000932 10627.34180 10668.41016
10720.0 0.0000933 10628.10352 10668.48633
10554.0 0.0000948 10628.80762 10668.53613
10515.0 0.0000951 10629.45605 10668.56445
10578.0 0.0000945 10630.05078 10668.56836
10666.0 0.0000938 10630.58594 10668.54199
10776.0 0.0000928 10631.06348 10668.48828
10575.0 0.0000946 10631.48340 10668.40234
10638.0 0.0000940 10631.85352 10668.29297
10644.0 0.0000939 10632.16309 10668.14941
10697.0 0.0000935 10632.41699 10667.97656
10471.0 0.0000955 10632.61523 10667.77246
10658.0 0.0000938 10632.75879 10667.53516
10699.0 0.0000935 10632.84180 10667.26172
10774.0 0.0000928 10632.87012 10666.95703
10686.0 0.0000936 10632.84668 10666.62207
10608.0 0.0000943 10632.76074 10666.24609
10691.0 0.0000935 10632.62402 10665.84277
10759.0 0.0000929 10632.42676 10665.39844
10913.0 0.0000916 10632.17188 10664.91699
10765.0 0.0000929 10631.86719 10664.40820
10608.0 0.0000943 10631.50098 10663.85840
10773.0 0.0000928 10631.08301 10663.27637
10647.0 0.0000939 10630.60645 10662.65625
10691.0 0.0000935 10630.07910 10662.00391
10711.0 0.0000934 10629.48730 10661.30859
10745.0 0.0000931 10628.84863 10660.58691
10766.0 0.0000929 10628.14941 10659.82617
10730.0 0.0000932 10627.39453 10659.02734
10873.0 0.0000920 10626.58301 10658.19336
10773.0 0.0000928 10625.71777 10657.32910
10542.0 0.0000949 10624.79980 10656.43262
10646.0 0.0000939 10623.82324 10656.37988
10542.0 0.0000949 10622.79297 10655.42969
10481.0 0.0000954 10621.70703 10654.44531
10776.0 0.0000928 10620.56543 10653.42773
10683.0 0.0000936 10619.36426 10652.37695
10594.0 0.0000944 10618.11719 10651.30566
10595.0 0.0000944 10616.80957 10650.19824
10593.0 0.0000944 10615.45117 10649.06543
10639.0 0.0000940 10614.03320 10647.89941
10526.0 0.0000950 10612.56543 10646.71289
10712.0 0.0000934 10611.04395 10645.50195
10620.0 0.0000942 10609.46484 10644.26270
10652.0 0.0000939 10607.83203 10643.00195
10784.0 0.0000927 10606.14551 10641.71973
10603.0 0.0000943 10604.40332 10640.41895
10717.0 0.0000933 10602.61035 10639.09961
10598.0 0.0000944 10600.76367 10637.76660
10570.0 0.0000946 10598.86328 10636.41895
10693.0 0.0000935 10596.90918 10635.06250
10514.0 0.0000951 10594.90137 10633.69434
10533.0 0.0000949 10592.84082 10632.32324
10632.0 0.0000941 10590.72754 10630.94531
10502.0 0.0000952 10588.56348 10629.57227
10651.0 0.0000939 10586.34277 10628.20117
10758.0 0.0000930 10584.07031 10626.83691
10689.0 0.0000936 10581.74609 10625.48438
10645.0 0.0000939 10579.36816 10624.15039
10714.0 0.0000933 10576.94629 10622.84375
10695.0 0.0000935 10574.46191 10621.55566
10519.0 0.0000951 10571.93262 10620.30762
10676.0 0.0000937 10569.34570 10619.09473
10670.0 0.0000937 10566.71484 10617.93555
10492.0 0.0000953 10564.03027 10616.83496
10505.0 0.0000952 10561.29590 10615.79980
10447.0 0.0000957 10558.50391 10614.83496
10464.0 0.0000956 10555.66797 10613.96484
10422.0 0.0000960 10552.77930 10613.19434
10380.0 0.0000963 10549.83789 10612.53906
10549.0 0.0000948 10546.84961 10612.01855
10654.0 0.0000939 10543.80859 10611.64551
10530.0 0.0000950 10540.72461 10611.45020
10483.0 0.0000954 10537.58301 10611.44434
10666.0 0.0000938 10534.39746 10611.66504
10474.0 0.0000955 10531.15918 10612.13477
10532.0 0.0000949 10527.87598 10612.89551
10530.0 0.0000950 10524.54102 10613.98340
10551.0 0.0000948 10521.15723 10615.44629
10542.0 0.0000949 10517.72754 10617.33984
10696.0 0.0000935 10514.25000 10619.72656
10573.0 0.0000946 10510.71973 10622.67090
10518.0 0.0000951 10507.14453 10617.74316
10771.0 0.0000928 10503.52344 10622.19922
10742.0 0.0000931 10499.85547 10627.52930
10680.0 0.0000936 10496.13867 10633.87402
10803.0 0.0000926 10492.37402 10641.40918
10569.0 0.0000946 10488.56543 10650.34961
10858.0 0.0000921 10484.71191 10660.95117
10901.0 0.0000917 10480.80371 10673.51855
10878.0 0.0000919 10476.85938 10688.46289
10760.0 0.0000929 10472.86621 10706.26270
10751.0 0.0000930 10468.82617 10727.54004
10999.0 0.0000909 10464.74121 10753.09961
10997.0 0.0000909 10460.61230 10783.98926
11256.0 0.0000888 10456.43945 10821.63281
11239.0 0.0000890 10452.22363 10868.03223
11070.0 0.0000903 10447.95898 10926.15039
11478.0 0.0000871 10443.65234 11000.64453
11400.0 0.0000877 10439.30371 11099.12598
11630.0 0.0000860 10434.91016 11234.25586
11806.0 0.0000847 10430.47168 11426.66797
12076.0 0.0000828 10425.99707 11708.06836
12335.0 0.0000811 10421.47461 12122.62012
12932.0 0.0000773 10416.90918 12723.63574
13559.0 0.0000738 10412.30273 13564.63770
13966.0 0.0000716 10407.65527 14666.45898
14542.0 0.0000688 10402.96289 15997.22363
15357.0 0.0000651 10398.23145 17419.38281
15828.0 0.0000632 10393.45703 18608.71094
16339.0 0.0000612 10388.64453 19142.58008
16222.0 0.0000616 10383.79004 18745.23047
16141.0 0.0000620 10378.89648 17591.85547
15549.0 0.0000643 10373.96680 16138.00781
14947.0 0.0000669 10368.99121 14748.05176
14300.0 0.0000699 10363.97949 13592.05078
13439.0 0.0000744 10358.92383 12710.67969
12879.0 0.0000776 10353.83301 12079.16406
12284.0 0.0000814 10348.70410 11645.23730
12021.0 0.0000832 10343.53320 11352.36621
11731.0 0.0000852 10338.32910 11152.79297
11485.0 0.0000871 10333.08594 11012.09863
11345.0 0.0000881 10327.80664 10922.68262
11202.0 0.0000893 10322.49023 10842.79980
10991.0 0.0000910 10317.12793 10778.89941
10972.0 0.0000911 10311.73926 10726.62793
10723.0 0.0000933 10306.30859 10683.21973
10729.0 0.0000932 10300.84375 10646.85840
10815.0 0.0000925 10295.34180 10616.26758
10619.0 0.0000942 10289.81152 10590.54590
10509.0 0.0000952 10284.23828 10569.04785
10518.0 0.0000951 10278.63379 10551.38281
10569.0 0.0000946 10272.99414 10537.36035
10520.0 0.0000951 10267.31738 10527.05566
10435.0 0.0000958 10261.60938 10520.91992
10337.0 0.0000967 10255.86621 10519.92383
10291.0 0.0000972 10250.09277 10525.81738
10585.0 0.0000945 10244.28223 10541.34277
10500.0 0.0000952 10238.44141 10570.35645
10494.0 0.0000953 10232.56934 10617.54883
10432.0 0.0000959 10226.66406 10687.66992
10570.0 0.0000946 10220.72852 10784.07227
10807.0 0.0000925 10214.75586 10906.23145
10987.0 0.0000910 10208.75391 11045.46680
11057.0 0.0000904 10202.72266 11178.47363
11254.0 0.0000889 10196.66406 11264.95703
11254.0 0.0000889 10190.56934 11265.36426
11179.0 0.0000895 10184.44824 11175.08691
10885.0 0.0000919 10178.29492 11029.66504
10846.0 0.0000922 10172.11719 10871.91406
10730.0 0.0000932 10165.90430 10728.41699
10470.0 0.0000955 10159.66406 10609.77637
10538.0 0.0000949 10153.39551 10517.39160
10390.0 0.0000962 10147.09863 10448.25098
10341.0 0.0000967 10140.77734 10397.60059
10160.0 0.0000984 10134.42578 10360.52832
10224.0 0.0000978 10128.04590 10332.86719
10220.0 0.0000978 10121.64551 10311.51660
10226.0 0.0000978 10115.21094 10294.36133
10209.0 0.0000980 10108.75098 10280.08496
10074.0 0.0000993 10102.26953 10267.88086
10141.0 0.0000986 10095.75586 10275.57910
10234.0 0.0000977 10089.22168 10266.49121
10115.0 0.0000989 10082.66406 10258.48145
10171.0 0.0000983 10076.08105 10251.41992
10047.0 0.0000995 10069.47070 10245.21484
10023.0 0.0000998 10062.83398 10239.82129
10183.0 0.0000982 10056.17969 10235.23340
10194.0 0.0000981 10049.49902 10231.50781
10074.0 0.0000993 10042.79590 10228.89453
10168.0 0.0000983 10036.06836 10228.14160
10094.0 0.0000991 10029.31934 10231.05957
10257.0 0.0000975 10022.54883 10240.85352
10211.0 0.0000979 10015.75684 10261.21289
10220.0 0.0000978 10008.94434 10292.59082
10274.0 0.0000973 10002.10352 10328.55957
10163.0 0.0000984 9995.24707 10354.44238
10176.0 0.0000983 9988.37207 10355.53027
10347.0 0.0000966 9981.47266 10333.48926
10245.0 0.0000976 9974.55566 10304.79102
10173.0 0.0000983 9967.61816 10283.55859
10112.0 0.0000989 9960.66406 10275.36523
10087.0 0.0000991 9953.68750 10279.30664
10187.0 0.0000982 9946.69531 10292.42578
10122.0 0.0000988 9939.67969 10312.83496
10229.0 0.0000978 9932.65234 10377.49902
10438.0 0.0000958 9925.60156 10416.10156
10542.0 0.0000949 9918.54102 10470.70703
10488.0 0.0000953 9911.45508 10552.28320
10468.0 0.0000955 9904.35352 10679.14844
10940.0 0.0000914 9897.23926 10877.51953
11192.0 0.0000893 9890.10742 11177.61133
11676.0 0.0000856 9882.95703 11603.02344
12037.0 0.0000831 9875.79004 12153.05859
12724.0 0.0000786 9868.61328 12777.09863
13454.0 0.0000743 9861.42285 13341.83984
13784.0 0.0000725 9854.21094 13637.63379
13861.0 0.0000721 9846.98926 13523.88672
13636.0 0.0000733 9839.75195 13092.63965
13002.0 0.0000769 9832.50098 12563.62207
12476.0 0.0000802 9825.23730 12099.32031
11738.0 0.0000852 9817.95996 11773.18848
11567.0 0.0000865 9810.66797 11605.02246
11594.0 0.0000863 9803.36816 11594.24121
11466.0 0.0000872 9796.05078 11750.67969
11867.0 0.0000843 9788.72559 12128.53711
12490.0 0.0000801 9781.38379 12860.86133
13677.0 0.0000731 9774.03711 14177.77832
15516.0 0.0000644 9766.67383 16372.83203
18653.0 0.0000536 9759.30469 19682.03906
23165.0 0.0000432 9751.91797 24074.88672
29232.0 0.00003421 9744.52734 28979.75586
35026.0 0.00002855 9737.12598 33016.46484
38543.0 0.00002595 9729.71484 34274.83594
38157.0 0.00002621 9722.29688 31958.81055
33537.0 0.00002982 9714.86523 27415.69336
26823.0 0.0000373 9707.42871 22536.86914
21059.0 0.0000475 9699.98438 18435.46680
16764.0 0.0000597 9692.52832 15473.60254
14211.0 0.0000704 9685.06641 13566.33691
12724.0 0.0000786 9677.59863 12434.31055
11812.0 0.0000847 9670.12305 11785.92090
11155.0 0.0000896 9662.63770 11406.60840
10840.0 0.0000923 9655.14746 11169.18848
10655.0 0.0000939 9647.65137 11009.16602
10553.0 0.0000948 9640.14648 10896.21387
10211.0 0.0000979 9632.64160 10815.99707
10227.0 0.0000978 9625.12988 10761.14746
10323.0 0.0000969 9617.60840 10727.55566
10483.0 0.0000954 9610.08887 10713.06055
10441.0 0.0000958 9602.56055 10716.68066
10319.0 0.0000969 9595.02637 10738.96484
10407.0 0.0000961 9587.48926 10781.91992
10504.0 0.0000952 9579.95020 10849.54883
10537.0 0.0000949 9572.40723 10948.59668
10559.0 0.0000947 9564.85840 11090.17676
10762.0 0.0000929 9557.30762 11287.95117
10942.0 0.0000914 9549.75488 11569.71582
11185.0 0.0000894 9542.20215 11946.63672
11631.0 0.0000860 9534.64648 12453.37793
12250.0 0.0000816 9527.08496 13116.71289
13249.0 0.0000755 9519.52539 13955.53223
14514.0 0.0000689 9511.96484 14968.73633
16138.0 0.0000620 9504.40039 16113.24902
18104.0 0.0000552 9496.83984 17269.56641
19729.0 0.0000507 9489.27344 18215.28711
21038.0 0.0000475 9481.70703 18671.96289
20631.0 0.0000485 9474.14844 18462.28320
19164.0 0.0000522 9466.58105 17670.89453
16906.0 0.0000592 9459.01953 16552.89063
15158.0 0.0000660 9451.45410 15368.32520
13888.0 0.0000720 9443.89551 14278.38672
12522.0 0.0000799 9436.33105 13352.28223
11672.0 0.0000857 9428.77637 12604.32617
11233.0 0.0000890 9421.21875 12021.50391
10787.0 0.0000927 9413.66113 11578.94043
10576.0 0.0000946 9406.10840 11248.35645
10345.0 0.0000967 9398.55469 11003.00977
10321.0 0.0000969 9391.00977 10820.29883
10113.0 0.0000989 9383.46680 10681.79492
10151.0 0.0000985 9375.92188 10576.54004
10157.0 0.0000985 9368.38574 10494.83203
9961.0 0.0001004 9360.85352 10433.50000
9907.0 0.0001009 9353.31934 10383.20898
10132.0 0.0000987 9345.79688 10344.05078
9859.0 0.0001014 9338.27051 10314.25195
9955.0 0.0001005 9330.75293 10292.68652
9910.0 0.0001009 9323.24023 10278.74902
9897.0 0.0001010 9315.73438 10272.55859
9886.0 0.0001012 9308.22949 10275.26758
10125.0 0.0000988 9300.73340 10289.22852
10006.0 0.0000999 9293.24512 10317.18164
10050.0 0.0000995 9285.75879 10360.03906
10074.0 0.0000993 9278.28125 10413.86816
10205.0 0.0000980 9270.80762 10468.03516
10238.0 0.0000977 9263.34082 10508.48535
10231.0 0.0000977 9255.88281 10530.97168
10168.0 0.0000983 9248.42676 10547.61621
10320.0 0.0000969 9240.98242 10573.53418
10296.0 0.0000971 9233.54980 10617.70605
10265.0 0.0000974 9226.11719 10683.15332
10443.0 0.0000958 9218.69434 10769.79004
10541.0 0.0000949 9211.28125 10877.38477
10901.0 0.0000917 9203.87695 11007.38477
10919.0 0.0000916 9196.47656 11163.59375
11049.0 0.0000905 9189.08691 11352.60156
11370.0 0.0000880 9181.70801 11584.71973
11688.0 0.0000856 9174.33789 11873.14844
11989.0 0.0000834 9166.97852 12247.24707
12437.0 0.0000804 9159.62695 12739.67871
13001.0 0.0000769 9152.28223 13399.89063
13659.0 0.0000732 9144.94922 14292.28320
14970.0 0.0000668 9137.62500 15493.23730
16352.0 0.0000612 9130.31250 17082.62500
18416.0 0.0000543 9123.01172 19127.91797
20900.0 0.0000478 9115.71777 21657.48047
24127.0 0.0000414 9108.43848 24613.36719
27926.0 0.0000358 9101.16895 27769.50586
31771.0 0.00003148 9093.90918 30633.57422
34736.0 0.00002879 9086.66016 32468.49609
35736.0 0.00002798 9079.42383 32639.34180
34092.0 0.00002933 9072.19824 31115.35742
30867.0 0.00003240 9064.98828 28504.58008
26827.0 0.0000373 9057.78418 25564.65820
23294.0 0.0000429 9050.59766 22818.97461
20629.0 0.0000485 9043.41992 20516.51563
18475.0 0.0000541 9036.25488 18731.42773
17206.0 0.0000581 9029.10059 17449.13867
16541.0 0.0000605 9021.96289 16616.74609
16435.0 0.0000608 9014.83691 16172.75684
16406.0 0.0000610 9007.72266 16067.41895
17071.0 0.0000586 9000.62109 16462.02930
17900.0 0.0000559 8993.53418 17016.06641
19209.0 0.0000521 8986.45801 17988.93750
21091.0 0.0000474 8979.39844 19525.01367
23184.0 0.0000431 8972.35254 21827.62891
26170.0 0.0000382 8965.31836 25136.28711
30501.0 0.00003279 8958.30273 29680.91992
35679.0 0.00002803 8951.29590 35606.00000
41811.0 0.00002392 8944.30664 42847.18750
48869.0 0.00002046 8937.33105 50919.50391
55559.0 0.00001800 8930.36719 58611.95313
59490.0 0.00001681 8923.42090 63889.97656
61119.0 0.00001636 8916.49121 64736.16016
58488.0 0.00001710 8909.57227 60776.89453
52204.0 0.00001916 8902.66992 53637.54297
45969.0 0.00002175 8895.78516 45459.64063
38499.0 0.00002597 8888.91113 37715.95313
32288.0 0.00003097 8882.05566 31119.79102
27584.0 0.0000363 8875.21582 25883.61328
23710.0 0.0000422 8868.38965 21936.17383
20690.0 0.0000483 8861.57910 19069.26563
18523.0 0.0000540 8854.78516 17032.43359
16823.0 0.0000594 8848.00488 15591.43750
15447.0 0.0000647 8841.24609 14557.89844
14371.0 0.0000696 8834.49902 13796.31152
13727.0 0.0000728 8827.76953 13217.63867
13116.0 0.0000762 8821.06152 12765.11035
12735.0 0.0000785 8814.36133 12405.62598
12213.0 0.0000819 8807.67969 12119.30273
11887.0 0.0000841 8801.01465 11894.56934
11853.0 0.0000844 8794.37207 11729.40430
11602.0 0.0000862 8787.73926 11612.78223
11423.0 0.0000875 8781.12305 11549.40527
11496.0 0.0000870 8774.52734 11542.88281
11669.0 0.0000857 8767.94824 11599.59668
11741.0 0.0000852 8761.38867 11726.55176
11948.0 0.0000837 8754.84473 11926.67871
12111.0 0.0000826 8748.31641 12197.12500
12212.0 0.0000819 8741.80469 12529.91602
12297.0 0.0000813 8735.31445 12917.92773
12353.0 0.0000810 8728.83789 13322.73340
12473.0 0.0000802 8722.38281 13629.79688
12319.0 0.0000812 8715.94238 13660.92383
12293.0 0.0000813 8709.52051 13327.73828
12142.0 0.0000824 8703.11230 12742.30176
11877.0 0.0000842 8696.72852 12095.73535
11702.0 0.0000855 8690.35938 11538.32129
11267.0 0.0000888 8684.00879 11086.59863
11134.0 0.0000898 8677.67480 10754.51855
10867.0 0.0000920 8671.36523 10528.73047
10594.0 0.0000944 8665.06738 10435.22363
10646.0 0.0000939 8658.78809 10340.84473
10468.0 0.0000955 8652.52734 10279.39355
10480.0 0.0000954 8646.28906 10238.95703
10451.0 0.0000957 8640.06543 10211.69727
10544.0 0.0000948 8633.85742 10194.23340
10311.0 0.0000970 8627.67383 10184.53809
10231.0 0.0000977 8621.50781 10181.46094
10197.0 0.0000981 8615.35449 10184.30762
10114.0 0.0000989 8609.22559 10192.65430
10224.0 0.0000978 8603.11621 10206.24414
10178.0 0.0000983 8597.02441 10224.94824
10214.0 0.0000979 8590.94727 10248.74316
10241.0 0.0000976 8584.88965 10277.72266
10276.0 0.0000973 8578.85449 10312.12207
10206.0 0.0000980 8572.83496 10352.02441
10295.0 0.0000971 8566.83789 10397.86328
10239.0 0.0000977 8560.85547 10450.05273
10309.0 0.0000970 8554.89355 10509.14453
10334.0 0.0000968 8548.94922 10575.80078
10556.0 0.0000947 8543.02734 10650.83496
10511.0 0.0000951 8537.12305 10735.22656
10701.0 0.0000934 8531.23438 10830.19434
10906.0 0.0000917 8525.36719 10925.09766
10921.0 0.0000916 8519.51758 11046.40430
11053.0 0.0000905 8513.68848 11184.33398
11112.0 0.0000900 8507.88184 11342.33887
11326.0 0.0000883 8502.08887 11525.11523
11626.0 0.0000860 8496.31641 11739.15332
11803.0 0.0000847 8490.56055 11993.26660
12130.0 0.0000824 8484.82715 12299.20313
12538.0 0.0000798 8479.11230 12672.00879
12830.0 0.0000779 8473.41504 13130.02832
13442.0 0.0000744 8467.73633 13694.23340
14157.0 0.0000706 8462.07910 14386.68262
14938.0 0.0000669 8456.43945 15227.69238
15942.0 0.0000627 8450.82129 16230.98242
17055.0 0.0000586 8445.21875 17394.89258
18212.0 0.0000549 8439.63574 18686.86523
19567.0 0.0000511 8434.07031 20020.72461
20775.0 0.0000481 8428.52734 21240.30664
21615.0 0.0000463 8423.00098 22146.13281
21879.0 0.0000457 8417.49512 22592.50977
22056.0 0.0000453 8412.00488 22593.94922
21329.0 0.0000469 8406.53711 22323.87305
20654.0 0.0000484 8401.08887 22007.24414
20302.0 0.0000493 8395.65430 21826.31445
20267.0 0.0000493 8390.24219 21898.78711
20505.0 0.0000488 8384.84863 22299.35742
21547.0 0.0000464 8379.47363 23089.43750
23049.0 0.0000434 8374.11621 24346.49805
25080.0 0.0000399 8368.77344 26200.59375
27950.0 0.0000358 8363.45801 28890.18750
32447.0 0.00003082 8358.15820 32845.50000
38636.0 0.00002588 8352.87695 38792.23047
47764.0 0.00002094 8347.61230 47836.14844
59916.0 0.00001669 8342.36719 61450.42188
78389.0 0.00001276 8337.14063 81269.50000
104930.0 9.53e-6 8331.93457 108625.22656
141647.0 7.06e-6 8326.74316 143807.78125
187382.0 5.34e-6 8321.57520 184965.59375
237981.0 4.20e-6 8316.42285 226444.37500
274529.0 3.64e-6 8311.28418 257493.03125
289487.0 3.454e-6 8306.16895 265792.15625
271775.0 3.68e-6 8301.07227 247688.46875
227698.0 4.39e-6 8295.99219 212241.04688
175862.0 5.69e-6 8290.92969 171973.51563
129501.0 7.72e-6 8285.88770 134871.23438
94983.0 0.00001053 8280.86328 104116.17188
72003.0 0.00001389 8275.85254 80340.14063
57234.0 0.00001747 8270.86035 62928.05859
46868.0 0.00002134 8265.88965 50523.77344
39027.0 0.00002562 8260.93555 41696.37891
33414.0 0.00002993 8255.99902 35402.33984
28975.0 0.00003451 8251.08105 30937.05078
25990.0 0.0000385 8246.17871 27789.48633
24132.0 0.0000414 8241.29785 25583.13867
22941.0 0.0000436 8236.42969 24026.53320
22501.0 0.0000444 8231.58105 23003.54688
22652.0 0.0000441 8226.75098 22511.05664
22995.0 0.0000435 8221.93457 22693.65234
23937.0 0.0000418 8217.13672 23715.34570
25462.0 0.0000393 8212.35742 25674.19531
27583.0 0.0000363 8207.59375 28541.12500
29671.0 0.00003370 8202.84863 32052.15430
31234.0 0.00003202 8198.12109 35489.50781
32423.0 0.00003084 8193.40918 37566.87109
31867.0 0.00003138 8188.71240 37043.23047
30184.0 0.00003313 8184.03271 33949.95703
27594.0 0.0000362 8179.37109 29533.57031
24639.0 0.0000406 8174.72559 25081.48633
22132.0 0.0000452 8170.09814 21292.60156
19864.0 0.0000503 8165.48340 18392.21680
18071.0 0.0000553 8160.89111 16322.86621
16747.0 0.0000597 8156.31006 14892.61719
15588.0 0.0000642 8151.74805 13897.51172
14703.0 0.0000680 8147.19727 13186.48340
13821.0 0.0000724 8142.66602 12662.53027
13107.0 0.0000763 8138.15234 12266.13477
12491.0 0.0000801 8133.65088 11962.20898
12360.0 0.0000809 8129.16699 11693.20410
11952.0 0.0000837 8124.69873 11517.52344
11588.0 0.0000863 8120.24463 11385.46094
11478.0 0.0000871 8115.80664 11283.64258
11475.0 0.0000871 8111.38574 11197.18457
11431.0 0.0000875 8106.97900 11113.91211
11163.0 0.0000896 8102.58789 11032.57227
11194.0 0.0000893 8098.21143 10960.85938
11114.0 0.0000900 8093.85059 10906.09082
11223.0 0.0000891 8089.50391 10871.95410
11114.0 0.0000900 8085.17285 10859.35352
11037.0 0.0000906 8080.85547 10867.70703
11229.0 0.0000891 8076.55029 10896.06445
11353.0 0.0000881 8072.26416 10943.93750
11359.0 0.0000880 8067.99121 11011.66602
11792.0 0.0000848 8063.73145 11100.50488
11691.0 0.0000855 8059.48828 11212.57227
12062.0 0.0000829 8055.25830 11350.82813
12325.0 0.0000811 8051.04150 11519.17383
12860.0 0.0000778 8046.83691 11722.67871
13309.0 0.0000751 8042.64990 11967.98340
13779.0 0.0000726 8038.47363 12263.96191
14233.0 0.0000703 8034.31299 12622.94238
15140.0 0.0000661 8030.16797 13062.66113
15968.0 0.0000626 8026.02979 13609.48828
16836.0 0.0000594 8021.91162 14302.51172
18512.0 0.0000540 8017.80420 15203.21582
20190.0 0.0000495 8013.70801 16398.24219
21826.0 0.0000458 8009.62598 18009.16016
24088.0 0.0000415 8005.56055 20193.90820
27097.0 0.0000369 8001.50439 23140.51172
30340.0 0.00003296 7997.45947 27048.33789
34255.0 0.00002919 7993.42969 32093.36914
39525.0 0.00002530 7989.41113 38371.98047
44188.0 0.00002263 7985.40723 45806.77734
50110.0 0.00001996 7981.41357 53983.37500
55754.0 0.00001794 7977.43311 61917.50781
60578.0 0.00001651 7973.46436 67976.53906
63319.0 0.00001579 7969.50781 70241.24219
62546.0 0.00001599 7965.56104 67885.42969
58572.0 0.00001707 7961.62695 61777.32031
52112.0 0.00001919 7957.70605 53784.26953
45390.0 0.00002203 7953.79590 45571.41797
38893.0 0.00002571 7949.89746 38114.54688
33171.0 0.00003015 7946.00977 31819.50781
28802.0 0.00003472 7942.13184 26758.42773
24916.0 0.0000401 7938.26563 22832.27148
21861.0 0.0000457 7934.41162 19863.86328
19705.0 0.0000507 7930.56738 17653.52930
17649.0 0.0000567 7926.73584 16013.36914
16272.0 0.0000615 7922.91406 14785.83594
15309.0 0.0000653 7919.10156 13849.98926
14124.0 0.0000708 7915.29932 13118.43164
13209.0 0.0000757 7911.50684 12531.73047
12472.0 0.0000802 7907.72705 12050.18164
11906.0 0.0000840 7903.95605 11647.45313
11433.0 0.0000875 7900.19336 11305.77344
10981.0 0.0000911 7896.44189 11012.71289
10682.0 0.0000936 7892.70117 10759.22266
10397.0 0.0000962 7888.96875 10538.45117
10425.0 0.0000959 7885.24609 10345.06348
10236.0 0.0000977 7881.53369 10174.81152
10054.0 0.0000995 7877.82861 10024.25781
9813.0 0.0001019 7874.13184 9890.61523
9781.0 0.0001022 7870.44531 9771.59180
9695.0 0.0001031 7866.76904 9665.29102
9542.0 0.0001048 7863.10010 9570.14063
9341.0 0.0001071 7859.43896 9484.83398
9172.0 0.0001090 7855.78906 9408.28809
9264.0 0.0001079 7852.14600 9339.59277
9335.0 0.0001071 7848.51025 9277.99902
9133.0 0.0001095 7844.88574 9222.88770
9034.0 0.0001107 7841.26416 9173.74609
9038.0 0.0001106 7837.65381 9130.18262
8964.0 0.0001116 7834.04980 9091.88672
9082.0 0.0001101 7830.45410 9058.63477
8974.0 0.0001114 7826.86719 9030.29785
8866.0 0.0001128 7823.28564 9006.82324
9054.0 0.0001104 7819.71338 8988.83398
8989.0 0.0001112 7816.14502 8977.36621
9057.0 0.0001104 7812.58789 8969.21875
8962.0 0.0001116 7809.03564 8966.78809
9126.0 0.0001096 7805.49023 8970.63281
9125.0 0.0001096 7801.95215 8981.53906
9228.0 0.0001084 7798.42041 9000.55957
9372.0 0.0001067 7794.89697 9029.15039
9437.0 0.0001060 7791.37598 9069.38086
9601.0 0.0001042 7787.86328 9124.36426
9893.0 0.0001011 7784.35742 9199.06836
10007.0 0.0000999 7780.85693 9301.82227
10356.0 0.0000966 7777.36133 9446.79883
10620.0 0.0000942 7773.87207 9657.45508
11134.0 0.0000898 7770.38818 9970.24414
11519.0 0.0000868 7766.91211 10436.65430
12222.0 0.0000818 7763.44043 11120.63379
12846.0 0.0000778 7759.97314 12088.42090
13751.0 0.0000727 7756.51270 13389.12207
14509.0 0.0000689 7753.05566 15025.52539
15252.0 0.0000656 7749.60254 16910.19141
16041.0 0.0000623 7746.15723 18801.08594
16416.0 0.0000609 7742.71533 20241.74414
16605.0 0.0000602 7739.27686 20701.43750
15922.0 0.0000628 7735.84570 19965.63086
15236.0 0.0000656 7732.41553 18356.62500
14374.0 0.0000696 7728.99316 16420.35742
13399.0 0.0000746 7725.57422 14564.30566
12665.0 0.0000790 7722.15723 12989.14941
11878.0 0.0000842 7718.74609 11748.90820
11358.0 0.0000880 7715.33887 10840.49707
10971.0 0.0000911 7711.93408 10201.46875
10557.0 0.0000947 7708.53223 9764.70215
10240.0 0.0000977 7705.13477 9468.54395
9949.0 0.0001005 7701.74268 9265.04688
9676.0 0.0001033 7698.35156 9121.16406
9504.0 0.0001052 7694.96338 9016.08887
9331.0 0.0001072 7691.57910 8937.48828
9244.0 0.0001082 7688.19678 8878.25781
9154.0 0.0001092 7684.82031 8834.33398
9038.0 0.0001106 7681.44531 8803.39746
9040.0 0.0001106 7678.07080 8784.18750
8909.0 0.0001122 7674.70020 8776.14941
9009.0 0.0001110 7671.33252 8779.20898
8815.0 0.0001134 7667.96729 8793.56152
9189.0 0.0001088 7664.60205 8819.46875
9190.0 0.0001088 7661.24170 8856.94434
9265.0 0.0001079 7657.88086 8905.79199
9301.0 0.0001075 7654.52441 8962.82520
9596.0 0.0001042 7651.16797 8926.09570
9610.0 0.0001041 7647.81543 8991.83984
9599.0 0.0001042 7644.46143 9060.73438
9532.0 0.0001049 7641.11084 9137.66797
9625.0 0.0001039 7637.76123 9228.60547
9820.0 0.0001018 7634.41162 9335.57617
9953.0 0.0001005 7631.06152 9458.26074
10184.0 0.0000982 7627.71826 9596.10352
10548.0 0.0000948 7624.37207 9751.34082
10618.0 0.0000942 7621.02881 9933.29590
11267.0 0.0000888 7617.68457 10159.63770
12021.0 0.0000832 7614.34131 10456.90332
12730.0 0.0000786 7610.99854 10864.16504
13700.0 0.0000730 7607.65625 11440.87305
14898.0 0.0000671 7604.31299 12276.41895
16340.0 0.0000612 7600.97266 13496.68652
18243.0 0.0000548 7597.63184 15261.05762
20390.0 0.0000490 7594.28955 17743.04688
23076.0 0.0000433 7590.94775 21090.22266
26554.0 0.0000377 7587.60840 25361.46289
30176.0 0.00003314 7584.26758 30433.64063
33830.0 0.00002956 7580.92627 35854.58594
37239.0 0.00002685 7577.58301 40662.08984
39433.0 0.00002536 7574.23975 43438.55469
39198.0 0.00002551 7570.89697 43059.14844
36955.0 0.00002706 7567.55371 39683.13281
33574.0 0.00002978 7564.20850 34604.26563
29243.0 0.00003420 7560.86377 29181.60938
24921.0 0.0000401 7557.51611 24252.00000
21455.0 0.0000466 7554.16699 20175.22266
18478.0 0.0000541 7550.82031 17029.89453
16395.0 0.0000610 7547.46924 14712.66699
14657.0 0.0000682 7544.11914 13074.07031
13465.0 0.0000743 7540.76709 11942.91504
12370.0 0.0000808 7537.41406 11171.67188
11763.0 0.0000850 7534.05811 10655.94629
11229.0 0.0000891 7530.70020 10339.08691
10666.0 0.0000938 7527.34131 10210.65918
10420.0 0.0000960 7523.98291 10271.31836
10255.0 0.0000975 7520.61914 10527.63770
10204.0 0.0000980 7517.25342 10936.79395
10089.0 0.0000991 7513.88867 11378.15430
9877.0 0.0001012 7510.52100 11646.07715
9865.0 0.0001014 7507.14990 11539.03516
9559.0 0.0001046 7503.77881 11052.99707
9282.0 0.0001077 7500.40234 10384.28223
8854.0 0.0001129 7497.02588 9732.46484
8863.0 0.0001128 7493.64453 9208.72363
8619.0 0.0001160 7490.26318 8842.64355
8629.0 0.0001159 7486.87891 8557.84668
8477.0 0.0001180 7483.48975 8421.91406
8272.0 0.0001209 7480.09912 8343.16797
8210.0 0.0001218 7476.70557 8298.16797
8097.0 0.0001235 7473.30908 8275.94727
8341.0 0.0001199 7469.90869 8274.06348
8104.0 0.0001234 7466.50781 8295.60645
8282.0 0.0001207 7463.10254 8347.70703
8171.0 0.0001224 7459.69385 8440.64941
8349.0 0.0001198 7456.28125 8586.40039
8648.0 0.0001156 7452.86572 8795.66895
8783.0 0.0001139 7449.44775 9073.13867
9502.0 0.0001052 7446.02539 9410.74414
9755.0 0.0001025 7442.59912 9779.05273
10205.0 0.0000980 7439.16943 10117.69141
10600.0 0.0000943 7435.73682 10334.91992
10524.0 0.0000950 7432.29932 10340.58398
10150.0 0.0000985 7428.86182 10120.82129
9554.0 0.0001047 7425.41553 9753.84180
9243.0 0.0001082 7421.96924 9342.80371
8729.0 0.0001146 7418.51611 8958.77441
8457.0 0.0001182 7415.06006 8635.31543
8239.0 0.0001214 7411.60107 8381.49316
8129.0 0.0001230 7408.13574 8202.01758
7810.0 0.0001280 7404.66846 8067.05664
7779.0 0.0001286 7401.19482 7972.55322
7855.0 0.0001273 7397.72021 7907.23242
7749.0 0.0001290 7394.23877 7860.63184
7688.0 0.0001301 7390.75244 7827.23584
7785.0 0.0001285 7387.26318 7803.54053
7729.0 0.0001294 7383.76807 7788.22217
7771.0 0.0001287 7380.27002 7781.90625
7850.0 0.0001274 7376.76611 7787.06006
7758.0 0.0001289 7373.25830 7807.80469
7837.0 0.0001276 7369.74561 7849.08838
7778.0 0.0001286 7366.22949 7914.97998
7961.0 0.0001256 7362.70703 8006.18115
7912.0 0.0001264 7359.17773 8117.08057
8026.0 0.0001246 7355.64844 8231.77637
8251.0 0.0001212 7352.11133 8322.94531
8103.0 0.0001234 7348.56836 8364.15820
8101.0 0.0001234 7345.02148 8356.93164
8150.0 0.0001227 7341.47168 8333.18945
8202.0 0.0001219 7337.91602 8315.46973
8271.0 0.0001209 7334.35596 8306.63379
8069.0 0.0001239 7330.78613 8283.14355
8179.0 0.0001223 7327.21533 8217.63574
7960.0 0.0001256 7323.63721 8110.88965
7923.0 0.0001262 7320.05615 7989.82031
7754.0 0.0001290 7316.46875 7879.82471
7745.0 0.0001291 7312.87744 7794.09473
7638.0 0.0001309 7309.27734 7735.72852
7507.0 0.0001332 7305.67432 7701.56982
7679.0 0.0001302 7302.06494 7685.91113
7677.0 0.0001303 7298.45264 7683.46191
7863.0 0.0001272 7294.83398 7690.80908
7648.0 0.0001308 7291.20850 7706.67334
7769.0 0.0001287 7287.57666 7731.62207
7762.0 0.0001288 7283.94189 7767.77148
7829.0 0.0001277 7280.30029 7818.65186
7687.0 0.0001301 7276.65137 7889.14209
7829.0 0.0001277 7272.99902 7985.21240
7841.0 0.0001275 7269.34082 8113.11572
8009.0 0.0001249 7265.67773 8277.85547
8114.0 0.0001232 7262.00732 8480.66016
8252.0 0.0001212 7258.33203 8715.24707
8432.0 0.0001186 7254.65137 8962.57715
8417.0 0.0001188 7250.96533 9185.39355
8321.0 0.0001202 7247.27246 9329.96387
8310.0 0.0001203 7243.57568 9348.62695
8173.0 0.0001224 7239.87207 9236.09180
8206.0 0.0001219 7236.16113 9035.79688
8131.0 0.0001230 7232.44629 8805.44922
8098.0 0.0001235 7228.72510 8587.17871
7977.0 0.0001254 7224.99854 8402.95020
7794.0 0.0001283 7221.26611 8260.78027
7940.0 0.0001259 7217.52832 8161.00000
7945.0 0.0001259 7213.78369 8099.26221
7868.0 0.0001271 7210.03369 8070.60107
8042.0 0.0001243 7206.27686 8070.31738
7909.0 0.0001264 7202.51514 8095.40869
8049.0 0.0001242 7198.74561 8145.48682
8188.0 0.0001221 7194.97217 8223.90137
8449.0 0.0001184 7191.19385 8339.68066
8733.0 0.0001145 7187.40869 8510.75391
9139.0 0.0001094 7183.61719 8768.16504
9665.0 0.0001035 7179.81934 9159.54297
10208.0 0.0000980 7176.01660 9748.48730
11344.0 0.0000882 7172.20850 10606.12305
12326.0 0.0000811 7168.39160 11792.42090
14032.0 0.0000713 7164.57324 13327.48145
15655.0 0.0000639 7160.74561 15153.23047
17388.0 0.0000575 7156.91211 17074.84375
18888.0 0.0000529 7153.07568 18706.03906
19560.0 0.0000511 7149.23145 19518.26172
19054.0 0.0000525 7145.38086 19169.76563
17808.0 0.0000562 7141.52441 17834.75781
16162.0 0.0000619 7137.66357 16035.00879
14184.0 0.0000705 7133.79541 14213.26563
12536.0 0.0000798 7129.92188 12642.31641
11232.0 0.0000890 7126.04297 11432.58594
10499.0 0.0000952 7122.15771 10597.21484
10069.0 0.0000993 7118.26709 10093.44824
9791.0 0.0001021 7114.37012 9853.54395
9592.0 0.0001043 7110.46729 9806.44824
9514.0 0.0001051 7106.55908 9892.60156
9586.0 0.0001043 7102.64551 10085.03613
9741.0 0.0001027 7098.72461 10418.27734
10263.0 0.0000974 7094.80078 10982.31641
11306.0 0.0000884 7090.86816 11870.91309
12925.0 0.0000774 7086.93359 13129.02930
15262.0 0.0000655 7082.98926 14709.63477
18207.0 0.0000549 7079.04199 16422.98047
20743.0 0.0000482 7075.08643 17886.33203
21441.0 0.0000466 7071.12744 18593.74023
20772.0 0.0000481 7067.16309 18256.41211
18476.0 0.0000541 7063.19092 17082.80664
15789.0 0.0000633 7059.21436 15549.79004
13662.0 0.0000732 7055.23438 14065.10938
12317.0 0.0000812 7051.24756 12881.58496
11752.0 0.0000851 7047.25391 12118.75488
11935.0 0.0000838 7043.25537 11793.88965
12722.0 0.0000786 7039.25098 11857.96484
13486.0 0.0000742 7035.24219 12220.68555
14366.0 0.0000696 7031.22754 12734.50098
15317.0 0.0000653 7027.20850 13276.04199
15473.0 0.0000646 7023.18408 13629.88672
15093.0 0.0000663 7019.15381 13656.73340
14458.0 0.0000692 7015.11621 13363.82910
13265.0 0.0000754 7011.07471 12888.22754
12220.0 0.0000818 7007.02930 12383.34863
11341.0 0.0000882 7002.97803 11930.66211
10466.0 0.0000955 6998.92139 11518.41309
9982.0 0.0001002 6994.86035 11072.89453
9392.0 0.0001065 6990.79395 10540.24414
9050.0 0.0001105 6986.72119 9950.09082
8778.0 0.0001139 6982.64355 9377.05566
8384.0 0.0001193 6978.56299 8876.73633
8027.0 0.0001246 6974.47559 8471.43848
7942.0 0.0001259 6970.38330 8160.76514
7726.0 0.0001294 6966.28857 7934.89160
7492.0 0.0001335 6962.18750 7769.73877
7454.0 0.0001342 6958.08154 7650.23730
7322.0 0.0001366 6953.97168 7561.51611
7113.0 0.0001406 6949.85498 7493.27197
7229.0 0.0001383 6945.73486 7437.88818
7041.0 0.0001420 6941.60986 7391.53809
7004.0 0.0001428 6937.48047 7351.73047
7038.0 0.0001421 6933.34863 7316.94336
7060.0 0.0001416 6929.20850 7286.16553
7003.0 0.0001428 6925.06543 7258.68945
7028.0 0.0001423 6920.91943 7233.97900
7074.0 0.0001414 6916.76758 7211.42822
6922.0 0.0001445 6912.61182 7191.05371
6897.0 0.0001450 6908.45166 7172.39893
6947.0 0.0001439 6904.28564 7157.27490
6843.0 0.0001461 6900.11865 7141.43896
6816.0 0.0001467 6895.94531 7129.08887
6871.0 0.0001455 6891.76953 7115.44727
6850.0 0.0001460 6887.58887 7102.70361
6860.0 0.0001458 6883.40332 7090.76025
6848.0 0.0001460 6879.21436 7079.53564
6823.0 0.0001466 6875.02246 7068.96045
6795.0 0.0001472 6870.82568 7058.97119
6800.0 0.0001471 6866.62598 7049.51904
6840.0 0.0001462 6862.42041 7040.55371
6736.0 0.0001485 6858.21289 7032.03955
6900.0 0.0001449 6854.00439 7023.94482
6813.0 0.0001468 6849.78906 7016.23047
6805.0 0.0001470 6845.56836 7008.97803
6847.0 0.0001460 6841.34863 7001.96582
6691.0 0.0001495 6837.12354 6995.27148
6854.0 0.0001459 6832.89502 6988.87500
7059.0 0.0001417 6828.66357 6982.76855
6866.0 0.0001456 6824.42822 6976.93457
6885.0 0.0001452 6820.19043 6971.36816
6910.0 0.0001447 6815.94824 6966.05420
6744.0 0.0001483 6811.70313 6960.99170
6715.0 0.0001489 6807.45703 6956.17676
6656.0 0.0001502 6803.20654 6951.60205
6747.0 0.0001482 6798.95313 6947.26611
6727.0 0.0001487 6794.69531 6943.17090
6707.0 0.0001491 6790.43799 6939.31934
6687.0 0.0001495 6786.17578 6935.70752
6849.0 0.0001460 6781.91211 6932.34717
6721.0 0.0001488 6777.64502 6929.24023
6572.0 0.0001522 6773.37500 6926.39355
6752.0 0.0001481 6769.10596 6923.82373
6716.0 0.0001489 6764.82910 6921.52930
6714.0 0.0001489 6760.55420 6919.53516
6725.0 0.0001487 6756.27441 6917.85010
6705.0 0.0001491 6751.99365 6916.49609
6725.0 0.0001487 6747.71094 6915.49219
6628.0 0.0001509 6743.42676 6914.86377
6694.0 0.0001494 6739.13818 6914.67432
6697.0 0.0001493 6734.85010 6914.88086
6819.0 0.0001466 6730.55859 6915.55664
6733.0 0.0001485 6726.26514 6916.74023
6756.0 0.0001480 6721.97217 6918.48242
6767.0 0.0001478 6717.67432 6920.83545
6633.0 0.0001508 6713.37598 6923.85986
6709.0 0.0001491 6709.07715 6927.63135
6769.0 0.0001477 6704.77637 6932.22803
6807.0 0.0001469 6700.47412 6937.74756
6869.0 0.0001456 6696.17041 6944.29834
6825.0 0.0001465 6691.86523 6952.01416
6709.0 0.0001491 6687.55859 6961.04150
6868.0 0.0001456 6683.25244 6971.56445
7061.0 0.0001416 6678.94287 6983.79150
6970.0 0.0001435 6674.63525 6997.97852
6948.0 0.0001439 6670.32422 7014.42480
7125.0 0.0001404 6666.01221 7033.50732
7074.0 0.0001414 6661.70068 7055.68311
7180.0 0.0001393 6657.38721 7082.52734
7277.0 0.0001374 6653.07471 7112.82178
7255.0 0.0001378 6648.76025 7148.55127
7350.0 0.0001361 6644.44482 7191.08887
7468.0 0.0001339 6640.13135 7242.35254
7539.0 0.0001326 6635.81543 7304.99805
7664.0 0.0001305 6631.50000 7382.69580
7901.0 0.0001266 6627.18408 7480.41699
7975.0 0.0001254 6622.86816 7604.75391
8326.0 0.0001201 6618.55273 7767.08301
8578.0 0.0001166 6614.23730 7972.54150
8756.0 0.0001142 6609.92090 8237.15918
9410.0 0.0001063 6605.60547 8576.22070
10171.0 0.0000983 6601.28955 9005.38379
10527.0 0.0000950 6596.97510 9536.97266
11021.0 0.0000907 6592.65918 10175.66895
11395.0 0.0000878 6588.34326 10919.47656
11673.0 0.0000857 6584.03076 11767.48047
11733.0 0.0000852 6579.71680 12724.82910
12048.0 0.0000830 6575.40479 13780.06348
12339.0 0.0000810 6571.09473 14863.67676
12415.0 0.0000805 6566.78125 15812.29297
12623.0 0.0000792 6562.47119 16388.78906
12784.0 0.0000782 6558.16309 16386.50391
12592.0 0.0000794 6553.85254 15783.13379
12216.0 0.0000819 6549.54736 14758.79395
11816.0 0.0000846 6545.24170 13560.51953
11054.0 0.0000905 6540.93750 12377.28125
10546.0 0.0000948 6536.63330 11311.35547
10073.0 0.0000993 6532.33105 10403.57227
9544.0 0.0001048 6528.03223 9660.44727
9211.0 0.0001086 6523.73242 9071.35449
8956.0 0.0001117 6519.43652 8618.12891
8680.0 0.0001152 6515.14014 8277.90527
8477.0 0.0001180 6510.84668 8027.97559
8249.0 0.0001212 6506.55371 7848.99316
8169.0 0.0001224 6502.26416 7726.67041
8197.0 0.0001220 6497.97754 7646.62793
7986.0 0.0001252 6493.69141 7614.69043
8055.0 0.0001241 6489.40918 7623.40625
8141.0 0.0001228 6485.12744 7671.41553
8175.0 0.0001223 6480.84863 7755.74561
8367.0 0.0001195 6476.57227 7868.72168
8444.0 0.0001184 6472.29785 7993.94873
8418.0 0.0001188 6468.02637 8104.16455
8694.0 0.0001150 6463.75732 8168.77588
8689.0 0.0001151 6459.49170 8172.37793
8691.0 0.0001151 6455.22949 8126.44678
8684.0 0.0001152 6450.96826 8063.56689
8621.0 0.0001160 6446.71240 8025.65527
8675.0 0.0001153 6442.45557 8057.67578
8848.0 0.0001130 6438.20459 8184.89209
8890.0 0.0001125 6433.95801 8420.48340
9165.0 0.0001091 6429.71387 8790.24512
9511.0 0.0001051 6425.47070 9269.38770
9817.0 0.0001019 6421.23389 9810.50781
9937.0 0.0001006 6416.99902 10322.54102
10568.0 0.0000946 6412.76709 10682.20508
10650.0 0.0000939 6408.54053 10809.95117
10759.0 0.0000929 6404.31689 10738.61426
10919.0 0.0000916 6400.09570 10598.51074
11408.0 0.0000877 6395.88281 10505.47852
11907.0 0.0000840 6391.66943 10513.85547
12505.0 0.0000800 6387.46045 10612.06152
12930.0 0.0000773 6383.25830 10728.23633
13007.0 0.0000769 6379.05811 10752.86719
12135.0 0.0000824 6374.86426 10597.08789
11102.0 0.0000901 6370.67236 10253.31738
9869.0 0.0001013 6366.48486 9791.01563
8989.0 0.0001112 6362.30176 9297.83008
8248.0 0.0001212 6358.12598 8836.19043
7633.0 0.0001310 6353.95361 8436.38672
7288.0 0.0001372 6349.78369 8105.19678
7152.0 0.0001398 6345.62061 7835.41943
7016.0 0.0001425 6341.46191 7614.42383
6911.0 0.0001447 6337.30811 7431.19678
6893.0 0.0001451 6333.16016 7282.62061
6847.0 0.0001460 6329.01563 7157.20361
6660.0 0.0001502 6324.87744 7054.86475
6685.0 0.0001496 6320.74512 6971.92969
6572.0 0.0001522 6316.61670 6905.01611
6542.0 0.0001529 6312.49561 6851.27832
6646.0 0.0001505 6308.37891 6808.40088
6469.0 0.0001546 6304.26465 6774.51758
6614.0 0.0001512 6300.16016 6748.13379
6557.0 0.0001525 6296.06006 6728.05420
6614.0 0.0001512 6291.96484 6713.37500
6658.0 0.0001502 6287.87891 6703.46582
6612.0 0.0001512 6283.79492 6697.94141
6650.0 0.0001504 6279.71777 6696.66943
6635.0 0.0001507 6275.64746 6699.75537
6685.0 0.0001496 6271.58301 6707.58740
6802.0 0.0001470 6267.52490 6720.89648
6832.0 0.0001464 6263.47266 6740.88818
6961.0 0.0001437 6259.42627 6769.43018
6992.0 0.0001430 6255.38770 6809.30322
7119.0 0.0001405 6251.35645 6864.50293
7254.0 0.0001379 6247.33008 6940.56641
7400.0 0.0001351 6243.30859 7044.81836
7602.0 0.0001315 6239.29395 7186.37158
7788.0 0.0001284 6235.29053 7376.72168
8031.0 0.0001245 6231.29102 7623.65283
8232.0 0.0001215 6227.29785 7935.56689
8537.0 0.0001171 6223.31250 8312.88379
8602.0 0.0001163 6219.33496 8743.45215
9116.0 0.0001097 6215.36475 9194.72852
9267.0 0.0001079 6211.40088 9607.73047
9479.0 0.0001055 6207.44434 9908.00586
9691.0 0.0001032 6203.49365 10043.15723
9706.0 0.0001030 6199.55029 10015.31934
9533.0 0.0001049 6195.61816 9872.88086
9283.0 0.0001077 6191.69141 9670.99219
9016.0 0.0001109 6187.77197 9436.55469
8775.0 0.0001140 6183.85889 9167.88477
8553.0 0.0001169 6179.95557 8868.01855
8360.0 0.0001196 6176.05957 8568.18164
8141.0 0.0001228 6172.17090 8310.33496
7875.0 0.0001270 6168.29053 8119.36768
7859.0 0.0001272 6164.41846 7993.21826
7490.0 0.0001335 6160.55420 7904.67969
7446.0 0.0001343 6156.69971 7809.45947
7331.0 0.0001364 6152.85156 7669.25635
7111.0 0.0001406 6149.01074 7484.28809
7064.0 0.0001416 6145.17871 7283.68506
6833.0 0.0001463 6141.35693 7096.84473
6825.0 0.0001465 6137.54248 6940.76660
6743.0 0.0001483 6133.73633 6821.37402
6798.0 0.0001471 6129.93799 6737.04346
6713.0 0.0001490 6126.14941 6681.97119
6604.0 0.0001514 6122.36865 6652.19043
6451.0 0.0001550 6118.59863 6635.59570
6441.0 0.0001553 6114.83643 6632.38477
6487.0 0.0001542 6111.08252 6637.67676
6620.0 0.0001511 6107.33740 6652.50781
6528.0 0.0001532 6103.60254 6678.03418
6686.0 0.0001496 6099.87549 6717.08203
6718.0 0.0001489 6096.15869 6774.18945
6823.0 0.0001466 6092.45117 6855.79883
6890.0 0.0001451 6088.75342 6970.49365
7034.0 0.0001422 6085.06348 7127.48291
7352.0 0.0001360 6081.38281 7336.94580
7775.0 0.0001286 6077.71387 7607.14990
8245.0 0.0001213 6074.05029 7941.93555
8980.0 0.0001114 6070.39893 8338.43066
9740.0 0.0001027 6066.75635 8774.05957
10472.0 0.0000955 6063.12549 9208.51953
11172.0 0.0000895 6059.50293 9567.48145
11478.0 0.0000871 6055.88965 9763.38672
11202.0 0.0000893 6052.28711 9738.79297
10429.0 0.0000959 6048.69434 9508.71973
9539.0 0.0001048 6045.11084 9152.50977
8848.0 0.0001130 6041.53809 8758.11816
8387.0 0.0001192 6037.97461 8390.00098
7938.0 0.0001260 6034.42090 8085.42480
7707.0 0.0001298 6030.87891 7864.46094
7553.0 0.0001324 6027.34717 7739.31641
7639.0 0.0001309 6023.82471 7720.85059
7846.0 0.0001275 6020.31152 7822.81201
8137.0 0.0001229 6016.81006 8063.74219
8448.0 0.0001184 6013.31934 8465.72754
8975.0 0.0001114 6009.84033 9048.57520
9562.0 0.0001046 6006.36816 9817.79688
10306.0 0.0000970 6002.90967 10746.35352
11283.0 0.0000886 5999.46094 11758.37695
12327.0 0.0000811 5996.02197 12735.84961
12901.0 0.0000775 5992.59424 13549.08203
13422.0 0.0000745 5989.17773 14075.45898
14062.0 0.0000711 5985.77246 14238.34375
14005.0 0.0000714 5982.37695 14083.13184
14140.0 0.0000707 5978.99219 13741.61426
13557.0 0.0000738 5975.62109 13295.16406
13089.0 0.0000764 5972.25928 12723.18262
12505.0 0.0000800 5968.90723 11986.49219
11652.0 0.0000858 5965.56787 11130.01758
10895.0 0.0000918 5962.23828 10267.63086
10327.0 0.0000968 5958.92188 9500.46289
9667.0 0.0001034 5955.61475 8883.49512
9379.0 0.0001066 5952.32080 8437.31934
9169.0 0.0001091 5949.03564 8165.17773
9070.0 0.0001103 5945.76563 8063.52295
9278.0 0.0001078 5942.50488 8127.77246
9419.0 0.0001062 5939.25391 8354.66211
9665.0 0.0001035 5936.01758 8740.96680
10110.0 0.0000989 5932.79199 9278.53418
10377.0 0.0000964 5929.57666 9945.45410
11091.0 0.0000902 5926.37109 10692.23047
11576.0 0.0000864 5923.18164 11423.03223
11766.0 0.0000850 5920.00293 11985.62305
11783.0 0.0000849 5916.83447 12208.72461
11457.0 0.0000873 5913.67773 12002.74219
10939.0 0.0000914 5910.53516 11431.71680
10201.0 0.0000980 5907.40283 10659.71289
9646.0 0.0001037 5904.28027 9844.48535
9257.0 0.0001080 5901.17285 9087.45215
8726.0 0.0001146 5898.07666 8432.06348
8480.0 0.0001179 5894.99219 7906.62939
8070.0 0.0001239 5891.91846 7500.56934
7868.0 0.0001271 5888.85791 7198.60400
7707.0 0.0001298 5885.81104 6981.01172
7528.0 0.0001328 5882.77490 6828.41309
7487.0 0.0001336 5879.75098 6724.93018
7284.0 0.0001373 5876.73877 6659.93750
7203.0 0.0001388 5873.73975 6628.82715
7243.0 0.0001381 5870.75244 6633.06738
7310.0 0.0001368 5867.77783 6679.53271
7216.0 0.0001386 5864.81543 6778.66895
7484.0 0.0001336 5861.86572 6941.10156
7504.0 0.0001333 5858.92725 7172.58398
7623.0 0.0001312 5856.00293 7467.41943
7734.0 0.0001293 5853.08984 7800.74854
7890.0 0.0001267 5850.18994 8124.95117
7894.0 0.0001267 5847.30127 8388.35059
7956.0 0.0001257 5844.42578 8539.91895
7915.0 0.0001263 5841.56396 8555.30176
7744.0 0.0001291 5838.71582 8411.95215
7544.0 0.0001326 5835.87695 8126.29346
7337.0 0.0001363 5833.05420 7763.97949
7259.0 0.0001378 5830.24121 7397.67773
7045.0 0.0001419 5827.44043 7074.28027
6933.0 0.0001442 5824.65479 6813.92725
6740.0 0.0001484 5821.88135 6619.29834
6616.0 0.0001511 5819.12109 6483.37207
6607.0 0.0001514 5816.37256 6394.92871
6674.0 0.0001498 5813.63770 6342.50732
6513.0 0.0001535 5810.91553 6316.79590
6602.0 0.0001515 5808.20557 6311.56201
6535.0 0.0001530 5805.50732 6323.41602
6519.0 0.0001534 5802.82617 6350.94580
6330.0 0.0001580 5800.15576 6393.66553
6672.0 0.0001499 5797.49805 6451.13867
6745.0 0.0001483 5794.85156 6522.30713
6706.0 0.0001491 5792.22266 6605.21973
6869.0 0.0001456 5789.60400 6698.24756
7038.0 0.0001421 5786.99756 6807.78564
7265.0 0.0001376 5784.40381 6946.91504
7502.0 0.0001333 5781.82422 7151.38525
7801.0 0.0001282 5779.25830 7461.80664
8109.0 0.0001233 5776.70654 7914.56006
8839.0 0.0001131 5774.16699 8529.75391
9653.0 0.0001036 5771.64063 9297.55762
10310.0 0.0000970 5769.12451 10170.60938
11121.0 0.0000899 5766.62451 11031.76758
11891.0 0.0000841 5764.13574 11697.93652
12133.0 0.0000824 5761.66211 11976.77246
12145.0 0.0000823 5759.20313 11795.19043
11750.0 0.0000851 5756.75537 11231.65039
11190.0 0.0000894 5754.32031 10470.99902
10469.0 0.0000955 5751.90039 9690.96289
9807.0 0.0001020 5749.49121 9017.99414
9095.0 0.0001100 5747.09473 8518.33887
8890.0 0.0001125 5744.71484 8209.10742
8466.0 0.0001181 5742.34717 8073.85938
8368.0 0.0001195 5739.99219 8091.12256
8548.0 0.0001170 5737.64990 8193.98047
8645.0 0.0001157 5735.32373 8342.90137
8904.0 0.0001123 5733.00830 8466.67871
9002.0 0.0001111 5730.70703 8485.72363
8813.0 0.0001135 5728.41895 8356.15918
8579.0 0.0001166 5726.14355 8103.56055
8093.0 0.0001236 5723.88281 7795.31982
7564.0 0.0001322 5721.63428 7491.10059
7148.0 0.0001399 5719.40088 7222.74902
6947.0 0.0001439 5717.18018 6997.42139
6668.0 0.0001500 5714.97217 6807.67529
6435.0 0.0001554 5712.77832 6644.04785
6412.0 0.0001560 5710.59766 6502.84277
6255.0 0.0001599 5708.42920 6384.16406
6077.0 0.0001646 5706.27295 6289.00342
6092.0 0.0001641 5704.13379 6212.49121
6048.0 0.0001653 5702.00635 6153.42188
5927.0 0.0001687 5699.89307 6109.08740
5966.0 0.0001676 5697.79248 6076.95508
5926.0 0.0001687 5695.70557 6054.84668
5908.0 0.0001693 5693.63281 6037.89160
5859.0 0.0001707 5691.57031 6031.70459
5969.0 0.0001675 5689.52393 6032.92139
5945.0 0.0001682 5687.48975 6042.43115
5809.0 0.0001721 5685.47217 6063.40479
5984.0 0.0001671 5683.46387 6093.71729
5957.0 0.0001679 5681.47021 6137.39014
6016.0 0.0001662 5679.49121 6195.95068
5992.0 0.0001669 5677.52490 6269.80615
6331.0 0.0001580 5675.57178 6357.31299
6379.0 0.0001568 5673.63135 6453.37354
6637.0 0.0001507 5671.70557 6548.83301
6691.0 0.0001495 5669.79346 6621.32227
6886.0 0.0001452 5667.89355 6658.65234
6890.0 0.0001451 5666.00537 6646.20166
6603.0 0.0001514 5664.13428 6588.85547
6400.0 0.0001562 5662.27441 6508.72266
6273.0 0.0001594 5660.42822 6416.04395
6051.0 0.0001653 5658.59521 6328.73730
6032.0 0.0001658 5656.77588 6254.21436
5966.0 0.0001676 5654.96973 6195.60352
5880.0 0.0001701 5653.17383 6153.38574
5910.0 0.0001692 5651.39697 6126.53223
6045.0 0.0001654 5649.62939 6113.18701
6014.0 0.0001663 5647.87598 6111.27832
6036.0 0.0001657 5646.13770 6119.01416
6135.0 0.0001630 5644.40918 6136.43701
6142.0 0.0001628 5642.69727 6161.81494
6078.0 0.0001645 5640.99658 6197.65234
6175.0 0.0001619 5639.30811 6246.22705
6257.0 0.0001598 5637.63477 6309.97461
6427.0 0.0001556 5635.97656 6390.94189
6406.0 0.0001561 5634.32813 6492.93555
6672.0 0.0001499 5632.69531 6610.37549
6740.0 0.0001484 5631.07324 6742.86035
6940.0 0.0001441 5629.46436 6883.25391
7025.0 0.0001423 5627.86963 7018.75635
7226.0 0.0001384 5626.28809 7131.70020
7274.0 0.0001375 5624.72070 7205.67822
7345.0 0.0001361 5623.16553 7235.96289
7358.0 0.0001359 5621.62305 7235.99365
7392.0 0.0001353 5620.09180 7233.59326
7442.0 0.0001344 5618.57666 7263.65381
7443.0 0.0001344 5617.07080 7355.03760
7768.0 0.0001287 5615.58252 7538.70703
8032.0 0.0001245 5614.10547 7839.12109
8489.0 0.0001178 5612.63916 8272.63770
9088.0 0.0001100 5611.18848 8840.16797
9592.0 0.0001043 5609.75000 9520.76465
10456.0 0.0000956 5608.32227 10258.31836
11120.0 0.0000899 5606.91016 10948.35547
11598.0 0.0000862 5605.50977 11443.08789
12224.0 0.0000818 5604.12207 11614.72168
12266.0 0.0000815 5602.74658 11451.35742
12040.0 0.0000831 5601.38574 11112.58789
11668.0 0.0000857 5600.03613 10793.41895
11251.0 0.0000889 5598.70068 10654.04688
10790.0 0.0000927 5597.37549 10779.82227
10826.0 0.0000924 5596.06494 11173.25293
10846.0 0.0000922 5594.76465 11745.49219
10965.0 0.0000912 5593.47949 12311.77344
10870.0 0.0000920 5592.20752 12612.09180
10750.0 0.0000930 5590.94482 12436.44531
10602.0 0.0000943 5589.69824 11793.50977
9945.0 0.0001006 5588.46240 10892.84961
9607.0 0.0001041 5587.23877 9974.04688
9157.0 0.0001092 5586.02832 9209.25391
9100.0 0.0001099 5584.82959 8696.83789
8939.0 0.0001119 5583.64453 8475.43652
8695.0 0.0001150 5582.47363 8535.73438
8734.0 0.0001145 5581.31006 8829.34082
8816.0 0.0001134 5580.16162 9272.79297
8814.0 0.0001135 5579.02539 9744.22754
8941.0 0.0001118 5577.90088 10084.55176
8980.0 0.0001114 5576.78906 10149.01270
8919.0 0.0001121 5575.68750 9891.48926
9125.0 0.0001096 5574.60059 9403.29785
9075.0 0.0001102 5573.52539 8818.52148
8748.0 0.0001143 5572.46191 8241.50586
8562.0 0.0001168 5571.41113 7739.45654
8041.0 0.0001244 5570.37207 7336.85400
7714.0 0.0001296 5569.34424 7043.80762
7397.0 0.0001352 5568.32813 6850.20703
7195.0 0.0001390 5567.32471 6734.27930
6984.0 0.0001432 5566.33496 6684.65723
6924.0 0.0001444 5565.35400 6683.82227
6939.0 0.0001441 5564.38672 6728.70654
7051.0 0.0001418 5563.43213 6821.38086
7049.0 0.0001419 5562.48682 6968.59033
7085.0 0.0001411 5561.55420 7183.75928
7195.0 0.0001390 5560.63428 7469.50537
7230.0 0.0001383 5559.72412 7816.22900
7236.0 0.0001382 5558.82715 8188.59912
7374.0 0.0001356 5557.94336 8520.04102
7472.0 0.0001338 5557.06689 8720.31641
7434.0 0.0001345 5556.20508 8722.18652
7541.0 0.0001326 5555.35400 8540.69238
7539.0 0.0001326 5554.51563 8261.92188
7415.0 0.0001349 5553.68604 7979.41162
7446.0 0.0001343 5552.86963 7759.36572
7376.0 0.0001356 5552.06299 7639.30713
7543.0 0.0001326 5551.26904 7636.35400
7674.0 0.0001303 5550.48633 7747.04492
7835.0 0.0001276 5549.71484 7962.74609
8161.0 0.0001225 5548.95410 8267.30273
8307.0 0.0001204 5548.20459 8640.13379
8698.0 0.0001150 5547.46533 9058.08398
9152.0 0.0001093 5546.73926 9507.18262
9505.0 0.0001052 5546.02148 10007.65723
10282.0 0.0000973 5545.31592 10627.44922
10875.0 0.0000920 5544.62158 11460.23535
11852.0 0.0000844 5543.93799 12587.89160
13390.0 0.0000747 5543.26611 14053.68848
15295.0 0.0000654 5542.60547 15843.49609
17561.0 0.0000569 5541.95459 17861.73242
20379.0 0.0000491 5541.31348 19896.01367
23265.0 0.0000430 5540.68408 21591.86328
25361.0 0.0000394 5540.06494 22513.48438
25977.0 0.0000385 5539.45752 22354.15039
25097.0 0.0000398 5538.85938 21152.84570
22497.0 0.0000445 5538.27197 19259.08594
19578.0 0.0000511 5537.69531 17094.11914
16651.0 0.0000601 5537.12988 14975.11035
13987.0 0.0000715 5536.57275 13083.77148
12051.0 0.0000830 5536.02783 11499.82129
10587.0 0.0000945 5535.49121 10237.52734
9484.0 0.0001054 5534.96729 9272.13574
8929.0 0.0001120 5534.45166 8557.62305
8209.0 0.0001218 5533.94678 8042.03125
7946.0 0.0001258 5533.45215 7676.08154
7620.0 0.0001312 5532.96826 7418.77979
7388.0 0.0001354 5532.49414 7239.31348
7195.0 0.0001390 5532.02881 7116.74658
7216.0 0.0001386 5531.57422 7038.76074
7090.0 0.0001410 5531.12988 7000.55859
7202.0 0.0001389 5530.69629 7004.37012
7265.0 0.0001376 5530.27100 7059.57666
7408.0 0.0001350 5529.85498 7182.74365
7701.0 0.0001299 5529.44873 7396.45557
7974.0 0.0001254 5529.05420 7725.72705
8399.0 0.0001191 5528.66602 8191.37354
8893.0 0.0001124 5528.29004 8800.88770
9597.0 0.0001042 5527.92285 9537.63184
10124.0 0.0000988 5527.56543 10348.22363
10537.0 0.0000949 5527.21680 11129.09863
11258.0 0.0000888 5526.87793 11731.03223
11665.0 0.0000857 5526.54834 12024.48926
11963.0 0.0000836 5526.22705 12005.13184
11893.0 0.0000841 5525.91699 11806.53320
11798.0 0.0000848 5525.61328 11587.05762
12037.0 0.0000831 5525.32080 11455.91699
12073.0 0.0000828 5525.03418 11444.32520
12294.0 0.0000813 5524.76221 11511.11133
12169.0 0.0000822 5524.49561 11557.94922
12017.0 0.0000832 5524.23877 11472.40723
11743.0 0.0000852 5523.99121 11193.84668
11172.0 0.0000895 5523.75098 10749.04980
10646.0 0.0000939 5523.52051 10222.00684
10184.0 0.0000982 5523.29834 9698.73828
9721.0 0.0001029 5523.08447 9237.41113
9642.0 0.0001037 5522.87891 8867.41504
9636.0 0.0001038 5522.68408 8589.11719
9654.0 0.0001036 5522.49414 8388.26758
9643.0 0.0001037 5522.31641 8235.11816
9492.0 0.0001054 5522.14648 8097.32275
9320.0 0.0001073 5521.98389 7956.57764
8981.0 0.0001113 5521.82959 7816.95068
8660.0 0.0001155 5521.68262 7696.29883
8269.0 0.0001209 5521.54590 7611.76758
7945.0 0.0001259 5521.41455 7571.81738
7668.0 0.0001304 5521.29443 7574.74707
7652.0 0.0001307 5521.18018 7610.04785
7617.0 0.0001313 5521.07422 7662.98584
7663.0 0.0001305 5520.97705 7721.03613
7555.0 0.0001324 5520.88623 7774.33301
7619.0 0.0001313 5520.80518 7808.87402
7835.0 0.0001276 5520.72900 7804.15967
7657.0 0.0001306 5520.66309 7742.06885
7626.0 0.0001311 5520.60400 7619.40234
7388.0 0.0001354 5520.55371 7451.09375
7295.0 0.0001371 5520.50732 7261.17969
7046.0 0.0001419 5520.47217 7071.53809
6882.0 0.0001453 5520.44336 6898.04395
6803.0 0.0001470 5520.42188 6745.56396
6689.0 0.0001495 5520.40723 6618.22119
6529.0 0.0001532 5520.40186 6516.04541
6324.0 0.0001581 5520.40039 6437.47119
6304.0 0.0001586 5520.40820 6380.26611
6259.0 0.0001598 5520.42236 6341.95605
6365.0 0.0001571 5520.44287 6320.29004
6294.0 0.0001589 5520.47217 6313.58691
6396.0 0.0001563 5520.50586 6320.43018
6280.0 0.0001592 5520.54883 6342.32080
6441.0 0.0001553 5520.59717 6380.18213
6470.0 0.0001546 5520.65234 6436.82324
6468.0 0.0001546 5520.71777 6516.15918
6555.0 0.0001526 5520.78418 6622.81348
6612.0 0.0001512 5520.85986 6761.60645
6892.0 0.0001451 5520.94434 6936.81299
7141.0 0.0001400 5521.03076 7151.29443
7367.0 0.0001357 5521.12695 7405.75781
7688.0 0.0001301 5521.22852 7699.80762
8028.0 0.0001246 5521.33643 8038.01514
8353.0 0.0001197 5521.44971 8428.27246
8706.0 0.0001149 5521.56787 8883.71875
9187.0 0.0001088 5521.69629 9412.23047
9895.0 0.0001011 5521.82861 10003.85742
10462.0 0.0000956 5521.96582 10639.87598
11013.0 0.0000908 5522.10938 11306.66211
11705.0 0.0000854 5522.26074 12008.68066
12245.0 0.0000817 5522.41650 12757.57520
13321.0 0.0000751 5522.57861 13540.42383
13904.0 0.0000719 5522.74658 14300.04883
14725.0 0.0000679 5522.91797 14954.85840
15420.0 0.0000649 5523.09814 15440.73828
15885.0 0.0000630 5523.28223 15727.98438
16134.0 0.0000620 5523.47168 15800.81152
16242.0 0.0000616 5523.66602 15630.01270
15731.0 0.0000636 5523.86816 15190.98438
15069.0 0.0000664 5524.07324 14526.74805
14211.0 0.0000704 5524.28467 13759.88867
13272.0 0.0000753 5524.50244 13025.97266
12330.0 0.0000811 5524.72314 12412.51367
11518.0 0.0000868 5524.94971 11942.17871
10753.0 0.0000930 5525.18311 11580.08887
10278.0 0.0000973 5525.41797 11252.75586
9978.0 0.0001002 5525.65771 10882.00488
9491.0 0.0001054 5525.90576 10422.88184
9205.0 0.0001086 5526.15820 9881.37402
8999.0 0.0001111 5526.41309 9301.58203
8619.0 0.0001160 5526.67383 8737.08496
8248.0 0.0001212 5526.93896 8228.70605
8029.0 0.0001245 5527.20898 7798.78613
7786.0 0.0001284 5527.48389 7454.61914
7548.0 0.0001325 5527.76270 7193.20801
7257.0 0.0001378 5528.04541 7005.54980
7004.0 0.0001428 5528.33301 6875.81299
6959.0 0.0001437 5528.62500 6787.03564
6870.0 0.0001456 5528.92236 6719.12646
6597.0 0.0001516 5529.22217 6652.67480
6569.0 0.0001522 5529.52637 6575.14063
6570.0 0.0001522 5529.83594 6484.95752
6412.0 0.0001560 5530.14697 6388.90039
6409.0 0.0001560 5530.46240 6295.11426
6320.0 0.0001582 5530.78125 6209.34473
6078.0 0.0001645 5531.10693 6136.75977
6042.0 0.0001655 5531.43359 6073.87305
6053.0 0.0001652 5531.76709 6022.41992
6060.0 0.0001650 5532.10107 5981.14893
5807.0 0.0001722 5532.43896 5948.44385
5989.0 0.0001670 5532.78125 5922.64795
5839.0 0.0001713 5533.12744 5902.29541
5889.0 0.0001698 5533.47656 5882.29492
5909.0 0.0001692 5533.82617 5869.67383
5821.0 0.0001718 5534.18311 5859.90234
5879.0 0.0001701 5534.54395 5848.29883
5884.0 0.0001700 5534.90430 5833.36475
5867.0 0.0001704 5535.26953 5830.92432
5867.0 0.0001704 5535.63721 5830.94043
5926.0 0.0001687 5536.00781 5833.78955
6029.0 0.0001659 5536.38379 5840.24365
5909.0 0.0001692 5536.75928 5851.77246
5795.0 0.0001726 5537.13770 5871.23633
6009.0 0.0001664 5537.52051 5902.93018
6054.0 0.0001652 5537.90674 5954.27441
6063.0 0.0001649 5538.29395 6035.62207
6266.0 0.0001596 5538.68408 6159.76563
6446.0 0.0001551 5539.07764 6339.77783
6428.0 0.0001556 5539.47217 6585.02100
6656.0 0.0001502 5539.87061 6895.79492
6680.0 0.0001497 5540.27197 7257.40820
6745.0 0.0001483 5540.67334 7633.92480
6744.0 0.0001483 5541.07715 7965.42578
6889.0 0.0001452 5541.48486 8162.89404
7008.0 0.0001427 5541.89355 8161.37891
6827.0 0.0001465 5542.30420 7961.13721
6780.0 0.0001475 5542.71680 7630.20215
6729.0 0.0001486 5543.13232 7252.27148
6464.0 0.0001547 5543.54883 6889.76904
6453.0 0.0001550 5543.96729 6578.37646
6385.0 0.0001566 5544.38721 6332.60498
6305.0 0.0001586 5544.81006 6152.03076
6108.0 0.0001637 5545.23438 6027.49268
6148.0 0.0001627 5545.66016 5945.37695
6137.0 0.0001629 5546.08740 5893.16650
6015.0 0.0001663 5546.51611 5860.55908
6043.0 0.0001655 5546.94434 5840.30713
5918.0 0.0001690 5547.37500 5827.82861
5948.0 0.0001681 5547.80811 5820.46533
5887.0 0.0001699 5548.24170 5816.77344
5862.0 0.0001706 5548.67871 5816.00635
5857.0 0.0001707 5549.11523 5817.79980
5921.0 0.0001689 5549.55176 5822.02295
5889.0 0.0001698 5549.98779 5828.69189
5854.0 0.0001708 5550.42773 5837.95215
5871.0 0.0001703 5550.86816 5850.09424
5914.0 0.0001691 5551.31006 5865.60352
5970.0 0.0001675 5551.75195 5885.23047
5971.0 0.0001675 5552.19434 5910.11865
5990.0 0.0001669 5552.63770 5941.93896
6037.0 0.0001656 5553.08154 5983.06152
6162.0 0.0001623 5553.52686 6036.71338
6062.0 0.0001650 5553.96973 6112.44238
6065.0 0.0001649 5554.41553 6204.63574
6235.0 0.0001604 5554.86230 6324.34277
6227.0 0.0001606 5555.30957 6477.64502
6338.0 0.0001578 5555.75586 6669.62842
6392.0 0.0001564 5556.20166 6904.27930
6491.0 0.0001541 5556.65039 7182.47949
6553.0 0.0001526 5557.09619 7499.99023
6751.0 0.0001481 5557.54297 7844.14941
6893.0 0.0001451 5557.98975 8189.74756
6894.0 0.0001451 5558.43848 8499.75293
7121.0 0.0001404 5558.88574 8725.48535
7084.0 0.0001412 5559.33154 8839.85059
7077.0 0.0001413 5559.77930 8847.53027
7232.0 0.0001383 5560.22607 8782.19922
7195.0 0.0001390 5560.67334 8682.30566
7130.0 0.0001403 5561.11963 8567.31152
7032.0 0.0001422 5561.56396 8433.25586
7030.0 0.0001422 5562.01074 8260.10449
6920.0 0.0001445 5562.45313 8032.66309
6839.0 0.0001462 5562.89746 7757.60547
6724.0 0.0001487 5563.34180 7460.16895
6610.0 0.0001513 5563.78418 7169.01904
6487.0 0.0001542 5564.22754 6904.10889
6332.0 0.0001579 5564.66797 6675.32764
6242.0 0.0001602 5565.10889 6485.34082
6157.0 0.0001624 5565.54883 6332.47754
6196.0 0.0001614 5565.98682 6212.66748
5997.0 0.0001668 5566.42578 6120.71631
6007.0 0.0001665 5566.86084 6051.17920
5915.0 0.0001691 5567.29785 5999.00928
5873.0 0.0001703 5567.73193 5959.90283
5778.0 0.0001731 5568.16406 5930.47363
5811.0 0.0001721 5568.59619 5908.22607
5702.0 0.0001754 5569.02686 5891.42139
5715.0 0.0001750 5569.45557 5878.91797
5680.0 0.0001761 5569.88574 5870.01123
5617.0 0.0001780 5570.31299 5864.27490
5673.0 0.0001763 5570.73633 5861.46143
5723.0 0.0001747 5571.16064 5861.42383
5797.0 0.0001725 5571.58057 5858.57422
5772.0 0.0001733 5572.00146 5863.62891
5713.0 0.0001750 5572.41992 5870.75000
5638.0 0.0001774 5572.83789 5879.85449
5770.0 0.0001733 5573.25195 5889.34766
5764.0 0.0001735 5573.66455 5899.04736
5732.0 0.0001745 5574.07471 5908.76660
5807.0 0.0001722 5574.48682 5918.93750
5696.0 0.0001756 5574.89307 5936.47412
5756.0 0.0001737 5575.29736 5950.50537
5873.0 0.0001703 5575.70117 5968.36133
5957.0 0.0001679 5576.10156 5991.73535
5995.0 0.0001668 5576.50049 6022.55518
5990.0 0.0001669 5576.89746 6062.85645
6041.0 0.0001655 5577.29102 6114.67969
6110.0 0.0001637 5577.68262 6179.95313
6136.0 0.0001630 5578.07275 6260.33154
6142.0 0.0001628 5578.45850 6357.57813
6243.0 0.0001602 5578.84277 6472.10596
6379.0 0.0001568 5579.22607 6605.71631
6493.0 0.0001540 5579.60547 6759.81592
6488.0 0.0001541 5579.98340 6934.10010
6662.0 0.0001501 5580.35742 7124.34082
6790.0 0.0001473 5580.72656 7320.29834
7051.0 0.0001418 5581.09521 7505.24658
7179.0 0.0001393 5581.45996 7659.28955
7386.0 0.0001354 5581.82520 7767.89941
7634.0 0.0001310 5582.18457 7829.94775
8051.0 0.0001242 5582.54102 7856.87939
8427.0 0.0001187 5582.89697 7865.58350
8845.0 0.0001131 5583.24707 7863.72705
9282.0 0.0001077 5583.59473 7853.21777
9398.0 0.0001064 5583.93945 7840.16797
9237.0 0.0001083 5584.28125 7833.95361
8926.0 0.0001120 5584.61719 7853.32471
8595.0 0.0001163 5584.95313 7915.52197
8397.0 0.0001191 5585.28564 8027.82666
8323.0 0.0001201 5585.61328 8185.66602
8436.0 0.0001185 5585.93945 8368.71777
8598.0 0.0001163 5586.26123 8539.79199
8812.0 0.0001135 5586.57861 8646.84863
8851.0 0.0001130 5586.89355 8640.49414
8954.0 0.0001117 5587.20313 8501.49805
8836.0 0.0001132 5587.51172 8254.17676
8542.0 0.0001171 5587.81494 7947.68457
8230.0 0.0001215 5588.11475 7629.41455
7939.0 0.0001260 5588.41064 7332.10010
7688.0 0.0001301 5588.70361 7074.01660
7309.0 0.0001368 5588.99268 6856.29688
7150.0 0.0001399 5589.27686 6693.66797
6964.0 0.0001436 5589.55664 6575.93896
6726.0 0.0001487 5589.83301 6497.45459
6690.0 0.0001495 5590.10596 6452.09131
6625.0 0.0001509 5590.37500 6435.06982
6626.0 0.0001509 5590.63965 6441.82471
6833.0 0.0001463 5590.90088 6470.48242
6854.0 0.0001459 5591.15723 6519.74023
6848.0 0.0001460 5591.40869 6589.18750
6948.0 0.0001439 5591.65625 6680.11328
7095.0 0.0001409 5591.90088 6797.29639
7244.0 0.0001380 5592.13818 6949.96240
7423.0 0.0001347 5592.37500 7149.54736
7699.0 0.0001299 5592.60449 7409.05225
7890.0 0.0001267 5592.83057 7723.34326
8165.0 0.0001225 5593.05273 8088.33984
8484.0 0.0001179 5593.26953 8481.31152
8743.0 0.0001144 5593.48242 8859.46289
9042.0 0.0001106 5593.69043 9159.00293
9175.0 0.0001090 5593.89355 9310.97461
9111.0 0.0001098 5594.09082 9275.19043
9148.0 0.0001093 5594.28516 9070.79395
8754.0 0.0001142 5594.47363 8762.38770
8612.0 0.0001161 5594.65918 8423.52148
8499.0 0.0001177 5594.83887 8112.11475
8270.0 0.0001209 5595.01221 7866.56445
8255.0 0.0001211 5595.18164 7710.14893
8310.0 0.0001203 5595.34766 7655.00830
8468.0 0.0001181 5595.50879 7703.47412
8578.0 0.0001166 5595.66064 7849.71436
8779.0 0.0001139 5595.81201 8080.89746
8681.0 0.0001152 5595.95654 8376.65430
8666.0 0.0001154 5596.09521 8704.15430
8680.0 0.0001152 5596.23047 9010.17578
8612.0 0.0001161 5596.35889 9222.42773
8627.0 0.0001159 5596.48242 9276.86426
8342.0 0.0001199 5596.60254 9163.50488
8329.0 0.0001201 5596.71729 8939.18457
8146.0 0.0001228 5596.82324 8689.44824
8073.0 0.0001239 5596.92822 8488.95313
8033.0 0.0001245 5597.02490 8388.71289
7983.0 0.0001253 5597.11816 8417.65820
8184.0 0.0001222 5597.20410 8585.83496
8625.0 0.0001159 5597.28467 8887.31445
9243.0 0.0001082 5597.35986 9303.89551
10033.0 0.0000997 5597.42871 9807.91016
11277.0 0.0000887 5597.49463 10358.32520
12560.0 0.0000796 5597.55518 10891.37598
13790.0 0.0000725 5597.60693 11315.31738
14123.0 0.0000708 5597.65527 11527.39258
13916.0 0.0000719 5597.69727 11459.20898
13107.0 0.0000763 5597.73291 11119.02832
11679.0 0.0000856 5597.76318 10585.71387
10286.0 0.0000972 5597.78857 9961.45117
9197.0 0.0001087 5597.80811 9330.88086
8275.0 0.0001208 5597.82129 8748.58105
7733.0 0.0001293 5597.82764 8243.95898
7298.0 0.0001370 5597.83008 7829.76514
7252.0 0.0001379 5597.82471 7507.72998
7104.0 0.0001408 5597.81299 7275.08984
7106.0 0.0001407 5597.79834 7128.24854
7058.0 0.0001417 5597.77686 7064.83691
7124.0 0.0001404 5597.74902 7089.64697
7544.0 0.0001326 5597.71289 7214.51074
7772.0 0.0001287 5597.67188 7458.01172
8045.0 0.0001243 5597.62549 7842.61133
8476.0 0.0001180 5597.57227 8388.87012
8964.0 0.0001116 5597.51367 9102.20898
9581.0 0.0001044 5597.44873 9968.25195
10369.0 0.0000964 5597.37646 10937.25000
11016.0 0.0000908 5597.29883 11911.05566
11704.0 0.0000854 5597.21484 12733.14551
12019.0 0.0000832 5597.12549 13209.41895
12073.0 0.0000828 5597.02930 13194.23828
11756.0 0.0000851 5596.92529 12693.15039
11157.0 0.0000896 5596.81543 11859.55957
10549.0 0.0000948 5596.69971 10884.08301
9808.0 0.0001020 5596.57813 9919.25586
9330.0 0.0001072 5596.44922 9057.31348
8754.0 0.0001142 5596.31494 8342.55762
8331.0 0.0001200 5596.17383 7785.74658
7997.0 0.0001250 5596.02539 7376.94678
7705.0 0.0001298 5595.87109 7096.38184
7557.0 0.0001323 5595.70996 6922.37549
7274.0 0.0001375 5595.54248 6836.68896
7099.0 0.0001409 5595.36914 6824.12842
7184.0 0.0001392 5595.18750 6875.11621
7142.0 0.0001400 5595.00000 6980.68262
7164.0 0.0001396 5594.80615 7128.73779
7181.0 0.0001393 5594.60498 7308.72266
7219.0 0.0001385 5594.39795 7493.91309
7217.0 0.0001386 5594.18457 7649.54248
7028.0 0.0001423 5593.96289 7734.40039
7083.0 0.0001412 5593.73584 7715.89844
6998.0 0.0001429 5593.50342 7590.27441
6889.0 0.0001452 5593.26025 7386.09863
6902.0 0.0001449 5593.01318 7145.08203
6526.0 0.0001532 5592.75879 6902.63281
6410.0 0.0001560 5592.49707 6681.72266
6306.0 0.0001586 5592.22900 6494.50195
6173.0 0.0001620 5591.95410 6345.21533
6056.0 0.0001651 5591.67139 6232.66943
6020.0 0.0001661 5591.38379 6152.34033
5944.0 0.0001682 5591.08838 6098.15332
5985.0 0.0001671 5590.78564 6063.82422
5953.0 0.0001680 5590.47510 6043.60840
5986.0 0.0001671 5590.15674 6032.64648
5800.0 0.0001724 5589.83594 6027.34570
5922.0 0.0001689 5589.50488 6025.99268
5818.0 0.0001719 5589.16699 6029.10205
5834.0 0.0001714 5588.82080 6038.78564
5829.0 0.0001716 5588.47217 6057.52148
5878.0 0.0001701 5588.11133 6087.60352
6067.0 0.0001648 5587.74609 6129.43018
6106.0 0.0001638 5587.37451 6183.12158
6253.0 0.0001599 5586.99414 6246.80957
6510.0 0.0001536 5586.60596 6316.26465
6828.0 0.0001465 5586.21094 6384.16162
7103.0 0.0001408 5585.81055 6440.76025
7150.0 0.0001399 5585.40430 6473.54346
7259.0 0.0001378 5584.98633 6476.64746
6957.0 0.0001437 5584.56592 6451.87939
6748.0 0.0001482 5584.13477 6411.17188
6510.0 0.0001536 5583.69971 6366.96191
6307.0 0.0001586 5583.25488 6330.37354
6200.0 0.0001613 5582.80420 6308.92285
6312.0 0.0001584 5582.34473 6306.75049
6165.0 0.0001622 5581.88037 6324.96484
6284.0 0.0001591 5581.40869 6361.85938
6176.0 0.0001619 5580.92725 6412.75977
6291.0 0.0001590 5580.43994 6474.02197
6287.0 0.0001591 5579.94482 6528.99951
6394.0 0.0001564 5579.44482 6572.81738
6368.0 0.0001570 5578.93457 6598.55420
6419.0 0.0001558 5578.41895 6601.84521
6378.0 0.0001568 5577.89453 6582.64551
6228.0 0.0001606 5577.36377 6546.91260
6298.0 0.0001588 5576.82666 6501.60010
6272.0 0.0001594 5576.28174 6454.38818
6096.0 0.0001640 5575.72998 6413.44727
6012.0 0.0001663 5575.16943 6369.36328
6152.0 0.0001625 5574.60449 6325.73633
6129.0 0.0001632 5574.02881 6280.71143
6015.0 0.0001663 5573.44678 6235.08203
6136.0 0.0001630 5572.85840 6188.16309
5915.0 0.0001691 5572.26074 6141.36475
5963.0 0.0001677 5571.65918 6097.07813
5980.0 0.0001672 5571.04785 6057.71875
5861.0 0.0001706 5570.42969 6024.62939
5825.0 0.0001717 5569.80518 5998.56396
5871.0 0.0001703 5569.17188 5979.54834
5783.0 0.0001729 5568.53076 5967.63525
5772.0 0.0001733 5567.88428 5961.70215
5918.0 0.0001690 5567.23193 5961.67090
5873.0 0.0001703 5566.56934 5967.17090
5888.0 0.0001698 5565.89941 5977.98730
5896.0 0.0001696 5565.22412 5994.14063
5923.0 0.0001688 5564.53906 6016.02783
6008.0 0.0001664 5563.84766 6044.51953
6013.0 0.0001663 5563.14990 6084.56201
6176.0 0.0001619 5562.44385 6130.47998
6278.0 0.0001593 5561.73096 6187.65625
6432.0 0.0001555 5561.00977 6258.04199
6506.0 0.0001537 5560.28418 6343.76709
6676.0 0.0001498 5559.54980 6446.87207
6848.0 0.0001460 5558.80762 6569.39111
7112.0 0.0001406 5558.05566 6712.77783
7549.0 0.0001325 5557.30078 6877.52637
7769.0 0.0001287 5556.53613 7062.66992
7950.0 0.0001258 5555.76270 7268.90137
8289.0 0.0001206 5554.98682 7498.14600
8751.0 0.0001143 5554.20166 7759.25146
9153.0 0.0001093 5553.40674 8056.60010
9688.0 0.0001032 5552.60986 8400.74316
10403.0 0.0000961 5551.79980 8793.01953
11051.0 0.0000905 5550.98340 9223.10059
11955.0 0.0000836 5550.16357 9664.26855
12668.0 0.0000789 5549.33398 10066.89648
13070.0 0.0000765 5548.49805 10377.94141
12983.0 0.0000770 5547.65479 10536.58105
12690.0 0.0000788 5546.80273 10515.20313
12066.0 0.0000829 5545.94336 10329.06836
11315.0 0.0000884 5545.07959 10023.47168
10558.0 0.0000947 5544.20703 9647.90332
9941.0 0.0001006 5543.32813 9239.83203
9382.0 0.0001066 5542.44092 8824.50781
8881.0 0.0001126 5541.54834 8422.02344
8186.0 0.0001222 5540.64600 8051.28223
7782.0 0.0001285 5539.73877 7728.48975
7530.0 0.0001328 5538.82324 7464.27197
7172.0 0.0001394 5537.89990 7262.93701
7031.0 0.0001422 5536.97119 7123.53516
6709.0 0.0001491 5536.03418 7041.20215
6802.0 0.0001470 5535.09131 7008.71533
6761.0 0.0001479 5534.13916 7014.30859
6814.0 0.0001468 5533.18115 7047.23975
6759.0 0.0001480 5532.21680 7097.40332
6876.0 0.0001454 5531.24707 7159.06396
6794.0 0.0001472 5530.26660 7226.88525
6939.0 0.0001441 5529.28223 7302.18115
7260.0 0.0001377 5528.28809 7386.42578
7479.0 0.0001337 5527.28857 7477.16846
7825.0 0.0001278 5526.28271 7563.35254
8030.0 0.0001245 5525.26904 7626.19434
8340.0 0.0001199 5524.24756 7648.66406
8243.0 0.0001213 5523.22119 7628.99316
8187.0 0.0001221 5522.18750 7584.78516
8237.0 0.0001214 5521.14502 7542.70703
8225.0 0.0001216 5520.09814 7525.18066
8535.0 0.0001172 5519.04248 7543.82275
8451.0 0.0001183 5517.98047 7598.18848
8597.0 0.0001163 5516.91162 7675.74609
8735.0 0.0001145 5515.83643 7753.26074
8811.0 0.0001135 5514.75293 7803.79932
8696.0 0.0001150 5513.66553 7811.31592
8584.0 0.0001165 5512.57129 7778.88037
8374.0 0.0001194 5511.46875 7739.91064
8273.0 0.0001209 5510.35986 7720.03906
8291.0 0.0001206 5509.24365 7739.56006
8466.0 0.0001181 5508.12207 7805.37988
8616.0 0.0001161 5506.99219 7909.88379
8968.0 0.0001115 5505.85742 8032.40723
9161.0 0.0001092 5504.71582 8144.24707
9249.0 0.0001081 5503.56689 8216.72656
8965.0 0.0001115 5502.41162 8226.07520
8683.0 0.0001152 5501.24951 8158.11621
8453.0 0.0001183 5500.08203 8012.94287
7926.0 0.0001262 5498.90771 7807.70654
7731.0 0.0001293 5497.72705 7570.21436
7149.0 0.0001399 5496.53809 7328.21338
7117.0 0.0001405 5495.34473 7101.80322
6778.0 0.0001475 5494.14502 6901.45654
6687.0 0.0001495 5492.93799 6730.11328
6595.0 0.0001516 5491.72461 6586.88477
6362.0 0.0001572 5490.50488 6470.96680
6311.0 0.0001585 5489.27832 6378.61670
6152.0 0.0001625 5488.04785 6308.91846
6175.0 0.0001619 5486.81006 6259.28857
6104.0 0.0001638 5485.56689 6226.47412
6118.0 0.0001635 5484.31543 6206.71973
6129.0 0.0001632 5483.05859 6195.81836
6022.0 0.0001661 5481.79736 6189.79736
6016.0 0.0001662 5480.52734 6185.18457
6041.0 0.0001655 5479.25244 6179.60107
6054.0 0.0001652 5477.96973 6172.13037
6124.0 0.0001633 5476.68359 6162.85303
6079.0 0.0001645 5475.38965 6155.52588
6086.0 0.0001643 5474.09131 6152.02930
6121.0 0.0001634 5472.78516 6154.56934
6237.0 0.0001603 5471.47559 6164.93750
6221.0 0.0001607 5470.15869 6184.49463
6391.0 0.0001565 5468.83447 6214.49023
6322.0 0.0001582 5467.50732 6255.95654
6495.0 0.0001540 5466.17188 6310.52295
6734.0 0.0001485 5464.83154 6380.45020
6753.0 0.0001481 5463.48584 6469.12012
7042.0 0.0001420 5462.13574 6581.55078
7219.0 0.0001385 5460.77588 6724.53516
7536.0 0.0001327 5459.41504 6909.29883
7781.0 0.0001285 5458.04443 7149.15918
8223.0 0.0001216 5456.67139 7462.37305
8725.0 0.0001146 5455.29443 7866.17627
9395.0 0.0001064 5453.90869 8380.56250
10094.0 0.0000991 5452.51855 9020.96582
11016.0 0.0000908 5451.12109 9794.92480
11889.0 0.0000841 5449.71875 10695.78223
12986.0 0.0000770 5448.31250 11694.22754
14093.0 0.0000710 5446.90234 12731.77441
15081.0 0.0000663 5445.48242 13727.66211
15816.0 0.0000632 5444.06006 14607.50488
16094.0 0.0000621 5442.63281 15333.80176
16067.0 0.0000622 5441.19824 15901.96191
15573.0 0.0000642 5439.76074 16311.22754
15312.0 0.0000653 5438.31689 16559.98633
15087.0 0.0000663 5436.86719 16665.41211
14913.0 0.0000671 5435.41357 16656.59961
15036.0 0.0000665 5433.95605 16541.03516
14882.0 0.0000672 5432.49121 16300.27246
14849.0 0.0000673 5431.02344 15927.44727
14812.0 0.0000675 5429.55029 15456.10645
14567.0 0.0000686 5428.07129 14942.38086
14089.0 0.0000710 5426.58789 14424.94238
13625.0 0.0000734 5425.09863 13903.07910
13165.0 0.0000760 5423.60645 13340.81738
12650.0 0.0000791 5422.10791 12695.75586
12105.0 0.0000826 5420.60498 11957.13281
11186.0 0.0000894 5419.09912 11168.76172
10628.0 0.0000941 5417.58643 10388.23242
9971.0 0.0001003 5416.07080 9663.53320
9438.0 0.0001060 5414.54785 9020.32031
8863.0 0.0001128 5413.02393 8466.61816
8576.0 0.0001166 5411.49414 8002.91797
8104.0 0.0001234 5409.95850 7626.78369
7816.0 0.0001279 5408.42188 7333.48389
7573.0 0.0001320 5406.87891 7114.96484
7500.0 0.0001333 5405.33154 6960.79053
7465.0 0.0001340 5403.77930 6859.52490
7374.0 0.0001356 5402.22461 6799.50781
7227.0 0.0001384 5400.66309 6768.75635
7188.0 0.0001391 5399.09912 6754.51611
7239.0 0.0001381 5397.53174 6742.91748
7120.0 0.0001404 5395.95850 6722.66797
6968.0 0.0001435 5394.38428 6685.58838
6971.0 0.0001435 5392.80078 6630.82080
6790.0 0.0001473 5391.21777 6563.33545
6743.0 0.0001483 5389.62891 6490.21777
6602.0 0.0001515 5388.03857 6417.26221
6714.0 0.0001489 5386.44043 6347.41406
6473.0 0.0001545 5384.84277 6281.15283
6324.0 0.0001581 5383.23975 6217.00000
6336.0 0.0001578 5381.63135 6155.39893
6157.0 0.0001624 5380.02197 6095.81982
6159.0 0.0001624 5378.40869 6038.37891
5932.0 0.0001686 5376.78857 5983.81055
5806.0 0.0001722 5375.16846 5930.69287
5829.0 0.0001716 5373.54443 5880.59180
5813.0 0.0001720 5371.91504 5834.84912
5626.0 0.0001777 5370.28516 5794.01074
5681.0 0.0001760 5368.64844 5758.60840
5624.0 0.0001778 5367.01123 5728.70508
5750.0 0.0001739 5365.37109 5703.98438
5713.0 0.0001750 5363.72559 5683.97656
5560.0 0.0001799 5362.07813 5668.17773
5668.0 0.0001764 5360.42627 5655.93799
5780.0 0.0001730 5358.77441 5646.67578
5671.0 0.0001763 5357.11621 5639.71777
5652.0 0.0001769 5355.45898 5634.29053
5750.0 0.0001739 5353.79639 5629.54199
5730.0 0.0001745 5352.13086 5624.63086
5746.0 0.0001740 5350.46240 5618.96924
5809.0 0.0001721 5348.78955 5613.64014
5621.0 0.0001779 5347.11816 5606.57715
5565.0 0.0001797 5345.44043 5599.55273
5443.0 0.0001837 5343.76123 5593.15869
5530.0 0.0001808 5342.08057 5587.86621
5544.0 0.0001804 5340.39648 5583.57373
5624.0 0.0001778 5338.70898 5581.40625
5446.0 0.0001836 5337.02051 5581.11084
5585.0 0.0001791 5335.33105 5583.19238
5521.0 0.0001811 5333.63525 5587.11133
5453.0 0.0001834 5331.94092 5593.38086
5507.0 0.0001816 5330.24219 5602.18994
5685.0 0.0001759 5328.54199 5613.84180
5630.0 0.0001776 5326.83984 5628.64063
5504.0 0.0001817 5325.13574 5647.64990
5640.0 0.0001773 5323.42969 5666.89844
5603.0 0.0001785 5321.72021 5696.05811
5720.0 0.0001748 5320.01074 5733.33594
5837.0 0.0001713 5318.29736 5781.43164
5844.0 0.0001711 5316.58496 5843.37598
5964.0 0.0001677 5314.86914 5921.66895
6050.0 0.0001653 5313.14990 6020.29541
6118.0 0.0001635 5311.43213 6140.88916
6089.0 0.0001642 5309.70996 6285.43506
6321.0 0.0001582 5307.98828 6451.04150
6394.0 0.0001564 5306.26318 6634.62939
6372.0 0.0001569 5304.53809 6828.05713
6597.0 0.0001516 5302.81152 7018.93896
6809.0 0.0001469 5301.08398 7192.67773
6905.0 0.0001448 5299.35303 7336.35498
7024.0 0.0001424 5297.62207 7441.52979
7072.0 0.0001414 5295.88916 7503.56543
7057.0 0.0001417 5294.15771 7520.17383
7145.0 0.0001400 5292.42285 7491.72461
7096.0 0.0001409 5290.68799 7427.66309
6867.0 0.0001456 5288.95264 7344.96338
6753.0 0.0001481 5287.21436 7263.85840
6648.0 0.0001504 5285.47607 7201.68408
6485.0 0.0001542 5283.73584 7166.62939
6525.0 0.0001533 5281.99707 7158.33936
6596.0 0.0001516 5280.25830 7165.71973
6616.0 0.0001511 5278.51367 7168.07813
6500.0 0.0001538 5276.77295 7139.71484
6428.0 0.0001556 5275.03027 7060.68555
6482.0 0.0001543 5273.28809 6928.04785
6370.0 0.0001570 5271.54541 6756.54248
6358.0 0.0001573 5269.80127 6568.34229
6102.0 0.0001639 5268.05811 6383.00342
5953.0 0.0001680 5266.31201 6213.78613
5866.0 0.0001705 5264.56885 6068.21436
5843.0 0.0001711 5262.82227 5949.57178
5832.0 0.0001715 5261.07764 5858.21240
5751.0 0.0001739 5259.33203 5792.53906
5687.0 0.0001758 5257.58691 5749.90039
5771.0 0.0001733 5255.84180 5727.30664
5737.0 0.0001743 5254.09619 5722.01123
5716.0 0.0001749 5252.35254 5731.86621
5720.0 0.0001748 5250.60742 5755.41113
5614.0 0.0001781 5248.86279 5791.97510
5747.0 0.0001740 5247.11719 5842.03516
5879.0 0.0001701 5245.37305 5908.19141
5794.0 0.0001726 5243.63135 5993.62305
5868.0 0.0001704 5241.88721 6102.77588
5859.0 0.0001707 5240.14307 6237.65967
5833.0 0.0001714 5238.40137 6396.16113
5833.0 0.0001714 5236.66016 6570.61572
5942.0 0.0001683 5234.91992 6744.83350
5876.0 0.0001702 5233.18018 6894.74463
5953.0 0.0001680 5231.43994 6992.06055
5873.0 0.0001703 5229.70215 7013.51807
5917.0 0.0001690 5227.96387 6952.42627
5875.0 0.0001702 5226.22705 6821.85791
5786.0 0.0001728 5224.49170 6647.34082
5697.0 0.0001755 5222.75879 6456.05713
5648.0 0.0001771 5221.02490 6269.61475
5566.0 0.0001797 5219.29102 6102.09961
5552.0 0.0001801 5217.56055 5961.04883
5529.0 0.0001809 5215.83008 5849.00293
5527.0 0.0001809 5214.10156 5764.88428
5341.0 0.0001872 5212.37451 5705.13428
5498.0 0.0001819 5210.64746 5664.76416
5469.0 0.0001828 5208.92480 5638.32764
5301.0 0.0001886 5207.20020 5620.89551
5394.0 0.0001854 5205.47900 5609.03467
5299.0 0.0001887 5203.76074 5601.40771
5288.0 0.0001891 5202.04248 5598.59619
5323.0 0.0001879 5200.32422 5602.21387
5389.0 0.0001856 5198.61133 5613.84814
5483.0 0.0001824 5196.90039 5634.25586
5386.0 0.0001857 5195.18945 5662.87158
5421.0 0.0001845 5193.48193 5697.45752
5400.0 0.0001852 5191.77295 5734.75146
5393.0 0.0001854 5190.06934 5765.86133
5480.0 0.0001825 5188.36621 5783.67920
5483.0 0.0001824 5186.66699 5781.46045
5374.0 0.0001861 5184.96875 5757.66211
5275.0 0.0001896 5183.27246 5716.89893
5260.0 0.0001901 5181.57959 5666.95020
5262.0 0.0001900 5179.89014 5615.14014
5251.0 0.0001904 5178.20068 5566.67578
5242.0 0.0001908 5176.51514 5524.58643
5258.0 0.0001902 5174.83154 5490.15283
5348.0 0.0001870 5173.15088 5463.32568
5230.0 0.0001912 5171.47363 5443.08350
5190.0 0.0001927 5169.79785 5427.88770
5195.0 0.0001925 5168.12549 5416.21191
5097.0 0.0001962 5166.45703 5407.00830
5190.0 0.0001927 5164.79199 5399.40576
5225.0 0.0001914 5163.12598 5394.63818
5216.0 0.0001917 5161.46387 5392.59473
5139.0 0.0001946 5159.80762 5392.62305
5134.0 0.0001948 5158.15283 5395.29932
5209.0 0.0001920 5156.50244 5400.43701
5224.0 0.0001914 5154.85400 5407.58545
5231.0 0.0001912 5153.20947 5415.98486
5190.0 0.0001927 5151.56738 5424.72363
5302.0 0.0001886 5149.92822 5433.14502
5246.0 0.0001906 5148.29492 5441.27832
5358.0 0.0001866 5146.66455 5450.07178
5408.0 0.0001849 5145.03467 5460.92383
5342.0 0.0001872 5143.41064 5475.14111
5422.0 0.0001844 5141.79053 5493.53125
5392.0 0.0001855 5140.17529 5516.28906
5615.0 0.0001781 5138.56006 5542.93750
5592.0 0.0001788 5136.95264 5569.82568
5585.0 0.0001791 5135.34668 5600.90869
5639.0 0.0001773 5133.74609 5634.42383
5767.0 0.0001734 5132.14795 5667.96484
5708.0 0.0001752 5130.55469 5706.16748
5840.0 0.0001712 5128.96484 5753.93457
5902.0 0.0001694 5127.37842 5816.59766
5968.0 0.0001676 5125.79688 5898.92627
6078.0 0.0001645 5124.22119 6003.87793
6282.0 0.0001592 5122.64746 6131.96289
6513.0 0.0001535 5121.08105 6280.55176
6620.0 0.0001511 5119.51611 6442.85254
6758.0 0.0001480 5117.95459 6606.84180
6973.0 0.0001434 5116.39941 6752.23633
7155.0 0.0001398 5114.85059 6867.20117
7299.0 0.0001370 5113.30176 6937.53516
7324.0 0.0001365 5111.76172 6966.61523
7441.0 0.0001344 5110.22559 6969.66699
7302.0 0.0001369 5108.69336 6967.54395
7313.0 0.0001367 5107.16553 6972.04492
7293.0 0.0001371 5105.64209 6989.10059
7270.0 0.0001376 5104.12402 7014.93701
7098.0 0.0001409 5102.61035 7039.35498
7049.0 0.0001419 5101.10400 7049.75830
6879.0 0.0001454 5099.60107 7035.74756
6711.0 0.0001490 5098.10498 6991.60840
6463.0 0.0001547 5096.61035 6923.49561
6503.0 0.0001538 5095.12354 6839.27344
6291.0 0.0001590 5093.64014 6750.48193
6266.0 0.0001596 5092.16406 6668.46338
6208.0 0.0001611 5090.69189 6603.46582
6238.0 0.0001603 5089.22607 6563.48682
6258.0 0.0001598 5087.76563 6552.77539
6328.0 0.0001580 5086.31006 6570.74951
6456.0 0.0001549 5084.86035 6611.46729
6783.0 0.0001474 5083.41504 6663.44531
7097.0 0.0001409 5081.97705 6710.65771
7313.0 0.0001367 5080.54248 6736.83740
7139.0 0.0001401 5079.11621 6733.16357
7162.0 0.0001396 5077.69336 6703.73047
6915.0 0.0001446 5076.27734 6662.11719
6829.0 0.0001464 5074.86670 6626.34131
6754.0 0.0001481 5073.46289 6607.39063
6577.0 0.0001520 5072.06299 6609.15527
6505.0 0.0001537 5070.67090 6628.48291
6359.0 0.0001573 5069.28418 6655.90869
6370.0 0.0001570 5067.90381 6679.40234
6246.0 0.0001601 5066.52881 6690.01123
6278.0 0.0001593 5065.15967 6686.07471
6294.0 0.0001589 5063.79834 6671.47705
6156.0 0.0001624 5062.44189 6649.97900
6112.0 0.0001636 5061.09131 6622.01025
6134.0 0.0001630 5059.74951 6585.90039
6026.0 0.0001659 5058.41113 6539.98877
6084.0 0.0001644 5057.08154 6482.36768
5897.0 0.0001696 5055.75586 6409.68359
6050.0 0.0001653 5054.43848 6318.45166
5914.0 0.0001691 5053.12842 6208.83252
5835.0 0.0001714 5051.82178 6086.03711
5866.0 0.0001705 5050.52490 5959.04004
5649.0 0.0001770 5049.23193 5837.89307
5782.0 0.0001730 5047.94678 5725.72949
5655.0 0.0001768 5046.66943 5627.41943
5613.0 0.0001782 5045.39697 5544.31250
5418.0 0.0001846 5044.13330 5476.45557
5479.0 0.0001825 5042.87646 5423.60303
5471.0 0.0001828 5041.62402 5383.72656
5517.0 0.0001813 5040.38086 5356.16650
5413.0 0.0001847 5039.14307 5339.90186
5449.0 0.0001835 5037.91406 5334.14941
5376.0 0.0001860 5036.68799 5337.88135
5539.0 0.0001805 5035.47314 5351.55322
5678.0 0.0001761 5034.26563 5374.13574
5604.0 0.0001784 5033.06348 5404.70410
5674.0 0.0001762 5031.86865 5441.69873
5781.0 0.0001730 5030.68213 5481.41211
5795.0 0.0001726 5029.50098 5522.22852
5927.0 0.0001687 5028.32813 5556.76318
5960.0 0.0001678 5027.16309 5578.49609
5876.0 0.0001702 5026.00488 5581.90771
5814.0 0.0001720 5024.85352 5565.54053
5777.0 0.0001731 5023.70996 5532.86084
5743.0 0.0001741 5022.57422 5490.18701
5740.0 0.0001742 5021.44482 5443.89600
5664.0 0.0001766 5020.32568 5398.70605
5601.0 0.0001785 5019.21191 5357.81836
5676.0 0.0001762 5018.10596 5323.16260
5572.0 0.0001795 5017.00684 5295.81592
5464.0 0.0001830 5015.91553 5276.42822
5424.0 0.0001844 5014.83398 5264.96533
5421.0 0.0001845 5013.76025 5261.54248
5328.0 0.0001877 5012.69287 5266.12842
5331.0 0.0001876 5011.63379 5278.75049
5371.0 0.0001862 5010.58105 5299.48438
5294.0 0.0001889 5009.53711 5328.41357
5440.0 0.0001838 5008.50488 5365.47314
5442.0 0.0001838 5007.47314 5410.29639
5455.0 0.0001833 5006.45508 5461.77979
5586.0 0.0001790 5005.44238 5517.95361
5770.0 0.0001733 5004.43848 5575.43506
5698.0 0.0001755 5003.44189 5629.29590
5831.0 0.0001715 5002.45508 5674.29590
5828.0 0.0001716 5001.47559 5704.22217
5872.0 0.0001703 5000.50391 5717.54346
5789.0 0.0001727 4999.53906 5716.59863
5640.0 0.0001773 4998.58496 5701.47900
5638.0 0.0001774 4997.63818 5675.95508
5545.0 0.0001803 4996.69824 5641.67188
5439.0 0.0001839 4995.76758 5600.62988
5417.0 0.0001846 4994.84473 5554.01172
5379.0 0.0001859 4993.93115 5505.60840
5346.0 0.0001871 4993.02490 5458.78711
5402.0 0.0001851 4992.12744 5416.25244
5253.0 0.0001904 4991.23877 5379.76025
5321.0 0.0001879 4990.35938 5350.25684
5316.0 0.0001881 4989.48682 5328.69580
5389.0 0.0001856 4988.62158 5314.32324
5327.0 0.0001877 4987.76807 5309.07227
5381.0 0.0001858 4986.92090 5311.32861
5427.0 0.0001843 4986.08252 5323.18506
5430.0 0.0001842 4985.25293 5346.13867
5339.0 0.0001873 4984.43164 5382.19189
5624.0 0.0001778 4983.61963 5433.72021
5607.0 0.0001783 4982.81592 5503.22559
5785.0 0.0001729 4982.01953 5593.20557
5762.0 0.0001736 4981.23438 5704.52979
5912.0 0.0001691 4980.45508 5837.42090
6098.0 0.0001640 4979.68652 5989.63574
6212.0 0.0001610 4978.92773 6155.75977
6604.0 0.0001514 4978.17578 6325.97412
6726.0 0.0001487 4977.43164 6484.89453
6813.0 0.0001468 4976.69629 6611.81543
6866.0 0.0001456 4975.97266 6684.93604
6817.0 0.0001467 4975.25293 6690.02832
6730.0 0.0001486 4974.54639 6628.25098
6521.0 0.0001534 4973.84668 6515.66846
6463.0 0.0001547 4973.15771 6374.97949
6364.0 0.0001571 4972.47607 6227.16650
6231.0 0.0001605 4971.80420 6087.43848
6080.0 0.0001645 4971.13916 5965.57813
5994.0 0.0001668 4970.48389 5866.86816
5969.0 0.0001675 4969.83984 5793.33350
5924.0 0.0001688 4969.20215 5744.69971
5927.0 0.0001687 4968.57422 5719.39111
5903.0 0.0001694 4967.95410 5715.83936
5957.0 0.0001679 4967.34521 5732.49170
6173.0 0.0001620 4966.74414 5769.13281
6098.0 0.0001640 4966.15234 5825.44434
6106.0 0.0001638 4965.57031 5900.57080
6292.0 0.0001589 4964.99414 5992.96191
6200.0 0.0001613 4964.43018 6100.82324
6416.0 0.0001559 4963.87500 6222.66650
6268.0 0.0001595 4963.32764 6357.10742
6498.0 0.0001539 4962.78857 6501.41016
6330.0 0.0001580 4962.26074 6649.19385
6506.0 0.0001537 4961.74121 6792.28467
6482.0 0.0001543 4961.23145 6921.31689
6576.0 0.0001521 4960.72852 7034.14502
6747.0 0.0001482 4960.23633 7138.87695
6915.0 0.0001446 4959.75195 7250.07617
7190.0 0.0001391 4959.27686 7380.80908
7507.0 0.0001332 4958.81299 7536.27637
8207.0 0.0001218 4958.35742 7710.54834
8968.0 0.0001115 4957.91064 7885.45605
9609.0 0.0001041 4957.47217 8032.16309
10058.0 0.0000994 4957.04248 8118.02002
9928.0 0.0001007 4956.62305 8118.53271
9690.0 0.0001032 4956.21289 8026.86182
9045.0 0.0001106 4955.81104 7855.26172
8183.0 0.0001222 4955.42041 7627.88770
7517.0 0.0001330 4955.03613 7373.33008
6994.0 0.0001430 4954.66309 7117.56836
6631.0 0.0001508 4954.29834 6881.76367
6427.0 0.0001556 4953.94189 6679.78906
6464.0 0.0001547 4953.59570 6518.92480
6296.0 0.0001588 4953.25879 6401.00928
6207.0 0.0001611 4952.93115 6322.68945
6221.0 0.0001607 4952.61084 6279.58301
6261.0 0.0001597 4952.30078 6261.74658
6293.0 0.0001589 4952.00000 6257.72705
6166.0 0.0001622 4951.70801 6255.13086
6281.0 0.0001592 4951.42627 6244.33789
6219.0 0.0001608 4951.15430 6217.03271
6208.0 0.0001611 4950.88916 6174.77393
6191.0 0.0001615 4950.63428 6123.50879
6123.0 0.0001633 4950.38721 6073.73584
6186.0 0.0001617 4950.15088 6029.35547
6092.0 0.0001641 4949.92334 5998.91309
6024.0 0.0001660 4949.70557 5986.84082
6074.0 0.0001646 4949.49658 5995.78662
6055.0 0.0001652 4949.29443 6025.99805
6183.0 0.0001617 4949.10254 6078.58398
6146.0 0.0001627 4948.92188 6150.56934
6219.0 0.0001608 4948.74854 6237.52588
6321.0 0.0001582 4948.58447 6332.28613
6356.0 0.0001573 4948.42920 6425.42969
6464.0 0.0001547 4948.28271 6504.32617
6418.0 0.0001558 4948.14600 6556.58594
6515.0 0.0001535 4948.01904 6574.05859
6450.0 0.0001550 4947.89941 6554.70361
6353.0 0.0001574 4947.78955 6507.85693
6377.0 0.0001568 4947.68701 6444.49756
6342.0 0.0001577 4947.59668 6376.63086
6195.0 0.0001614 4947.51270 6313.18066
6363.0 0.0001572 4947.43896 6259.15625
6246.0 0.0001601 4947.37305 6214.07031
6253.0 0.0001599 4947.31787 6174.89551
6129.0 0.0001632 4947.27051 6135.92041
6279.0 0.0001593 4947.23242 6091.75439
6260.0 0.0001597 4947.20313 6040.48096
6296.0 0.0001588 4947.18213 5985.26807
6165.0 0.0001622 4947.16992 5933.14746
6089.0 0.0001642 4947.16846 5892.39111
5976.0 0.0001673 4947.17432 5870.58008
6155.0 0.0001625 4947.18896 5874.00977
5912.0 0.0001691 4947.21436 5907.70264
5926.0 0.0001687 4947.24609 5975.36133
6035.0 0.0001657 4947.28418 6079.12354
6069.0 0.0001648 4947.33789 6219.05957
6080.0 0.0001645 4947.39404 6393.22266
6105.0 0.0001638 4947.46191 6593.90430
6226.0 0.0001606 4947.53906 6811.41016
6333.0 0.0001579 4947.62158 7028.89648
6533.0 0.0001531 4947.71582 7229.64355
6549.0 0.0001527 4947.81787 7387.53906
6642.0 0.0001506 4947.92725 7477.62695
6622.0 0.0001510 4948.04785 7482.73926
6646.0 0.0001505 4948.17578 7402.73145
6619.0 0.0001511 4948.31104 7256.30908
6606.0 0.0001514 4948.45508 7073.31201
6524.0 0.0001533 4948.60986 6882.94580
6492.0 0.0001540 4948.77051 6709.41113
6536.0 0.0001530 4948.93994 6569.53174
6517.0 0.0001534 4949.11816 6473.94092
6591.0 0.0001517 4949.30664 6428.58350
6730.0 0.0001486 4949.50098 6433.93115
6949.0 0.0001439 4949.70459 6487.82178
7294.0 0.0001371 4949.91699 6583.89795
7659.0 0.0001306 4950.13721 6711.72021
8165.0 0.0001225 4950.36523 6855.94971
8822.0 0.0001134 4950.60254 6995.67188
9278.0 0.0001078 4950.84668 7105.70947
9530.0 0.0001049 4951.10010 7162.05029
9550.0 0.0001047 4951.36230 7151.55273
9093.0 0.0001100 4951.63184 7078.61572
8662.0 0.0001154 4951.90918 6962.75244
7968.0 0.0001255 4952.19531 6829.04834
7399.0 0.0001352 4952.48730 6699.49951
6915.0 0.0001446 4952.79004 6589.35986
6580.0 0.0001520 4953.10059 6506.87744
6246.0 0.0001601 4953.41846 6454.10596
6169.0 0.0001621 4953.74121 6427.66602
6051.0 0.0001653 4954.07568 6420.06934
5992.0 0.0001669 4954.41699 6422.03320
5976.0 0.0001673 4954.76611 6427.18604
5947.0 0.0001682 4955.12256 6434.40771
5901.0 0.0001695 4955.48779 6447.56396
5925.0 0.0001688 4955.85840 6471.34131
5906.0 0.0001693 4956.23828 6507.96680
6071.0 0.0001647 4956.62646 6555.95264
5987.0 0.0001670 4957.02100 6610.86865
5947.0 0.0001682 4957.42480 6667.60889
6087.0 0.0001643 4957.83594 6722.79639
6113.0 0.0001636 4958.25244 6775.71680
6266.0 0.0001596 4958.67871 6825.32422
6470.0 0.0001546 4959.11084 6869.21094
6587.0 0.0001518 4959.55029 6900.96533
6687.0 0.0001495 4959.99805 6913.92920
6981.0 0.0001432 4960.45215 6904.25098
7223.0 0.0001384 4960.91553 6875.29834
7290.0 0.0001372 4961.38330 6832.11182
7643.0 0.0001308 4961.86133 6779.74512
7775.0 0.0001286 4962.34521 6720.19580
7890.0 0.0001267 4962.83447 6652.30664
7981.0 0.0001253 4963.33301 6575.07520
7553.0 0.0001324 4963.83838 6488.91602
7475.0 0.0001338 4964.35059 6397.91553
6986.0 0.0001431 4964.86865 6308.48535
6594.0 0.0001517 4965.39502 6225.35303
6296.0 0.0001588 4965.92725 6151.15039
6151.0 0.0001626 4966.46631 6085.14844
5985.0 0.0001671 4967.01318 6023.51367
5853.0 0.0001709 4967.56543 5961.74463
5722.0 0.0001748 4968.12549 5896.72266
5705.0 0.0001753 4968.69141 5828.30615
5618.0 0.0001780 4969.26514 5758.94043
5589.0 0.0001789 4969.84424 5692.03711
5516.0 0.0001813 4970.43164 5630.45410
5500.0 0.0001818 4971.02441 5575.83496
5483.0 0.0001824 4971.62451 5528.69727
5563.0 0.0001798 4972.22852 5488.72412
5528.0 0.0001809 4972.83984 5455.21582
5397.0 0.0001853 4973.45850 5427.45996
5417.0 0.0001846 4974.08398 5405.05176
5525.0 0.0001810 4974.71387 5387.93359
5531.0 0.0001808 4975.35059 5376.33740
5410.0 0.0001848 4975.99414 5373.69141
5569.0 0.0001796 4976.64307 5374.46436
5337.0 0.0001874 4977.29785 5381.18848
5401.0 0.0001852 4977.95801 5396.91797
5456.0 0.0001833 4978.62500 5421.54883
5440.0 0.0001838 4979.29932 5456.69531
5538.0 0.0001806 4979.97754 5503.17822
5546.0 0.0001803 4980.66162 5562.36572
5683.0 0.0001760 4981.35010 5635.97461
5688.0 0.0001758 4982.04736 5725.38818
5807.0 0.0001722 4982.74902 5831.64990
5925.0 0.0001688 4983.45605 5955.17578
6055.0 0.0001652 4984.16895 6095.13672
6247.0 0.0001601 4984.88770 6248.76709
6438.0 0.0001553 4985.61182 6410.80908
6581.0 0.0001520 4986.34033 6574.21973
6692.0 0.0001494 4987.07373 6729.75439
6894.0 0.0001451 4987.81494 6872.13379
6943.0 0.0001440 4988.55908 6998.34570
7005.0 0.0001428 4989.30859 7107.60156
7182.0 0.0001392 4990.06348 7196.31055
7141.0 0.0001400 4990.82568 7255.76807
7232.0 0.0001383 4991.58936 7271.46436
7204.0 0.0001388 4992.35889 7230.28369
6974.0 0.0001434 4993.13477 7128.92480
6864.0 0.0001457 4993.91553 6977.69531
6712.0 0.0001490 4994.70068 6796.11572
6574.0 0.0001521 4995.48828 6605.12109
6320.0 0.0001582 4996.28320 6422.10205
6183.0 0.0001617 4997.08203 6258.89941
6212.0 0.0001610 4997.88477 6122.92822
6128.0 0.0001632 4998.69189 6017.48926
5943.0 0.0001683 4999.50684 5942.67090
6022.0 0.0001661 5000.32324 5895.95898
6059.0 0.0001650 5001.14453 5872.84473
5975.0 0.0001674 5001.96924 5873.62207
5891.0 0.0001698 5002.79785 5879.37109
5794.0 0.0001726 5003.63379 5889.88379
5940.0 0.0001684 5004.47217 5899.56885
5845.0 0.0001711 5005.31445 5903.96826
5889.0 0.0001698 5006.16016 5899.96045
5837.0 0.0001713 5007.00928 5886.41602
5865.0 0.0001705 5007.86377 5863.82227
5802.0 0.0001724 5008.72168 5833.57666
5802.0 0.0001724 5009.58350 5797.47168
5789.0 0.0001727 5010.44873 5757.78857
5639.0 0.0001773 5011.31787 5717.53760
5716.0 0.0001749 5012.19043 5680.28320
5664.0 0.0001766 5013.06738 5649.68994
5507.0 0.0001816 5013.94727 5629.03955
5489.0 0.0001822 5014.83057 5621.07275
5641.0 0.0001773 5015.71777 5627.88623
5631.0 0.0001776 5016.60791 5651.02100
5718.0 0.0001749 5017.50049 5691.32178
5793.0 0.0001726 5018.39648 5748.81494
5705.0 0.0001753 5019.29688 5822.45947
5782.0 0.0001730 5020.20020 5909.80469
5826.0 0.0001716 5021.10449 6006.53271
5890.0 0.0001698 5022.01416 6105.97852
5962.0 0.0001677 5022.92676 6199.07666
6140.0 0.0001629 5023.84082 6275.83643
6137.0 0.0001629 5024.75732 6328.88184
6247.0 0.0001601 5025.67725 6357.47559
6281.0 0.0001592 5026.60059 6368.31982
6374.0 0.0001569 5027.52539 6372.25537
6500.0 0.0001538 5028.45361 6379.77441
6832.0 0.0001464 5029.38525 6398.26855
6957.0 0.0001437 5030.31689 6431.63477
7262.0 0.0001377 5031.25195 6481.35596
7394.0 0.0001352 5032.18896 6548.15723
7225.0 0.0001384 5033.12695 6631.79248
7275.0 0.0001375 5034.06982 6732.35400
7378.0 0.0001355 5035.01465 6844.55518
7304.0 0.0001369 5035.95996 6963.83838
7274.0 0.0001375 5036.90771 7084.93555
7229.0 0.0001383 5037.85840 7204.91455
7150.0 0.0001399 5038.81006 7322.88965
7117.0 0.0001405 5039.76367 7441.78369
7163.0 0.0001396 5040.71875 7566.03027
6973.0 0.0001434 5041.67529 7699.19629
6995.0 0.0001430 5042.63281 7840.16406
7105.0 0.0001407 5043.59424 7978.56934
7089.0 0.0001411 5044.55664 8099.92188
7059.0 0.0001417 5045.52002 8179.18750
7204.0 0.0001388 5046.48340 8193.82129
7122.0 0.0001404 5047.44971 8130.27197
7199.0 0.0001389 5048.41699 7991.83398
7191.0 0.0001391 5049.38379 7795.06055
6957.0 0.0001437 5050.35352 7564.08301
6962.0 0.0001436 5051.32471 7321.51807
6836.0 0.0001463 5052.29541 7084.29443
6596.0 0.0001516 5053.26855 6863.15576
6552.0 0.0001526 5054.24219 6663.69482
6414.0 0.0001559 5055.21533 6487.96631
6354.0 0.0001574 5056.18994 6336.37451
6272.0 0.0001594 5057.16504 6206.88330
6278.0 0.0001593 5058.14258 6097.41895
6113.0 0.0001636 5059.11768 6003.31836
5991.0 0.0001669 5060.09375 5924.07861
6026.0 0.0001659 5061.07275 5853.64355
5963.0 0.0001677 5062.05029 5788.61621
5872.0 0.0001703 5063.02686 5727.31104
5840.0 0.0001712 5064.00488 5669.63281
5778.0 0.0001731 5064.98389 5616.28662
5687.0 0.0001758 5065.96387 5568.05859
5620.0 0.0001779 5066.94336 5525.47705
5494.0 0.0001820 5067.92090 5488.94238
5579.0 0.0001792 5068.90088 5457.97607
5465.0 0.0001830 5069.87744 5432.51074
5457.0 0.0001833 5070.85645 5412.16162
5423.0 0.0001844 5071.83398 5396.48535
5435.0 0.0001840 5072.81152 5385.04443
5417.0 0.0001846 5073.78955 5377.46533
5425.0 0.0001843 5074.76807 5373.66992
5433.0 0.0001841 5075.74268 5373.08105
5295.0 0.0001889 5076.71777 5375.89893
5315.0 0.0001881 5077.69238 5382.29785
5360.0 0.0001866 5078.66846 5392.54004
5306.0 0.0001885 5079.64160 5407.66064
5308.0 0.0001884 5080.61426 5427.03857
5398.0 0.0001853 5081.58545 5451.85352
5453.0 0.0001834 5082.55518 5482.70654
5531.0 0.0001808 5083.52637 5520.11719
5399.0 0.0001852 5084.49658 5564.36963
5524.0 0.0001810 5085.46289 5615.35986
5605.0 0.0001784 5086.43018 5672.47900
5779.0 0.0001730 5087.39404 5734.06104
5881.0 0.0001700 5088.35791 5797.98486
5994.0 0.0001668 5089.32178 5861.54639
6280.0 0.0001592 5090.28174 5921.93408
6321.0 0.0001582 5091.24316 5976.44482
6387.0 0.0001566 5092.19873 6022.25537
6513.0 0.0001535 5093.15625 6056.34033
6661.0 0.0001501 5094.10986 6076.03027
6566.0 0.0001523 5095.06445 6080.27734
6513.0 0.0001535 5096.01563 6069.46777
6331.0 0.0001580 5096.96484 6050.08838
6221.0 0.0001607 5097.91064 6026.52344
6108.0 0.0001637 5098.85596 6004.36816
5949.0 0.0001681 5099.80029 5987.55322
6088.0 0.0001643 5100.74072 5979.07129
5956.0 0.0001679 5101.67871 5979.37451
6037.0 0.0001656 5102.61768 5988.40918
5953.0 0.0001680 5103.55176 6004.74463
5929.0 0.0001687 5104.48291 6025.34814
5916.0 0.0001690 5105.41309 6045.24561
6019.0 0.0001661 5106.33887 6061.25537
6024.0 0.0001660 5107.26465 6071.59961
6062.0 0.0001650 5108.18604 6077.59326
6101.0 0.0001639 5109.10449 6083.30957
6162.0 0.0001623 5110.02246 6094.18750
6183.0 0.0001617 5110.93506 6115.57227
6222.0 0.0001607 5111.84766 6152.50195
6201.0 0.0001613 5112.75488 6209.69434
6169.0 0.0001621 5113.65918 6292.00732
6195.0 0.0001614 5114.56348 6404.63867
6458.0 0.0001548 5115.46094 6552.79541
6503.0 0.0001538 5116.35938 6740.96875
6686.0 0.0001496 5117.24951 6974.52051
6914.0 0.0001446 5118.13818 7248.33496
7134.0 0.0001402 5119.02588 7561.29199
7478.0 0.0001337 5119.90918 7903.75244
7905.0 0.0001265 5120.78955 8261.50781
8322.0 0.0001202 5121.66455 8609.66406
8688.0 0.0001151 5122.53857 8916.33105
9045.0 0.0001106 5123.40674 9147.14941
9121.0 0.0001096 5124.27344 9275.73730
9297.0 0.0001076 5125.13184 9293.98145
9236.0 0.0001083 5125.99170 9214.26172
9114.0 0.0001097 5126.84619 9060.85547
9141.0 0.0001094 5127.69580 8860.46973
8942.0 0.0001118 5128.54199 8636.10547
8709.0 0.0001148 5129.38281 8407.43945
8352.0 0.0001197 5130.22168 8191.84375
8168.0 0.0001224 5131.05713 8003.57275
7921.0 0.0001262 5131.88916 7852.80029
7767.0 0.0001287 5132.71289 7739.88477
7485.0 0.0001336 5133.53418 7661.64893
7629.0 0.0001311 5134.35205 7608.11670
7484.0 0.0001336 5135.16455 7565.36963
7545.0 0.0001325 5135.97412 7518.49121
7390.0 0.0001353 5136.77881 7455.82861
7368.0 0.0001357 5137.57861 7373.18115
7211.0 0.0001387 5138.37402 7274.65186
7290.0 0.0001372 5139.16699 7170.66699
7029.0 0.0001423 5139.95117 7074.83984
7004.0 0.0001428 5140.73242 7000.85400
7053.0 0.0001418 5141.50928 6961.25488
7019.0 0.0001425 5142.28125 6966.90869
6969.0 0.0001435 5143.04932 7027.08594
7188.0 0.0001391 5143.81104 7149.31543
7232.0 0.0001383 5144.56787 7337.39697
7603.0 0.0001315 5145.31934 7598.37158
7927.0 0.0001262 5146.06592 7929.05762
8281.0 0.0001208 5146.80957 8325.43750
8552.0 0.0001169 5147.54639 8777.24707
9137.0 0.0001094 5148.27832 9266.57910
9892.0 0.0001011 5149.00439 9765.49121
10542.0 0.0000949 5149.72559 10233.09180
11256.0 0.0000888 5150.44043 10617.36914
11944.0 0.0000837 5151.15234 10862.44141
12219.0 0.0000818 5151.85742 10925.00977
12138.0 0.0000824 5152.55664 10792.01270
11695.0 0.0000855 5153.25195 10486.31641
11184.0 0.0000894 5153.94092 10056.40234
10344.0 0.0000967 5154.62158 9557.64453
9589.0 0.0001043 5155.30078 9037.77148
8894.0 0.0001124 5155.97314 8532.20117
8243.0 0.0001213 5156.63818 8064.06445
7698.0 0.0001299 5157.29932 7647.04004
7269.0 0.0001376 5157.95313 7287.47461
7112.0 0.0001406 5158.60107 6987.00244
6795.0 0.0001472 5159.24316 6742.93994
6832.0 0.0001464 5159.88135 6552.49805
6645.0 0.0001505 5160.51074 6409.56201
6546.0 0.0001528 5161.13623 6308.44385
6442.0 0.0001552 5161.75439 6243.82275
6446.0 0.0001551 5162.36768 6211.21680
6370.0 0.0001570 5162.97314 6207.19922
6310.0 0.0001585 5163.57422 6229.15625
6387.0 0.0001566 5164.16797 6276.22705
6442.0 0.0001552 5164.75537 6347.43359
6500.0 0.0001538 5165.33643 6442.48877
6593.0 0.0001517 5165.91064 6561.32813
6647.0 0.0001504 5166.48047 6704.00244
6713.0 0.0001490 5167.04297 6872.83008
6922.0 0.0001445 5167.59766 7062.00391
6983.0 0.0001432 5168.14648 7271.64355
7243.0 0.0001381 5168.68994 7493.48291
7469.0 0.0001339 5169.22705 7717.39502
7645.0 0.0001308 5169.75635 7928.88721
7932.0 0.0001261 5170.27930 8112.60449
8195.0 0.0001220 5170.79590 8256.46777
8374.0 0.0001194 5171.30469 8352.82813
8455.0 0.0001183 5171.80811 8400.26074
8577.0 0.0001166 5172.30273 8399.56055
8679.0 0.0001152 5172.79297 8349.99316
8571.0 0.0001167 5173.27344 8252.38086
8440.0 0.0001185 5173.74951 8110.57568
8187.0 0.0001221 5174.21826 7933.79932
7802.0 0.0001282 5174.67920 7734.34033
7662.0 0.0001305 5175.13525 7528.30322
7444.0 0.0001343 5175.58301 7327.72363
7215.0 0.0001386 5176.02246 7143.21631
7104.0 0.0001408 5176.45752 6982.53809
7031.0 0.0001422 5176.88184 6849.76318
6826.0 0.0001465 5177.30225 6745.05371
6830.0 0.0001464 5177.71582 6664.87012
6742.0 0.0001483 5178.11963 6602.73535
7050.0 0.0001418 5178.51660 6550.61719
7078.0 0.0001413 5178.90869 6500.81934
7052.0 0.0001418 5179.29053 6447.80615
6939.0 0.0001441 5179.66699 6389.20557
6841.0 0.0001462 5180.03662 6325.71729
6686.0 0.0001496 5180.39648 6260.23389
6432.0 0.0001555 5180.75000 6196.96631
6284.0 0.0001591 5181.09668 6138.14502
6132.0 0.0001631 5181.43604 6086.61084
5887.0 0.0001699 5181.76709 6040.85303
5991.0 0.0001669 5182.09082 5999.64502
5883.0 0.0001700 5182.40771 5959.95557
5762.0 0.0001736 5182.71826 5918.78467
5690.0 0.0001757 5183.01953 5874.68018
5780.0 0.0001730 5183.31201 5827.95215
5669.0 0.0001764 5183.60059 5780.80615
5625.0 0.0001778 5183.87891 5735.91895
5543.0 0.0001804 5184.14990 5695.31299
5647.0 0.0001771 5184.41309 5660.81396
5535.0 0.0001807 5184.66943 5633.70117
5557.0 0.0001800 5184.91748 5614.99854
5566.0 0.0001797 5185.15869 5605.61475
5488.0 0.0001822 5185.39160 5606.40820
5490.0 0.0001821 5185.61572 5618.23145
5584.0 0.0001791 5185.83301 5641.88086
5513.0 0.0001814 5186.04248 5677.98438
5584.0 0.0001791 5186.24561 5726.88867
5611.0 0.0001782 5186.43799 5788.24219
5566.0 0.0001797 5186.62402 5861.02002
5652.0 0.0001769 5186.80225 5942.99805
5733.0 0.0001744 5186.97412 6030.43945
5866.0 0.0001705 5187.13623 6115.49902
5657.0 0.0001768 5187.29102 6194.58105
5863.0 0.0001706 5187.43652 6256.01465
5833.0 0.0001714 5187.57715 6290.83545
5796.0 0.0001725 5187.70703 6293.96924
5848.0 0.0001710 5187.83057 6267.14307
5768.0 0.0001734 5187.94531 6216.57031
5774.0 0.0001732 5188.05273 6151.60889
5805.0 0.0001723 5188.15137 6083.04980
5726.0 0.0001746 5188.24268 6016.81641
5761.0 0.0001736 5188.32617 5959.21094
5906.0 0.0001693 5188.40088 5911.63916
5935.0 0.0001685 5188.46973 5878.00537
5863.0 0.0001706 5188.52832 5859.78418
5890.0 0.0001698 5188.57910 5858.02295
5876.0 0.0001702 5188.62305 5874.13330
5889.0 0.0001698 5188.65674 5908.72412
6003.0 0.0001666 5188.68359 5962.05371
6149.0 0.0001626 5188.70215 6034.23926
6116.0 0.0001635 5188.71436 6123.99268
6282.0 0.0001592 5188.71631 6230.34521
6213.0 0.0001610 5188.71094 6351.50830
6424.0 0.0001557 5188.69775 6485.26025
6621.0 0.0001510 5188.67773 6628.70020
6826.0 0.0001465 5188.64844 6777.83105
6916.0 0.0001446 5188.60938 6926.93848
7197.0 0.0001389 5188.56396 7068.77490
7431.0 0.0001346 5188.50879 7195.60254
7518.0 0.0001330 5188.44824 7299.82764
7607.0 0.0001315 5188.37891 7374.61768
7620.0 0.0001312 5188.30078 7413.51367
7580.0 0.0001319 5188.21436 7410.96094
7573.0 0.0001320 5188.12061 7363.46533
7421.0 0.0001348 5188.01904 7271.39551
7147.0 0.0001399 5187.90820 7140.62305
6968.0 0.0001435 5187.78955 6982.46973
6963.0 0.0001436 5187.66357 6810.95996
6728.0 0.0001486 5187.52783 6640.19385
6501.0 0.0001538 5187.38525 6478.03955
6348.0 0.0001575 5187.23438 6332.63916
6184.0 0.0001617 5187.07617 6205.88574
6274.0 0.0001594 5186.90918 6099.96826
6139.0 0.0001629 5186.73438 6015.19629
6016.0 0.0001662 5186.55127 5950.65527
6044.0 0.0001655 5186.35840 5905.59570
6058.0 0.0001651 5186.16162 5878.32031
5906.0 0.0001693 5185.95508 5867.51953
5943.0 0.0001683 5185.73975 5871.72510
5889.0 0.0001698 5185.51611 5889.37402
5941.0 0.0001683 5185.28467 5919.50195
5866.0 0.0001705 5185.04395 5960.60547
5874.0 0.0001702 5184.79834 6011.27344
5906.0 0.0001693 5184.54248 6070.01074
5965.0 0.0001676 5184.27734 6135.44141
6155.0 0.0001625 5184.00781 6206.52100
6138.0 0.0001629 5183.72803 6282.59473
6259.0 0.0001598 5183.44141 6363.08252
6142.0 0.0001628 5183.14551 6447.36816
6285.0 0.0001591 5182.84570 6534.41748
6342.0 0.0001577 5182.53223 6623.75586
6319.0 0.0001583 5182.21387 6716.93457
6421.0 0.0001557 5181.88916 6817.67871
6559.0 0.0001525 5181.55322 6934.72705
6652.0 0.0001503 5181.21045 7071.83350
6775.0 0.0001476 5180.86182 7237.69824
6878.0 0.0001454 5180.50293 7436.70605
6978.0 0.0001433 5180.13721 7670.03271
7169.0 0.0001395 5179.76318 7935.33936
7388.0 0.0001354 5179.38135 8226.71289
7650.0 0.0001307 5178.99316 8533.82910
7865.0 0.0001271 5178.59619 8843.37793
8162.0 0.0001225 5178.19092 9134.22949
8406.0 0.0001190 5177.77930 9379.70313
8593.0 0.0001164 5177.35840 9550.45508
8917.0 0.0001121 5176.93066 9622.80859
8827.0 0.0001133 5176.49609 9585.35352
8803.0 0.0001136 5176.05176 9445.53125
8957.0 0.0001116 5175.60156 9224.08398
8509.0 0.0001175 5175.14404 8946.10840
8242.0 0.0001213 5174.67773 8637.49609
8049.0 0.0001242 5174.20459 8319.67480
7599.0 0.0001316 5173.72461 8008.51416
7391.0 0.0001353 5173.23584 7714.33398
7268.0 0.0001376 5172.73926 7442.52295
6995.0 0.0001430 5172.23535 7196.08301
6786.0 0.0001474 5171.72607 6976.64502
6596.0 0.0001516 5171.20654 6785.24609
6581.0 0.0001520 5170.68115 6622.35449
6401.0 0.0001562 5170.14893 6487.62793
6274.0 0.0001594 5169.60938 6379.82715
6320.0 0.0001582 5169.06250 6296.91260
6053.0 0.0001652 5168.50732 6236.50049
6106.0 0.0001638 5167.94531 6195.81396
6133.0 0.0001631 5167.37451 6170.84961
6096.0 0.0001640 5166.79883 6160.16699
6145.0 0.0001627 5166.21436 6159.37939
6009.0 0.0001664 5165.62598 6174.87842
6077.0 0.0001646 5165.02637 6205.40674
6256.0 0.0001598 5164.42188 6253.70020
6143.0 0.0001628 5163.81104 6322.97119
6203.0 0.0001612 5163.19141 6416.57959
6489.0 0.0001541 5162.56348 6537.38086
6567.0 0.0001523 5161.93213 6687.51318
6581.0 0.0001520 5161.29199 6867.52441
6883.0 0.0001453 5160.64453 7076.28271
7119.0 0.0001405 5159.98975 7308.09814
7565.0 0.0001322 5159.32910 7554.83252
7667.0 0.0001304 5158.66260 7802.90088
8290.0 0.0001206 5157.98926 8033.43213
8532.0 0.0001172 5157.30811 8224.00684
8866.0 0.0001128 5156.61963 8353.62305
8986.0 0.0001113 5155.92578 8409.90137
9120.0 0.0001096 5155.22461 8394.31738
8763.0 0.0001141 5154.51758 8320.14258
8594.0 0.0001164 5153.80322 8206.65918
8494.0 0.0001177 5153.08301 8071.20752
8228.0 0.0001215 5152.35400 7925.05078
7938.0 0.0001260 5151.62109 7773.21094
7983.0 0.0001253 5150.88281 7616.43604
7761.0 0.0001288 5150.13525 7453.73975
7631.0 0.0001310 5149.38232 7284.54639
7550.0 0.0001325 5148.62354 7110.25146
7276.0 0.0001374 5147.85791 6935.49023
6974.0 0.0001434 5147.08643 6765.27930
6605.0 0.0001514 5146.30762 6606.56445
6339.0 0.0001578 5145.52393 6464.57178
6430.0 0.0001555 5144.73389 6342.83008
6232.0 0.0001605 5143.93799 6243.45068
6187.0 0.0001616 5143.13477 6167.71191
6186.0 0.0001617 5142.32666 6116.51514
6093.0 0.0001641 5141.51318 6090.56885
6081.0 0.0001644 5140.69287 6090.31787
5963.0 0.0001677 5139.86621 6115.96094
6131.0 0.0001631 5139.03564 6166.70020
6102.0 0.0001639 5138.19629 6241.38525
6219.0 0.0001608 5137.35303 6337.71191
6226.0 0.0001606 5136.50439 6452.07471
6360.0 0.0001572 5135.64795 6579.00928
6580.0 0.0001520 5134.78955 6710.68115
6982.0 0.0001432 5133.92139 6836.33936
7264.0 0.0001377 5133.05078 6943.09326
7446.0 0.0001343 5132.17334 7017.13916
7521.0 0.0001330 5131.29102 7047.59912
7469.0 0.0001339 5130.40234 7030.01367
7445.0 0.0001343 5129.50879 6967.96240
7149.0 0.0001399 5128.60938 6871.48926
6929.0 0.0001443 5127.70557 6749.78271
6721.0 0.0001488 5126.79639 6622.64063
6402.0 0.0001562 5125.88184 6495.83984
6344.0 0.0001576 5124.96338 6375.74512
6181.0 0.0001618 5124.03613 6264.21289
6229.0 0.0001605 5123.10693 6166.69580
6172.0 0.0001620 5122.17236 6082.43506
6140.0 0.0001629 5121.23193 6012.26953
6010.0 0.0001664 5120.28711 5957.13330
6067.0 0.0001648 5119.33887 5917.89551
5994.0 0.0001668 5118.38330 5895.30518
5972.0 0.0001674 5117.42383 5890.05322
6060.0 0.0001650 5116.46045 5902.92871
6120.0 0.0001634 5115.49121 5934.96338
6199.0 0.0001613 5114.51807 5987.53516
6245.0 0.0001601 5113.54053 6062.55371
6321.0 0.0001582 5112.55762 6162.36475
6425.0 0.0001556 5111.57031 6289.52881
6568.0 0.0001523 5110.57910 6446.34131
6656.0 0.0001502 5109.58496 6634.18311
6944.0 0.0001440 5108.58398 6852.77490
7162.0 0.0001396 5107.57959 7099.33789
7260.0 0.0001377 5106.57129 7367.72803
7573.0 0.0001320 5105.55713 7647.77783
7812.0 0.0001280 5104.53955 7925.40820
8012.0 0.0001248 5103.51807 8184.28076
8231.0 0.0001215 5102.49414 8407.27051
8378.0 0.0001194 5101.46436 8580.51074
8507.0 0.0001176 5100.43115 8693.64355
8439.0 0.0001185 5099.39453 8739.98633
8612.0 0.0001161 5098.35400 8716.43750
8428.0 0.0001187 5097.30908 8624.30078
8338.0 0.0001199 5096.25879 8470.37695
8075.0 0.0001238 5095.20703 8266.82813
7886.0 0.0001268 5094.15088 8029.35693
7710.0 0.0001297 5093.09131 7773.47070
7525.0 0.0001329 5092.02979 7512.54297
7218.0 0.0001385 5090.96240 7256.39746
7017.0 0.0001425 5089.89160 7010.38672
6938.0 0.0001441 5088.82129 6779.55859
6777.0 0.0001476 5087.74316 6567.93799
6522.0 0.0001533 5086.66455 6378.88965
6489.0 0.0001541 5085.57959 6214.58740
6241.0 0.0001602 5084.49463 6075.80518
6185.0 0.0001617 5083.40576 5962.03076
6110.0 0.0001637 5082.31152 5872.00928
6046.0 0.0001654 5081.21680 5804.07275
6032.0 0.0001658 5080.11865 5756.41992
5985.0 0.0001671 5079.01758 5727.27246
5914.0 0.0001691 5077.91260 5715.56152
5917.0 0.0001690 5076.80713 5718.42725
5892.0 0.0001697 5075.69727 5734.84277
5869.0 0.0001704 5074.58545 5763.03271
5787.0 0.0001728 5073.46924 5801.03027
5761.0 0.0001736 5072.35156 5845.68262
5784.0 0.0001729 5071.23145 5894.58398
5893.0 0.0001697 5070.10986 5944.10449
5994.0 0.0001668 5068.98389 5991.38184
6067.0 0.0001648 5067.85791 6034.60449
6111.0 0.0001636 5066.72656 6072.82080
6280.0 0.0001592 5065.59521 6105.11279
6337.0 0.0001578 5064.45947 6130.18164
6445.0 0.0001552 5063.32422 6144.68213
6722.0 0.0001488 5062.18604 6146.06787
6696.0 0.0001493 5061.04736 6132.91260
6838.0 0.0001462 5059.90332 6105.86914
6682.0 0.0001497 5058.75928 6068.43213
6532.0 0.0001531 5057.61182 6025.67334
6437.0 0.0001554 5056.46387 5983.40967
6217.0 0.0001608 5055.31592 5946.77148
6082.0 0.0001644 5054.16357 5919.79199
5949.0 0.0001681 5053.00879 5905.23584
5965.0 0.0001676 5051.85400 5905.60791
5946.0 0.0001682 5050.70020 5922.11816
5936.0 0.0001685 5049.54102 5955.49219
6054.0 0.0001652 5048.38281 6005.96191
6220.0 0.0001608 5047.22119 6073.22803
6373.0 0.0001569 5046.05762 6156.34229
6500.0 0.0001538 5044.89551 6253.70996
6400.0 0.0001562 5043.72852 6364.96533
6507.0 0.0001537 5042.56396 6487.92822
6696.0 0.0001493 5041.39648 6620.57520
6740.0 0.0001484 5040.23047 6760.14404
6738.0 0.0001484 5039.05957 6902.29150
6829.0 0.0001464 5037.88965 7040.15332
6743.0 0.0001483 5036.71973 7163.85107
6792.0 0.0001472 5035.54932 7261.15771
6826.0 0.0001465 5034.37646 7319.58643
6789.0 0.0001473 5033.20361 7329.81934
6805.0 0.0001470 5032.02979 7288.02783
6853.0 0.0001459 5030.85352 7198.73779
6926.0 0.0001444 5029.67920 7073.25391
6688.0 0.0001495 5028.50488 6926.14990
6603.0 0.0001514 5027.32764 6772.12061
6536.0 0.0001530 5026.15137 6623.69580
6468.0 0.0001546 5024.97363 6490.60498
6421.0 0.0001557 5023.79590 6380.18750
6366.0 0.0001571 5022.61963 6297.66895
6446.0 0.0001551 5021.44336 6246.91553
6530.0 0.0001531 5020.26465 6230.66504
6403.0 0.0001562 5019.08789 6250.76465
6476.0 0.0001544 5017.90918 6308.10596
6565.0 0.0001523 5016.72949 6402.26270
6571.0 0.0001522 5015.55273 6531.62256
6799.0 0.0001471 5014.37646 6693.57813
6865.0 0.0001457 5013.19727 6882.93848
7057.0 0.0001417 5012.01953 7092.15088
7311.0 0.0001368 5010.84375 7310.27441
7498.0 0.0001334 5009.66602 7522.21484
7606.0 0.0001315 5008.48975 7708.17188
7796.0 0.0001283 5007.31396 7848.01758
8048.0 0.0001243 5006.14014 7922.56934
8251.0 0.0001212 5004.96387 7922.20068
8009.0 0.0001249 5003.78906 7850.35693
7949.0 0.0001258 5002.61621 7721.83740
7821.0 0.0001279 5001.44238 7557.63477
7508.0 0.0001332 5000.26953 7378.66211
7360.0 0.0001359 4999.10010 7202.24072
7135.0 0.0001402 4997.92822 7039.53467
6885.0 0.0001452 4996.75879 6898.19287
6881.0 0.0001453 4995.59033 6781.37988
6669.0 0.0001499 4994.42236 6688.86621
6691.0 0.0001495 4993.25684 6617.72705
6697.0 0.0001493 4992.08936 6563.39209
6679.0 0.0001497 4990.92480 6518.53174
6599.0 0.0001515 4989.76074 6484.91309
6478.0 0.0001544 4988.60059 6458.47559
6479.0 0.0001543 4987.43945 6439.40869
6596.0 0.0001516 4986.27979 6428.42969
6475.0 0.0001544 4985.12061 6425.67285
6558.0 0.0001525 4983.96289 6430.55713
6396.0 0.0001563 4982.80957 6441.82129
6468.0 0.0001546 4981.65576 6458.30273
6441.0 0.0001553 4980.50342 6481.20898
6430.0 0.0001555 4979.35303 6512.31738
6377.0 0.0001568 4978.20459 6553.78711
6528.0 0.0001532 4977.05664 6605.38184
6461.0 0.0001548 4975.91113 6666.20264
6497.0 0.0001539 4974.76807 6730.89063
6455.0 0.0001549 4973.62500 6791.75244
6628.0 0.0001509 4972.48682 6839.76025
6691.0 0.0001495 4971.34863 6866.67090
6584.0 0.0001519 4970.21289 6868.11035
6452.0 0.0001550 4969.07910 6845.54150
6699.0 0.0001493 4967.94873 6805.50244
6563.0 0.0001524 4966.81787 6757.45313
6470.0 0.0001546 4965.69141 6710.55127
6478.0 0.0001544 4964.56445 6671.73291
6577.0 0.0001520 4963.44189 6644.86230
6456.0 0.0001549 4962.32227 6630.91992
6456.0 0.0001549 4961.20410 6628.00098
6512.0 0.0001536 4960.08838 6632.09766
6585.0 0.0001519 4958.97559 6637.51709
6555.0 0.0001526 4957.86475 6639.13330
6525.0 0.0001533 4956.75684 6631.59912
6486.0 0.0001542 4955.65137 6611.44141
6467.0 0.0001546 4954.54834 6576.93799
6346.0 0.0001576 4953.44824 6527.72803
6351.0 0.0001575 4952.34814 6464.15723
6193.0 0.0001615 4951.25488 6387.84619
6214.0 0.0001609 4950.16113 6301.09863
6098.0 0.0001640 4949.07227 6207.68213
5983.0 0.0001671 4947.98535 6112.19873
5869.0 0.0001704 4946.90088 6019.16016
5919.0 0.0001689 4945.82178 5932.38477
5854.0 0.0001708 4944.74268 5854.11475
5577.0 0.0001793 4943.66846 5785.62061
5637.0 0.0001774 4942.59668 5726.79102
5560.0 0.0001799 4941.52881 5676.93555
5496.0 0.0001820 4940.46338 5634.03955
5520.0 0.0001812 4939.39990 5593.69238
5618.0 0.0001780 4938.34229 5557.29199
5461.0 0.0001831 4937.28662 5521.31738
5462.0 0.0001831 4936.23340 5484.53809
5455.0 0.0001833 4935.18311 5447.11670
5417.0 0.0001846 4934.13672 5409.81885
5328.0 0.0001877 4933.09521 5373.67529
5434.0 0.0001840 4932.05713 5339.66113
5367.0 0.0001863 4931.02100 5308.50146
5195.0 0.0001925 4929.98877 5280.83105
5255.0 0.0001903 4928.95996 5257.02832
5186.0 0.0001928 4927.93408 5236.45557
5238.0 0.0001909 4926.91357 5219.51074
5239.0 0.0001909 4925.89600 5206.08643
5228.0 0.0001913 4924.88232 5195.82178
5167.0 0.0001935 4923.87207 5188.42969
5301.0 0.0001886 4922.86475 5183.48975
5252.0 0.0001904 4921.86230 5180.50537
5232.0 0.0001911 4920.86328 5179.07861
5285.0 0.0001892 4919.86768 5178.58936
5154.0 0.0001940 4918.87598 5178.53662
5219.0 0.0001916 4917.88818 5178.75830
5271.0 0.0001897 4916.90381 5177.43457
5188.0 0.0001928 4915.92529 5177.69043
5159.0 0.0001938 4914.94922 5177.73047
5276.0 0.0001895 4913.97754 5177.50342
5153.0 0.0001941 4913.00928 5177.27832
5216.0 0.0001917 4912.04736 5177.26855
5171.0 0.0001934 4911.08643 5178.29639
5205.0 0.0001921 4910.13086 5181.32080
5238.0 0.0001909 4909.18115 5187.42578
5233.0 0.0001911 4908.23340 5197.78369
5347.0 0.0001870 4907.29102 5213.60059
5240.0 0.0001908 4906.35156 5236.21777
5269.0 0.0001898 4905.41748 5266.54346
5221.0 0.0001915 4904.48730 5305.72705
5304.0 0.0001885 4903.56006 5354.54736
5333.0 0.0001875 4902.64014 5413.37549
5374.0 0.0001861 4901.72266 5482.08838
5458.0 0.0001832 4900.80908 5559.86963
5444.0 0.0001837 4899.90137 5645.12402
5314.0 0.0001882 4898.99805 5734.87012
5506.0 0.0001816 4898.09717 5824.92529
5534.0 0.0001807 4897.20361 5909.55957
5510.0 0.0001815 4896.31152 5982.17773
5443.0 0.0001837 4895.42529 6036.87354
5502.0 0.0001818 4894.54443 6070.37744
5580.0 0.0001792 4893.66748 6083.11914
5517.0 0.0001813 4892.79688 6078.46436
5673.0 0.0001763 4891.92822 6060.83447
5621.0 0.0001779 4891.06396 6034.22607
5680.0 0.0001761 4890.20508 6001.98047
5633.0 0.0001775 4889.35205 5966.64893
5595.0 0.0001787 4888.50244 5933.11230
5716.0 0.0001749 4887.65674 5903.87744
5701.0 0.0001754 4886.81836 5881.52832
5859.0 0.0001707 4885.98096 5867.05371
5994.0 0.0001668 4885.15283 5859.54639
6002.0 0.0001666 4884.32568 5857.08447
6081.0 0.0001644 4883.50439 5856.17627
6157.0 0.0001624 4882.68848 5853.14453
6235.0 0.0001604 4881.87793 5844.53418
6079.0 0.0001645 4881.07031 5827.60205
6098.0 0.0001640 4880.26904 5800.81006
5937.0 0.0001684 4879.47168 5764.19922
5907.0 0.0001693 4878.68018 5717.65771
5826.0 0.0001716 4877.89258 5667.95410
5787.0 0.0001728 4877.10889 5616.73291
5619.0 0.0001780 4876.33203 5567.31934
5487.0 0.0001822 4875.55713 5522.48486
5439.0 0.0001839 4874.78906 5484.32813
5440.0 0.0001838 4874.02734 5454.44189
5413.0 0.0001847 4873.26855 5433.91455
5448.0 0.0001836 4872.51709 5423.62695
5538.0 0.0001806 4871.76904 5423.44580
5484.0 0.0001823 4871.02393 5433.40186
5571.0 0.0001795 4870.28809 5452.89941
5655.0 0.0001768 4869.55420 5480.91553
5669.0 0.0001764 4868.82520 5516.14551
5685.0 0.0001759 4868.10107 5557.14014
5862.0 0.0001706 4867.38281 5602.47900
6022.0 0.0001661 4866.66895 5650.70752
6201.0 0.0001613 4865.96094 5700.13330
6326.0 0.0001581 4865.25830 5748.10449
6512.0 0.0001536 4864.55957 5791.23584
6594.0 0.0001517 4863.86572 5825.33789
6664.0 0.0001501 4863.17676 5846.38867
6606.0 0.0001514 4862.49414 5851.81934
6426.0 0.0001556 4861.81592 5840.93164
6239.0 0.0001603 4861.14258 5815.63428
6131.0 0.0001631 4860.47266 5779.12158
5967.0 0.0001676 4859.80957 5734.95703
5816.0 0.0001719 4859.15186 5686.98633
5671.0 0.0001763 4858.49854 5636.53467
5669.0 0.0001764 4857.85059 5586.41211
5546.0 0.0001803 4857.20508 5538.46924
5448.0 0.0001836 4856.56836 5494.23975
5382.0 0.0001858 4855.93457 5454.84521
5489.0 0.0001822 4855.30566 5420.79248
5408.0 0.0001849 4854.68262 5392.13232
5467.0 0.0001829 4854.06396 5368.56348
5407.0 0.0001849 4853.45166 5349.85645
5386.0 0.0001857 4852.84277 5335.29834
5263.0 0.0001900 4852.23926 5325.14404
5464.0 0.0001830 4851.64111 5319.51221
5379.0 0.0001859 4851.04639 5318.74951
5366.0 0.0001864 4850.45996 5323.26221
5364.0 0.0001864 4849.87500 5333.33838
5375.0 0.0001860 4849.29688 5349.00781
5505.0 0.0001817 4848.72314 5369.96826
5660.0 0.0001767 4848.15576 5395.44238
5662.0 0.0001766 4847.59229 5424.16211
5750.0 0.0001739 4847.03223 5454.20752
5883.0 0.0001700 4846.47852 5483.88232
5918.0 0.0001690 4845.93066 5511.95020
5923.0 0.0001688 4845.38721 5540.43262
6036.0 0.0001657 4844.84717 5569.50928
5867.0 0.0001704 4844.31201 5601.39844
5829.0 0.0001716 4843.78418 5637.97217
5841.0 0.0001712 4843.25928 5680.42725
5723.0 0.0001747 4842.73877 5728.67041
5635.0 0.0001775 4842.22510 5781.37207
5667.0 0.0001765 4841.71631 5836.13525
5781.0 0.0001730 4841.21143 5889.64795
5839.0 0.0001713 4840.71143 5937.77783
5729.0 0.0001746 4840.21533 5975.77930
5682.0 0.0001760 4839.72559 5999.07275
5778.0 0.0001731 4839.23828 6004.58154
5758.0 0.0001737 4838.75830 5992.05811
5560.0 0.0001799 4838.28125 5964.30322
5643.0 0.0001772 4837.80859 5926.30322
5594.0 0.0001788 4837.34229 5883.26611
5514.0 0.0001814 4836.88184 5840.18945
5584.0 0.0001791 4836.42334 5800.83887
5569.0 0.0001796 4835.97119 5767.88574
5574.0 0.0001794 4835.52148 5743.05566
5614.0 0.0001781 4835.07715 5727.22168
5667.0 0.0001765 4834.63965 5717.78613
5664.0 0.0001766 4834.20557 5717.19385
5914.0 0.0001691 4833.77637 5720.44434
5983.0 0.0001671 4833.35010 5723.75146
5930.0 0.0001686 4832.93066 5722.87598
5951.0 0.0001680 4832.51367 5714.02930
5904.0 0.0001694 4832.10205 5694.88672
5823.0 0.0001717 4831.69482 5665.33496
5636.0 0.0001774 4831.29297 5627.47998
5615.0 0.0001781 4830.89453 5584.78076
5450.0 0.0001835 4830.49902 5541.10156
5505.0 0.0001817 4830.11084 5500.04492
5406.0 0.0001850 4829.72705 5463.68848
5344.0 0.0001871 4829.34424 5433.36963
5353.0 0.0001868 4828.96875 5411.23779
5359.0 0.0001866 4828.59473 5396.25537
5322.0 0.0001879 4828.22852 5388.20020
5368.0 0.0001863 4827.86230 5386.33350
5299.0 0.0001887 4827.50293 5389.20117
5325.0 0.0001878 4827.14941 5395.86035
5439.0 0.0001839 4826.79883 5405.34473
5590.0 0.0001789 4826.44922 5416.87109
5686.0 0.0001759 4826.10693 5429.83154
5648.0 0.0001771 4825.77002 5443.69482
5650.0 0.0001770 4825.43506 5457.99561
5619.0 0.0001780 4825.10400 5472.21289
5618.0 0.0001780 4824.77637 5485.73340
5807.0 0.0001722 4824.45410 5498.02344
5651.0 0.0001770 4824.13574 5508.98633
5761.0 0.0001736 4823.82080 5519.25391
5729.0 0.0001746 4823.51074 5530.43555
5755.0 0.0001738 4823.20410 5543.15137
5797.0 0.0001725 4822.90039 5558.68164
5784.0 0.0001729 4822.59961 5577.16602
5646.0 0.0001771 4822.30469 5597.87158
5682.0 0.0001760 4822.01318 5619.23438
5644.0 0.0001772 4821.72510 5638.90820
5601.0 0.0001785 4821.44043 5653.94629
5432.0 0.0001841 4821.15869 5661.20215
5560.0 0.0001799 4820.88086 5658.40674
5528.0 0.0001809 4820.60938 5645.10693
5453.0 0.0001834 4820.33887 5623.02051
5434.0 0.0001840 4820.07178 5595.42432
5478.0 0.0001825 4819.81006 5565.99365
5472.0 0.0001827 4819.55029 5537.63916
5405.0 0.0001850 4819.29395 5512.42725
5407.0 0.0001849 4819.03906 5491.34180
5434.0 0.0001840 4818.79150 5474.90088
5351.0 0.0001869 4818.54395 5463.53174
5241.0 0.0001908 4818.30225 5457.18408
5302.0 0.0001886 4818.06348 5456.21484
5464.0 0.0001830 4817.82568 5459.81201
5334.0 0.0001875 4817.59473 5467.20850
5295.0 0.0001889 4817.36328 5477.07715
5246.0 0.0001906 4817.13770 5487.69678
5400.0 0.0001852 4816.91260 5497.51953
5292.0 0.0001890 4816.69336 5505.02588
5368.0 0.0001863 4816.47363 5508.95313
5329.0 0.0001877 4816.25977 5508.51025
5288.0 0.0001891 4816.04834 5503.46729
5349.0 0.0001870 4815.83740 5494.12939
5397.0 0.0001853 4815.63281 5481.19238
5313.0 0.0001882 4815.42920 5465.59619
5253.0 0.0001904 4815.22900 5448.44531
5334.0 0.0001875 4815.03125 5430.71582
5425.0 0.0001843 4814.83643 5413.03662
5284.0 0.0001893 4814.64355 5395.30518
5292.0 0.0001890 4814.45313 5377.16016
5260.0 0.0001901 4814.26514 5358.11523
5295.0 0.0001889 4814.08252 5337.95020
5280.0 0.0001894 4813.89893 5316.87207
5377.0 0.0001860 4813.71826 5295.46191
5293.0 0.0001889 4813.54199 5274.48877
5268.0 0.0001898 4813.36768 5254.85645
5204.0 0.0001922 4813.19531 5237.53711
5280.0 0.0001894 4813.02393 5223.47803
5245.0 0.0001907 4812.85547 5213.46094
5263.0 0.0001900 4812.68945 5207.93994
5292.0 0.0001890 4812.52539 5206.96680
5280.0 0.0001894 4812.36475 5210.15332
5167.0 0.0001935 4812.20557 5215.20459
5306.0 0.0001885 4812.04785 5223.96240
5249.0 0.0001905 4811.89404 5233.63525
5253.0 0.0001904 4811.73926 5243.14893
5455.0 0.0001833 4811.58789 5251.38574
5348.0 0.0001870 4811.43945 5258.04443
5397.0 0.0001853 4811.29248 5263.19824
5444.0 0.0001837 4811.14502 5267.23633
5358.0 0.0001866 4811.00244 5270.67432
5363.0 0.0001865 4810.85889 5273.85693
5340.0 0.0001873 4810.71973 5277.29443
5359.0 0.0001866 4810.58057 5280.23877
5419.0 0.0001845 4810.44043 5282.70361
5421.0 0.0001845 4810.30713 5285.14844
5323.0 0.0001879 4810.17334 5288.05615
5281.0 0.0001894 4810.03711 5291.88281
5310.0 0.0001883 4809.90625 5296.75293
5346.0 0.0001871 4809.77734 5302.29297
5448.0 0.0001836 4809.64697 5307.68555
5411.0 0.0001848 4809.52002 5311.84570
5331.0 0.0001876 4809.39404 5313.52490
5262.0 0.0001900 4809.26904 5311.64209
5252.0 0.0001904 4809.14453 5305.42578
5118.0 0.0001954 4809.02344 5294.71338
5086.0 0.0001966 4808.89990 5280.01758
5109.0 0.0001957 4808.77930 5262.33887
5140.0 0.0001946 4808.66064 5242.74756
5100.0 0.0001961 4808.54053 5221.98291
5188.0 0.0001928 4808.42285 5200.35693
5042.0 0.0001983 4808.30566 5177.86279
5092.0 0.0001964 4808.18896 5154.44141
5035.0 0.0001986 4808.07227 5130.25098
4962.0 0.0002015 4807.95898 5105.73730
4979.0 0.0002008 4807.84473 5081.55127
4916.0 0.0002034 4807.73096 5058.39355
4944.0 0.0002023 4807.61816 5036.84375
4977.0 0.0002009 4807.50439 5016.96191
4951.0 0.0002020 4807.39258 4999.65918
4934.0 0.0002027 4807.28125 4984.66699
4979.0 0.0002008 4807.17139 4972.01563
4933.0 0.0002027 4807.05859 4961.55957
4955.0 0.0002018 4806.94824 4953.25049
4949.0 0.0002021 4806.83789 4946.97510
4961.0 0.0002016 4806.72900 4942.63525
4935.0 0.0002026 4806.61816 4940.14746
4854.0 0.0002060 4806.50781 4939.39893
4841.0 0.0002066 4806.39795 4940.34326
4835.0 0.0002068 4806.28906 4943.27100
4872.0 0.0002053 4806.17920 4947.50098
4955.0 0.0002018 4806.06787 4953.36230
4867.0 0.0002055 4805.95996 4960.90137
4904.0 0.0002039 4805.84912 4970.21582
4844.0 0.0002064 4805.73877 4981.47559
5051.0 0.0001980 4805.62842 4994.93115
5050.0 0.0001980 4805.51758 5010.89697
4979.0 0.0002008 4805.40527 5029.82080
4906.0 0.0002038 4805.29395 5051.65137
4979.0 0.0002008 4805.18311 5076.67871
5021.0 0.0001992 4805.06885 5104.85010
5036.0 0.0001986 4804.95752 5135.98193
5082.0 0.0001968 4804.84424 5169.70166
5203.0 0.0001922 4804.72900 5205.52295
5155.0 0.0001940 4804.61426 5242.89941
5196.0 0.0001925 4804.50000 5281.20557
5223.0 0.0001915 4804.38281 5319.90332
5233.0 0.0001911 4804.26709 5357.82861
5493.0 0.0001820 4804.14844 5394.22412
5470.0 0.0001828 4804.03174 5428.08594
5602.0 0.0001785 4803.91162 5458.28711
5724.0 0.0001747 4803.79102 5483.25488
5783.0 0.0001729 4803.67041 5501.47754
5914.0 0.0001691 4803.54688 5512.15186
5916.0 0.0001690 4803.42334 5513.93945
5899.0 0.0001695 4803.29883 5507.95996
5775.0 0.0001732 4803.17188 5495.68652
5720.0 0.0001748 4803.04639 5477.24951
5541.0 0.0001805 4802.91748 5457.37207
5453.0 0.0001834 4802.78760 5435.06445
5490.0 0.0001821 4802.65869 5410.72900
5491.0 0.0001821 4802.52490 5384.31787
5502.0 0.0001818 4802.39111 5355.64502
5450.0 0.0001835 4802.25537 5325.19482
5392.0 0.0001855 4802.11816 5293.90771
5338.0 0.0001873 4801.98096 5263.32910
5365.0 0.0001864 4801.84131 5235.15674
5234.0 0.0001911 4801.70117 5210.94385
5130.0 0.0001949 4801.55713 5191.89258
5228.0 0.0001913 4801.41162 5178.83252
5180.0 0.0001931 4801.26611 5172.26514
5175.0 0.0001932 4801.11719 5172.43896
5186.0 0.0001928 4800.96729 5179.27734
5337.0 0.0001874 4800.81543 5192.54248
5337.0 0.0001874 4800.66162 5211.51709
5400.0 0.0001852 4800.50488 5235.95703
5341.0 0.0001872 4800.34668 5264.90479
5481.0 0.0001824 4800.18701 5297.34277
5470.0 0.0001828 4800.02539 5332.76172
5515.0 0.0001813 4799.86084 5370.15820
5594.0 0.0001788 4799.69385 5408.92529
5596.0 0.0001787 4799.52637 5447.94580
5715.0 0.0001750 4799.35645 5485.57813
5755.0 0.0001738 4799.18311 5519.85742
5870.0 0.0001704 4799.00830 5548.63037
5728.0 0.0001746 4798.82910 5570.24365
5813.0 0.0001720 4798.65088 5583.97168
5684.0 0.0001759 4798.46777 5590.08984
5614.0 0.0001781 4798.28271 5589.61572
5487.0 0.0001822 4798.09521 5583.83350
5639.0 0.0001773 4797.90527 5574.12695
5605.0 0.0001784 4797.71387 5561.87598
5490.0 0.0001821 4797.51807 5548.09033
5462.0 0.0001831 4797.32080 5534.35840
5485.0 0.0001823 4797.12012 5521.88330
5429.0 0.0001842 4796.91699 5511.07959
5416.0 0.0001846 4796.71289 5502.39209
5471.0 0.0001828 4796.50293 5495.80664
5462.0 0.0001831 4796.29053 5491.82031
5383.0 0.0001858 4796.07617 5491.06592
5481.0 0.0001824 4795.85889 5494.80713
5549.0 0.0001802 4795.64063 5504.38867
5410.0 0.0001848 4795.41602 5521.08594
5476.0 0.0001826 4795.18994 5545.08936
5422.0 0.0001844 4794.96094 5576.28223
5436.0 0.0001840 4794.73047 5613.49316
5395.0 0.0001854 4794.49512 5654.13330
5414.0 0.0001847 4794.25830 5695.03076
5500.0 0.0001818 4794.01611 5732.17871
5567.0 0.0001796 4793.77051 5761.27832
5633.0 0.0001775 4793.52539 5778.30566
5690.0 0.0001757 4793.27295 5780.17529
5712.0 0.0001751 4793.01758 5765.32227
5727.0 0.0001746 4792.76074 5734.04248
5774.0 0.0001732 4792.50098 5688.25195
5631.0 0.0001776 4792.23535 5631.08594
5539.0 0.0001805 4791.96973 5566.26465
5356.0 0.0001867 4791.69775 5497.56689
5376.0 0.0001860 4791.42285 5428.47363
5441.0 0.0001838 4791.14551 5361.89648
5243.0 0.0001907 4790.86475 5299.97070
5259.0 0.0001902 4790.57861 5244.15527
5133.0 0.0001948 4790.29004 5195.27148
5184.0 0.0001929 4789.99902 5153.57764
5047.0 0.0001981 4789.70264 5119.00000
5124.0 0.0001952 4789.40332 5091.19580
5046.0 0.0001982 4789.10107 5069.69092
5026.0 0.0001990 4788.79297 5053.94824
5043.0 0.0001983 4788.48486 5043.46045
5124.0 0.0001952 4788.17041 5037.75635
5134.0 0.0001948 4787.85400 5036.44922
5087.0 0.0001966 4787.53174 5039.19971
5032.0 0.0001987 4787.20605 5045.74072
4997.0 0.0002001 4786.87549 5055.86475
5059.0 0.0001977 4786.54492 5069.42871
4970.0 0.0002012 4786.20752 5086.42627
5122.0 0.0001952 4785.86719 5106.74609
5096.0 0.0001962 4785.52246 5130.45410
5182.0 0.0001930 4785.17383 5157.56299
5218.0 0.0001916 4784.81934 5187.68408
5327.0 0.0001877 4784.46436 5220.41260
5347.0 0.0001870 4784.10449 5255.12305
5354.0 0.0001868 4783.73975 5290.95215
5463.0 0.0001830 4783.37207 5326.78320
5562.0 0.0001798 4782.99902 5361.24316
5501.0 0.0001818 4782.62305 5392.72217
5678.0 0.0001761 4782.24219 5419.57568
5676.0 0.0001762 4781.85596 5440.51904
5783.0 0.0001729 4781.46826 5454.84521
5604.0 0.0001784 4781.07520 5463.07471
5649.0 0.0001770 4780.67773 5466.18262
5496.0 0.0001820 4780.27686 5465.75000
5566.0 0.0001797 4779.87305 5463.57617
5592.0 0.0001788 4779.46143 5460.95801
5493.0 0.0001820 4779.04932 5459.40234
5396.0 0.0001853 4778.63086 5459.34131
5503.0 0.0001817 4778.20801 5460.40137
5515.0 0.0001813 4777.78320 5461.51221
5499.0 0.0001819 4777.35205 5461.08594
5332.0 0.0001875 4776.91650 5457.17529
5383.0 0.0001858 4776.47705 5448.09521
5366.0 0.0001864 4776.03369 5432.91943
5326.0 0.0001878 4775.58398 5411.87646
5374.0 0.0001861 4775.13428 5386.28955
5373.0 0.0001861 4774.67725 5357.00879
5251.0 0.0001904 4774.21631 5328.34619
5170.0 0.0001934 4773.75049 5302.02344
5148.0 0.0001943 4773.28125 5279.41016
5229.0 0.0001912 4772.80957 5261.82227
5298.0 0.0001888 4772.32910 5250.12598
5267.0 0.0001899 4771.84766 5244.76172
5299.0 0.0001887 4771.36084 5245.90869
5242.0 0.0001908 4770.86963 5253.40186
5272.0 0.0001897 4770.37354 5266.81543
5249.0 0.0001905 4769.87305 5284.83057
5423.0 0.0001844 4769.36816 5306.50391
5306.0 0.0001885 4768.85791 5330.86816
5369.0 0.0001863 4768.34717 5355.88379
5358.0 0.0001866 4767.82715 5380.98877
5403.0 0.0001851 4767.30664 5404.61035
5447.0 0.0001836 4766.77979 5426.33447
5372.0 0.0001862 4766.24854 5445.75586
5354.0 0.0001868 4765.71191 5462.75977
5362.0 0.0001865 4765.17139 5477.32324
5321.0 0.0001879 4764.62891 5489.25391
5248.0 0.0001905 4764.07813 5497.94531
5242.0 0.0001908 4763.52637 5502.00098
5329.0 0.0001877 4762.96973 5499.87549
5237.0 0.0001909 4762.40723 5490.17383
5208.0 0.0001920 4761.84033 5472.35303
5157.0 0.0001939 4761.26953 5446.97705
5090.0 0.0001965 4760.69434 5415.57275
5233.0 0.0001911 4760.11621 5380.10156
5215.0 0.0001918 4759.53027 5342.38770
5156.0 0.0001939 4758.94238 5303.85889
5131.0 0.0001949 4758.34912 5265.49316
5154.0 0.0001940 4757.75244 5227.96777
5233.0 0.0001911 4757.15186 5191.90430
5114.0 0.0001955 4756.54541 5158.05518
5207.0 0.0001920 4755.93311 5126.86523
5012.0 0.0001995 4755.32031 5099.11377
5151.0 0.0001941 4754.69971 5075.33008
5173.0 0.0001933 4754.07715 5055.91650
5102.0 0.0001960 4753.44824 5041.13867
5001.0 0.0002000 4752.81738 5031.15381
5029.0 0.0001988 4752.17969 5026.04834
4944.0 0.0002023 4751.53906 5025.88916
5070.0 0.0001972 4750.89453 5030.69873
5006.0 0.0001998 4750.24268 5040.49072
5028.0 0.0001989 4749.58984 5055.25391
5084.0 0.0001967 4748.93213 5074.89551
5182.0 0.0001930 4748.26904 5099.26514
5060.0 0.0001976 4747.60352 5128.10059
5213.0 0.0001918 4746.93115 5161.04932
5178.0 0.0001931 4746.25635 5197.55713
5304.0 0.0001885 4745.57617 5237.04395
5340.0 0.0001873 4744.89307 5278.75635
5450.0 0.0001835 4744.20508 5321.77246
5401.0 0.0001852 4743.51416 5364.91895
5564.0 0.0001797 4742.81836 5406.77979
5577.0 0.0001793 4742.11719 5445.72314
5594.0 0.0001788 4741.41309 5480.05957
5801.0 0.0001724 4740.70410 5508.16113
5834.0 0.0001714 4739.99121 5528.76709
5765.0 0.0001735 4739.27588 5541.11230
5835.0 0.0001714 4738.55420 5545.15381
5876.0 0.0001702 4737.83008 5541.71924
5715.0 0.0001750 4737.10059 5532.42139
5596.0 0.0001787 4736.36768 5519.32080
5555.0 0.0001800 4735.63037 5504.48486
5576.0 0.0001793 4734.89063 5489.29688
5475.0 0.0001826 4734.14404 5474.81055
5319.0 0.0001880 4733.39600 5461.66260
5299.0 0.0001887 4732.64502 5450.57813
5289.0 0.0001891 4731.88672 5442.24609
5348.0 0.0001870 4731.12695 5437.91162
5325.0 0.0001878 4730.36279 5438.78467
5324.0 0.0001878 4729.59424 5445.36377
5207.0 0.0001920 4728.82324 5457.82471
5175.0 0.0001932 4728.04688 5475.49365
5285.0 0.0001892 4727.26855 5496.54883
5370.0 0.0001862 4726.48633 5520.44287
5398.0 0.0001853 4725.69727 5544.96240
5449.0 0.0001835 4724.90820 5568.48193
5297.0 0.0001888 4724.11328 5589.77246
5414.0 0.0001847 4723.31641 5607.10010
5496.0 0.0001820 4722.51416 5618.51953
5319.0 0.0001880 4721.71094 5621.86035
5256.0 0.0001903 4720.90088 5615.10059
5331.0 0.0001876 4720.09033 5596.99121
5213.0 0.0001918 4719.27588 5567.50000
5327.0 0.0001877 4718.45459 5528.00537
5272.0 0.0001897 4717.63428 5480.64990
5229.0 0.0001912 4716.80713 5428.23877
5187.0 0.0001928 4715.98096 5373.54053
5136.0 0.0001947 4715.14746 5319.07031
5228.0 0.0001913 4714.31201 5267.02539
5112.0 0.0001956 4713.47314 5219.18359
5225.0 0.0001914 4712.63086 5176.89209
5200.0 0.0001923 4711.78564 5141.09863
5094.0 0.0001963 4710.93945 5112.44189
5157.0 0.0001939 4710.08643 5091.14453
5055.0 0.0001978 4709.23193 5077.32617
5210.0 0.0001919 4708.37402 5070.89502
5112.0 0.0001956 4707.51367 5071.52734
5156.0 0.0001939 4706.65088 5078.80322
5208.0 0.0001920 4705.78223 5092.10938
5268.0 0.0001898 4704.91455 5110.65723
5255.0 0.0001903 4704.04102 5133.44580
5186.0 0.0001928 4703.16602 5159.27148
5311.0 0.0001883 4702.28906 5186.74561
5319.0 0.0001880 4701.40771 5214.40234
5325.0 0.0001878 4700.52344 5240.88281
5371.0 0.0001862 4699.63867 5265.12061
5322.0 0.0001879 4698.74854 5286.53418
5451.0 0.0001835 4697.85840 5305.18896
5403.0 0.0001851 4696.96436 5321.59766
5379.0 0.0001859 4696.06787 5336.83496
5436.0 0.0001840 4695.16699 5352.16748
5404.0 0.0001850 4694.26465 5368.93311
5442.0 0.0001838 4693.36230 5388.29980
5549.0 0.0001802 4692.45605 5411.06982
5527.0 0.0001809 4691.54834 5437.26270
5545.0 0.0001803 4690.63623 5466.26855
5584.0 0.0001791 4689.72266 5496.66846
5659.0 0.0001767 4688.80566 5526.57422
5644.0 0.0001772 4687.88818 5553.73828
5775.0 0.0001732 4686.97021 5576.22949
5770.0 0.0001733 4686.04639 5592.83984
5639.0 0.0001773 4685.12158 5603.06201
5792.0 0.0001727 4684.19678 5606.70703
5642.0 0.0001772 4683.26807 5604.04883
5601.0 0.0001785 4682.33887 5595.47070
5425.0 0.0001843 4681.40723 5581.43115
5544.0 0.0001804 4680.47412 5562.36279
5312.0 0.0001883 4679.53662 5539.12305
5333.0 0.0001875 4678.60010 5511.04395
5345.0 0.0001871 4677.66064 5478.79004
5236.0 0.0001910 4676.72119 5442.61719
5132.0 0.0001949 4675.77832 5402.90234
5199.0 0.0001923 4674.83545 5360.27441
5222.0 0.0001915 4673.88916 5315.67578
5107.0 0.0001958 4672.94092 5270.38281
5236.0 0.0001910 4671.99561 5225.83643
5117.0 0.0001954 4671.04541 5183.47021
5201.0 0.0001923 4670.09521 5144.51855
5218.0 0.0001916 4669.14307 5109.88330
5060.0 0.0001976 4668.18994 5080.34717
5027.0 0.0001989 4667.23389 5055.69531
4939.0 0.0002025 4666.27783 5036.12939
5027.0 0.0001989 4665.32178 5021.51367
5005.0 0.0001998 4664.36523 5011.55029
5118.0 0.0001954 4663.40576 5005.76807
5077.0 0.0001970 4662.44531 5002.87061
4886.0 0.0002047 4661.48389 5003.34326
4943.0 0.0002023 4660.52344 5005.46631
4918.0 0.0002033 4659.56006 5008.02295
5039.0 0.0001985 4658.59766 5009.71338
4975.0 0.0002010 4657.63379 5009.30029
4980.0 0.0002008 4656.66992 5005.89160
4911.0 0.0002036 4655.70410 4998.96387
4955.0 0.0002018 4654.74170 4988.74072
4868.0 0.0002054 4653.77393 4975.86572
4950.0 0.0002020 4652.80762 4961.32227
5078.0 0.0001969 4651.84033 4946.00537
4984.0 0.0002006 4650.87207 4930.75146
4968.0 0.0002013 4649.90576 4916.08301
4972.0 0.0002011 4648.93799 4902.36182
4912.0 0.0002036 4647.96924 4889.64795
5008.0 0.0001997 4647.00342 4877.81445
4891.0 0.0002045 4646.03418 4867.10645
4908.0 0.0002037 4645.06689 4857.36182
4932.0 0.0002028 4644.09863 4848.62256
4883.0 0.0002048 4643.13037 4841.00537
4866.0 0.0002055 4642.16455 4834.67432
4972.0 0.0002011 4641.19482 4829.77979
4855.0 0.0002060 4640.22656 4826.46484
4913.0 0.0002035 4639.26025 4824.83008
4913.0 0.0002035 4638.29541 4824.97607
4985.0 0.0002006 4637.32813 4826.96533
5007.0 0.0001997 4636.36133 4830.68994
4800.0 0.0002083 4635.39551 4836.18604
4761.0 0.0002100 4634.43018 4843.36816
4836.0 0.0002068 4633.46631 4852.22705
4865.0 0.0002055 4632.50195 4862.21777
4833.0 0.0002069 4631.53955 4873.09814
4915.0 0.0002035 4630.57861 4884.37988
4914.0 0.0002035 4629.61670 4895.49658
4920.0 0.0002033 4628.65723 4905.90576
4898.0 0.0002042 4627.69775 4915.24219
5010.0 0.0001996 4626.73877 4923.19922
5091.0 0.0001964 4625.78076 4929.94873
4944.0 0.0002023 4624.82471 4935.99414
4990.0 0.0002004 4623.87012 4941.93311
5058.0 0.0001977 4622.91553 4948.55615
4967.0 0.0002013 4621.96240 4957.52051
4948.0 0.0002021 4621.01123 4969.64697
4997.0 0.0002001 4620.06201 4985.92773
4926.0 0.0002030 4619.11133 5007.17383
4998.0 0.0002001 4618.16797 5033.94971
5121.0 0.0001953 4617.22070 5066.52246
5039.0 0.0001985 4616.27637 5104.87109
5118.0 0.0001954 4615.33154 5148.62598
5111.0 0.0001957 4614.39355 5197.10791
5254.0 0.0001903 4613.45508 5249.35156
5198.0 0.0001924 4612.51611 5304.14648
5196.0 0.0001925 4611.58252 5360.04639
5145.0 0.0001944 4610.64893 5415.32617
5152.0 0.0001941 4609.71631 5467.91406
5356.0 0.0001867 4608.78711 5515.33350
5235.0 0.0001910 4607.86035 5554.45166
5264.0 0.0001900 4606.93457 5582.93945
5325.0 0.0001878 4606.01123 5598.01221
5340.0 0.0001873 4605.09277 5598.24707
5290.0 0.0001890 4604.17285 5583.68018
5183.0 0.0001929 4603.25635 5555.92773
5264.0 0.0001900 4602.34277 5517.73193
5298.0 0.0001888 4601.43115 5472.45654
5185.0 0.0001929 4600.52295 5423.16016
5125.0 0.0001951 4599.61670 5372.42871
5089.0 0.0001965 4598.71289 5322.03516
5082.0 0.0001968 4597.81104 5273.19043
5178.0 0.0001931 4596.91455 5226.59961
5111.0 0.0001957 4596.01904 5183.00586
5186.0 0.0001928 4595.12549 5142.99951
5115.0 0.0001955 4594.23535 5107.33252
5078.0 0.0001969 4593.34912 5076.67139
5080.0 0.0001969 4592.46582 5051.47266
5059.0 0.0001977 4591.58252 5031.91602
5090.0 0.0001965 4590.70605 5017.47168
5041.0 0.0001984 4589.83301 5008.39209
5114.0 0.0001955 4588.96045 5003.50928
5031.0 0.0001988 4588.09229 5001.84863
4975.0 0.0002010 4587.22754 5002.36328
5073.0 0.0001971 4586.36621 5004.11865
4992.0 0.0002003 4585.50879 5006.36719
4970.0 0.0002012 4584.65381 5008.64844
5065.0 0.0001974 4583.80371 5010.64502
5028.0 0.0001989 4582.95410 5011.52881
4917.0 0.0002034 4582.11084 5010.87549
4928.0 0.0002029 4581.26953 5007.56348
4939.0 0.0002025 4580.43213 5000.95361
4928.0 0.0002029 4579.60010 4990.56787
4935.0 0.0002026 4578.77002 4976.16943
4849.0 0.0002062 4577.94629 4958.90430
4893.0 0.0002044 4577.12402 4939.45508
4912.0 0.0002036 4576.30762 4918.95264
4813.0 0.0002078 4575.49268 4898.44775
4862.0 0.0002057 4574.68457 4878.81787
4771.0 0.0002096 4573.87842 4860.67041
4787.0 0.0002089 4573.07764 4844.38232
4835.0 0.0002068 4572.27979 4830.11816
4909.0 0.0002037 4571.48779 4817.89795
4844.0 0.0002064 4570.70068 4807.71143
4880.0 0.0002049 4569.91650 4799.33203
4867.0 0.0002055 4569.13525 4793.05420
4842.0 0.0002065 4568.36035 4788.36182
4882.0 0.0002048 4567.58887 4785.67822
4869.0 0.0002054 4566.82275 4785.16650
4873.0 0.0002052 4566.06104 4787.03613
4937.0 0.0002026 4565.30469 4791.41797
4856.0 0.0002059 4564.55273 4798.34033
4893.0 0.0002044 4563.80469 4807.69629
4950.0 0.0002020 4563.06152 4818.69824
4875.0 0.0002051 4562.32422 4832.03857
4941.0 0.0002024 4561.58936 4846.24805
5007.0 0.0001997 4560.86182 4860.64697
5113.0 0.0001956 4560.13770 4874.25293
5073.0 0.0001971 4559.41895 4886.02295
5080.0 0.0001969 4558.70654 4894.96777
5062.0 0.0001976 4557.99902 4900.25586
5046.0 0.0001982 4557.29443 4901.37207
4998.0 0.0002001 4556.59619 4898.22217
4974.0 0.0002010 4555.90283 4891.18066
4994.0 0.0002002 4555.21484 4881.00537
5033.0 0.0001987 4554.53223 4868.87744
4863.0 0.0002056 4553.85352 4855.71387
4997.0 0.0002001 4553.18359 4842.61035
4981.0 0.0002008 4552.51611 4830.36084
4929.0 0.0002029 4551.85498 4819.38135
5008.0 0.0001997 4551.20020 4809.94482
4816.0 0.0002076 4550.55029 4802.09912
4829.0 0.0002071 4549.90430 4795.73096
4885.0 0.0002047 4549.26758 4790.71143
4783.0 0.0002091 4548.63281 4786.62744
4775.0 0.0002094 4548.00488 4783.22168
4844.0 0.0002064 4547.38330 4780.18555
4836.0 0.0002068 4546.76563 4777.21973
4852.0 0.0002061 4546.15723 4774.27588
4786.0 0.0002089 4545.55225 4771.14063
4820.0 0.0002075 4544.95215 4768.51318
4721.0 0.0002118 4544.35938 4766.52588
4815.0 0.0002077 4543.77246 4764.77637
4841.0 0.0002066 4543.19189 4763.40332
4702.0 0.0002127 4542.61670 4762.15283
4708.0 0.0002124 4542.04785 4760.61182
4719.0 0.0002119 4541.48438 4758.27344
4737.0 0.0002111 4540.92773 4754.68018
4820.0 0.0002075 4540.37598 4749.53955
4754.0 0.0002103 4539.83154 4742.85596
4722.0 0.0002118 4539.29248 4734.91309
4789.0 0.0002088 4538.76074 4726.21973
4798.0 0.0002084 4538.23535 4717.65381
4801.0 0.0002083 4537.71582 4709.42773
4762.0 0.0002100 4537.20068 4702.21289
4684.0 0.0002135 4536.69385 4696.19482
4681.0 0.0002136 4536.19336 4691.93018
4752.0 0.0002104 4535.69727 4689.69336
4737.0 0.0002111 4535.21045 4689.72217
4656.0 0.0002148 4534.72852 4692.16650
4708.0 0.0002124 4534.25293 4697.12988
4756.0 0.0002103 4533.78516 4704.64893
4748.0 0.0002106 4533.32178 4714.66992
4853.0 0.0002061 4532.86719 4727.07813
4748.0 0.0002106 4532.41748 4741.66016
4821.0 0.0002074 4531.97559 4758.11035
4785.0 0.0002090 4531.53857 4776.00244
4800.0 0.0002083 4531.11035 4794.72314
4815.0 0.0002077 4530.68701 4813.58154
4847.0 0.0002063 4530.27100 4831.63428
4766.0 0.0002098 4529.86279 4847.99170
4857.0 0.0002059 4529.46045 4861.59180
4868.0 0.0002054 4529.06494 4871.59424
4846.0 0.0002064 4528.67578 4878.03906
4956.0 0.0002018 4528.29297 4880.84375
4893.0 0.0002044 4527.91895 4880.52881
4866.0 0.0002055 4527.55078 4877.88770
4715.0 0.0002121 4527.18896 4873.83545
4806.0 0.0002081 4526.83252 4869.34277
4828.0 0.0002071 4526.48535 4865.31445
4879.0 0.0002050 4526.14453 4862.59375
4786.0 0.0002089 4525.81104 4861.93311
4953.0 0.0002019 4525.48291 4863.97900
4762.0 0.0002100 4525.16309 4869.40088
4729.0 0.0002115 4524.84961 4878.25781
4871.0 0.0002053 4524.54443 4890.81396
4877.0 0.0002050 4524.24512 4906.90479
4776.0 0.0002094 4523.95117 4926.07471
4838.0 0.0002067 4523.66748 4947.40820
4852.0 0.0002061 4523.38916 4969.95264
4924.0 0.0002031 4523.11719 4992.13672
4968.0 0.0002013 4522.85449 5012.37549
4980.0 0.0002008 4522.59766 5029.21973
4943.0 0.0002023 4522.34668 5041.75830
4997.0 0.0002001 4522.10254 5049.52637
4998.0 0.0002001 4521.86768 5053.95605
4988.0 0.0002005 4521.64014 5055.99023
5047.0 0.0001981 4521.41846 5057.10938
5034.0 0.0001986 4521.20508 5058.71289
5052.0 0.0001979 4520.99609 5061.85938
5106.0 0.0001958 4520.79688 5067.31885
5049.0 0.0001981 4520.60449 5075.53516
5100.0 0.0001961 4520.41699 5086.68750
5139.0 0.0001946 4520.23975 5100.85156
5114.0 0.0001955 4520.06934 5117.91992
5122.0 0.0001952 4519.90283 5138.07275
5098.0 0.0001962 4519.74658 5160.86377
5140.0 0.0001946 4519.59717 5186.04395
5008.0 0.0001997 4519.45313 5212.55615
5088.0 0.0001965 4519.31641 5239.04639
5111.0 0.0001957 4519.18945 5263.42383
5120.0 0.0001953 4519.06836 5282.98340
5219.0 0.0001916 4518.95361 5294.93896
5288.0 0.0001891 4518.84668 5296.73584
5269.0 0.0001898 4518.74658 5286.85303
5212.0 0.0001919 4518.65479 5265.21533
5267.0 0.0001899 4518.57031 5233.20752
5230.0 0.0001912 4518.49121 5193.15527
5151.0 0.0001941 4518.41943 5148.07959
5164.0 0.0001936 4518.35596 5100.51563
5019.0 0.0001992 4518.29932 5052.78613
5169.0 0.0001935 4518.25049 5006.63184
5064.0 0.0001975 4518.20605 4963.29443
5056.0 0.0001978 4518.17139 4923.59912
5038.0 0.0001985 4518.14307 4887.74756
4872.0 0.0002053 4518.12256 4856.47217
4925.0 0.0002030 4518.10840 4829.64502
4853.0 0.0002061 4518.10059 4807.08740
4904.0 0.0002039 4518.10205 4788.72754
4960.0 0.0002016 4518.10889 4774.38232
4826.0 0.0002072 4518.12256 4763.82275
4792.0 0.0002087 4518.14404 4756.78809
4802.0 0.0002082 4518.17285 4752.89063
4871.0 0.0002053 4518.20898 4751.73779
4998.0 0.0002001 4518.25146 4752.88281
4898.0 0.0002042 4518.30078 4755.83154
4883.0 0.0002048 4518.35645 4760.02344
4970.0 0.0002012 4518.41992 4764.56592
5008.0 0.0001997 4518.49219 4769.78174
4804.0 0.0002082 4518.56885 4774.88867
4822.0 0.0002074 4518.65234 4779.64014
4865.0 0.0002055 4518.74561 4783.87695
4872.0 0.0002053 4518.84424 4787.60205
4851.0 0.0002061 4518.94873 4790.86963
4876.0 0.0002051 4519.05957 4793.90967
4929.0 0.0002029 4519.17920 4797.11426
4844.0 0.0002064 4519.30518 4800.74756
4891.0 0.0002045 4519.43896 4805.24902
4950.0 0.0002020 4519.57813 4810.92773
4862.0 0.0002057 4519.72559 4818.38818
4873.0 0.0002052 4519.87646 4827.77539
4974.0 0.0002010 4520.03662 4839.26465
4941.0 0.0002024 4520.20410 4852.89893
4838.0 0.0002067 4520.37549 4868.49268
4808.0 0.0002080 4520.55811 4885.55029
4790.0 0.0002088 4520.74316 4903.57568
4829.0 0.0002071 4520.93750 4921.74365
4968.0 0.0002013 4521.13770 4939.18896
4928.0 0.0002029 4521.34131 4955.24023
4878.0 0.0002050 4521.55615 4968.69531
4949.0 0.0002021 4521.77588 4979.01758
4926.0 0.0002030 4522.00146 4985.61084
4910.0 0.0002037 4522.23438 4988.40576
4952.0 0.0002019 4522.47217 4987.44287
4971.0 0.0002012 4522.71875 4983.47559
4832.0 0.0002070 4522.97021 4977.05176
4961.0 0.0002016 4523.22754 4968.45020
4960.0 0.0002016 4523.49219 4958.50879
4970.0 0.0002012 4523.76270 4947.54004
5058.0 0.0001977 4524.04004 4936.21826
4963.0 0.0002015 4524.32422 4924.61328
4941.0 0.0002024 4524.61133 4913.53320
4941.0 0.0002024 4524.90869 4903.70361
4919.0 0.0002033 4525.21045 4895.86084
4946.0 0.0002022 4525.51807 4890.62842
4960.0 0.0002016 4525.83105 4888.43213
4878.0 0.0002050 4526.15283 4889.45947
4875.0 0.0002051 4526.47754 4893.56641
4944.0 0.0002023 4526.81055 4900.42188
4975.0 0.0002010 4527.14746 4909.05176
4973.0 0.0002011 4527.49121 4918.53516
4886.0 0.0002047 4527.84131 4927.54199
4856.0 0.0002059 4528.19824 4934.67188
4889.0 0.0002045 4528.55957 4938.80664
4874.0 0.0002052 4528.92627 4939.05957
4855.0 0.0002060 4529.29883 4935.04688
4931.0 0.0002028 4529.67578 4927.41650
4916.0 0.0002034 4530.06201 4916.85889
4924.0 0.0002031 4530.45117 4904.55029
4905.0 0.0002039 4530.84668 4891.30957
4845.0 0.0002064 4531.24854 4878.15576
4913.0 0.0002035 4531.65430 4865.73096
4904.0 0.0002039 4532.06543 4854.42676
4980.0 0.0002008 4532.48291 4844.37793
4990.0 0.0002004 4532.90723 4835.53125
4926.0 0.0002030 4533.33398 4827.81641
4933.0 0.0002027 4533.76611 4820.65479
4878.0 0.0002050 4534.20410 4813.88525
4816.0 0.0002076 4534.64990 4807.19238
4863.0 0.0002056 4535.09814 4800.31348
4891.0 0.0002045 4535.55127 4793.05371
4761.0 0.0002100 4536.00977 4785.25830
4845.0 0.0002064 4536.47461 4777.23096
4871.0 0.0002053 4536.94287 4769.07959
4722.0 0.0002118 4537.41748 4761.12402
4825.0 0.0002073 4537.89600 4753.74658
4788.0 0.0002089 4538.37939 4747.34229
4779.0 0.0002092 4538.86719 4742.23779
4890.0 0.0002045 4539.36035 4738.72656
4910.0 0.0002037 4539.85742 4737.02393
4784.0 0.0002090 4540.36035 4737.26416
4770.0 0.0002096 4540.86719 4739.54150
4803.0 0.0002082 4541.37793 4743.81934
4790.0 0.0002088 4541.89502 4750.02783
4777.0 0.0002093 4542.41553 4757.98877
4734.0 0.0002112 4542.93896 4767.41846
4817.0 0.0002076 4543.46875 4778.01855
4707.0 0.0002124 4544.00244 4789.38623
4745.0 0.0002107 4544.54150 4801.02637
4800.0 0.0002083 4545.08252 4812.47070
4828.0 0.0002071 4545.62891 4823.22168
4894.0 0.0002043 4546.17773 4833.38965
4793.0 0.0002086 4546.73145 4842.39600
4914.0 0.0002035 4547.29199 4851.37500
5014.0 0.0001994 4547.85303 4860.33447
4869.0 0.0002054 4548.41943 4869.76904
4937.0 0.0002026 4548.98828 4880.12158
4908.0 0.0002037 4549.56055 4891.70361
4904.0 0.0002039 4550.13965 4904.66797
4838.0 0.0002067 4550.71875 4918.98730
4890.0 0.0002045 4551.30518 4934.54980
4955.0 0.0002018 4551.89209 4951.16748
4915.0 0.0002035 4552.48340 4968.76904
4926.0 0.0002030 4553.07861 4987.21729
5009.0 0.0001996 4553.67676 5006.94775
5087.0 0.0001966 4554.27881 5028.24512
5109.0 0.0001957 4554.88330 5051.58154
5064.0 0.0001975 4555.49268 5077.39404
5148.0 0.0001943 4556.10352 5105.82080
5234.0 0.0001911 4556.71777 5137.44629
5171.0 0.0001934 4557.33545 5170.48096
5223.0 0.0001915 4557.95557 5204.69238
5303.0 0.0001886 4558.57959 5239.08398
5283.0 0.0001893 4559.20752 5272.45947
5234.0 0.0001911 4559.83594 5303.52490
5290.0 0.0001890 4560.46875 5331.00049
5303.0 0.0001886 4561.10205 5353.50732
5316.0 0.0001881 4561.73975 5369.80273
5312.0 0.0001883 4562.37988 5378.91943
5240.0 0.0001908 4563.02197 5380.59180
5276.0 0.0001895 4563.66797 5375.32373
5299.0 0.0001887 4564.31299 5364.03906
5257.0 0.0001902 4564.96387 5348.82471
5369.0 0.0001863 4565.61572 5331.90186
5296.0 0.0001888 4566.26904 5315.45947
5243.0 0.0001907 4566.92725 5301.42920
5389.0 0.0001856 4567.58643 5291.30176
5252.0 0.0001904 4568.24609 5286.15088
5264.0 0.0001900 4568.90869 5286.60840
5275.0 0.0001896 4569.57471 5292.87939
5287.0 0.0001891 4570.24023 5304.89502
5227.0 0.0001913 4570.90820 5322.15820
5262.0 0.0001900 4571.57813 5343.56104
5379.0 0.0001859 4572.25000 5367.95361
5318.0 0.0001880 4572.92529 5393.68799
5286.0 0.0001892 4573.59961 5418.77246
5352.0 0.0001868 4574.27686 5440.85547
5369.0 0.0001863 4574.95459 5457.41650
5437.0 0.0001839 4575.63525 5466.12256
5309.0 0.0001884 4576.31592 5465.39014
5271.0 0.0001897 4576.99805 5454.26563
5406.0 0.0001850 4577.68213 5433.47510
5343.0 0.0001872 4578.36523 5404.67871
5312.0 0.0001883 4579.05225 5370.19531
5236.0 0.0001910 4579.74023 5332.45410
5245.0 0.0001907 4580.42578 5293.61475
5255.0 0.0001903 4581.11670 5255.04639
5321.0 0.0001879 4581.80566 5218.30371
5169.0 0.0001935 4582.49609 5183.58350
5255.0 0.0001903 4583.18750 5150.99463
5313.0 0.0001882 4583.87891 5120.29248
5230.0 0.0001912 4584.57275 5091.36230
5181.0 0.0001930 4585.26611 5064.14258
5197.0 0.0001924 4585.95801 5038.76123
5112.0 0.0001956 4586.65381 5015.53760
5149.0 0.0001942 4587.34766 4994.84326
5043.0 0.0001983 4588.04248 4977.06201
5072.0 0.0001972 4588.73877 4962.44434
5041.0 0.0001984 4589.43457 4951.10840
4994.0 0.0002002 4590.12891 4943.01807
5088.0 0.0001965 4590.82422 4937.99463
5040.0 0.0001984 4591.52051 4935.74170
5088.0 0.0001965 4592.21582 4935.83984
4999.0 0.0002000 4592.91113 4937.77490
5040.0 0.0001984 4593.60742 4940.98975
5182.0 0.0001930 4594.30078 4944.85547
4990.0 0.0002004 4594.99805 4948.79688
5017.0 0.0001993 4595.69482 4952.26758
5002.0 0.0001999 4596.38574 4954.97852
4939.0 0.0002025 4597.08057 4956.65186
4976.0 0.0002010 4597.77393 4957.24072
5086.0 0.0001966 4598.46777 4956.88330
5026.0 0.0001990 4599.15967 4955.88525
4922.0 0.0002032 4599.85059 4954.64551
4975.0 0.0002010 4600.54297 4953.55322
5054.0 0.0001979 4601.23291 4952.89502
4894.0 0.0002043 4601.92285 4952.73486
5029.0 0.0001988 4602.61084 4952.93262
4957.0 0.0002017 4603.29785 4953.18750
5127.0 0.0001950 4603.98291 4952.91699
5117.0 0.0001954 4604.67090 4951.59131
5025.0 0.0001990 4605.35498 4948.75586
5029.0 0.0001988 4606.03809 4944.13965
5021.0 0.0001992 4606.71924 4937.92236
5005.0 0.0001998 4607.39941 4930.60986
4960.0 0.0002016 4608.08008 4922.91016
4992.0 0.0002003 4608.75830 4915.59326
4981.0 0.0002008 4609.43506 4909.39844
4853.0 0.0002061 4610.11035 4905.01416
5036.0 0.0001986 4610.78271 4902.87988
4950.0 0.0002020 4611.45459 4903.45801
4917.0 0.0002034 4612.12646 4907.03027
4949.0 0.0002021 4612.79297 4913.87109
4917.0 0.0002034 4613.46240 4924.05029
4935.0 0.0002026 4614.12646 4937.52051
4935.0 0.0002026 4614.79004 4954.12402
4881.0 0.0002049 4615.45068 4973.51514
4956.0 0.0002018 4616.10938 4995.16553
4987.0 0.0002005 4616.76563 5018.25146
5023.0 0.0001991 4617.42236 5042.03906
5054.0 0.0001979 4618.07422 5064.72559
5118.0 0.0001954 4618.72559 5085.01123
5087.0 0.0001966 4619.37402 5101.07471
5174.0 0.0001933 4620.02002 5111.94971
5148.0 0.0001943 4620.66406 5116.44189
5204.0 0.0001922 4621.30518 5114.26758
5015.0 0.0001994 4621.94629 5105.90479
5134.0 0.0001948 4622.58252 5092.45166
5083.0 0.0001967 4623.21582 5075.37646
5025.0 0.0001990 4623.84668 5056.21973
5048.0 0.0001981 4624.47754 5036.37061
5014.0 0.0001994 4625.10205 5016.94580
4958.0 0.0002017 4625.72656 4998.23975
5044.0 0.0001983 4626.34814 4981.88525
4980.0 0.0002008 4626.96533 4967.39502
4999.0 0.0002000 4627.58105 4955.00000
4989.0 0.0002004 4628.19434 4944.69043
5052.0 0.0001979 4628.80225 4936.37988
5140.0 0.0001946 4629.40918 4929.94775
5072.0 0.0001972 4630.01270 4925.25195
5073.0 0.0001971 4630.61084 4922.19385
4932.0 0.0002028 4631.20850 4920.34961
4993.0 0.0002003 4631.80273 4919.00830
5026.0 0.0001990 4632.39502 4918.17920
5066.0 0.0001974 4632.98193 4917.25195
4987.0 0.0002005 4633.56543 4916.03711
4985.0 0.0002006 4634.14746 4914.43750
4948.0 0.0002021 4634.72510 4912.59668
4937.0 0.0002026 4635.29736 4910.83740
5025.0 0.0001990 4635.86865 4909.59473
4983.0 0.0002007 4636.43652 4909.24707
4977.0 0.0002009 4637.00098 4910.22852
4964.0 0.0002015 4637.56152 4912.87256
4988.0 0.0002005 4638.11475 4917.47900
5077.0 0.0001970 4638.66992 4924.30762
4984.0 0.0002006 4639.21924 4933.55127
4999.0 0.0002000 4639.76465 4945.35449
5032.0 0.0001987 4640.30420 4959.91699
5017.0 0.0001993 4640.84473 4977.27832
4982.0 0.0002007 4641.37793 4997.40088
5023.0 0.0001991 4641.90820 5020.40283
5002.0 0.0001999 4642.43311 5046.07129
5098.0 0.0001962 4642.95752 5074.52832
5075.0 0.0001970 4643.47656 5105.81494
5041.0 0.0001984 4643.99072 5140.17090
5114.0 0.0001955 4644.50049 5177.88184
5083.0 0.0001967 4645.00732 5219.28760
5069.0 0.0001973 4645.50928 5264.67920
5051.0 0.0001980 4646.00732 5314.18701
5087.0 0.0001966 4646.50195 5367.65430
5252.0 0.0001904 4646.99219 5424.59668
5378.0 0.0001859 4647.47803 5484.19971
5395.0 0.0001854 4647.95996 5545.33691
5308.0 0.0001884 4648.43652 5606.71582
5396.0 0.0001853 4648.91016 5666.93506
5387.0 0.0001856 4649.38037 5724.59570
5440.0 0.0001838 4649.84277 5778.33105
5555.0 0.0001800 4650.30469 5826.91895
5607.0 0.0001783 4650.75928 5868.98633
5609.0 0.0001783 4651.20996 5903.14941
5653.0 0.0001769 4651.65869 5927.59473
5825.0 0.0001717 4652.10059 5941.09326
5815.0 0.0001720 4652.53857 5942.22998
5852.0 0.0001709 4652.97168 5930.34082
5774.0 0.0001732 4653.39990 5905.60596
5789.0 0.0001727 4653.82471 5869.09131
5828.0 0.0001716 4654.24561 5822.54199
5688.0 0.0001758 4654.66064 5768.33301
5648.0 0.0001771 4655.07178 5708.87109
5545.0 0.0001803 4655.47803 5646.84424
5377.0 0.0001860 4655.87988 5584.47900
5433.0 0.0001841 4656.27539 5523.76660
5324.0 0.0001878 4656.66797 5466.18359
5435.0 0.0001840 4657.05615 5412.68896
5287.0 0.0001891 4657.43945 5363.78125
5414.0 0.0001847 4657.81787 5319.64600
5346.0 0.0001871 4658.19141 5280.05078
5330.0 0.0001876 4658.55957 5244.89697
5249.0 0.0001905 4658.92285 5214.07275
5319.0 0.0001880 4659.28369 5187.45557
5096.0 0.0001962 4659.63818 5165.01416
5098.0 0.0001962 4659.98730 5146.63916
5095.0 0.0001963 4660.33252 5132.12842
4956.0 0.0002018 4660.67334 5121.09766
5021.0 0.0001992 4661.00781 5113.03760
5023.0 0.0001991 4661.33789 5107.37500
4974.0 0.0002010 4661.66553 5103.36914
4924.0 0.0002031 4661.98584 5100.33740
5045.0 0.0001982 4662.30225 5097.72217
4949.0 0.0002021 4662.61230 5094.94336
4926.0 0.0002030 4662.91895 5091.45703
5066.0 0.0001974 4663.21973 5086.72168
4981.0 0.0002008 4663.51807 5080.26709
5016.0 0.0001994 4663.80957 5071.71387
5115.0 0.0001955 4664.09570 5061.10449
5106.0 0.0001958 4664.37842 5048.55859
5124.0 0.0001952 4664.65723 5034.63135
5144.0 0.0001944 4664.92920 5019.89160
5044.0 0.0001983 4665.19482 5005.10596
4980.0 0.0002008 4665.45850 4990.91992
5170.0 0.0001934 4665.71631 4977.65576
5075.0 0.0001970 4665.97021 4965.88135
5042.0 0.0001983 4666.21924 4956.04443
5077.0 0.0001970 4666.46045 4947.95605
4906.0 0.0002038 4666.69873 4941.70166
4941.0 0.0002024 4666.93213 4937.26221
4962.0 0.0002015 4667.16113 4934.67432
4904.0 0.0002039 4667.38574 4933.60791
4950.0 0.0002020 4667.60352 4933.72803
4954.0 0.0002019 4667.82129 4934.68555
4888.0 0.0002046 4668.02832 4936.09912
4881.0 0.0002049 4668.23291 4937.68701
4936.0 0.0002026 4668.43311 4939.27539
4925.0 0.0002030 4668.62842 4940.87402
4892.0 0.0002044 4668.81934 4942.67480
4934.0 0.0002027 4669.00342 4944.95264
4838.0 0.0002067 4669.18555 4948.38135
4781.0 0.0002092 4669.36133 4953.48535
4927.0 0.0002030 4669.53320 4960.91406
4923.0 0.0002031 4669.69873 4971.33838
4854.0 0.0002060 4669.86084 4985.40625
4932.0 0.0002028 4670.01758 5003.71094
4950.0 0.0002020 4670.17188 5026.76855
4831.0 0.0002070 4670.31836 5055.03418
4874.0 0.0002052 4670.46094 5088.74316
4948.0 0.0002021 4670.60156 5128.11816
4988.0 0.0002005 4670.73584 5173.02783
5086.0 0.0001966 4670.86426 5223.27197
5163.0 0.0001937 4670.98975 5278.47314
5250.0 0.0001905 4671.10986 5337.54297
5413.0 0.0001847 4671.22461 5399.50000
5583.0 0.0001791 4671.33838 5463.10107
5632.0 0.0001776 4671.44482 5526.57813
5908.0 0.0001693 4671.54590 5587.81982
5952.0 0.0001680 4671.64551 5644.35352
6170.0 0.0001621 4671.73682 5693.48730
6318.0 0.0001583 4671.82715 5732.60156
6364.0 0.0001571 4671.91211 5759.68848
6269.0 0.0001595 4671.99170 5773.75000
6269.0 0.0001595 4672.06836 5775.00146
6004.0 0.0001666 4672.13965 5765.01660
5792.0 0.0001727 4672.20752 5746.09375
5742.0 0.0001742 4672.27002 5720.73096
5590.0 0.0001789 4672.33008 5691.16406
5434.0 0.0001840 4672.38525 5659.01807
5397.0 0.0001853 4672.43506 5625.25830
5328.0 0.0001877 4672.48193 5590.33887
5292.0 0.0001890 4672.52441 5554.38965
5170.0 0.0001934 4672.56299 5517.56104
5263.0 0.0001900 4672.59619 5480.12744
5130.0 0.0001949 4672.62646 5442.79004
5066.0 0.0001974 4672.65381 5406.47266
5125.0 0.0001951 4672.67480 5372.21826
5056.0 0.0001978 4672.69482 5340.96289
5067.0 0.0001974 4672.70947 5313.36865
5026.0 0.0001990 4672.71973 5289.78760
5075.0 0.0001970 4672.72852 5270.23291
5005.0 0.0001998 4672.73193 5254.44482
5078.0 0.0001969 4672.73047 5242.02637
5000.0 0.0002000 4672.72656 5232.53613
5076.0 0.0001970 4672.71729 5225.55029
5121.0 0.0001953 4672.70703 5220.84131
5143.0 0.0001944 4672.69092 5218.17578
5001.0 0.0002000 4672.67432 5217.30029
5070.0 0.0001972 4672.65137 5217.81104
4955.0 0.0002018 4672.62695 5219.17090
5152.0 0.0001941 4672.59717 5220.70361
5093.0 0.0001963 4672.56592 5221.76855
5162.0 0.0001937 4672.52832 5221.82520
5089.0 0.0001965 4672.48828 5220.55518
5132.0 0.0001949 4672.44678 5217.79639
5101.0 0.0001960 4672.40186 5213.44727
5064.0 0.0001975 4672.35352 5207.31299
4965.0 0.0002014 4672.29980 5199.05566
4995.0 0.0002002 4672.24609 5188.26611
4922.0 0.0002032 4672.18750 5174.36230
4932.0 0.0002028 4672.12695 5157.09619
4806.0 0.0002081 4672.06299 5136.49121
4929.0 0.0002029 4671.99756 5112.96436
4872.0 0.0002053 4671.92627 5087.23242
4794.0 0.0002086 4671.85449 5060.21875
4791.0 0.0002087 4671.77832 5032.83105
4811.0 0.0002079 4671.70020 5005.90674
4808.0 0.0002080 4671.61963 4980.11035
4812.0 0.0002078 4671.53613 4955.93213
4805.0 0.0002081 4671.44971 4933.71484
4709.0 0.0002124 4671.36279 4913.68115
4939.0 0.0002025 4671.27100 4895.91211
4800.0 0.0002083 4671.17773 4880.42383
4787.0 0.0002089 4671.08252 4867.12598
4853.0 0.0002061 4670.98486 4855.89990
4819.0 0.0002075 4670.88232 4846.58154
4825.0 0.0002073 4670.78027 4839.18164
4823.0 0.0002073 4670.67627 4833.20605
4862.0 0.0002057 4670.56787 4828.72217
4748.0 0.0002106 4670.45898 4825.67285
4712.0 0.0002122 4670.34863 4824.00781
4824.0 0.0002073 4670.23486 4823.71533
4788.0 0.0002089 4670.11963 4824.75781
4757.0 0.0002102 4670.00342 4827.11084
4846.0 0.0002064 4669.88379 4830.72412
4833.0 0.0002069 4669.76416 4835.51514
4839.0 0.0002067 4669.64258 4840.30664
4975.0 0.0002010 4669.51904 4847.15869
4811.0 0.0002079 4669.39209 4854.82129
4860.0 0.0002058 4669.26465 4863.13184
4812.0 0.0002078 4669.13574 4871.88379
4871.0 0.0002053 4669.00586 4880.84082
4885.0 0.0002047 4668.87549 4889.75488
4853.0 0.0002061 4668.74170 4898.40723
4873.0 0.0002052 4668.60938 4906.62891
4777.0 0.0002093 4668.47266 4914.60498
4978.0 0.0002009 4668.33691 4921.86621
4846.0 0.0002064 4668.19922 4928.66113
4888.0 0.0002046 4668.06055 4935.24365
4862.0 0.0002057 4667.92090 4941.82422
4919.0 0.0002033 4667.78027 4948.69482
4891.0 0.0002045 4667.64014 4956.06836
4892.0 0.0002044 4667.49512 4964.24463
5028.0 0.0001989 4667.35352 4973.31006
4971.0 0.0002012 4667.20996 4983.44775
4995.0 0.0002002 4667.06641 4994.42480
5150.0 0.0001942 4666.92041 5006.14160
5143.0 0.0001944 4666.77588 5017.98877
5171.0 0.0001934 4666.62988 5029.40234
5308.0 0.0001884 4666.48291 5039.62402
5275.0 0.0001896 4666.33545 5047.85693
5326.0 0.0001878 4666.18848 5053.47021
5359.0 0.0001866 4666.04150 5056.14697
5337.0 0.0001874 4665.89307 5055.94580
5319.0 0.0001880 4665.74707 5053.31982
5116.0 0.0001955 4665.59961 5049.05371
5139.0 0.0001946 4665.45264 5043.80664
5081.0 0.0001968 4665.30615 5038.59863
5002.0 0.0001999 4665.15576 5033.44336
4970.0 0.0002012 4665.00977 5028.93359
4873.0 0.0002052 4664.86279 5025.11035
4983.0 0.0002007 4664.71436 5021.78809
4955.0 0.0002018 4664.56885 5018.58447
4969.0 0.0002012 4664.42383 5015.01563
4928.0 0.0002029 4664.27832 5010.41797
4948.0 0.0002021 4664.13232 5004.37451
4864.0 0.0002056 4663.98877 4996.59424
4835.0 0.0002068 4663.84473 4987.05127
4855.0 0.0002060 4663.70117 4975.99121
4922.0 0.0002032 4663.55859 4963.82764
4878.0 0.0002050 4663.41748 4951.06250
4909.0 0.0002037 4663.27637 4938.19531
4793.0 0.0002086 4663.13721 4925.64941
4892.0 0.0002044 4662.99756 4913.73633
4851.0 0.0002061 4662.86084 4902.70947
4831.0 0.0002070 4662.72510 4892.71484
4827.0 0.0002072 4662.58936 4883.85352
4890.0 0.0002045 4662.45459 4876.17480
4868.0 0.0002054 4662.32178 4869.71338
4857.0 0.0002059 4662.18945 4864.45947
4862.0 0.0002057 4662.06104 4860.39502
4804.0 0.0002082 4661.93262 4857.46191
4843.0 0.0002065 4661.80322 4855.64014
4873.0 0.0002052 4661.67822 4854.92285
4940.0 0.0002024 4661.55420 4855.36133
4908.0 0.0002037 4661.43311 4856.91846
4898.0 0.0002042 4661.31299 4859.65869
4891.0 0.0002045 4661.19287 4863.60938
4962.0 0.0002015 4661.07715 4868.77734
4923.0 0.0002031 4660.96191 4875.12207
4766.0 0.0002098 4660.85010 4882.17529
4921.0 0.0002032 4660.73975 4890.78809
4880.0 0.0002049 4660.62891 4900.56836
4859.0 0.0002058 4660.52344 4911.72363
4973.0 0.0002011 4660.41797 4924.30469
5041.0 0.0001984 4660.31543 4938.68701
4920.0 0.0002033 4660.21582 4955.04590
4899.0 0.0002041 4660.11963 4973.56934
5173.0 0.0001933 4660.02441 4994.32666
5156.0 0.0001939 4659.93311 5017.21387
5178.0 0.0001931 4659.84375 5041.93457
5241.0 0.0001908 4659.75537 5067.97119
5381.0 0.0001858 4659.67188 5094.57910
5422.0 0.0001844 4659.58887 5120.72607
5448.0 0.0001836 4659.50879 5145.16260
5540.0 0.0001805 4659.43262 5166.44287
5574.0 0.0001794 4659.35938 5183.09570
5588.0 0.0001790 4659.28760 5193.90771
5565.0 0.0001797 4659.22070 5198.14746
5624.0 0.0001778 4659.15576 5194.91992
5495.0 0.0001820 4659.09424 5184.85938
5371.0 0.0001862 4659.03418 5168.87354
5412.0 0.0001848 4658.97949 5148.22803
5319.0 0.0001880 4658.92871 5124.35986
5185.0 0.0001929 4658.87988 5098.64355
5245.0 0.0001907 4658.83398 5072.34619
5088.0 0.0001965 4658.79053 5046.50049
5126.0 0.0001951 4658.75244 5021.89307
5211.0 0.0001919 4658.71680 4999.07666
5135.0 0.0001947 4658.68359 4978.41357
5115.0 0.0001955 4658.65771 4960.09766
5039.0 0.0001985 4658.63330 4944.18555
5091.0 0.0001964 4658.61035 4930.62598
5038.0 0.0001985 4658.59326 4919.33789
5039.0 0.0001985 4658.57910 4910.17969
5058.0 0.0001977 4658.57178 4902.99219
4936.0 0.0002026 4658.56445 4897.58984
4851.0 0.0002061 4658.56299 4893.81299
4815.0 0.0002077 4658.56396 4891.51123
4901.0 0.0002040 4658.56934 4890.59521
4972.0 0.0002011 4658.58008 4891.00000
4890.0 0.0002045 4658.59375 4892.69873
5022.0 0.0001991 4658.61133 4895.65186
5008.0 0.0001997 4658.63379 4899.84277
4957.0 0.0002017 4658.65820 4905.12207
4907.0 0.0002038 4658.68896 4911.47461
5001.0 0.0002000 4658.72314 4918.81201
4972.0 0.0002011 4658.76318 4927.12939
5069.0 0.0001973 4658.80566 4936.53027
5010.0 0.0001996 4658.85303 4947.05762
5098.0 0.0001962 4658.90576 4958.93408
5118.0 0.0001954 4658.96240 4972.32129
5046.0 0.0001982 4659.02197 4987.44971
5019.0 0.0001992 4659.08838 5004.29541
5018.0 0.0001993 4659.15771 5022.91260
5037.0 0.0001985 4659.23291 5043.21533
5151.0 0.0001941 4659.31201 5064.94434
5219.0 0.0001916 4659.39600 5088.09717
5260.0 0.0001901 4659.48389 5111.31006
5327.0 0.0001877 4659.57764 5134.21094
5434.0 0.0001840 4659.67529 5155.81738
5550.0 0.0001802 4659.77686 5174.90381
5614.0 0.0001781 4659.88477 5190.43652
5637.0 0.0001774 4659.99951 5201.23340
5617.0 0.0001780 4660.11426 5206.46387
5400.0 0.0001852 4660.23633 5205.85596
5412.0 0.0001848 4660.36279 5199.61963
5359.0 0.0001866 4660.49512 5188.42725
5503.0 0.0001817 4660.63037 5173.38379
5363.0 0.0001865 4660.77344 5155.61621
5434.0 0.0001840 4660.92041 5136.22754
5320.0 0.0001880 4661.07227 5116.01172
5343.0 0.0001872 4661.22900 5095.67529
5257.0 0.0001902 4661.39111 5075.71875
5292.0 0.0001890 4661.56055 5056.56787
5134.0 0.0001948 4661.73047 5038.56689
5198.0 0.0001924 4661.90771 5022.02637
5076.0 0.0001970 4662.08936 5007.30029
5027.0 0.0001989 4662.27783 4994.58105
4923.0 0.0002031 4662.47217 4983.97803
4992.0 0.0002003 4662.66895 4975.51025
5038.0 0.0001985 4662.87402 4969.11475
5065.0 0.0001974 4663.08301 4964.52393
5009.0 0.0001996 4663.29541 4960.63770
4930.0 0.0002028 4663.51563 4958.98145
4888.0 0.0002046 4663.74072 4958.43701
4964.0 0.0002015 4663.96826 4958.82813
5056.0 0.0001978 4664.20459 4960.09912
5034.0 0.0001986 4664.44580 4962.01367
4993.0 0.0002003 4664.69287 4964.56445
4973.0 0.0002011 4664.94385 4967.49268
4990.0 0.0002004 4665.20117 4970.62842
5009.0 0.0001996 4665.46143 4973.72266
4912.0 0.0002036 4665.72998 4976.48242
4942.0 0.0002023 4666.00342 4978.62061
5057.0 0.0001977 4666.28076 4979.85596
5127.0 0.0001950 4666.56641 4979.98682
5090.0 0.0001965 4666.85449 4978.81787
5307.0 0.0001884 4667.14795 4976.26709
5176.0 0.0001932 4667.44775 4972.31641
5123.0 0.0001952 4667.75293 4967.12549
5306.0 0.0001885 4668.06494 4960.85059
5189.0 0.0001927 4668.38135 4953.91846
5186.0 0.0001928 4668.70459 4946.76953
5119.0 0.0001954 4669.03174 4939.91113
5101.0 0.0001960 4669.36475 4933.79932
4964.0 0.0002015 4669.70264 4928.89209
4982.0 0.0002007 4670.04688 4925.36182
5040.0 0.0001984 4670.39404 4923.55371
5008.0 0.0001997 4670.75049 4923.46533
5028.0 0.0001989 4671.11084 4925.25342
4900.0 0.0002041 4671.47559 4928.96436
4935.0 0.0002026 4671.84521 4934.63965
5015.0 0.0001994 4672.22314 4942.27344
4800.0 0.0002083 4672.60449 4951.83301
4900.0 0.0002041 4672.99072 4963.18799
4966.0 0.0002014 4673.38477 4976.13965
4929.0 0.0002029 4673.78125 4990.33545
4888.0 0.0002046 4674.18506 5005.31006
4975.0 0.0002010 4674.59326 5020.36572
4842.0 0.0002065 4675.00586 5035.14453
4994.0 0.0002002 4675.42529 5048.57373
4986.0 0.0002006 4675.85156 5060.04297
4980.0 0.0002008 4676.28027 5068.94434
4955.0 0.0002018 4676.71387 5074.83154
5069.0 0.0001973 4677.15576 5077.52686
4982.0 0.0002007 4677.60059 5077.26709
4909.0 0.0002037 4678.05127 5074.05225
4917.0 0.0002034 4678.50830 5068.58057
4982.0 0.0002007 4678.97070 5061.49365
4902.0 0.0002040 4679.43652 5053.30225
5003.0 0.0001999 4679.90820 5044.53711
4915.0 0.0002035 4680.38428 5035.54102
4858.0 0.0002058 4680.86670 5026.51416
4973.0 0.0002011 4681.35352 5017.58252
4866.0 0.0002055 4681.84424 5008.80615
4963.0 0.0002015 4682.34180 5000.29736
4920.0 0.0002033 4682.84326 4992.25635
4855.0 0.0002060 4683.35205 4984.95361
4853.0 0.0002061 4683.86328 4978.64014
4946.0 0.0002022 4684.38037 4973.73438
4903.0 0.0002040 4684.90088 4970.56104
4922.0 0.0002032 4685.42773 4969.29150
4983.0 0.0002007 4685.95996 4970.27002
4927.0 0.0002030 4686.49707 4973.48047
4920.0 0.0002033 4687.03613 4978.79980
4939.0 0.0002025 4687.58301 4986.13135
5008.0 0.0001997 4688.13379 4995.19385
5020.0 0.0001992 4688.68945 5005.71826
5040.0 0.0001984 4689.25000 5017.06104
5073.0 0.0001971 4689.81396 5028.55225
5016.0 0.0001994 4690.38330 5039.56641
5114.0 0.0001955 4690.95801 5049.28906
5121.0 0.0001953 4691.53516 5057.04688
5038.0 0.0001985 4692.11670 5062.47314
5053.0 0.0001979 4692.70508 5065.21777
5078.0 0.0001969 4693.29590 5065.63965
5065.0 0.0001974 4693.89258 5064.33984
5070.0 0.0001972 4694.49170 5062.19971
5062.0 0.0001976 4695.09668 5060.08447
4980.0 0.0002008 4695.70459 5058.91260
4948.0 0.0002021 4696.31738 5059.47412
5071.0 0.0001972 4696.93506 5062.39453
4976.0 0.0002010 4697.55469 5068.09717
4992.0 0.0002003 4698.18066 5075.95703
5165.0 0.0001936 4698.80859 5087.80127
5053.0 0.0001979 4699.44189 5102.58740
5061.0 0.0001976 4700.07813 5120.15967
5048.0 0.0001981 4700.71826 5139.61377
5095.0 0.0001963 4701.36328 5160.36133
5158.0 0.0001939 4702.01221 5181.50977
5226.0 0.0001914 4702.66357 5201.87744
5190.0 0.0001927 4703.31885 5220.48438
5214.0 0.0001918 4703.97803 5236.45801
5249.0 0.0001905 4704.64014 5249.44092
5216.0 0.0001917 4705.30664 5258.94580
5125.0 0.0001951 4705.97559 5265.38135
5251.0 0.0001904 4706.64990 5269.25244
5160.0 0.0001938 4707.32568 5271.11182
5123.0 0.0001952 4708.00439 5271.45898
5149.0 0.0001942 4708.68701 5270.66846
5129.0 0.0001950 4709.37451 5268.95703
5228.0 0.0001913 4710.06299 5266.47461
5296.0 0.0001888 4710.75488 5263.56787
5214.0 0.0001918 4711.44873 5259.96387
5238.0 0.0001909 4712.14697 5256.19727
5129.0 0.0001950 4712.84863 5252.45020
5134.0 0.0001948 4713.55176 5249.11572
5138.0 0.0001946 4714.25732 5246.42871
5215.0 0.0001918 4714.96729 5244.50586
5258.0 0.0001902 4715.67822 5243.24414
5242.0 0.0001908 4716.39307 5242.30225
5263.0 0.0001900 4717.10986 5241.09766
5232.0 0.0001911 4717.82910 5238.84326
5347.0 0.0001870 4718.54980 5234.80322
5238.0 0.0001909 4719.27393 5228.36719
5257.0 0.0001902 4720.00098 5219.23291
5151.0 0.0001941 4720.72803 5207.45020
5225.0 0.0001914 4721.45947 5193.42383
5109.0 0.0001957 4722.19141 5177.84961
5242.0 0.0001908 4722.92578 5161.34229
5122.0 0.0001952 4723.66309 5144.67871
5169.0 0.0001935 4724.40186 5128.36572
5117.0 0.0001954 4725.13818 5112.87158
5106.0 0.0001958 4725.88184 5098.45654
4997.0 0.0002001 4726.62500 5085.24023
5065.0 0.0001974 4727.37012 5073.27002
4984.0 0.0002006 4728.11670 5062.29297
4915.0 0.0002035 4728.86377 5052.46240
4971.0 0.0002012 4729.61328 5043.51416
4934.0 0.0002027 4730.36426 5035.51855
5047.0 0.0001981 4731.11523 5028.45947
5081.0 0.0001968 4731.86865 5022.46582
5020.0 0.0001992 4732.62207 5017.70117
5054.0 0.0001979 4733.37646 5014.37891
4963.0 0.0002015 4734.13281 5012.66113
4976.0 0.0002010 4734.88770 5012.70166
4886.0 0.0002047 4735.64697 5014.54150
5005.0 0.0001998 4736.40674 5018.14063
4982.0 0.0002007 4737.16309 5023.39258
4973.0 0.0002011 4737.92139 5030.11035
4939.0 0.0002025 4738.68408 5038.03760
4895.0 0.0002043 4739.44287 5046.85107
4923.0 0.0002031 4740.20313 5056.21484
4998.0 0.0002001 4740.96240 5065.79297
5066.0 0.0001974 4741.72656 5075.08691
4984.0 0.0002006 4742.48682 5083.83252
5030.0 0.0001988 4743.24756 5091.71387
4911.0 0.0002036 4744.00830 5098.16650
4942.0 0.0002023 4744.77051 5103.03760
4967.0 0.0002013 4745.53174 5106.20703
4996.0 0.0002002 4746.29053 5107.65527
5006.0 0.0001998 4747.05225 5107.47168
4889.0 0.0002045 4747.81104 5105.83203
4923.0 0.0002031 4748.57031 5102.95215
4930.0 0.0002028 4749.33057 5099.10889
4968.0 0.0002013 4750.08789 5094.58887
5036.0 0.0001986 4750.84424 5089.71924
4949.0 0.0002021 4751.60107 5084.81641
4957.0 0.0002017 4752.35645 5080.15869
4870.0 0.0002053 4753.11182 5075.93555
4863.0 0.0002056 4753.86426 5072.24805
4977.0 0.0002009 4754.61816 5069.09277
4910.0 0.0002037 4755.37061 5066.32422
4903.0 0.0002040 4756.12012 5063.79688
4959.0 0.0002017 4756.86768 5061.32617
4940.0 0.0002024 4757.61572 5058.53955
4970.0 0.0002012 4758.36133 5055.98145
4866.0 0.0002055 4759.10498 5053.62402
5003.0 0.0001999 4759.84766 5051.52295
5011.0 0.0001996 4760.58887 5050.09521
4919.0 0.0002033 4761.32861 5049.67139
4942.0 0.0002023 4762.06348 5050.56152
4924.0 0.0002031 4762.80029 5053.01807
4978.0 0.0002009 4763.53223 5057.23145
4977.0 0.0002009 4764.26221 5063.31592
4934.0 0.0002027 4764.99121 5071.33545
5049.0 0.0001981 4765.71729 5081.27246
4984.0 0.0002006 4766.44141 5093.08203
4960.0 0.0002016 4767.16406 5106.56689
5032.0 0.0001987 4767.88232 5121.56348
5083.0 0.0001967 4768.60059 5137.85596
5091.0 0.0001964 4769.31348 5155.22998
5006.0 0.0001998 4770.02441 5173.54883
5169.0 0.0001935 4770.73096 5192.79199
5138.0 0.0001946 4771.43750 5213.09131
5216.0 0.0001917 4772.14111 5234.75049
5138.0 0.0001946 4772.83936 5258.17920
5220.0 0.0001916 4773.53516 5283.88818
5148.0 0.0001943 4774.22803 5312.36865
5359.0 0.0001866 4774.91846 5344.06104
5343.0 0.0001872 4775.60303 5379.16553
5441.0 0.0001838 4776.28662 5417.80957
5404.0 0.0001850 4776.96436 5459.74951
5503.0 0.0001817 4777.64111 5504.43018
5642.0 0.0001772 4778.31250 5551.01709
5692.0 0.0001757 4778.98145 5598.30273
5705.0 0.0001753 4779.64600 5644.65283
5897.0 0.0001696 4780.30713 5688.16260
5931.0 0.0001686 4780.96191 5726.58447
6130.0 0.0001631 4781.61523 5757.70898
6197.0 0.0001614 4782.26367 5779.79834
6156.0 0.0001624 4782.90674 5791.68945
6314.0 0.0001584 4783.54785 5792.69678
6182.0 0.0001618 4784.18457 5782.51904
6333.0 0.0001579 4784.81494 5761.83936
6207.0 0.0001611 4785.44189 5731.87500
5964.0 0.0001677 4786.06543 5694.33008
5810.0 0.0001721 4786.68262 5651.04932
5694.0 0.0001756 4787.29639 5604.13379
5808.0 0.0001722 4787.90576 5555.55615
5677.0 0.0001761 4788.50635 5507.04736
5586.0 0.0001790 4789.10547 5460.00928
5448.0 0.0001836 4789.70020 5415.56592
5379.0 0.0001859 4790.28662 5374.33008
5352.0 0.0001868 4790.87158 5336.90967
5301.0 0.0001886 4791.44971 5303.51221
5370.0 0.0001862 4792.02441 5274.34229
5265.0 0.0001899 4792.59033 5249.24170
5221.0 0.0001915 4793.15479 5228.19775
5344.0 0.0001871 4793.71094 5211.05811
5316.0 0.0001881 4794.26416 5197.62451
5248.0 0.0001905 4794.80762 5187.62402
5293.0 0.0001889 4795.35010 5180.75586
5119.0 0.0001954 4795.88477 5176.51221
5166.0 0.0001936 4796.41406 5174.45020
5174.0 0.0001933 4796.93848 5173.99854
5134.0 0.0001948 4797.45459 5174.57666
5143.0 0.0001944 4797.96631 5175.61182
5127.0 0.0001950 4798.47119 5176.58154
5140.0 0.0001946 4798.97168 5177.03955
5216.0 0.0001917 4799.46533 5176.65430
5134.0 0.0001948 4799.95313 5175.22656
5081.0 0.0001968 4800.43359 5172.69434
5157.0 0.0001939 4800.91064 5168.91455
5139.0 0.0001946 4801.37988 5164.20020
5060.0 0.0001976 4801.84131 5158.70850
5135.0 0.0001947 4802.29492 5152.77246
4973.0 0.0002011 4802.74561 5146.70020
5091.0 0.0001964 4803.18896 5140.89893
4991.0 0.0002004 4803.62549 5135.71094
5086.0 0.0001966 4804.05566 5131.43945
5009.0 0.0001996 4804.47803 5128.27002
5003.0 0.0001999 4804.89551 5126.25537
5020.0 0.0001992 4805.30469 5125.48730
5059.0 0.0001977 4805.70703 5125.77002
5129.0 0.0001950 4806.10352 5126.90088
5085.0 0.0001967 4806.49170 5128.59863
5113.0 0.0001956 4806.87451 5130.54150
5070.0 0.0001972 4807.24951 5132.43604
4988.0 0.0002005 4807.61816 5134.06494
5055.0 0.0001978 4807.97998 5135.28467
5109.0 0.0001957 4808.33252 5136.03613
5211.0 0.0001919 4808.68066 5136.33740
5143.0 0.0001944 4809.01904 5136.20410
5139.0 0.0001946 4809.35107 5135.70117
5140.0 0.0001946 4809.67676 5134.87842
5223.0 0.0001915 4809.99268 5133.92627
5093.0 0.0001963 4810.30322 5132.98389
5116.0 0.0001955 4810.60498 5132.21777
5088.0 0.0001965 4810.90137 5131.81396
5062.0 0.0001976 4811.18848 5131.94727
5094.0 0.0001963 4811.46875 5132.69824
5107.0 0.0001958 4811.74170 5134.08984
5081.0 0.0001968 4812.00586 5136.03125
5079.0 0.0001969 4812.26563 5138.47607
5027.0 0.0001989 4812.51416 5140.80127
5078.0 0.0001969 4812.75439 5142.91211
5057.0 0.0001977 4812.99023 5144.46436
5013.0 0.0001995 4813.21777 5145.32178
5058.0 0.0001977 4813.43506 5145.25586
5078.0 0.0001969 4813.64746 5144.35742
5102.0 0.0001960 4813.84961 5142.79590
5159.0 0.0001938 4814.04590 5140.84961
5042.0 0.0001983 4814.23242 5138.83496
4943.0 0.0002023 4814.41162 5137.11133
4979.0 0.0002008 4814.58350 5135.93457
4960.0 0.0002016 4814.74707 5135.54932
4974.0 0.0002010 4814.90186 5136.20508
4935.0 0.0002026 4815.05127 5137.75293
5032.0 0.0001987 4815.18945 5140.57715
5048.0 0.0001981 4815.32080 5143.85889
4978.0 0.0002009 4815.44434 5147.39063
4994.0 0.0002002 4815.56006 5151.31543
5006.0 0.0001998 4815.66699 5155.05469
5004.0 0.0001998 4815.76611 5158.29883
5044.0 0.0001983 4815.85693 5160.78369
5078.0 0.0001969 4815.93945 5162.32617
5083.0 0.0001967 4816.01367 5162.80078
5015.0 0.0001994 4816.08154 5162.27246
5075.0 0.0001970 4816.14014 5160.82373
5057.0 0.0001977 4816.18994 5158.69385
4987.0 0.0002005 4816.23145 5156.20850
5011.0 0.0001996 4816.26465 5153.76563
5089.0 0.0001965 4816.29150 5151.82178
5052.0 0.0001979 4816.30811 5150.81738
5106.0 0.0001958 4816.31738 5151.12012
5062.0 0.0001976 4816.31885 5153.06348
5098.0 0.0001962 4816.30957 5156.84131
5087.0 0.0001966 4816.29590 5162.55127
5198.0 0.0001924 4816.27246 5170.14990
5166.0 0.0001936 4816.23926 5179.46240
5294.0 0.0001889 4816.19775 5190.18652
5307.0 0.0001884 4816.14941 5201.88330
5307.0 0.0001884 4816.09277 5214.00781
5299.0 0.0001887 4816.02832 5225.93945
5372.0 0.0001862 4815.95508 5236.95850
5289.0 0.0001891 4815.87549 5246.43115
5263.0 0.0001900 4815.78467 5253.75244
5332.0 0.0001875 4815.68555 5258.67725
5311.0 0.0001883 4815.57959 5261.00244
5248.0 0.0001905 4815.46484 5260.89600
5268.0 0.0001898 4815.34375 5258.73096
5200.0 0.0001923 4815.21143 5255.07813
5216.0 0.0001917 4815.07275 5250.45605
5202.0 0.0001922 4814.92432 5245.58594
5259.0 0.0001902 4814.77197 5241.07764
5285.0 0.0001892 4814.60645 5237.41016
5381.0 0.0001858 4814.43506 5235.20996
5231.0 0.0001912 4814.25635 5234.76855
5238.0 0.0001909 4814.06787 5236.40234
5356.0 0.0001867 4813.87305 5241.02344
5289.0 0.0001891 4813.66797 5247.32715
5169.0 0.0001935 4813.45557 5256.04443
5078.0 0.0001969 4813.23633 5267.03271
5141.0 0.0001945 4813.00732 5280.07568
5175.0 0.0001932 4812.77100 5294.77637
5162.0 0.0001937 4812.52832 5310.45020
5234.0 0.0001911 4812.27441 5326.41162
5335.0 0.0001874 4812.01563 5341.88525
5305.0 0.0001885 4811.74854 5356.03027
5186.0 0.0001928 4811.47021 5368.17432
5299.0 0.0001887 4811.18799 5377.86182
5294.0 0.0001889 4810.89648 5384.87061
5213.0 0.0001918 4810.59717 5389.27783
5317.0 0.0001881 4810.29150 5391.39795
5354.0 0.0001868 4809.97510 5391.71436
5284.0 0.0001893 4809.65283 5390.84326
5322.0 0.0001879 4809.32373 5389.19580
5202.0 0.0001922 4808.98535 5387.94727
5272.0 0.0001897 4808.63818 5387.64063
5282.0 0.0001893 4808.28613 5388.73535
5315.0 0.0001881 4807.92529 5392.05908
5335.0 0.0001874 4807.55664 5397.56348
5299.0 0.0001887 4807.18164 5405.61475
5343.0 0.0001872 4806.79639 5416.16113
5313.0 0.0001882 4806.40527 5428.93408
5422.0 0.0001844 4806.00781 5443.43066
5325.0 0.0001878 4805.60303 5458.99609
5357.0 0.0001867 4805.18994 5474.90820
5465.0 0.0001830 4804.76953 5490.33740
5546.0 0.0001803 4804.34180 5504.68066
5587.0 0.0001790 4803.90771 5517.44238
5613.0 0.0001782 4803.46631 5528.30176
5830.0 0.0001715 4803.01660 5537.06543
5672.0 0.0001763 4802.56104 5543.66260
5770.0 0.0001733 4802.09668 5548.09033
5810.0 0.0001721 4801.62793 5550.46436
5848.0 0.0001710 4801.14893 5550.99121
5887.0 0.0001699 4800.66553 5549.96191
6095.0 0.0001641 4800.17383 5547.68213
5988.0 0.0001670 4799.67627 5544.40234
6136.0 0.0001630 4799.17041 5540.24609
6271.0 0.0001595 4798.66113 5535.10449
6331.0 0.0001580 4798.14160 5528.66553
6346.0 0.0001576 4797.61719 5520.56836
6417.0 0.0001558 4797.08545 5510.32666
6320.0 0.0001582 4796.54785 5497.60645
6095.0 0.0001641 4796.00195 5482.34668
5818.0 0.0001719 4795.45166 5464.64941
5834.0 0.0001714 4794.89307 5444.95947
5746.0 0.0001740 4794.32861 5423.64160
5449.0 0.0001835 4793.75635 5401.31104
5388.0 0.0001856 4793.18164 5378.45361
5394.0 0.0001854 4792.59912 5355.54053
5339.0 0.0001873 4792.01025 5332.97168
5321.0 0.0001879 4791.41406 5310.99121
5316.0 0.0001881 4790.81201 5289.86816
5312.0 0.0001883 4790.20459 5269.78418
5303.0 0.0001886 4789.59082 5250.72949
5226.0 0.0001914 4788.97119 5232.99561
5283.0 0.0001893 4788.34619 5215.85059
5178.0 0.0001931 4787.71436 5199.38672
5232.0 0.0001911 4787.07666 5183.20166
5337.0 0.0001874 4786.43506 5167.45703
5238.0 0.0001909 4785.78711 5151.77734
5057.0 0.0001977 4785.13232 5136.10693
5238.0 0.0001909 4784.47168 5120.43018
5208.0 0.0001920 4783.80518 5104.82373
5216.0 0.0001917 4783.13525 5089.38477
5277.0 0.0001895 4782.45898 5074.26807
5099.0 0.0001961 4781.77783 5059.64941
5001.0 0.0002000 4781.08984 5045.71045
4989.0 0.0002004 4780.39795 5032.58203
4965.0 0.0002014 4779.69922 5020.52344
4938.0 0.0002025 4778.99756 5009.70313
5021.0 0.0001992 4778.28955 5000.20752
4932.0 0.0002028 4777.57568 4992.20898
5000.0 0.0002000 4776.85791 4985.58154
4948.0 0.0002021 4776.13525 4980.41992
4945.0 0.0002022 4775.40723 4976.58203
4940.0 0.0002024 4774.67383 4974.21094
5040.0 0.0001984 4773.93701 4973.70947
5056.0 0.0001978 4773.19336 4973.66553
5075.0 0.0001970 4772.44678 4974.50000
5132.0 0.0001949 4771.69678 4975.96484
5289.0 0.0001891 4770.93945 4977.80615
5131.0 0.0001949 4770.17822 4979.64746
5119.0 0.0001954 4769.41309 4981.22119
5212.0 0.0001919 4768.64258 4982.24854
5149.0 0.0001942 4767.86963 4982.55225
5211.0 0.0001919 4767.08887 4982.28418
5081.0 0.0001968 4766.30713 4980.77832
4997.0 0.0002001 4765.52100 4978.99121
5027.0 0.0001989 4764.72852 4976.89746
4988.0 0.0002005 4763.93115 4974.81787
4987.0 0.0002005 4763.13428 4973.04639
4979.0 0.0002008 4762.32910 4971.85742
4921.0 0.0002032 4761.52441 4971.48779
4909.0 0.0002037 4760.71143 4972.05420
4932.0 0.0002028 4759.89697 4973.76807
4870.0 0.0002053 4759.07764 4976.67236
4903.0 0.0002040 4758.25488 4980.69531
4938.0 0.0002025 4757.42676 4985.82178
4848.0 0.0002063 4756.59766 4991.88965
4880.0 0.0002049 4755.76563 4998.69141
4885.0 0.0002047 4754.92725 5006.06250
4999.0 0.0002000 4754.08545 5013.50781
5017.0 0.0001993 4753.24121 5020.68994
4987.0 0.0002005 4752.39258 5027.22461
4967.0 0.0002013 4751.54346 5032.72363
4963.0 0.0002015 4750.68750 5036.81250
4973.0 0.0002011 4749.83008 5039.31689
4931.0 0.0002028 4748.96826 5040.19287
4938.0 0.0002025 4748.10449 5039.54346
4951.0 0.0002020 4747.23682 5037.62793
4949.0 0.0002021 4746.36572 5034.84668
4876.0 0.0002051 4745.49316 5031.57813
4901.0 0.0002040 4744.61621 5028.21338
4936.0 0.0002026 4743.73730 5025.06250
4834.0 0.0002069 4742.85352 5022.45850
4935.0 0.0002026 4741.97021 5020.67285
4850.0 0.0002062 4741.07910 5019.95410
4897.0 0.0002042 4740.18896 5020.56885
4962.0 0.0002015 4739.29346 5022.69727
4958.0 0.0002017 4738.40039 5026.57178
4924.0 0.0002031 4737.49951 5032.26563
4942.0 0.0002023 4736.59668 5040.07422
4930.0 0.0002028 4735.69385 5049.92578
4943.0 0.0002023 4734.78564 5061.92773
5018.0 0.0001993 4733.87402 5075.61572
5005.0 0.0001998 4732.96240 5090.86768
5065.0 0.0001974 4732.04834 5107.43164
5092.0 0.0001964 4731.13281 5124.84131
4985.0 0.0002006 4730.21191 5142.74463
5048.0 0.0001981 4729.29053 5160.78516
5057.0 0.0001977 4728.36572 5178.65430
5071.0 0.0001972 4727.43994 5196.10107
4961.0 0.0002016 4726.51074 5212.90039
5077.0 0.0001970 4725.57959 5229.00244
5063.0 0.0001975 4724.64697 5244.19873
5113.0 0.0001956 4723.71045 5258.36133
5233.0 0.0001911 4722.77295 5271.06885
5233.0 0.0001911 4721.83447 5282.08936
5152.0 0.0001941 4720.89111 5290.64648
5239.0 0.0001909 4719.94727 5297.15674
5250.0 0.0001905 4719.00244 5300.97705
5208.0 0.0001920 4718.05371 5302.01855
5259.0 0.0001902 4717.10352 5300.28760
5350.0 0.0001869 4716.15234 5296.05273
5227.0 0.0001913 4715.19775 5289.66406
5289.0 0.0001891 4714.24170 5281.58057
5203.0 0.0001922 4713.28320 5272.18701
5210.0 0.0001919 4712.32324 5261.80225
5336.0 0.0001874 4711.36230 5250.62793
5311.0 0.0001883 4710.40088 5238.72021
5341.0 0.0001872 4709.43311 5226.04102
5333.0 0.0001875 4708.46680 5212.49414
5465.0 0.0001830 4707.49707 5198.02051
5251.0 0.0001904 4706.52588 5182.62793
5296.0 0.0001888 4705.55371 5166.32520
5186.0 0.0001928 4704.57813 5149.28662
5285.0 0.0001892 4703.60254 5131.79688
5277.0 0.0001895 4702.62451 5114.06934
5210.0 0.0001919 4701.64453 5096.41748
5260.0 0.0001901 4700.66357 5079.11816
5195.0 0.0001925 4699.68164 5062.50928
5194.0 0.0001925 4698.69482 5046.58057
5133.0 0.0001948 4697.70850 5031.65430
5142.0 0.0001945 4696.71875 5017.80664
5103.0 0.0001960 4695.72998 5005.21289
5023.0 0.0001991 4694.73730 4993.86670
4933.0 0.0002027 4693.74463 4983.80371
4997.0 0.0002001 4692.74902 4974.91602
4923.0 0.0002031 4691.75098 4967.03613
4911.0 0.0002036 4690.75488 4960.05273
4962.0 0.0002015 4689.75293 4953.79004
4870.0 0.0002053 4688.75049 4948.12256
4849.0 0.0002062 4687.74756 4942.77246
4959.0 0.0002017 4686.74121 4937.82422
4982.0 0.0002007 4685.73438 4933.22119
4869.0 0.0002054 4684.72510 4928.98926
4947.0 0.0002021 4683.71436 4925.20850
4850.0 0.0002062 4682.70264 4921.76807
4912.0 0.0002036 4681.68750 4919.22168
4929.0 0.0002029 4680.67090 4917.49609
4880.0 0.0002049 4679.65283 4916.73242
4849.0 0.0002062 4678.63477 4917.10449
4852.0 0.0002061 4677.61084 4918.74414
4905.0 0.0002039 4676.58936 4921.82129
4908.0 0.0002037 4675.56396 4926.47852
4902.0 0.0002040 4674.53613 4932.81787
4946.0 0.0002022 4673.50830 4940.90576
4967.0 0.0002013 4672.47754 4950.85693
5198.0 0.0001924 4671.44482 4962.60498
5060.0 0.0001976 4670.41064 4976.05078
5082.0 0.0001968 4669.37451 4991.15576
5155.0 0.0001940 4668.33691 5007.69434
5176.0 0.0001932 4667.29492 5025.44287
5217.0 0.0001917 4666.25195 5044.15088
5337.0 0.0001874 4665.20801 5063.53613
5296.0 0.0001888 4664.16162 5083.38184
5340.0 0.0001873 4663.11279 5103.26025
5361.0 0.0001865 4662.06055 5122.96191
5300.0 0.0001887 4661.00928 5142.21533
5338.0 0.0001873 4659.95459 5160.72607
5308.0 0.0001884 4658.89795 5178.18750
5344.0 0.0001871 4657.83936 5194.52100
5307.0 0.0001884 4656.77734 5209.55078
5301.0 0.0001886 4655.71289 5223.27783
5323.0 0.0001879 4654.64746 5235.87793
5282.0 0.0001893 4653.57813 5247.62354
5232.0 0.0001911 4652.50684 5258.82129
5285.0 0.0001892 4651.43359 5269.76709
5314.0 0.0001882 4650.35693 5280.67773
5232.0 0.0001911 4649.28174 5291.70752
5095.0 0.0001963 4648.19922 5302.58154
5148.0 0.0001943 4647.11670 5313.07178
5147.0 0.0001943 4646.03174 5323.23145
5161.0 0.0001938 4644.94287 5331.11279
5280.0 0.0001894 4643.85156 5336.39160
5237.0 0.0001909 4642.75781 5338.18555
5164.0 0.0001936 4641.66211 5335.57910
5216.0 0.0001917 4640.56250 5328.04736
5194.0 0.0001925 4639.45996 5315.41064
5183.0 0.0001929 4638.35498 5297.93945
5177.0 0.0001932 4637.24902 5276.26953
5206.0 0.0001921 4636.13672 5251.46143
5097.0 0.0001962 4635.02246 5224.63818
4987.0 0.0002005 4633.90576 5196.89453
5007.0 0.0001997 4632.78760 5169.30908
5066.0 0.0001974 4631.66504 5142.77588
5025.0 0.0001990 4630.53857 5118.05469
5066.0 0.0001974 4629.41113 5095.81445
5045.0 0.0001982 4628.27686 5076.32275
4960.0 0.0002016 4627.14111 5059.99463
4945.0 0.0002022 4626.00244 5047.05713
4906.0 0.0002038 4624.85889 5037.64111
4970.0 0.0002012 4623.71338 5031.87354
5029.0 0.0001988 4622.56445 5029.76660
4994.0 0.0002002 4621.41357 5031.34912
4990.0 0.0002004 4620.25586 5036.61816
4983.0 0.0002007 4619.09619 5045.53174
4829.0 0.0002071 4617.93311 5058.00146
4939.0 0.0002025 4616.76709 5073.90576
4949.0 0.0002021 4615.59570 5093.05957
5027.0 0.0001989 4614.42041 5115.23730
5028.0 0.0001989 4613.24121 5140.20459
5064.0 0.0001975 4612.06104 5167.73145
5077.0 0.0001970 4610.87549 5197.60400
5054.0 0.0001979 4609.68311 5229.74316
5153.0 0.0001941 4608.49023 5263.88672
5176.0 0.0001932 4607.29248 5299.85693
5161.0 0.0001938 4606.08936 5337.93311
5208.0 0.0001920 4604.88135 5377.80762
5324.0 0.0001878 4603.67285 5419.19775
5432.0 0.0001841 4602.45703 5461.76367
5591.0 0.0001789 4601.23975 5504.84229
5712.0 0.0001751 4600.01465 5547.52686
5729.0 0.0001746 4598.78662 5588.62695
5933.0 0.0001685 4597.55371 5626.66602
6273.0 0.0001594 4596.31641 5659.93506
6484.0 0.0001542 4595.07568 5686.53760
6767.0 0.0001478 4593.83008 5704.68457
6817.0 0.0001467 4592.57764 5713.19092
6993.0 0.0001430 4591.32568 5711.21240
6932.0 0.0001443 4590.06396 5698.93066
6715.0 0.0001489 4588.79785 5677.34082
6527.0 0.0001532 4587.52979 5648.20947
6285.0 0.0001591 4586.25537 5613.53125
5948.0 0.0001681 4584.97754 5575.58105
5761.0 0.0001736 4583.69189 5536.44336
5600.0 0.0001786 4582.40332 5497.92529
5471.0 0.0001828 4581.10986 5461.46045
5437.0 0.0001839 4579.81104 5427.99365
5304.0 0.0001885 4578.50488 5398.38428
5298.0 0.0001888 4577.19629 5373.01758
5152.0 0.0001941 4575.88232 5351.87744
5122.0 0.0001952 4574.56201 5334.63574
5169.0 0.0001935 4573.23730 5320.85156
5119.0 0.0001954 4571.90723 5309.77832
5203.0 0.0001922 4570.57227 5300.40479
5213.0 0.0001918 4569.23145 5292.00830
5207.0 0.0001920 4567.88525 5283.62354
5149.0 0.0001942 4566.53418 5274.22998
5139.0 0.0001946 4565.17773 5263.64404
5199.0 0.0001923 4563.81494 5251.14258
4964.0 0.0002015 4562.44727 5236.87012
5098.0 0.0001962 4561.07324 5221.08887
5055.0 0.0001978 4559.69531 5204.18457
5035.0 0.0001986 4558.31152 5186.61426
4905.0 0.0002039 4556.92188 5168.85449
5018.0 0.0001993 4555.52490 5151.31055
4981.0 0.0002008 4554.12451 5134.24658
4936.0 0.0002026 4552.71729 5118.40527
5054.0 0.0001979 4551.30469 5104.01221
4928.0 0.0002029 4549.88574 5091.44727
4833.0 0.0002069 4548.46338 5081.04590
4979.0 0.0002008 4547.03369 5073.16113
4858.0 0.0002058 4545.59766 5067.99561
4855.0 0.0002060 4544.15869 5065.53027
4870.0 0.0002053 4542.71094 5066.12695
4899.0 0.0002041 4541.25635 5069.53955
4875.0 0.0002051 4539.79932 5075.57568
4874.0 0.0002052 4538.33496 5083.94824
4992.0 0.0002003 4536.86426 5094.30957
4947.0 0.0002021 4535.38916 5106.29053
4885.0 0.0002047 4533.90771 5119.51904
4885.0 0.0002047 4532.42139 5133.66650
4903.0 0.0002040 4530.92725 5148.46338
5014.0 0.0001994 4529.42725 5163.47998
4983.0 0.0002007 4527.92334 5178.89600
4981.0 0.0002008 4526.41357 5194.48633
5013.0 0.0001995 4524.89893 5210.04395
5107.0 0.0001958 4523.37549 5225.41943
5088.0 0.0001965 4521.84912 5240.42139
5182.0 0.0001930 4520.31445 5254.82031
5085.0 0.0001967 4518.77588 5268.23682
5098.0 0.0001962 4517.22998 5280.25000
5153.0 0.0001941 4515.67920 5290.47021
5080.0 0.0001969 4514.12354 5298.33789
5072.0 0.0001972 4512.56104 5303.37646
5192.0 0.0001926 4510.99414 5305.24805
5168.0 0.0001935 4509.42041 5303.89160
5151.0 0.0001941 4507.84277 5299.54053
5193.0 0.0001926 4506.25830 5292.80371
5036.0 0.0001986 4504.66846 5284.61572
4999.0 0.0002000 4503.07129 5276.14014
5112.0 0.0001956 4501.47168 5268.52783
5168.0 0.0001935 4499.86719 5262.98975
5106.0 0.0001958 4498.25537 5260.56836
5053.0 0.0001979 4496.63818 5262.10938
5206.0 0.0001921 4495.01660 5268.18506
5222.0 0.0001915 4493.39063 5279.14355
5205.0 0.0001921 4491.75781 5295.19238
5123.0 0.0001952 4490.11865 5316.13818
5243.0 0.0001907 4488.47803 5341.57617
5258.0 0.0001902 4486.83008 5370.86035
5365.0 0.0001864 4485.17676 5403.04688
5342.0 0.0001872 4483.51953 5436.96436
5424.0 0.0001844 4481.85840 5471.19678
5491.0 0.0001821 4480.19092 5504.13037
5542.0 0.0001804 4478.51904 5534.14551
5612.0 0.0001782 4476.84326 5559.55664
5684.0 0.0001759 4475.16211 5578.76904
5602.0 0.0001785 4473.47656 5590.61279
5701.0 0.0001754 4471.78809 5594.39307
5761.0 0.0001736 4470.09473 5589.88086
5702.0 0.0001754 4468.39697 5577.49414
5683.0 0.0001760 4466.69238 5558.04297
5741.0 0.0001742 4464.98730 5532.56689
5715.0 0.0001750 4463.27734 5502.26514
5902.0 0.0001694 4461.56348 5467.98926
5724.0 0.0001747 4459.84473 5430.65527
5684.0 0.0001759 4458.12402 5391.32422
5672.0 0.0001763 4456.39844 5350.59717
5418.0 0.0001846 4454.66797 5309.27148
5451.0 0.0001835 4452.93896 5268.10352
5298.0 0.0001888 4451.20166 5227.81445
5265.0 0.0001899 4449.46338 5189.21289
5221.0 0.0001915 4447.72168 5152.54102
5144.0 0.0001944 4445.97900 5118.31982
5116.0 0.0001955 4444.22998 5086.69043
4976.0 0.0002010 4442.47900 5057.67676
5028.0 0.0001989 4440.72656 5031.19043
4926.0 0.0002030 4438.97168 5006.97559
4873.0 0.0002052 4437.21436 4984.75293
4888.0 0.0002046 4435.45508 4964.24463
4954.0 0.0002019 4433.69482 4945.20068
4773.0 0.0002095 4431.92969 4927.46484
4841.0 0.0002066 4430.16260 4910.94189
4909.0 0.0002037 4428.39453 4895.55225
4894.0 0.0002043 4426.62695 4881.43262
4813.0 0.0002078 4424.85791 4868.71631
4765.0 0.0002099 4423.08594 4857.59375
4836.0 0.0002068 4421.31396 4848.15625
4755.0 0.0002103 4419.54004 4840.75342
4736.0 0.0002111 4417.76563 4835.42529
4728.0 0.0002115 4415.98926 4832.24121
4799.0 0.0002084 4414.21582 4831.22119
4777.0 0.0002093 4412.44043 4832.34229
4791.0 0.0002087 4410.66309 4835.49414
4775.0 0.0002094 4408.88770 4840.53662
4825.0 0.0002073 4407.11133 4847.28711
4798.0 0.0002084 4405.33643 4855.40283
4856.0 0.0002059 4403.56152 4864.54102
4902.0 0.0002040 4401.78662 4874.35254
4921.0 0.0002032 4400.01367 4884.25684
5004.0 0.0001998 4398.24121 4893.68213
4964.0 0.0002015 4396.46924 4901.98584
4983.0 0.0002007 4394.69971 4908.50781
5081.0 0.0001968 4392.92920 4912.63086
5083.0 0.0001967 4391.16211 4913.88623
5102.0 0.0001960 4389.39941 4911.98828
4986.0 0.0002006 4387.63525 4906.92432
4947.0 0.0002021 4385.87598 4898.95654
4915.0 0.0002035 4384.11523 4888.44971
4876.0 0.0002051 4382.36426 4876.01172
4789.0 0.0002088 4380.61133 4862.12988
4857.0 0.0002059 4378.86035 4847.42432
4850.0 0.0002062 4377.11621 4832.11914
4922.0 0.0002032 4375.37061 4816.63037
4824.0 0.0002073 4373.63037 4801.08496
4848.0 0.0002063 4371.89600 4785.60010
4849.0 0.0002062 4370.16748 4770.23730
4788.0 0.0002089 4368.43701 4755.10205
4739.0 0.0002110 4366.71436 4740.40137
4804.0 0.0002082 4364.99805 4726.21826
4757.0 0.0002102 4363.28369 4712.82422
4813.0 0.0002078 4361.57520 4700.30469
4767.0 0.0002098 4359.87012 4689.10596
4645.0 0.0002153 4358.17529 4679.31250
4777.0 0.0002093 4356.48389 4671.11914
4634.0 0.0002158 4354.79639 4664.62598
4660.0 0.0002146 4353.11768 4659.93994
4654.0 0.0002149 4351.44482 4657.10010
4636.0 0.0002157 4349.77734 4656.06934
4718.0 0.0002120 4348.11621 4656.78955
4806.0 0.0002081 4346.46387 4659.05615
4676.0 0.0002139 4344.81836 4662.75781
4780.0 0.0002092 4343.17871 4667.42529
4689.0 0.0002133 4341.54883 4673.06201
4584.0 0.0002182 4339.92432 4679.00439
4655.0 0.0002148 4338.31006 4684.98975
4728.0 0.0002115 4336.70313 4690.86475
4712.0 0.0002122 4335.10449 4696.11426
4738.0 0.0002111 4333.51563 4700.45020
4680.0 0.0002137 4331.93555 4703.55859
4635.0 0.0002157 4330.36230 4705.14600
4773.0 0.0002095 4328.80225 4705.08057
4720.0 0.0002119 4327.24854 4703.10010
4768.0 0.0002097 4325.70508 4699.25293
4806.0 0.0002081 4324.17432 4693.63086
4709.0 0.0002124 4322.64893 4686.43604
4743.0 0.0002108 4321.13770 4677.80225
4773.0 0.0002095 4319.63525 4668.06055
4672.0 0.0002140 4318.14600 4657.50439
4656.0 0.0002148 4316.66650 4646.40625
4575.0 0.0002186 4315.19678 4635.03662
4648.0 0.0002151 4313.73926 4623.57910
4585.0 0.0002181 4312.29639 4612.34766
4648.0 0.0002151 4310.86133 4601.53906
4638.0 0.0002156 4309.44043 4591.22314
4564.0 0.0002191 4308.03320 4581.56836
4579.0 0.0002184 4306.63525 4572.75049
4602.0 0.0002173 4305.25195 4564.82031
4540.0 0.0002203 4303.88135 4557.84619
4503.0 0.0002221 4302.52441 4551.87939
4570.0 0.0002188 4301.18018 4546.98145
4596.0 0.0002176 4299.84961 4543.15723
4558.0 0.0002194 4298.53271 4540.45703
4629.0 0.0002160 4297.22900 4538.93848
4599.0 0.0002174 4295.93945 4538.64551
4642.0 0.0002154 4294.66553 4539.64746
4593.0 0.0002177 4293.40576 4542.04102
4654.0 0.0002149 4292.16064 4545.96973
4635.0 0.0002157 4290.93018 4551.44873
4611.0 0.0002169 4289.71436 4558.68457
4653.0 0.0002149 4288.51221 4567.81934
4614.0 0.0002167 4287.32910 4579.01367
4701.0 0.0002127 4286.15674 4592.41553
4710.0 0.0002123 4285.00537 4608.21289
4753.0 0.0002104 4283.86621 4626.57910
4742.0 0.0002109 4282.74512 4647.67676
4643.0 0.0002154 4281.63672 4671.50146
4699.0 0.0002128 4280.55029 4698.39941
4770.0 0.0002096 4279.47412 4728.16113
4859.0 0.0002058 4278.41895 4761.02441
4856.0 0.0002059 4277.38135 4796.87598
4821.0 0.0002074 4276.35693 4835.66504
4779.0 0.0002092 4275.35156 4877.03760
4894.0 0.0002043 4274.36328 4920.68555
4880.0 0.0002049 4273.39111 4966.07227
5062.0 0.0001976 4272.43652 5012.49902
4982.0 0.0002007 4271.50195 5059.07861
5048.0 0.0001981 4270.58301 5104.72168
5210.0 0.0001919 4269.68311 5148.12793
5258.0 0.0001902 4268.79834 5187.82178
5253.0 0.0001904 4267.93311 5222.20752
5249.0 0.0001905 4267.08789 5249.70752
5386.0 0.0001857 4266.25732 5268.87598
5381.0 0.0001858 4265.44824 5278.61035
5389.0 0.0001856 4264.65625 5278.33984
5445.0 0.0001837 4263.88184 5268.11230
5474.0 0.0001827 4263.12451 5248.62744
5447.0 0.0001836 4262.38965 5221.11328
5211.0 0.0001919 4261.67090 5187.15967
5236.0 0.0001910 4260.97021 5148.53174
5204.0 0.0001922 4260.28955 5106.94824
5196.0 0.0001925 4259.62646 5063.97852
5176.0 0.0001932 4258.98291 5020.98340
4990.0 0.0002004 4258.35840 4979.07959
4913.0 0.0002035 4257.75293 4939.15479
4851.0 0.0002061 4257.16455 4901.89258
4903.0 0.0002040 4256.59570 4867.82764
4898.0 0.0002042 4256.04639 4837.26660
4836.0 0.0002068 4255.51563 4810.44727
4838.0 0.0002067 4255.00391 4787.44482
4763.0 0.0002100 4254.51172 4768.22900
4818.0 0.0002076 4254.03564 4752.64014
4748.0 0.0002106 4253.58057 4740.47314
4645.0 0.0002153 4253.14453 4731.49609
4802.0 0.0002082 4252.72559 4725.38818
4769.0 0.0002097 4252.32666 4721.90332
4708.0 0.0002124 4251.94678 4720.81885
4687.0 0.0002134 4251.58447 4721.92285
4724.0 0.0002117 4251.24023 4724.97314
4746.0 0.0002107 4250.91455 4729.74463
4790.0 0.0002088 4250.60791 4735.95703
4684.0 0.0002135 4250.31934 4743.26123
4782.0 0.0002091 4250.04688 4751.23486
4788.0 0.0002089 4249.79395 4759.41504
4845.0 0.0002064 4249.55957 4767.32080
4770.0 0.0002096 4249.34229 4774.50879
4893.0 0.0002044 4249.14307 4780.62354
4947.0 0.0002021 4248.96240 4785.45850
4986.0 0.0002006 4248.79736 4788.97314
4838.0 0.0002067 4248.65088 4791.31836
4772.0 0.0002096 4248.52148 4792.81250
4749.0 0.0002106 4248.40723 4793.84131
4756.0 0.0002103 4248.31152 4794.84424
4794.0 0.0002086 4248.23096 4796.24951
4622.0 0.0002164 4248.16895 4798.38330
4660.0 0.0002146 4248.12158 4801.45361
4607.0 0.0002171 4248.09082 4805.50928
4657.0 0.0002147 4248.07520 4810.45898
4606.0 0.0002171 4248.07617 4816.05518
4682.0 0.0002136 4248.09180 4821.87207
4795.0 0.0002086 4248.12402 4827.37939
4774.0 0.0002095 4248.16943 4831.91895
4736.0 0.0002111 4248.22852 4834.79883
4718.0 0.0002120 4248.30518 4835.17480
4696.0 0.0002129 4248.39551 4832.79639
4692.0 0.0002131 4248.50000 4827.07666
4763.0 0.0002100 4248.61621 4817.85791
4844.0 0.0002064 4248.74561 4805.21484
4718.0 0.0002120 4248.88867 4789.53955
4659.0 0.0002146 4249.04590 4771.35254
4691.0 0.0002132 4249.21338 4751.32324
4598.0 0.0002175 4249.39453 4730.16553
4559.0 0.0002193 4249.58643 4708.53857
4524.0 0.0002210 4249.79150 4687.03369
4617.0 0.0002166 4250.00537 4666.11914
4503.0 0.0002221 4250.23145 4646.18652
4491.0 0.0002227 4250.46973 4627.46875
4436.0 0.0002254 4250.71631 4610.14209
4446.0 0.0002249 4250.97266 4594.30420
4356.0 0.0002296 4251.23682 4579.99463
4560.0 0.0002193 4251.51318 4567.25146
4528.0 0.0002208 4251.79639 4555.99365
4543.0 0.0002201 4252.08789 4546.24316
4525.0 0.0002210 4252.38965 4537.98047
4540.0 0.0002203 4252.69531 4531.20020
4440.0 0.0002252 4253.01025 4525.90234
4452.0 0.0002246 4253.33057 4522.09375
4432.0 0.0002256 4253.65918 4519.69971
4490.0 0.0002227 4253.99170 4518.47070
4480.0 0.0002232 4254.33154 4518.77979
4500.0 0.0002222 4254.67383 4520.32080
4450.0 0.0002247 4255.02246 4523.01074
4535.0 0.0002205 4255.37646 4526.77246
4556.0 0.0002195 4255.73145 4531.51416
4594.0 0.0002177 4256.08984 4537.19922
4666.0 0.0002143 4256.45313 4543.87988
4476.0 0.0002234 4256.81641 4551.53711
4574.0 0.0002186 4257.18164 4560.23242
4496.0 0.0002224 4257.54932 4570.02979
4477.0 0.0002234 4257.91797 4581.08398
4562.0 0.0002192 4258.28809 4593.67725
4564.0 0.0002191 4258.65430 4607.53662
4687.0 0.0002134 4259.02246 4622.94434
4600.0 0.0002174 4259.39111 4639.96045
4568.0 0.0002189 4259.75635 4658.58887
4694.0 0.0002130 4260.11914 4678.76172
4680.0 0.0002137 4260.47949 4700.34863
4746.0 0.0002107 4260.83740 4723.12158
4761.0 0.0002100 4261.19238 4746.77148
4853.0 0.0002061 4261.54248 4770.90820
4861.0 0.0002057 4261.89063 4795.03613
4944.0 0.0002023 4262.23047 4818.55615
5137.0 0.0001947 4262.56689 4840.85352
5187.0 0.0001928 4262.89453 4861.21045
5209.0 0.0001920 4263.21973 4878.76367
5215.0 0.0001918 4263.53613 4893.07666
5254.0 0.0001903 4263.84375 4903.43359
5275.0 0.0001896 4264.14307 4909.44531
5275.0 0.0001896 4264.43604 4910.77344
5209.0 0.0001920 4264.71875 4907.49805
5165.0 0.0001936 4264.99268 4899.84570
5118.0 0.0001954 4265.25684 4888.31445
5107.0 0.0001958 4265.50928 4873.50830
4868.0 0.0002054 4265.75098 4856.07373
4821.0 0.0002074 4265.98145 4836.66846
4725.0 0.0002116 4266.19922 4815.92627
4800.0 0.0002083 4266.40625 4794.39160
4663.0 0.0002145 4266.59912 4772.27783
4684.0 0.0002135 4266.77881 4750.64551
4706.0 0.0002125 4266.94580 4729.58789
4730.0 0.0002114 4267.09766 4709.46191
4679.0 0.0002137 4267.23291 4690.55762
4486.0 0.0002229 4267.35449 4673.14111
4609.0 0.0002170 4267.46191 4657.42041
4582.0 0.0002182 4267.55225 4643.55225
4465.0 0.0002240 4267.62646 4631.64258
4516.0 0.0002214 4267.68115 4621.69727
4514.0 0.0002215 4267.72168 4613.67432
4536.0 0.0002205 4267.74219 4607.49365
4524.0 0.0002210 4267.74512 4602.96875
4497.0 0.0002224 4267.72949 4599.99072
4422.0 0.0002261 4267.69531 4598.25146
4522.0 0.0002211 4267.64014 4597.58887
4413.0 0.0002266 4267.56787 4597.12695
4480.0 0.0002232 4267.47412 4597.12646
4516.0 0.0002214 4267.35986 4596.99268
4486.0 0.0002229 4267.22559 4596.37158
4470.0 0.0002237 4267.06885 4595.02832
4432.0 0.0002256 4266.89160 4592.80908
4504.0 0.0002220 4266.69287 4589.67578
4418.0 0.0002263 4266.47168 4585.65967
4473.0 0.0002236 4266.22754 4580.89990
4415.0 0.0002265 4265.96289 4575.62158
4495.0 0.0002225 4265.67383 4570.11133
4534.0 0.0002206 4265.36182 4564.17139
4338.0 0.0002305 4265.02637 4558.16406
4355.0 0.0002296 4264.66797 4552.23438
4394.0 0.0002276 4264.28613 4546.34668
4429.0 0.0002258 4263.88086 4540.66797
4418.0 0.0002263 4263.44873 4535.19531
4568.0 0.0002189 4262.99658 4529.92871
4505.0 0.0002220 4262.51758 4524.89893
4449.0 0.0002248 4262.01514 4520.13232
4506.0 0.0002219 4261.48633 4515.66016
4414.0 0.0002266 4260.93506 4511.53467
4426.0 0.0002259 4260.35840 4507.79980
4487.0 0.0002229 4259.75879 4504.53027
4398.0 0.0002274 4259.13086 4501.78125
4395.0 0.0002275 4258.48145 4499.67090
4500.0 0.0002222 4257.80566 4498.22412
4424.0 0.0002260 4257.10400 4497.53516
4437.0 0.0002254 4256.37891 4497.67334
4524.0 0.0002210 4255.63086 4498.65088
4511.0 0.0002217 4254.85742 4500.42676
4418.0 0.0002263 4254.05762 4503.00391
4408.0 0.0002269 4253.23389 4506.31982
4580.0 0.0002183 4252.38770 4510.31104
4492.0 0.0002226 4251.51611 4514.88574
4580.0 0.0002183 4250.62109 4519.97559
4534.0 0.0002206 4249.70361 4525.41016
4482.0 0.0002231 4248.76025 4531.33398
4464.0 0.0002240 4247.79492 4537.66016
4604.0 0.0002172 4246.80566 4544.32129
4501.0 0.0002222 4245.79541 4551.31152
4599.0 0.0002174 4244.76074 4558.55371
4621.0 0.0002164 4243.70557 4565.81152
4610.0 0.0002169 4242.62793 4572.91553
4700.0 0.0002128 4241.52881 4579.60352
4731.0 0.0002114 4240.40918 4585.47900
4741.0 0.0002109 4239.27002 4590.27441
4778.0 0.0002093 4238.10547 4593.59326
4756.0 0.0002103 4236.92432 4595.14404
4742.0 0.0002109 4235.72266 4594.73779
4760.0 0.0002101 4234.50439 4592.30469
4831.0 0.0002070 4233.26660 4587.92969
4750.0 0.0002105 4232.00879 4581.79932
4731.0 0.0002114 4230.73535 4574.20459
4736.0 0.0002111 4229.44482 4565.45410
4676.0 0.0002139 4228.13574 4555.90527
4636.0 0.0002157 4226.81201 4545.85352
4681.0 0.0002136 4225.47412 4535.55176
4613.0 0.0002168 4224.11963 4525.21289
4665.0 0.0002144 4222.75146 4515.01563
4611.0 0.0002169 4221.36816 4505.14502
4541.0 0.0002202 4219.97363 4495.80371
4563.0 0.0002192 4218.56592 4487.05957
4478.0 0.0002233 4217.14551 4479.13721
4437.0 0.0002254 4215.71436 4472.16064
4489.0 0.0002228 4214.27100 4466.31006
4431.0 0.0002257 4212.82080 4461.66699
4443.0 0.0002251 4211.35791 4457.85986
4438.0 0.0002253 4209.88818 4455.87793
4494.0 0.0002225 4208.41016 4455.25586
4460.0 0.0002242 4206.92334 4455.93994
4581.0 0.0002183 4205.43262 4457.87402
4421.0 0.0002262 4203.93213 4460.94434
4452.0 0.0002246 4202.42676 4465.07861
4431.0 0.0002257 4200.91650 4470.02344
4447.0 0.0002249 4199.40527 4475.66162
4448.0 0.0002248 4197.88477 4481.81641
4511.0 0.0002217 4196.36084 4488.32861
4536.0 0.0002205 4194.83643 4494.81445
4614.0 0.0002167 4193.31299 4501.52930
4516.0 0.0002214 4191.78320 4508.16016
4543.0 0.0002201 4190.25244 4514.63574
4645.0 0.0002153 4188.72119 4520.98877
4535.0 0.0002205 4187.19141 4527.19238
4634.0 0.0002158 4185.65967 4533.39404
4694.0 0.0002130 4184.12842 4539.74414
4771.0 0.0002096 4182.59912 4546.45654
4695.0 0.0002130 4181.06982 4553.73535
4741.0 0.0002109 4179.54150 4561.80957
4749.0 0.0002106 4178.01416 4570.92041
4593.0 0.0002177 4176.48975 4581.28076
4722.0 0.0002118 4174.96533 4593.10498
4744.0 0.0002108 4173.44336 4606.57520
4628.0 0.0002161 4171.92285 4621.85498
4554.0 0.0002196 4170.40186 4638.84521
4664.0 0.0002144 4168.88477 4657.85303
4727.0 0.0002116 4167.36865 4678.68164
4734.0 0.0002112 4165.85156 4701.22803
4704.0 0.0002126 4164.33447 4725.31201
4692.0 0.0002131 4162.81494 4750.72168
4756.0 0.0002103 4161.29883 4777.18506
4763.0 0.0002100 4159.77881 4804.40771
4792.0 0.0002087 4158.25586 4831.99170
4802.0 0.0002082 4156.72900 4859.52246
4771.0 0.0002096 4155.19824 4886.50342
4849.0 0.0002062 4153.66064 4912.35449
4887.0 0.0002046 4152.11621 4936.40820
4935.0 0.0002026 4150.56250 4957.94434
4980.0 0.0002008 4148.99854 4976.23145
5005.0 0.0001998 4147.42383 4990.57568
4878.0 0.0002050 4145.83301 5000.37793
4889.0 0.0002045 4144.22803 5005.19727
4932.0 0.0002028 4142.60352 5004.72461
4776.0 0.0002094 4140.95557 4998.91064
4957.0 0.0002017 4139.28857 4987.82861
4888.0 0.0002046 4137.59326 4971.78320
4875.0 0.0002051 4135.86621 4951.24365
4807.0 0.0002080 4134.10840 4926.78516
4775.0 0.0002094 4132.31348 4899.07471
4754.0 0.0002103 4130.47852 4868.59180
4661.0 0.0002145 4128.59961 4836.47266
4716.0 0.0002120 4126.67139 4802.98096
4597.0 0.0002175 4124.69141 4768.77539
4606.0 0.0002171 4122.65283 4734.32520
4672.0 0.0002140 4120.54932 4700.19238
4597.0 0.0002175 4118.38232 4666.75830
4594.0 0.0002177 4116.13770 4634.37891
4583.0 0.0002182 4113.81396 4603.37061
4578.0 0.0002184 4111.40186 4573.92969
4434.0 0.0002255 4108.90137 4546.37109
4419.0 0.0002263 4106.29541 4520.78906
4489.0 0.0002228 4103.58398 4497.27539
4433.0 0.0002256 4100.75977 4475.91602
4484.0 0.0002230 4097.80811 4456.76025
4345.0 0.0002301 4094.72461 4439.85254
4473.0 0.0002236 4091.49829 4425.24707
4535.0 0.0002205 4088.12524 4412.88135
4408.0 0.0002269 4084.58740 4402.75684
4424.0 0.0002260 4080.87671 4394.82227
4523.0 0.0002211 4076.98853 4389.00049
4403.0 0.0002271 4072.90161 4385.17822
4353.0 0.0002297 4068.60840 4383.24023
4446.0 0.0002249 4064.09644 4382.93018
4449.0 0.0002248 4059.35498 4384.17480
4435.0 0.0002255 4054.36670 4386.70020
4399.0 0.0002273 4049.11646 4390.24316
4419.0 0.0002263 4043.59424 4394.51563
4379.0 0.0002284 4037.77905 4399.16504
4468.0 0.0002238 4031.65479 4403.79736
4495.0 0.0002225 4025.20776 4407.95850
4357.0 0.0002295 4018.42261 4411.15576
4361.0 0.0002293 4011.27246 4412.82520
4497.0 0.0002224 4003.74268 4412.31494
4432.0 0.0002256 3995.81445 4409.26611
4391.0 0.0002277 3987.47046 4403.11572
4443.0 0.0002251 3978.67822 4393.50049
4349.0 0.0002299 3969.42188 4380.25146
4313.0 0.0002319 3959.68457 4363.37158
4317.0 0.0002316 3949.42773 4342.97119
4349.0 0.0002299 3938.63281 4319.42236
4370.0 0.0002288 3927.27417 4293.10986
4348.0 0.0002300 3915.33569 4264.52100
4413.0 . . .
loop_
_refln_index_h
_refln_index_k
_refln_index_l
_refln_observed_status
_refln_F_squared_meas
_refln_F_squared_calc
_refln_phase_calc
_refln_d_spacing
_gsas_i100_meas
1 0 0 o 45.064 45.915 0.00 10.44567 1.32
0 1 0 o 518.155 504.502 0.00 10.41776 13.86
0 0 1 o 45.187 25.594 180.00 6.69716 0.50
1 -1 0 o 2617.921 2564.408 0.00 7.40816 36.57
1 1 0 o 3087.785 3130.107 180.00 7.34488 42.55
0 1 -1 o 161.179 170.479 180.00 6.63163 1.76
1 0 -1 o 1.837 1.697 0.00 6.00659 0.02
1 1 -1 o 21.437 14.850 180.00 5.94256 0.19
1 0 1 o 25.854 20.696 180.00 5.32971 0.20
1 -1 1 o 51.418 45.700 0.00 5.30826 0.37
0 1 1 o 970.081 894.690 0.00 4.98254 5.88
2 0 0 o 1950.129 1943.531 180.00 5.22284 14.19
0 2 0 o 1035.453 1080.520 0.00 5.20888 6.93
1 -1 -1 o 954.424 973.829 180.00 4.68578 5.22
0 2 -1 o 124.521 137.419 180.00 4.90235 0.72
2 -1 0 o 4495.359 4562.721 0.00 4.68507 25.99
1 -2 0 o 285.035 288.049 0.00 4.67751 1.56
2 1 0 o 3147.825 3107.919 0.00 4.65298 17.93
1 2 0 o 244.876 247.601 0.00 4.64556 1.33
1 1 1 o 1127.424 926.162 180.00 4.32957 5.30
2 0 -1 o 121.420 112.975 0.00 4.40790 0.61
1 2 -1 o 36.054 58.658 180.00 4.59577 0.18
2 1 -1 o 363.285 373.760 180.00 4.37579 1.79
1 -2 1 o 661.629 607.297 0.00 4.29527 3.04
2 0 1 o 82.403 85.300 0.00 3.87952 0.33
2 -1 1 o 744.392 793.099 0.00 3.87580 2.92
2 -1 -1 o 95.343 111.538 0.00 3.80314 0.35
2 -2 0 o 316.346 311.219 0.00 3.70408 1.12
0 2 1 o 1315.881 1380.365 0.00 3.61092 4.23
2 2 0 o 2333.204 2124.393 0.00 3.67244 8.10
2 2 -1 o 6.176 8.698 0.00 3.74208 0.02
0 1 -2 o 3583.994 3525.618 180.00 3.51682 10.93
1 -2 -1 o 19.686 18.900 0.00 3.49641 0.06
1 1 -2 o 8026.080 8057.854 180.00 3.47757 23.94
2 1 1 o 104.336 109.806 0.00 3.43517 0.32
0 3 -1 o 8.014 10.760 0.00 3.55991 0.03
3 0 0 o 8.657 8.737 180.00 3.48189 0.03
0 3 0 o 101.855 100.469 180.00 3.47259 0.31
0 0 2 o 1646.631 1732.854 180.00 3.34858 4.58
1 0 -2 o 1.294 1.289 0.00 3.31752 0.00
2 -2 1 o 326.377 364.084 180.00 3.42744 1.00
1 2 1 o 0.512 0.539 180.00 3.33485 0.00
1 3 -1 o 1.864 2.040 0.00 3.43396 0.01
0 2 -2 o 36877.44 36259.45 180.00 3.31582 100.00
3 -1 0 o 70.378 70.756 0.00 3.31088 0.20
1 -3 0 o 586.417 622.229 0.00 3.30376 1.60
3 1 0 o 141.934 147.897 180.00 3.29384 0.41
1 3 0 o 95.918 99.743 180.00 3.28683 0.26
1 2 -2 o 3055.975 3237.471 0.00 3.28007 8.12
1 -3 1 o 721.430 742.796 0.00 3.30872 1.97
1 -1 2 o 12222.438 11925.225 0.00 3.20506 31.41
3 0 -1 o 64.393 56.439 180.00 3.26950 0.18
3 1 -1 o 16.836 15.298 180.00 3.25361 0.05
1 0 2 o 74.271 56.813 0.00 3.07388 0.18
2 1 -2 o 1908.357 2075.979 180.00 3.11809 4.68
2 -2 -1 o 33.844 26.002 0.00 3.08261 0.08
1 -2 2 o 6824.739 6580.010 180.00 3.05295 15.91
2 0 -2 o 43.183 46.065 180.00 3.00330 0.10
0 1 2 o 129.951 183.927 180.00 2.93688 0.28
3 -1 -1 o 404.378 427.394 180.00 3.00068 0.96
1 -1 -2 o 4.590 4.633 180.00 2.91781 0.01
2 3 -1 o 261.904 353.905 180.00 3.02854 0.61
2 2 -2 o 86.930 104.289 0.00 2.97128 0.19
3 -1 1 o 86.977 132.071 180.00 2.93635 0.20
3 0 1 o 53.897 81.435 180.00 2.93597 0.12
3 2 -1 o 59.153 69.527 0.00 2.96423 0.14
3 -2 0 o 2130.393 2121.596 180.00 2.90626 4.73
2 -3 0 o 21.017 21.367 0.00 2.90325 0.05
2 2 1 o 1288.980 1262.230 180.00 2.86921 2.71
0 3 -2 o 110.490 120.521 180.00 2.89301 0.23
3 2 0 o 1824.006 1710.060 0.00 2.88331 3.99
2 3 0 o 126.396 120.290 0.00 2.88037 0.27
1 3 -2 o 20.322 19.673 0.00 2.86732 0.04
2 -3 1 o 280.623 349.638 180.00 2.86171 0.59
1 1 2 o 80.569 83.990 0.00 2.74464 0.15
0 3 1 o 269.907 260.964 180.00 2.75726 0.51
2 -1 2 o 2071.737 2430.953 180.00 2.75061 4.03
3 1 1 o 140.187 111.933 180.00 2.72703 0.27
2 -1 -2 o 59.521 78.604 180.00 2.69868 0.11
1 -3 -1 o 1086.837 988.760 180.00 2.70682 1.98
3 -2 1 o 120.181 95.143 0.00 2.72795 0.23
2 0 2 o 813.931 839.374 180.00 2.66486 1.49
1 -3 2 o 769.406 704.826 180.00 2.71502 1.41
0 4 -1 o 34.246 26.621 0.00 2.72534 0.06
2 -2 2 o 11.853 13.663 180.00 2.65413 0.02
3 1 -2 o 251.321 276.502 0.00 2.65983 0.46
1 3 1 o 1140.918 973.569 0.00 2.62688 1.97
1 4 -1 o 74.305 76.376 0.00 2.66607 0.13
3 -2 -1 o 184.848 179.471 0.00 2.60819 0.33
2 3 -2 o 135.384 160.666 180.00 2.65267 0.24
3 0 -2 o 1805.773 1635.574 0.00 2.58886 3.12
4 0 0 o 452.033 457.330 0.00 2.61142 0.84
0 4 0 o 1056.888 960.553 0.00 2.60444 1.77
1 -4 1 o 880.095 877.151 180.00 2.60897 1.50
3 2 -2 o 395.442 411.971 180.00 2.56561 0.67
4 0 -1 o 81.373 68.160 180.00 2.54857 0.14
3 3 -1 o 203.321 198.254 0.00 2.56849 0.34
4 1 -1 o 1134.432 1032.576 180.00 2.53973 1.96
4 -1 0 o 448.426 403.434 0.00 2.53819 0.78
0 2 2 o 13.354 15.337 180.00 2.49127 0.02
1 -4 0 o 88.793 78.091 0.00 2.53218 0.14
4 1 0 o 568.417 517.595 0.00 2.52794 0.98
1 -2 -2 o 406.777 399.477 0.00 2.48080 0.63
2 -3 -1 o 219.252 243.868 0.00 2.50186 0.35
1 4 0 o 76.284 82.844 0.00 2.52200 0.12
2 1 2 o 79.905 76.669 180.00 2.44056 0.12
3 -3 0 o 1563.129 1491.191 180.00 2.46939 2.48
0 4 -2 o 952.224 997.507 180.00 2.45118 1.43
3 3 0 o 70.752 65.929 180.00 2.44829 0.11
2 4 -1 o 1310.918 1453.452 0.00 2.46131 2.01
4 -1 -1 o 2080.493 1918.130 180.00 2.41604 3.22
3 2 1 o 3652.071 3367.010 180.00 2.41575 5.54
2 -3 2 o 428.830 458.371 180.00 2.42415 0.64
3 -3 1 o 59.737 55.781 0.00 2.41681 0.09
1 4 -2 o 472.568 605.254 180.00 2.43435 0.70
1 2 2 o 662.042 642.584 180.00 2.36962 0.93
3 -1 -2 o 1911.669 1717.347 0.00 2.38713 2.80
2 3 1 o 519.503 410.185 180.00 2.37941 0.75
4 2 -1 o 1295.896 1268.195 0.00 2.39364 1.98
1 1 -3 o 925.463 948.255 0.00 2.34628 1.27
2 -2 -2 o 181.058 183.668 0.00 2.34289 0.25
0 1 -3 o 145.382 150.190 180.00 2.33405 0.19
2 -4 1 o 120.989 110.934 180.00 2.37342 0.17
4 -2 0 o 865.677 877.315 0.00 2.34254 1.26
2 -4 0 o 1812.987 1808.753 180.00 2.33875 2.51
1 2 -3 o 148.140 149.954 180.00 2.33674 0.20
4 -1 1 o 546.488 573.313 0.00 2.33304 0.80
3 3 -2 o 75.288 77.232 180.00 2.35100 0.11
4 0 1 o 515.644 538.031 180.00 2.33184 0.76
0 2 -3 o 0.067 0.063 180.00 2.32565 0.00
3 -1 2 o 66.694 63.363 180.00 2.32290 0.09
1 -4 2 o 573.159 574.822 180.00 2.34109 0.79
4 2 0 o 2.973 2.808 180.00 2.32649 0.00
2 4 0 o 92.773 87.738 0.00 2.32278 0.13
3 0 2 o 670.413 1090.815 180.00 2.26963 0.92
2 4 -2 o 561.508 752.612 180.00 2.29789 0.75
2 1 -3 o 3.010 4.880 180.00 2.24692 0.00
3 -2 2 o 372.778 601.167 0.00 2.26483 0.50
1 0 -3 o 8.211 11.918 0.00 2.24397 0.01
0 0 3 o 706.137 726.135 180.00 2.23239 0.88
4 1 -2 o 4.973 8.129 0.00 2.24635 0.01
2 2 -3 o 20.694 25.640 0.00 2.23765 0.03
1 -1 3 o 33.066 26.630 0.00 2.21513 0.04
3 -3 -1 o 418.485 350.646 0.00 2.22845 0.53
1 -2 3 o 1.515 1.347 180.00 2.20880 0.00
4 -2 1 o 39.844 33.273 0.00 2.22519 0.05
4 1 1 o 1173.172 998.641 180.00 2.22209 1.55
1 3 -3 o 3.740 3.008 180.00 2.21920 0.00
0 3 -3 o 103.628 86.425 0.00 2.21054 0.13
0 4 1 o 7.154 6.152 180.00 2.20968 0.01
4 0 -2 o 1418.965 1329.233 180.00 2.20395 1.80
4 -2 -1 o 141.382 128.266 0.00 2.19742 0.18
1 -4 -1 o 2824.807 2518.794 0.00 2.18428 3.37
2 2 2 o 95.956 88.731 180.00 2.16478 0.11
3 4 -1 o 923.634 959.607 0.00 2.19380 1.14
2 0 -3 o 221.148 244.956 180.00 2.15737 0.26
0 5 -1 o 21.269 20.978 180.00 2.18849 0.02
4 2 -2 o 82.962 79.556 0.00 2.18789 0.10
1 4 1 o 367.648 310.421 0.00 2.14007 0.42
4 3 -1 o 2504.531 2627.671 0.00 2.16949 3.11
3 -2 -2 o 229.985 277.165 0.00 2.13104 0.27
2 -4 2 o 23.241 29.740 0.00 2.14763 0.03
1 0 3 o 17.819 22.350 0.00 2.12691 0.02
3 1 2 o 75.831 96.218 0.00 2.12546 0.09
1 5 -1 o 431.011 507.928 180.00 2.15665 0.51
2 3 -3 o 79.048 91.607 0.00 2.13303 0.09
0 3 2 o 342.763 262.124 0.00 2.10942 0.38
1 -3 -2 o 3143.587 2407.803 180.00 2.10379 3.46
3 -3 2 o 4.490 4.937 180.00 2.11758 0.00
3 3 1 o 360.113 306.061 180.00 2.10041 0.41
1 -5 1 o 30.853 40.324 0.00 2.12761 0.04
1 -3 3 o 36.063 27.586 0.00 2.11021 0.04
3 -4 1 o 85.493 69.531 0.00 2.10139 0.10
1 -1 -3 o 69.537 72.585 0.00 2.06740 0.07
4 -3 0 o 1.685 1.711 180.00 2.09577 0.00
3 -4 0 o 136.973 141.519 180.00 2.09419 0.16
4 -1 -2 o 386.721 339.796 180.00 2.07615 0.44
0 1 3 o 87.738 71.834 0.00 2.05765 0.09
5 0 0 o 650.563 558.100 180.00 2.08913 0.78
2 -4 -1 o 25.204 24.765 0.00 2.07294 0.03
3 1 -3 o 71.112 70.856 0.00 2.07246 0.08
0 5 0 o 903.644 692.497 180.00 2.08355 0.98
4 3 0 o 435.388 354.462 0.00 2.07857 0.49
3 4 -2 o 108.361 111.890 180.00 2.09266 0.12
3 4 0 o 286.551 243.474 0.00 2.07703 0.32
5 0 -1 o 3.345 3.300 0.00 2.07301 0.00
5 1 -1 o 0.028 0.030 0.00 2.06755 0.00
3 2 -3 o 2.443 2.450 0.00 2.06448 0.00
0 5 -2 o 186.436 157.907 0.00 2.07694 0.20
4 2 1 o 522.818 503.567 180.00 2.04308 0.58
5 -1 0 o 2289.710 2063.205 180.00 2.05175 2.62
1 5 -2 o 29.544 31.648 180.00 2.06598 0.03
1 3 2 o 504.591 417.116 0.00 2.03337 0.53
4 -3 1 o 1709.806 1741.274 0.00 2.04710 1.90
1 -5 0 o 967.301 985.466 0.00 2.04667 1.01
2 -1 3 o 17.359 14.769 180.00 2.03125 0.02
5 1 0 o 366.627 368.130 0.00 2.04497 0.42
2 -2 3 o 69.538 66.868 0.00 2.02702 0.07
1 5 0 o 246.744 218.000 180.00 2.03995 0.26
4 3 -2 o 1699.704 1672.502 180.00 2.04953 1.87
1 4 -3 o 1.065 0.864 0.00 2.03534 0.00
2 -3 -2 o 28.528 26.754 180.00 2.01835 0.03
0 4 -3 o 79.011 70.055 0.00 2.02931 0.08
2 5 -1 o 1253.090 1220.658 0.00 2.04320 1.33
3 0 -3 o 404.566 495.309 180.00 2.00220 0.42
2 -1 -3 o 564.045 718.674 180.00 1.99972 0.57
2 4 1 o 0.703 0.893 0.00 1.99915 0.00
1 -5 2 o 7.658 8.656 180.00 2.00932 0.01
1 1 3 o 33.199 74.122 0.00 1.97357 0.03
5 -1 -1 o 88.592 112.254 0.00 2.00041 0.10
2 -5 1 o 494.170 668.027 0.00 1.99458 0.50
2 0 3 o 12.446 42.615 180.00 1.96199 0.01
4 -1 2 o 9.691 22.088 180.00 1.97330 0.01
5 2 -1 o 42.515 56.523 180.00 1.98579 0.05
3 3 -3 o 326.754 658.465 0.00 1.98085 0.34
4 -3 -1 o 22.562 46.209 180.00 1.95625 0.02
2 4 -3 o 83.225 228.181 180.00 1.96765 0.08
2 5 -2 o 87.748 190.381 180.00 1.97997 0.09
2 -3 3 o 73.721 78.379 180.00 1.95061 0.07
4 0 2 o 550.268 576.943 180.00 1.93976 0.55
4 -2 2 o 158.976 174.549 180.00 1.93790 0.16
1 -4 3 o 36.483 40.384 180.00 1.95145 0.03
3 2 2 o 20.659 21.502 180.00 1.93523 0.02
5 -2 0 o 750.078 694.316 180.00 1.94477 0.77
2 -5 0 o 208.922 209.052 0.00 1.94098 0.20
5 -1 1 o 20.986 24.945 0.00 1.92525 0.02
5 0 1 o 338.483 387.154 180.00 1.92402 0.34
5 2 0 o 595.632 581.853 180.00 1.93327 0.60
2 5 0 o 59.449 64.204 0.00 1.92955 0.06
4 4 -1 o 314.577 356.781 0.00 1.92871 0.31
3 -4 2 o 215.967 259.809 0.00 1.92632 0.21
3 -4 -1 o 8.983 5.807 0.00 1.90982 0.01
4 -2 -2 o 309.102 278.530 0.00 1.90157 0.29
5 1 -2 o 359.415 236.282 0.00 1.91275 0.35
2 3 2 o 188.956 185.445 180.00 1.89894 0.18
5 0 -2 o 1053.081 940.725 0.00 1.88690 1.00
3 -3 -2 o 187.944 168.555 0.00 1.87865 0.17
1 -2 -3 o 553.704 536.600 180.00 1.86416 0.48
3 -1 -3 o 12.629 11.883 0.00 1.87480 0.01
5 -2 -1 o 1525.820 1292.625 180.00 1.87146 1.43
2 -5 2 o 0.903 0.777 180.00 1.88351 0.00
0 2 3 o 1030.244 1021.664 180.00 1.85649 0.90
4 1 -3 o 574.969 494.981 0.00 1.87020 0.52
3 5 -1 o 50.351 42.302 0.00 1.88174 0.05
4 2 -3 o 4.510 4.391 0.00 1.86383 0.00
5 -2 1 o 73.691 71.606 180.00 1.86380 0.07
5 2 -2 o 603.964 589.530 0.00 1.87575 0.57
5 1 1 o 0.162 0.157 180.00 1.86045 0.00
4 4 -2 o 16.827 14.009 0.00 1.87104 0.02
2 1 3 o 41.510 33.666 0.00 1.83920 0.04
4 -4 0 o 149.583 140.750 180.00 1.85204 0.14
4 1 2 o 1.239 1.332 0.00 1.84693 0.00
4 -4 1 o 99.595 115.398 180.00 1.84514 0.09
4 -3 2 o 1127.820 1281.806 180.00 1.84372 1.02
3 -1 3 o 443.030 504.915 0.00 1.82799 0.39
4 3 1 o 0.137 0.131 0.00 1.84102 0.00
5 3 -1 o 181.312 168.846 180.00 1.85161 0.17
0 5 1 o 323.444 226.759 0.00 1.83648 0.27
3 4 -3 o 32.077 36.961 0.00 1.84581 0.03
3 5 -2 o 71.349 83.821 0.00 1.84362 0.06
2 -2 -3 o 55.679 52.797 0.00 1.81455 0.05
3 -2 3 o 109.837 106.386 0.00 1.82538 0.10
3 -5 1 o 462.442 447.268 180.00 1.82531 0.40
3 4 1 o 85.127 76.273 0.00 1.82449 0.07
4 4 0 o 1396.545 956.067 0.00 1.83622 1.23
2 -4 3 o 86.656 72.459 0.00 1.82365 0.07
1 -5 -1 o 605.597 483.671 0.00 1.82229 0.51
1 5 -3 o 352.890 380.235 0.00 1.83135 0.30
4 0 -3 o 352.060 324.411 0.00 1.81856 0.30
0 4 2 o 774.814 775.318 0.00 1.80546 0.63
1 -4 -2 o 251.651 253.293 0.00 1.80239 0.21
0 5 -3 o 24.373 28.517 180.00 1.82744 0.02
0 6 -1 o 66.297 51.631 0.00 1.82157 0.06
1 2 3 o 211.294 214.542 180.00 1.79358 0.17
5 -1 -2 o 0.010 0.010 0.00 1.80529 0.00
5 -3 0 o 102.376 100.755 0.00 1.79697 0.09
1 5 1 o 234.167 234.091 0.00 1.79547 0.19
3 -5 0 o 0.038 0.038 180.00 1.79469 0.00
1 6 -1 o 847.774 858.876 180.00 1.80263 0.70
4 3 -3 o 28.716 28.829 0.00 1.80114 0.02
3 0 3 o 1991.218 2282.933 0.00 1.77657 1.64
1 2 -4 o 57.341 60.118 180.00 1.77354 0.05
5 3 0 o 221.570 196.185 0.00 1.78340 0.19
3 5 0 o 407.278 381.564 180.00 1.78117 0.34
1 -6 1 o 568.130 572.589 180.00 1.78646 0.46
5 3 -2 o 2.757 2.707 0.00 1.78591 0.00
0 2 -4 o 193.570 171.510 0.00 1.75841 0.15
1 -5 3 o 159.771 145.343 180.00 1.77040 0.13
2 5 -3 o 0.062 0.059 0.00 1.78113 0.00
3 -3 3 o 17.966 16.125 180.00 1.76942 0.01
1 4 2 o 58.230 49.395 180.00 1.75666 0.05
0 6 -2 o 328.068 334.909 180.00 1.77995 0.26
1 1 -4 o 54.798 50.195 180.00 1.75356 0.04
1 6 -2 o 59.071 59.141 0.00 1.77260 0.05
2 -4 -2 o 104.395 107.574 180.00 1.74821 0.08
2 -5 -1 o 297.421 249.459 180.00 1.75655 0.23
5 -3 1 o 180.558 151.731 0.00 1.75578 0.15
5 2 1 o 316.699 313.225 0.00 1.75112 0.26
2 2 -4 o 19.555 19.354 0.00 1.73878 0.01
0 1 -4 o 146.521 145.083 0.00 1.73852 0.11
3 3 2 o 86.110 85.344 0.00 1.73788 0.07
1 3 -4 o 2699.475 2765.646 0.00 1.74325 2.08
6 0 -1 o 374.488 372.026 180.00 1.74138 0.31
6 0 0 o 226.423 224.098 180.00 1.74095 0.19
6 1 -1 o 45.737 45.399 180.00 1.73773 0.04
1 -6 2 o 662.682 658.336 180.00 1.73725 0.51
0 6 0 o 182.819 181.408 180.00 1.73629 0.14
4 -1 -3 o 7.133 6.719 180.00 1.72191 0.01
2 1 -4 o 150.278 146.451 0.00 1.72035 0.11
3 -2 -3 o 2.022 1.978 180.00 1.72008 0.00
4 -4 -1 o 0.614 0.573 0.00 1.73046 0.00
4 2 2 o 945.344 938.883 180.00 1.71758 0.74
0 3 -4 o 5296.020 4848.956 0.00 1.72928 4.01
3 -5 2 o 23.767 21.614 0.00 1.72928 0.02
4 -3 -2 o 57.365 55.822 0.00 1.71616 0.04
2 6 -1 o 9.818 9.705 180.00 1.73438 0.01
6 -1 0 o 13.304 13.229 0.00 1.71953 0.01
5 -3 -1 o 176.818 171.892 180.00 1.71606 0.14
1 -6 0 o 1044.193 998.659 180.00 1.71517 0.78
6 1 0 o 87.829 83.358 0.00 1.71474 0.07
4 -4 2 o 330.592 308.262 180.00 1.71372 0.26
1 6 0 o 341.163 295.938 0.00 1.71042 0.25
2 3 -4 o 51.278 44.641 180.00 1.70982 0.04
2 5 1 o 321.679 282.196 180.00 1.70940 0.24
1 -2 4 o 31.724 42.099 180.00 1.69701 0.02
2 6 -2 o 393.783 390.677 180.00 1.71698 0.30
4 5 -1 o 185.720 196.046 180.00 1.70596 0.14
2 -6 1 o 22.931 24.250 180.00 1.70591 0.02
2 2 3 o 221.572 224.254 0.00 1.69056 0.16
1 0 -4 o 249.510 244.363 180.00 1.68809 0.18
5 -1 2 o 0.312 0.443 180.00 1.69852 0.00
6 -1 -1 o 8.803 12.098 0.00 1.69807 0.01
4 4 -3 o 458.155 639.663 180.00 1.69743 0.35
3 1 3 o 72.717 70.537 0.00 1.68350 0.05
5 4 -1 o 32.529 38.264 180.00 1.69469 0.02
1 -1 4 o 150.098 165.456 180.00 1.67874 0.11
3 5 -3 o 338.571 331.133 180.00 1.68886 0.25
6 2 -1 o 26.794 25.975 180.00 1.68796 0.02
5 0 2 o 264.853 313.958 0.00 1.67661 0.20
5 -2 -2 o 569.848 552.552 0.00 1.68734 0.43
0 0 4 o 43.825 53.613 180.00 1.67429 0.03
1 -3 4 o 2808.996 3333.515 180.00 1.67116 2.01
2 4 2 o 169.368 187.485 180.00 1.66742 0.12
1 -3 -3 o 34.442 37.801 180.00 1.66669 0.02
5 -2 2 o 150.791 181.233 0.00 1.67616 0.12
4 5 -2 o 729.594 701.189 180.00 1.68630 0.54
2 -5 3 o 12.035 14.969 180.00 1.67368 0.01
3 -4 3 o 132.771 163.959 180.00 1.67339 0.10
3 2 -4 o 68.910 73.485 180.00 1.66224 0.05
5 1 -3 o 90.317 111.424 180.00 1.67291 0.07
0 3 3 o 22.078 22.883 180.00 1.66085 0.02
1 4 -4 o 457.390 526.963 180.00 1.66984 0.32
2 0 -4 o 60.799 59.396 0.00 1.65876 0.04
5 2 -3 o 155.191 173.188 0.00 1.66798 0.12
3 -4 -2 o 95.844 88.744 180.00 1.65542 0.07
3 -5 -1 o 168.622 156.538 0.00 1.65433 0.12
5 4 -2 o 104.521 112.938 0.00 1.66372 0.08
0 4 -4 o 2540.159 2413.128 0.00 1.65791 1.77
3 1 -4 o 738.205 689.777 180.00 1.64646 0.51
4 4 1 o 392.023 365.049 180.00 1.64635 0.28
6 -2 0 o 379.107 349.000 180.00 1.65544 0.28
2 -6 2 o 484.630 448.006 0.00 1.65436 0.34
2 -6 0 o 46.946 45.595 0.00 1.65188 0.03
6 1 -2 o 0.634 0.625 180.00 1.65112 0.00
4 -5 1 o 0.407 0.405 0.00 1.65013 0.00
6 2 0 o 504.043 473.343 0.00 1.64692 0.38
5 0 -3 o 909.160 898.917 0.00 1.63599 0.64
4 -1 3 o 141.286 138.486 0.00 1.63410 0.10
2 6 0 o 136.244 125.526 0.00 1.64342 0.10
4 -2 3 o 7.561 7.169 180.00 1.63258 0.01
2 -3 -3 o 0.107 0.096 0.00 1.63130 0.00
2 4 -4 o 54.752 49.963 0.00 1.64004 0.04
1 6 -3 o 5.744 5.670 0.00 1.63657 0.00
3 3 -4 o 92.424 90.861 180.00 1.63653 0.06
5 -4 0 o 315.021 310.015 180.00 1.63650 0.23
4 -5 0 o 253.078 251.359 180.00 1.63553 0.18
6 -1 1 o 219.432 217.564 0.00 1.63476 0.16
6 0 -2 o 789.613 783.735 0.00 1.63475 0.57
0 6 -3 o 471.107 466.293 180.00 1.63412 0.32
6 0 1 o 383.075 374.082 0.00 1.63366 0.28
3 6 -1 o 367.797 341.921 0.00 1.63198 0.25
1 0 4 o 32.576 27.925 0.00 1.62036 0.02
5 3 1 o 104.359 96.260 0.00 1.61851 0.07
6 2 -2 o 4.821 4.194 0.00 1.62681 0.00
5 1 2 o 221.784 230.339 180.00 1.61525 0.16
3 6 -2 o 276.889 241.408 180.00 1.62544 0.19
1 3 3 o 740.873 766.016 180.00 1.61501 0.50
5 -3 2 o 998.880 1048.153 0.00 1.61443 0.71
5 -4 1 o 196.963 162.073 0.00 1.62366 0.14
5 4 0 o 538.843 432.528 180.00 1.62285 0.38
5 3 -3 o 3.219 2.548 180.00 1.62226 0.00
4 5 0 o 11.178 8.990 0.00 1.62191 0.01
6 -2 -1 o 189.658 183.930 180.00 1.61738 0.14
1 -4 4 o 2818.172 2719.138 0.00 1.60681 1.86
2 -2 4 o 668.084 650.225 0.00 1.60253 0.45
1 -1 -4 o 689.729 741.248 0.00 1.59099 0.45
4 -2 -3 o 161.135 163.375 180.00 1.60006 0.11
6 -2 1 o 279.279 303.150 0.00 1.59696 0.20
4 0 3 o 668.043 722.532 0.00 1.59674 0.46
3 5 1 o 8.611 9.366 0.00 1.59600 0.01
6 1 1 o 69.785 75.517 180.00 1.59389 0.05
6 3 -1 o 5.048 4.883 180.00 1.60288 0.00
3 0 -4 o 617.169 664.447 180.00 1.59255 0.41
4 -3 3 o 26.310 28.328 180.00 1.59250 0.02
2 6 -3 o 254.254 257.270 180.00 1.60010 0.17
0 1 4 o 85.744 80.617 0.00 1.57911 0.05
3 -6 1 o 307.317 334.957 180.00 1.59668 0.21
2 -1 4 o 279.594 289.675 0.00 1.58680 0.18
1 -6 3 o 137.142 148.309 0.00 1.59327 0.09
6 -1 -2 o 34.903 31.807 0.00 1.58113 0.02
2 -3 4 o 0.403 0.366 0.00 1.58101 0.00
2 -1 -4 o 25.854 23.264 180.00 1.56667 0.02
4 3 2 o 20.274 23.562 0.00 1.57482 0.01
4 -5 2 o 310.919 373.262 0.00 1.57085 0.21
0 6 1 o 230.135 218.030 0.00 1.56820 0.15
0 5 2 o 461.195 416.561 180.00 1.56701 0.29
3 2 3 o 160.411 144.967 180.00 1.56697 0.10
1 -5 -2 o 28.205 24.875 0.00 1.56530 0.02
3 4 -4 o 0.034 0.040 180.00 1.57472 0.00
5 -1 -3 o 5.484 4.764 180.00 1.56486 0.00
4 5 -3 o 563.688 747.049 180.00 1.57269 0.37
3 -3 -3 o 211.116 164.638 180.00 1.56193 0.13
6 -3 0 o 16.118 12.341 0.00 1.56169 0.01
1 -6 -1 o 825.872 607.365 0.00 1.55964 0.51
3 -6 0 o 65.140 48.422 0.00 1.55917 0.04
4 2 -4 o 171.725 128.781 0.00 1.55905 0.11
1 5 -4 o 40.916 38.615 0.00 1.56819 0.03
0 5 -4 o 5.056 3.823 0.00 1.55859 0.00
5 -4 -1 o 139.699 111.171 180.00 1.55784 0.09
6 3 -2 o 0.043 0.038 0.00 1.56684 0.00
3 -5 3 o 47.863 41.636 0.00 1.55558 0.03
3 4 2 o 107.976 93.470 180.00 1.55490 0.07
5 -3 -2 o 52.009 44.529 180.00 1.55407 0.03
6 3 0 o 399.519 322.830 0.00 1.55099 0.26
3 6 0 o 166.358 159.349 0.00 1.54852 0.10
2 3 3 o 175.115 164.949 0.00 1.53829 0.11
0 7 -1 o 87.808 72.354 180.00 1.55721 0.05
2 0 4 o 151.984 136.890 0.00 1.53694 0.09
4 1 -4 o 134.291 145.319 0.00 1.54630 0.08
1 1 4 o 155.725 147.654 180.00 1.53334 0.09
1 6 1 o 595.098 577.114 0.00 1.54215 0.36
4 -4 -2 o 2.111 2.040 0.00 1.54130 0.00
3 -6 2 o 236.141 250.811 0.00 1.54720 0.15
0 7 -2 o 459.145 496.795 0.00 1.54695 0.28
4 3 -4 o 4.057 3.685 0.00 1.53749 0.00
1 7 -1 o 26.861 29.243 180.00 1.54504 0.02
5 4 -3 o 78.526 85.279 0.00 1.54496 0.05
1 5 2 o 5.535 4.964 180.00 1.53450 0.00
2 5 -4 o 81.798 81.096 0.00 1.54314 0.05
4 -5 -1 o 10.346 9.456 180.00 1.53391 0.01
1 7 -2 o 83.324 80.259 0.00 1.54183 0.05
2 -5 -2 o 0.037 0.041 0.00 1.52970 0.00
5 5 -1 o 16.667 15.059 0.00 1.53730 0.01
4 1 3 o 0.370 0.417 180.00 1.52787 0.00
6 -3 1 o 118.966 141.182 180.00 1.52771 0.08
2 -4 4 o 222.373 264.495 0.00 1.52648 0.14
1 -7 1 o 318.074 275.991 180.00 1.53539 0.19
5 2 2 o 33.728 39.898 0.00 1.52630 0.02
5 -4 2 o 160.834 188.017 0.00 1.52527 0.10
6 2 1 o 200.963 215.727 180.00 1.52324 0.13
3 6 -3 o 518.321 536.616 180.00 1.53192 0.32
2 -6 3 o 102.498 103.281 0.00 1.52196 0.06
4 -4 3 o 0.004 0.004 0.00 1.52168 0.00
5 5 -2 o 126.781 145.583 180.00 1.52953 0.08
3 -1 -4 o 162.115 201.958 180.00 1.51080 0.10
2 -6 -1 o 181.444 162.885 180.00 1.51810 0.11
1 -5 4 o 216.716 197.763 0.00 1.51618 0.13
6 -3 -1 o 104.770 105.943 0.00 1.51416 0.07
1 -7 2 o 117.970 106.866 180.00 1.51895 0.07
4 6 -2 o 14.331 14.317 180.00 1.51427 0.01
4 6 -1 o 215.149 237.812 0.00 1.51303 0.13
4 0 -4 o 95.422 104.666 180.00 1.50165 0.06
2 7 -1 o 0.565 0.593 180.00 1.50115 0.00
6 -2 -2 o 171.978 167.306 180.00 1.50034 0.11
3 -2 4 o 1.167 0.987 0.00 1.49092 0.00
1 -4 -3 o 723.897 641.108 180.00 1.48965 0.41
7 0 -1 o 501.771 433.229 180.00 1.49878 0.32
6 4 -1 o 89.658 75.153 0.00 1.49756 0.06
7 1 -1 o 316.604 270.557 180.00 1.49618 0.20
2 7 -2 o 11.203 14.925 0.00 1.50454 0.01
6 1 -3 o 0.062 0.055 180.00 1.49561 0.00
0 4 3 o 12.429 13.231 180.00 1.48521 0.01
7 0 0 o 16.522 14.017 0.00 1.49224 0.01
6 2 -3 o 116.657 98.337 0.00 1.49182 0.07
0 7 0 o 16.145 15.225 0.00 1.48825 0.01
3 5 -4 o 224.616 213.519 0.00 1.48810 0.13
1 -2 -4 o 2.959 2.951 180.00 1.47823 0.00
3 -1 4 o 11.461 11.378 180.00 1.47797 0.01
2 6 1 o 6.495 6.693 180.00 1.48631 0.00
5 -5 1 o 191.555 198.181 0.00 1.48628 0.11
4 4 -4 o 107.380 113.696 180.00 1.48564 0.06
2 -7 1 o 21.387 23.641 0.00 1.48360 0.01
6 -1 2 o 285.110 311.803 180.00 1.48288 0.17
2 5 2 o 4.048 3.653 180.00 1.47369 0.00
6 4 -2 o 465.520 504.491 180.00 1.48212 0.28
5 -5 0 o 23.776 25.391 0.00 1.48163 0.01
5 4 1 o 233.817 247.123 180.00 1.48120 0.14
4 -3 -3 o 16.560 15.232 180.00 1.47067 0.01
7 -1 0 o 1.147 1.160 0.00 1.47894 0.00
0 2 4 o 652.901 654.971 180.00 1.46844 0.36
4 -6 1 o 35.000 33.595 0.00 1.47570 0.02
3 -5 -2 o 0.425 0.438 0.00 1.46662 0.00
7 1 0 o 0.749 0.711 180.00 1.47539 0.00
1 -7 0 o 0.163 0.155 0.00 1.47514 0.00
3 -3 4 o 81.590 73.933 0.00 1.47380 0.05
2 -4 -3 o 70.019 73.579 0.00 1.46446 0.04
4 5 1 o 233.952 206.202 0.00 1.47239 0.13
5 -2 -3 o 310.749 275.565 0.00 1.47197 0.18
1 7 0 o 1.776 1.575 0.00 1.47161 0.00
7 -1 -1 o 110.965 99.748 180.00 1.47114 0.07
2 1 4 o 3.178 3.671 180.00 1.46184 0.00
5 -1 3 o 0.075 0.086 0.00 1.46169 0.00
6 0 -3 o 5.807 5.663 180.00 1.46930 0.00
5 5 0 o 22.967 22.710 0.00 1.46898 0.01
6 -2 2 o 0.042 0.043 0.00 1.46818 0.00
6 0 2 o 3.466 3.529 180.00 1.46798 0.00
2 -2 -4 o 100.923 112.661 0.00 1.45891 0.06
7 2 -1 o 133.444 142.200 0.00 1.46381 0.08
1 7 -3 o 1.892 2.051 180.00 1.46334 0.00
2 -7 2 o 197.704 220.251 180.00 1.46286 0.11
0 7 -3 o 1.065 1.248 0.00 1.46184 0.00
5 -2 3 o 505.083 603.322 0.00 1.46084 0.30
1 4 3 o 407.721 370.841 180.00 1.45192 0.22
6 3 -3 o 44.688 49.408 0.00 1.45860 0.03
1 6 -4 o 42.615 40.116 0.00 1.45392 0.02
6 -4 0 o 61.840 56.882 180.00 1.45313 0.04
3 3 3 o 26.535 29.721 0.00 1.44319 0.01
4 -6 0 o 0.421 0.387 0.00 1.45162 0.00
3 -6 -1 o 547.558 501.131 0.00 1.45088 0.30
5 5 -3 o 246.147 255.340 0.00 1.44889 0.14
2 -5 4 o 12.472 13.429 0.00 1.44838 0.01
4 2 3 o 0.083 0.073 0.00 1.43894 0.00
0 6 -4 o 249.997 299.885 0.00 1.44651 0.14
3 0 4 o 10.609 9.614 0.00 1.43720 0.01
7 1 -2 o 91.769 112.039 0.00 1.44545 0.05
5 2 -4 o 584.569 704.176 180.00 1.44452 0.33
4 6 -3 o 82.638 96.073 180.00 1.44340 0.05
4 4 2 o 214.032 202.464 180.00 1.43460 0.12
5 0 3 o 66.266 62.921 180.00 1.43453 0.04
6 4 0 o 0.901 0.904 180.00 1.44166 0.00
3 7 -2 o 6.147 6.113 0.00 1.44156 0.00
4 -1 -4 o 75.508 77.076 0.00 1.43276 0.04
4 6 0 o 0.052 0.048 0.00 1.44019 0.00
1 2 4 o 36.795 38.976 0.00 1.43119 0.02
6 -4 1 o 154.869 138.088 0.00 1.43852 0.09
3 -4 4 o 6.965 7.287 180.00 1.42955 0.00
7 -2 0 o 269.262 240.935 180.00 1.43780 0.16
2 7 -3 o 133.093 119.905 180.00 1.43687 0.07
7 0 -2 o 138.384 130.346 0.00 1.43466 0.08
5 1 -4 o 0.510 0.488 0.00 1.43459 0.00
2 -7 0 o 134.197 127.018 0.00 1.43453 0.07
6 1 2 o 285.319 280.056 180.00 1.42604 0.16
2 6 -4 o 198.948 195.015 0.00 1.43366 0.11
6 3 1 o 103.656 103.405 180.00 1.43330 0.06
3 7 -1 o 4.036 4.086 180.00 1.43304 0.00
1 -7 3 o 132.843 137.441 0.00 1.43260 0.07
5 -3 3 o 2.061 2.159 180.00 1.43215 0.00
3 -6 3 o 11.061 11.782 0.00 1.43176 0.01
4 -5 3 o 214.255 227.985 180.00 1.43171 0.12
5 3 2 o 84.449 71.918 0.00 1.42327 0.05
7 2 0 o 8.972 9.595 0.00 1.43129 0.01
4 -6 2 o 195.526 209.691 0.00 1.43086 0.11
5 -4 -2 o 18.319 15.417 180.00 1.42089 0.01
7 2 -2 o 28.996 29.985 180.00 1.42882 0.02
2 7 0 o 1.797 1.839 0.00 1.42805 0.00
5 3 -4 o 20.550 20.817 180.00 1.42709 0.01
1 2 -5 o 10.913 10.132 0.00 1.41805 0.01
6 -3 2 o 19.240 19.148 0.00 1.42639 0.01
6 -1 -3 o 1.125 1.064 180.00 1.41735 0.00
1 3 -5 o 110.523 120.963 180.00 1.41469 0.06
3 -4 -3 o 147.880 168.786 180.00 1.41388 0.08
5 -5 2 o 15.807 13.008 180.00 1.42215 0.01
3 -2 -4 o 30.691 35.228 0.00 1.41369 0.02
7 -1 1 o 104.756 95.768 0.00 1.41859 0.06
5 -5 -1 o 11.007 12.214 0.00 1.41004 0.01
3 6 1 o 138.817 150.581 180.00 1.40973 0.07
7 -2 -1 o 38.250 35.547 0.00 1.41796 0.02
7 0 1 o 91.540 86.065 180.00 1.41765 0.05
2 2 -5 o 49.811 50.630 0.00 1.40527 0.03
0 2 -5 o 351.448 356.204 0.00 1.40506 0.18
6 -3 -2 o 19.364 19.562 180.00 1.40454 0.01
1 -6 4 o 488.964 590.048 0.00 1.41263 0.26
4 5 -4 o 421.659 511.289 0.00 1.41203 0.22
3 -7 1 o 114.199 128.817 180.00 1.41028 0.06
0 3 -5 o 38.915 33.250 180.00 1.40200 0.02
2 3 -5 o 40.825 34.410 0.00 1.40177 0.02
7 3 -1 o 164.707 164.975 180.00 1.40706 0.09
5 0 -4 o 55.682 41.681 180.00 1.39894 0.03
1 1 -5 o 0.166 0.126 0.00 1.39570 0.00
2 4 3 o 77.534 62.187 180.00 1.39520 0.04
6 -4 -1 o 8.695 7.651 180.00 1.40235 0.00
3 5 2 o 9.881 8.346 180.00 1.39407 0.00
6 4 -3 o 16.182 13.225 180.00 1.40143 0.01
7 1 1 o 186.112 165.440 0.00 1.39121 0.10
7 -1 -2 o 212.093 157.296 0.00 1.39822 0.12
5 6 -2 o 262.508 195.249 0.00 1.39747 0.14
1 4 -5 o 2.743 2.617 0.00 1.38613 0.00
7 -2 1 o 136.771 115.450 0.00 1.39389 0.07
4 -5 -2 o 4.996 4.855 180.00 1.38571 0.00
5 1 3 o 13.402 14.152 180.00 1.38376 0.01
2 1 -5 o 57.965 61.166 0.00 1.38371 0.03
5 6 -1 o 6.133 5.448 0.00 1.39143 0.00
0 1 -5 o 44.083 47.320 0.00 1.38310 0.02
3 6 -4 o 0.495 0.441 180.00 1.38899 0.00
5 -4 3 o 66.604 72.257 0.00 1.38019 0.03
7 3 -2 o 6.936 6.254 180.00 1.38747 0.00
3 -7 2 o 2.204 1.985 0.00 1.38741 0.00
3 7 -3 o 12.115 11.242 0.00 1.38668 0.01
0 6 2 o 83.664 87.564 180.00 1.37863 0.04
1 -6 -2 o 217.451 225.059 0.00 1.37767 0.11
6 5 -1 o 177.658 175.504 0.00 1.38542 0.09
5 4 -4 o 54.907 54.991 180.00 1.38513 0.03
6 5 -2 o 84.288 86.376 180.00 1.38467 0.04
4 -2 4 o 519.035 505.288 0.00 1.37531 0.27
7 -3 0 o 489.027 478.040 180.00 1.37530 0.26
3 1 4 o 34.007 32.536 0.00 1.37502 0.02
0 4 -5 o 5.365 4.959 180.00 1.37440 0.00
2 4 -5 o 7.634 6.735 0.00 1.37377 0.00
3 -7 0 o 14.219 11.695 180.00 1.37275 0.01
2 -7 3 o 388.052 423.469 180.00 1.38031 0.20
2 2 4 o 56.459 45.607 0.00 1.37232 0.03
5 -3 -3 o 119.433 90.063 0.00 1.36957 0.06
3 2 -5 o 93.956 72.690 0.00 1.36870 0.05
1 -2 5 o 57.207 45.109 180.00 1.36832 0.03
4 -6 -1 o 62.775 50.521 180.00 1.36780 0.03
0 7 1 o 33.648 28.623 180.00 1.36694 0.02
1 -3 5 o 0.002 0.002 0.00 1.36570 0.00
3 3 -5 o 49.518 46.990 180.00 1.36526 0.02
3 -5 4 o 7.643 7.361 0.00 1.36501 0.00
4 -1 4 o 134.079 128.669 180.00 1.36492 0.07
6 -4 2 o 305.640 301.902 0.00 1.36397 0.16
6 2 2 o 2.467 2.430 0.00 1.36351 0.00
1 -3 -4 o 115.026 111.314 180.00 1.36256 0.06
4 -3 4 o 150.754 144.851 0.00 1.36203 0.08
1 -7 -1 o 0.811 0.775 0.00 1.36146 0.00
7 3 0 o 8.243 7.081 180.00 1.36677 0.00
2 -6 4 o 18.889 17.114 180.00 1.35751 0.01
3 7 0 o 21.725 21.441 0.00 1.36426 0.01
1 6 2 o 116.330 99.965 180.00 1.35614 0.06
5 -6 1 o 84.874 71.308 0.00 1.35521 0.04
0 8 -2 o 5.644 5.507 180.00 1.36267 0.00
0 3 4 o 128.419 107.882 0.00 1.35468 0.06
4 7 -2 o 24.542 23.653 180.00 1.36212 0.01
2 -6 -2 o 6.968 5.854 0.00 1.35341 0.00
1 8 -2 o 272.817 260.275 180.00 1.35896 0.13
1 0 -5 o 40.092 36.472 180.00 1.35106 0.02
0 8 -1 o 203.041 191.706 180.00 1.35853 0.10
5 5 1 o 7.482 6.940 180.00 1.35051 0.00
1 7 1 o 1.686 1.607 180.00 1.34939 0.00
4 -2 -4 o 0.475 0.450 180.00 1.34934 0.00
3 1 -5 o 7.472 7.143 0.00 1.34895 0.00
1 -1 5 o 158.266 153.829 180.00 1.34782 0.08
2 -3 -4 o 1.253 1.221 180.00 1.34757 0.00
6 -2 -3 o 100.314 97.985 0.00 1.34742 0.05
0 0 5 o 585.364 588.806 0.00 1.33943 0.28
7 -3 1 o 23.978 23.463 0.00 1.34732 0.01
7 -3 -1 o 25.320 24.811 0.00 1.34705 0.01
4 -4 -3 o 310.316 309.521 0.00 1.34531 0.15
7 2 1 o 23.258 23.823 180.00 1.34330 0.01
5 -1 -4 o 2.863 2.933 180.00 1.34293 0.00
4 7 -1 o 1.943 1.813 180.00 1.35029 0.00
1 8 -1 o 182.309 170.731 180.00 1.35023 0.09
7 1 -3 o 84.014 86.391 0.00 1.34216 0.04
6 -5 0 o 0.002 0.002 0.00 1.34164 0.00
7 -2 -2 o 4.765 4.906 0.00 1.34161 0.00
4 3 3 o 35.985 36.959 180.00 1.34113 0.02
5 -6 0 o 82.433 84.995 0.00 1.34099 0.04
6 -5 1 o 6.317 6.521 180.00 1.34055 0.00
2 0 -5 o 0.785 0.805 0.00 1.34037 0.00
1 -4 5 o 69.220 71.052 0.00 1.34033 0.03
7 2 -3 o 535.669 540.649 0.00 1.33923 0.27
3 4 -5 o 8.041 8.080 180.00 1.33917 0.00
5 6 -3 o 5.802 5.762 0.00 1.34573 0.00
1 -8 1 o 466.248 474.847 180.00 1.34416 0.22
1 5 -5 o 81.098 71.269 180.00 1.33667 0.04
1 -5 -3 o 303.864 266.994 180.00 1.33663 0.14
1 -8 2 o 368.535 377.672 0.00 1.34360 0.18
6 4 1 o 10.951 9.069 180.00 1.33513 0.01
7 4 -1 o 11.068 9.150 0.00 1.33402 0.01
2 -7 -1 o 7.865 6.546 0.00 1.33375 0.00
4 -6 3 o 47.913 39.765 180.00 1.33362 0.02
0 5 3 o 76.764 64.483 0.00 1.33324 0.04
1 3 4 o 168.243 159.172 0.00 1.32509 0.08
4 0 4 o 273.407 232.959 0.00 1.33243 0.13
1 7 -4 o 19.672 19.558 0.00 1.33880 0.01
6 5 0 o 0.105 0.088 180.00 1.33036 0.00
6 2 -4 o 354.919 305.709 180.00 1.32991 0.17
5 6 0 o 2.758 2.390 0.00 1.32972 0.00
4 -4 4 o 13.146 12.301 0.00 1.32706 0.01
0 5 -5 o 1.867 1.782 0.00 1.32633 0.00
0 7 -4 o 35.639 29.854 0.00 1.33319 0.02
2 8 -2 o 7.674 6.463 0.00 1.33304 0.00
2 5 -5 o 39.485 37.702 180.00 1.32539 0.02
4 -7 1 o 298.448 283.728 0.00 1.32502 0.14
5 5 -4 o 245.638 232.400 180.00 1.32471 0.12
7 0 -3 o 10.151 9.093 180.00 1.32323 0.00
3 4 3 o 0.148 0.124 180.00 1.32290 0.00
6 1 -4 o 58.319 50.094 180.00 1.32234 0.03
4 6 1 o 54.542 46.566 0.00 1.32218 0.03
6 5 -3 o 27.816 24.896 0.00 1.32835 0.01
2 8 -1 o 207.561 171.474 0.00 1.32046 0.09
7 4 -2 o 14.096 13.058 0.00 1.32742 0.01
3 -3 -4 o 56.778 63.292 0.00 1.31188 0.03
4 6 -4 o 0.209 0.200 0.00 1.32634 0.00
2 -5 -3 o 37.571 33.249 0.00 1.31853 0.02
5 4 2 o 44.274 43.549 0.00 1.31706 0.02
5 2 3 o 127.165 131.451 0.00 1.31648 0.06
1 5 3 o 1.897 2.036 0.00 1.30882 0.00
6 3 -4 o 60.618 65.034 180.00 1.31610 0.03
5 -6 2 o 0.030 0.033 0.00 1.31595 0.00
2 7 -4 o 6.207 5.412 0.00 1.32275 0.00
7 3 -3 o 65.750 76.613 0.00 1.31486 0.03
1 0 5 o 185.302 201.303 0.00 1.30714 0.08
8 0 -1 o 70.545 82.898 180.00 1.31431 0.04
4 2 -5 o 320.170 373.430 180.00 1.31356 0.15
2 6 2 o 22.554 26.222 0.00 1.31344 0.01
0 8 -3 o 31.046 36.370 0.00 1.31323 0.01
6 -1 3 o 9.414 10.880 0.00 1.31314 0.00
2 -2 5 o 50.491 58.164 0.00 1.31307 0.02
4 7 -3 o 35.145 29.209 0.00 1.31981 0.02
6 -2 3 o 103.556 118.482 180.00 1.31270 0.05
8 1 -1 o 354.804 402.940 0.00 1.31238 0.17
5 -5 3 o 502.501 566.543 180.00 1.31219 0.24
3 -7 3 o 33.139 37.423 0.00 1.31214 0.02
7 -1 2 o 81.122 89.909 180.00 1.31166 0.04
2 7 1 o 408.295 448.131 180.00 1.31133 0.18
2 -3 5 o 1.396 1.529 0.00 1.31092 0.00
4 3 -5 o 25.009 26.888 180.00 1.31035 0.01
3 -6 -2 o 223.664 239.066 180.00 1.30931 0.10
2 -8 1 o 7.141 7.634 0.00 1.30918 0.00
3 0 -5 o 38.147 40.997 0.00 1.30888 0.02
1 8 -3 o 189.923 224.829 0.00 1.31415 0.09
3 2 4 o 0.704 0.805 0.00 1.29957 0.00
1 -7 4 o 11.341 12.299 180.00 1.30671 0.01
8 0 0 o 306.559 314.409 0.00 1.30571 0.15
4 5 2 o 1.595 1.596 0.00 1.30523 0.00
2 -8 2 o 15.874 15.340 0.00 1.30449 0.01
6 -4 -2 o 23.491 22.825 0.00 1.30410 0.01
0 8 0 o 48.018 50.765 0.00 1.30222 0.02
2 -1 5 o 19.259 21.982 180.00 1.29475 0.01
4 -7 2 o 53.825 58.596 0.00 1.30184 0.02
7 -2 2 o 41.359 45.657 0.00 1.30163 0.02
7 0 2 o 47.294 53.857 180.00 1.30115 0.02
7 -4 0 o 0.544 0.634 0.00 1.29959 0.00
4 -7 0 o 128.128 132.247 180.00 1.29781 0.06
1 -1 -5 o 27.166 38.250 0.00 1.29019 0.01
8 -1 0 o 53.767 52.828 0.00 1.29695 0.03
5 -5 -2 o 1502.256 1488.876 180.00 1.29642 0.68
4 1 -5 o 115.921 115.874 0.00 1.29625 0.05
1 -5 5 o 5.286 5.409 180.00 1.29580 0.00
8 -1 -1 o 3.548 3.638 180.00 1.29573 0.00
2 8 -3 o 27.448 31.571 180.00 1.29470 0.01
6 0 -4 o 137.007 162.606 0.00 1.29443 0.06
8 1 0 o 146.120 177.980 0.00 1.29420 0.07
3 5 -5 o 229.313 283.975 180.00 1.29407 0.10
1 -8 0 o 0.012 0.013 0.00 1.29358 0.00
6 0 3 o 5.351 7.168 0.00 1.29317 0.00
1 -8 3 o 33.731 46.870 0.00 1.29209 0.02
6 -3 3 o 122.308 169.164 180.00 1.29193 0.06
6 -5 -1 o 49.719 68.407 180.00 1.29180 0.02
1 8 0 o 7.328 10.289 0.00 1.29086 0.00
8 2 -1 o 227.563 320.897 180.00 1.29020 0.11
7 4 0 o 5.113 7.413 180.00 1.29001 0.00
4 1 4 o 0.001 0.001 0.00 1.28227 0.00
6 -5 2 o 42.465 64.006 180.00 1.28890 0.02
2 -4 5 o 5.983 9.184 180.00 1.28861 0.00
3 -5 -3 o 0.560 0.597 0.00 1.28141 0.00
3 8 -2 o 134.032 208.003 180.00 1.28847 0.06
6 3 2 o 67.188 103.307 180.00 1.28838 0.03
3 -6 4 o 31.676 49.157 180.00 1.28832 0.01
4 7 0 o 59.201 92.266 180.00 1.28827 0.03
2 -1 -5 o 120.793 126.912 0.00 1.28103 0.05
3 -7 -1 o 1.857 2.999 0.00 1.28765 0.00
3 7 -4 o 2.951 4.561 0.00 1.28725 0.00
4 4 -5 o 8.694 13.271 180.00 1.28706 0.00
0 1 5 o 0.657 0.636 0.00 1.27989 0.00
7 -4 1 o 30.456 39.396 0.00 1.28511 0.01
7 -1 -3 o 1.793 2.307 180.00 1.28507 0.00
2 3 4 o 54.180 47.631 0.00 1.27779 0.02
6 6 -2 o 1.000 1.217 180.00 1.28425 0.00
6 4 -4 o 15.304 17.153 0.00 1.28280 0.01
8 1 -2 o 84.576 91.746 180.00 1.28166 0.04
5 -2 -4 o 6.583 7.131 180.00 1.27368 0.00
7 3 1 o 71.643 71.395 180.00 1.28023 0.03
5 -6 -1 o 560.326 485.775 180.00 1.27796 0.25
6 6 -1 o 40.311 42.162 0.00 1.27565 0.02
4 -5 4 o 281.277 303.685 0.00 1.27511 0.12
5 7 -2 o 41.302 45.224 180.00 1.27507 0.02
8 0 -2 o 16.436 18.220 180.00 1.27429 0.01
5 -4 -3 o 567.061 403.761 0.00 1.26678 0.25
2 5 3 o 597.326 427.261 0.00 1.26666 0.25
3 8 -1 o 34.713 37.188 0.00 1.27323 0.01
1 6 -5 o 7.450 7.717 0.00 1.27272 0.00
7 -3 2 o 1.704 1.725 0.00 1.27240 0.00
7 4 -3 o 1.574 1.589 180.00 1.27235 0.00
7 -3 -2 o 51.640 50.608 0.00 1.27196 0.02
7 1 2 o 17.901 17.016 0.00 1.27151 0.01
5 -2 4 o 0.001 0.000 180.00 1.26407 0.00
8 2 -2 o 145.024 125.626 180.00 1.26987 0.07
8 -2 0 o 0.922 0.750 180.00 1.26909 0.00
6 -3 -3 o 11.075 8.169 0.00 1.26771 0.00
4 0 -5 o 11.402 8.941 0.00 1.26073 0.00
4 -3 -4 o 94.116 72.866 0.00 1.26012 0.04
7 -4 -1 o 99.638 70.608 180.00 1.26667 0.04
2 -8 0 o 192.666 135.929 180.00 1.26609 0.08
2 0 5 o 4.567 3.342 180.00 1.25840 0.00
8 2 0 o 54.194 40.639 0.00 1.26397 0.02
0 6 -5 o 19.569 14.473 0.00 1.26394 0.01
2 -7 4 o 81.377 63.140 180.00 1.26287 0.03
2 6 -5 o 28.443 22.020 0.00 1.26282 0.01
3 6 2 o 171.242 128.269 180.00 1.25597 0.07
5 -1 4 o 31.883 24.139 0.00 1.25584 0.01
6 1 3 o 91.359 70.250 0.00 1.25545 0.04
5 7 -1 o 18.767 14.806 0.00 1.26158 0.01
2 8 0 o 149.599 117.429 180.00 1.26100 0.06
5 -3 4 o 106.558 87.945 180.00 1.25390 0.05
3 -1 -5 o 0.085 0.072 180.00 1.25361 0.00
8 -2 -1 o 80.719 60.286 180.00 1.25911 0.04
1 -4 -4 o 78.333 62.130 180.00 1.25190 0.03
1 1 5 o 103.304 80.538 0.00 1.25147 0.04
3 -8 1 o 98.253 71.083 180.00 1.25813 0.04
4 -6 -2 o 73.201 55.970 0.00 1.25093 0.03
3 7 1 o 683.804 492.483 0.00 1.25768 0.29
3 8 -3 o 403.659 287.579 180.00 1.25746 0.17
6 -1 -4 o 4.201 3.270 0.00 1.24983 0.00
7 5 -2 o 2.181 1.649 180.00 1.25589 0.00
6 -4 3 o 91.227 75.633 180.00 1.25356 0.04
2 -8 3 o 0.073 0.061 0.00 1.25348 0.00
5 2 -5 o 117.285 133.526 180.00 1.24646 0.05
5 6 -4 o 1.423 1.148 180.00 1.25303 0.00
7 5 -1 o 36.538 30.081 0.00 1.25276 0.02
3 -2 5 o 378.235 444.575 180.00 1.24589 0.16
0 4 4 o 4.740 5.627 0.00 1.24563 0.00
8 -1 1 o 86.245 68.705 180.00 1.25198 0.04
8 0 1 o 14.873 11.368 180.00 1.25118 0.01
3 -3 5 o 73.864 89.994 180.00 1.24421 0.03
8 3 -1 o 215.717 163.072 180.00 1.25069 0.10
3 -8 2 o 1.023 0.764 0.00 1.25029 0.00
4 4 3 o 0.450 0.512 0.00 1.24281 0.00
2 -5 5 o 2.326 1.942 180.00 1.24905 0.00
8 -1 -2 o 77.865 67.994 180.00 1.24870 0.03
6 6 -3 o 0.040 0.042 0.00 1.24736 0.00
2 -4 -4 o 22.083 23.425 0.00 1.24040 0.01
5 3 3 o 74.749 79.206 180.00 1.24019 0.03
4 5 -5 o 71.140 79.978 0.00 1.24671 0.03
5 7 -3 o 119.194 145.328 180.00 1.24376 0.05
5 3 -5 o 6.573 7.919 0.00 1.24356 0.00
6 -6 1 o 19.687 21.950 0.00 1.24217 0.01
8 3 -2 o 394.164 415.806 180.00 1.24042 0.17
7 -2 -3 o 25.840 27.429 0.00 1.23241 0.01
5 1 -5 o 3.316 3.540 180.00 1.23179 0.00
1 -6 5 o 15.024 16.476 180.00 1.23759 0.01
6 5 1 o 197.641 217.880 180.00 1.23690 0.09
4 7 -4 o 402.460 444.508 0.00 1.23676 0.17
5 0 4 o 10.462 11.850 0.00 1.23024 0.00
3 -1 5 o 164.787 188.196 180.00 1.23007 0.07
4 -5 -3 o 25.012 28.673 180.00 1.22985 0.01
5 -7 1 o 24.823 27.553 180.00 1.23588 0.01
5 -6 3 o 5.767 6.351 180.00 1.23558 0.00
4 -7 3 o 14.935 16.546 180.00 1.23551 0.01
3 6 -5 o 70.001 77.487 180.00 1.23549 0.03
4 -7 -1 o 4.336 5.379 180.00 1.22865 0.00
8 -2 1 o 166.454 183.378 0.00 1.23505 0.07
6 -6 0 o 177.735 194.316 180.00 1.23469 0.07
6 5 -4 o 22.092 23.959 0.00 1.23422 0.01
0 7 2 o 6.128 8.030 0.00 1.22769 0.00
1 -7 -2 o 1.742 2.404 180.00 1.22716 0.00
5 -4 4 o 169.018 239.091 180.00 1.22660 0.07
7 2 2 o 54.624 78.607 0.00 1.22644 0.02
8 1 1 o 578.370 613.013 0.00 1.23274 0.25
3 -4 5 o 64.886 97.705 180.00 1.22523 0.03
5 6 1 o 31.279 33.621 0.00 1.23166 0.01
4 8 -2 o 34.490 38.381 0.00 1.23066 0.01
1 8 -4 o 0.000 0.000 0.00 1.22980 0.00
1 4 4 o 2.512 3.495 0.00 1.22237 0.00
7 -4 2 o 73.331 96.816 0.00 1.22765 0.03
4 2 4 o 215.653 257.567 0.00 1.22028 0.09
1 -2 -5 o 189.865 216.187 0.00 1.21979 0.08
8 -3 0 o 67.693 101.177 0.00 1.22564 0.03
0 8 -4 o 19.478 29.045 0.00 1.22559 0.01
3 3 4 o 1.179 1.156 180.00 1.21830 0.00
7 -5 0 o 4.979 4.795 0.00 1.21814 0.00
6 6 0 o 2.966 4.615 180.00 1.22415 0.00
5 4 -5 o 148.010 222.220 180.00 1.22345 0.06
5 -7 0 o 1235.904 1095.885 0.00 1.21708 0.50
3 -8 0 o 33.337 49.130 0.00 1.22316 0.01
7 1 -4 o 35.445 30.759 180.00 1.21606 0.01
7 2 -4 o 6.173 8.453 180.00 1.22180 0.00
5 5 2 o 47.005 42.640 180.00 1.21469 0.02
7 -5 1 o 10.970 10.250 180.00 1.21397 0.00
3 -4 -4 o 57.156 58.354 0.00 1.21253 0.02
8 3 0 o 43.685 44.632 0.00 1.21873 0.02
2 -2 -5 o 50.538 52.801 180.00 1.21219 0.02
4 -6 4 o 12.145 12.790 0.00 1.21207 0.00
3 5 3 o 74.548 80.509 180.00 1.21168 0.03
1 7 2 o 47.223 51.301 180.00 1.21159 0.02
8 1 -3 o 27.680 30.654 180.00 1.21132 0.01
4 -1 -5 o 7.660 8.500 0.00 1.21126 0.00
0 2 5 o 45.933 51.822 0.00 1.21094 0.02
2 8 -4 o 150.126 132.814 0.00 1.21718 0.06
0 8 1 o 6.058 6.936 0.00 1.21075 0.00
7 5 -3 o 4.125 3.595 0.00 1.21678 0.00
2 -7 -2 o 30.817 36.097 180.00 1.21006 0.01
3 8 0 o 1070.169 926.114 0.00 1.21629 0.43
8 -3 -1 o 0.844 0.973 0.00 1.20881 0.00
7 4 1 o 51.134 59.694 180.00 1.20868 0.02
0 9 -2 o 34.590 31.015 0.00 1.21479 0.01
6 -6 2 o 154.160 178.917 0.00 1.20841 0.06
2 1 5 o 0.105 0.123 0.00 1.20836 0.00
8 -2 -2 o 29.217 33.673 180.00 1.20802 0.01
6 4 2 o 0.049 0.061 0.00 1.20787 0.00
4 8 -1 o 107.526 100.445 180.00 1.21399 0.04
5 -7 2 o 11.728 11.149 180.00 1.21365 0.00
1 -8 -1 o 0.177 0.212 0.00 1.20708 0.00
3 -7 4 o 12.422 14.394 0.00 1.20673 0.00
1 -6 -3 o 22.154 26.183 0.00 1.20628 0.01
6 -5 -2 o 2.090 2.515 0.00 1.20602 0.00
1 9 -2 o 89.730 94.875 180.00 1.21202 0.04
7 3 -4 o 129.725 147.232 180.00 1.21093 0.05
6 2 3 o 114.486 153.118 0.00 1.20442 0.05
0 6 3 o 8.783 12.324 180.00 1.20364 0.00
8 2 -3 o 0.291 0.345 180.00 1.20902 0.00
8 -3 1 o 84.249 119.594 0.00 1.20244 0.04
7 5 0 o 3.234 3.792 180.00 1.20829 0.00
6 -5 3 o 14.999 20.814 0.00 1.20209 0.01
5 0 -5 o 159.843 209.654 180.00 1.20132 0.06
5 7 0 o 158.271 181.427 0.00 1.20725 0.06
4 8 -3 o 12.721 14.729 180.00 1.20683 0.01
1 -8 4 o 213.892 273.835 0.00 1.20506 0.08
8 2 1 o 28.364 29.477 0.00 1.19890 0.01
3 0 5 o 1.711 1.764 180.00 1.19863 0.00
1 8 1 o 11.534 11.706 180.00 1.19837 0.00
0 9 -1 o 5.227 7.262 180.00 1.20413 0.00
5 -3 -4 o 497.664 502.759 0.00 1.19797 0.19
8 0 -3 o 117.382 117.988 0.00 1.19748 0.05
2 -6 5 o 32.637 33.213 180.00 1.19680 0.01
4 -8 1 o 17.820 18.219 180.00 1.19660 0.01
7 -4 -2 o 78.636 82.100 180.00 1.19606 0.03
3 -8 3 o 90.198 125.418 0.00 1.20191 0.04
1 -9 2 o 6.806 9.091 0.00 1.20136 0.00
1 7 -5 o 62.705 79.310 180.00 1.20087 0.02
7 0 -4 o 28.065 31.095 180.00 1.19439 0.01
1 -9 1 o 21.913 24.411 0.00 1.19422 0.01
4 7 1 o 328.520 364.238 0.00 1.19420 0.13
4 6 -5 o 227.306 253.391 0.00 1.19394 0.09
0 7 -5 o 1.133 1.253 180.00 1.19362 0.00
6 -2 -4 o 50.576 55.885 0.00 1.19357 0.02
2 -6 -3 o 288.654 313.528 0.00 1.19305 0.11
2 7 -5 o 21.371 22.665 0.00 1.19241 0.01
8 4 -1 o 76.369 77.305 180.00 1.19841 0.03
1 9 -1 o 10.432 10.494 0.00 1.19820 0.00
3 -5 5 o 17.501 16.390 0.00 1.19121 0.01
8 3 -3 o 561.951 504.567 180.00 1.19087 0.23
8 4 -2 o 15.390 15.618 180.00 1.19682 0.01
5 1 4 o 234.805 195.256 180.00 1.19030 0.09
4 6 2 o 733.843 566.171 180.00 1.18971 0.28
3 -2 -5 o 3.824 2.776 180.00 1.18901 0.00
5 5 -5 o 9.038 6.351 180.00 1.18851 0.00
6 -6 -1 o 937.957 662.700 180.00 1.18810 0.37
2 -8 -1 o 276.540 198.162 180.00 1.18777 0.10
2 9 -2 o 25.594 28.452 0.00 1.19339 0.01
4 -8 2 o 45.736 35.611 180.00 1.18671 0.02
7 -1 3 o 45.840 35.828 0.00 1.18665 0.02
1 2 5 o 74.546 58.238 0.00 1.18665 0.03
7 -2 3 o 22.208 17.679 0.00 1.18647 0.01
1 6 3 o 41.459 34.977 0.00 1.18545 0.02
5 -5 4 o 161.466 136.860 180.00 1.18536 0.06
6 -4 -3 o 120.948 103.596 0.00 1.18502 0.05
2 4 4 o 74.020 63.688 0.00 1.18481 0.03
7 4 -4 o 23.746 20.491 180.00 1.18471 0.01
5 -6 -2 o 118.957 103.737 0.00 1.18420 0.05
7 -5 -1 o 23.890 20.884 0.00 1.18357 0.01
3 8 -4 o 33.581 24.359 0.00 1.18922 0.01
1 3 -6 o 0.484 0.410 0.00 1.18274 0.00
6 7 -2 o 56.148 41.439 0.00 1.18719 0.02
1 9 -3 o 62.049 45.970 0.00 1.18718 0.02
0 9 -3 o 61.540 47.880 0.00 1.18664 0.02
2 7 2 o 368.837 303.261 180.00 1.18072 0.14
3 -7 -2 o 1.538 1.757 0.00 1.17836 0.00
2 3 -6 o 17.590 20.386 180.00 1.17821 0.01
1 2 -6 o 38.991 48.579 0.00 1.17748 0.01
2 9 -1 o 269.545 349.245 0.00 1.17712 0.10
6 6 -4 o 76.666 105.420 0.00 1.17550 0.03
8 -1 2 o 5.277 6.682 180.00 1.17360 0.00
6 2 -5 o 47.298 60.287 0.00 1.17359 0.02
7 6 -2 o 9.612 9.384 180.00 1.17939 0.00
2 -9 2 o 42.863 54.162 180.00 1.17328 0.02
6 7 -1 o 74.281 93.510 0.00 1.17324 0.03
2 2 -6 o 11.170 13.815 180.00 1.17314 0.00
4 -2 5 o 132.745 162.999 180.00 1.17300 0.05
1 4 -6 o 21.075 25.665 180.00 1.17291 0.01
0 3 -6 o 41.686 48.582 180.00 1.17227 0.02
7 -5 2 o 72.634 84.520 0.00 1.17218 0.03
7 0 3 o 2.086 2.323 0.00 1.17173 0.00
4 -3 5 o 60.903 67.700 180.00 1.17172 0.02
1 -7 5 o 4.948 5.406 180.00 1.17148 0.00
4 -4 -4 o 315.011 340.479 180.00 1.17145 0.12
2 8 1 o 139.338 149.504 0.00 1.17135 0.05
8 -4 0 o 90.011 95.890 0.00 1.17127 0.04
7 -3 3 o 52.078 54.979 180.00 1.17119 0.02
1 -9 3 o 25.699 26.878 0.00 1.17109 0.01
6 3 -5 o 12.981 13.520 0.00 1.17104 0.01
7 3 2 o 56.590 57.439 0.00 1.17078 0.02
5 7 -4 o 35.991 48.469 0.00 1.17656 0.01
7 -3 -3 o 44.665 44.828 180.00 1.17067 0.02
2 -8 4 o 12.541 12.426 180.00 1.17054 0.00
7 6 -1 o 193.132 177.970 0.00 1.16971 0.08
9 0 -1 o 55.402 50.903 180.00 1.16964 0.02
2 -9 1 o 1.096 0.998 0.00 1.16961 0.00
4 -8 0 o 66.678 60.330 0.00 1.16938 0.03
3 7 -5 o 168.008 150.488 0.00 1.16919 0.06
5 -5 -3 o 117.600 105.760 180.00 1.16913 0.04
8 -1 -3 o 1.637 1.472 180.00 1.16910 0.00
2 4 -6 o 35.047 31.190 180.00 1.16837 0.01
9 1 -1 o 124.980 111.018 180.00 1.16816 0.05
0 2 -6 o 0.465 0.435 0.00 1.16703 0.00
2 9 -3 o 2.565 3.089 0.00 1.17265 0.00
8 -2 2 o 132.708 127.930 180.00 1.16652 0.05
8 0 2 o 91.639 89.850 180.00 1.16592 0.04
3 -6 -3 o 8.072 7.885 0.00 1.16547 0.00
5 8 -2 o 31.279 30.612 180.00 1.16521 0.01
6 7 -3 o 38.319 36.652 180.00 1.16474 0.01
1 1 -6 o 2.115 2.402 180.00 1.15772 0.00
8 4 0 o 31.226 26.858 180.00 1.16324 0.01
0 4 -6 o 35.024 29.920 0.00 1.16283 0.01
5 -7 -1 o 255.640 217.365 0.00 1.16242 0.10
6 -2 4 o 3.072 2.725 180.00 1.16145 0.00
6 1 -5 o 39.869 35.606 180.00 1.16144 0.01
4 8 0 o 597.932 534.372 0.00 1.16139 0.22
5 4 3 o 4.877 4.490 0.00 1.16109 0.00
3 1 5 o 0.035 0.038 0.00 1.15503 0.00
3 9 -2 o 2.686 2.486 0.00 1.16097 0.00
9 0 0 o 156.025 150.224 180.00 1.16063 0.06
2 1 -6 o 3.442 3.174 0.00 1.15372 0.00
4 -1 5 o 75.448 79.485 0.00 1.15964 0.03
7 -1 -4 o 22.280 24.329 180.00 1.15920 0.01
3 3 -6 o 152.304 166.071 0.00 1.15919 0.06
8 4 -3 o 894.905 997.922 0.00 1.15889 0.35
4 -2 -5 o 85.376 71.212 180.00 1.15281 0.03
5 -1 -5 o 38.764 43.705 180.00 1.15841 0.01
4 3 4 o 3.231 2.644 0.00 1.15214 0.00
8 -4 1 o 7.677 8.863 0.00 1.15772 0.00
0 9 0 o 0.078 0.088 0.00 1.15753 0.00
9 -1 -1 o 12.448 14.467 0.00 1.15661 0.01
8 -3 -2 o 36.833 42.541 180.00 1.15655 0.01
5 -7 3 o 10.298 11.871 180.00 1.15647 0.00
1 -5 -4 o 14.291 14.267 0.00 1.15018 0.01
4 -4 5 o 1.146 1.297 0.00 1.15595 0.00
2 2 5 o 1.102 1.182 0.00 1.14959 0.00
3 -8 -1 o 42.280 45.382 180.00 1.15498 0.02
6 -1 4 o 177.823 189.140 0.00 1.15494 0.07
9 -1 0 o 0.296 0.304 0.00 1.15458 0.00
3 2 -6 o 287.733 291.518 0.00 1.15448 0.11
6 4 -5 o 0.885 0.853 180.00 1.15408 0.00
2 6 3 o 21.590 19.854 180.00 1.15373 0.01
6 -3 4 o 83.385 75.912 0.00 1.15367 0.03
0 1 -6 o 129.666 163.970 180.00 1.14766 0.05
7 6 -3 o 15.167 13.403 180.00 1.15349 0.01
8 3 1 o 40.421 35.070 0.00 1.15330 0.02
9 1 0 o 4.036 3.249 180.00 1.15241 0.00
9 2 -1 o 2769.734 2224.094 180.00 1.15231 1.08
1 -9 0 o 7.299 6.076 180.00 1.15157 0.00
1 -3 -5 o 157.975 207.634 0.00 1.14568 0.06
0 5 4 o 57.605 75.108 0.00 1.14519 0.02
8 -4 -1 o 63.120 66.133 180.00 1.14983 0.02
3 4 -6 o 0.071 0.078 0.00 1.14969 0.00
1 9 0 o 276.710 305.960 0.00 1.14941 0.10
9 1 -2 o 0.061 0.066 180.00 1.14916 0.00
4 5 3 o 416.323 471.791 180.00 1.14912 0.15
1 5 -6 o 176.080 201.058 180.00 1.14909 0.06
4 8 -4 o 53.948 63.085 180.00 1.14894 0.02
1 -2 6 o 20.925 25.108 0.00 1.14291 0.01
6 -7 1 o 8.708 10.499 0.00 1.14847 0.00
5 8 -1 o 27.003 33.407 180.00 1.14818 0.01
1 -3 6 o 105.850 132.305 0.00 1.14796 0.04
5 8 -3 o 1.336 1.688 0.00 1.14774 0.00
2 -5 -4 o 1.187 1.301 180.00 1.14136 0.00
7 5 -4 o 39.469 52.570 0.00 1.14600 0.01
5 2 4 o 2.902 2.911 180.00 1.14010 0.00
3 -6 5 o 38.880 51.478 0.00 1.14575 0.01
8 -3 2 o 86.226 113.783 180.00 1.14546 0.03
2 -3 -5 o 97.079 94.119 180.00 1.13949 0.03
6 3 3 o 52.258 68.001 0.00 1.14506 0.02
2 5 -6 o 137.500 177.212 0.00 1.14470 0.05
3 9 -3 o 15.403 19.830 180.00 1.14465 0.01
8 1 2 o 48.679 62.070 180.00 1.14433 0.02
0 3 5 o 22.969 21.830 180.00 1.13821 0.01
9 0 -2 o 100.308 126.073 180.00 1.14396 0.04
6 6 1 o 10.187 12.654 180.00 1.14355 0.00
4 -7 4 o 72.364 89.486 180.00 1.14352 0.03
8 5 -2 o 0.327 0.404 180.00 1.14349 0.00
7 1 3 o 0.110 0.138 0.00 1.14333 0.00
3 9 -1 o 856.817 1043.830 180.00 1.14317 0.31
3 4 4 o 8.934 8.950 0.00 1.13681 0.00
7 -4 3 o 60.642 71.510 180.00 1.14249 0.02
6 -6 3 o 0.062 0.071 180.00 1.14248 0.00
5 6 -5 o 0.199 0.239 180.00 1.14241 0.00
4 -8 3 o 2.032 2.379 180.00 1.14230 0.00
2 -9 3 o 0.273 0.323 180.00 1.14224 0.00
3 1 -6 o 19.203 19.799 0.00 1.13607 0.01
6 0 4 o 2.697 2.786 180.00 1.13482 0.00
9 2 -2 o 266.122 274.495 0.00 1.14052 0.10
0 5 -6 o 2062.552 2016.578 180.00 1.13971 0.73
7 -6 1 o 4.682 4.535 180.00 1.13958 0.00
1 -4 6 o 115.827 110.705 0.00 1.13920 0.04
4 0 5 o 19.922 19.101 0.00 1.13308 0.01
8 5 -1 o 57.221 53.766 180.00 1.13835 0.02
3 7 2 o 716.635 676.931 180.00 1.13833 0.26
2 -7 5 o 112.654 112.854 0.00 1.13682 0.04
7 -6 0 o 80.526 81.804 0.00 1.13654 0.03
6 -3 -4 o 57.889 53.196 180.00 1.13071 0.02
6 -7 0 o 265.352 274.315 0.00 1.13607 0.10
6 0 -5 o 42.423 43.950 180.00 1.13591 0.02
4 -7 -2 o 61.765 64.430 180.00 1.13538 0.02
9 -2 0 o 18.013 18.743 0.00 1.13492 0.01
5 -6 4 o 17.230 17.564 0.00 1.13432 0.01
7 5 1 o 50.703 51.514 0.00 1.13424 0.02
4 7 -5 o 18.143 17.915 0.00 1.13368 0.01
3 -9 2 o 69.268 67.686 180.00 1.13349 0.02
3 -9 1 o 1.737 1.644 180.00 1.13289 0.00
1 5 4 o 24.451 22.725 180.00 1.12692 0.01
3 8 1 o 931.610 873.467 0.00 1.13252 0.33
6 -4 4 o 77.989 72.983 0.00 1.13241 0.03
2 -9 0 o 6.635 6.171 180.00 1.13216 0.00
4 -6 -3 o 208.802 193.769 0.00 1.12639 0.07
1 0 -6 o 30.122 27.863 180.00 1.12556 0.01
9 2 0 o 246.068 225.514 180.00 1.13079 0.09
9 -2 -1 o 48.646 44.565 180.00 1.13045 0.02
1 -1 6 o 0.782 0.709 180.00 1.12459 0.00
1 9 -4 o 0.918 0.842 0.00 1.13017 0.00
5 -8 1 o 83.390 76.497 0.00 1.12985 0.03
8 -2 -3 o 0.018 0.016 0.00 1.12915 0.00
4 2 -6 o 4.039 3.547 0.00 1.12346 0.00
2 9 0 o 141.700 131.767 0.00 1.12806 0.05
6 -7 2 o 45.564 42.400 0.00 1.12787 0.02
4 3 -6 o 39.281 36.600 180.00 1.12768 0.01
2 0 -6 o 151.533 135.220 180.00 1.12198 0.05
4 -5 5 o 1.269 1.182 180.00 1.12736 0.00
6 5 2 o 17.469 16.242 0.00 1.12735 0.01
0 9 -4 o 381.274 354.918 180.00 1.12701 0.13
3 5 -6 o 4.361 4.051 180.00 1.12700 0.00
7 6 0 o 2.675 2.481 180.00 1.12694 0.00
5 -4 -4 o 74.244 68.156 0.00 1.12113 0.03
1 8 -5 o 18.018 16.722 180.00 1.12655 0.01
6 7 0 o 5.676 5.253 180.00 1.12648 0.00
5 7 1 o 2.437 2.247 0.00 1.12613 0.00
3 -3 -5 o 8.967 8.388 0.00 1.12028 0.00
3 -8 4 o 96.677 89.088 180.00 1.12554 0.03
9 -1 -2 o 9.780 9.003 0.00 1.12545 0.00
5 6 2 o 266.690 250.156 180.00 1.11983 0.09
3 -5 -4 o 8.940 8.376 180.00 1.11964 0.00
6 5 -5 o 71.459 64.479 180.00 1.12451 0.03
9 3 -1 o 43.468 38.410 0.00 1.12379 0.02
1 3 5 o 25.535 24.164 0.00 1.11787 0.01
8 2 -4 o 54.636 47.677 0.00 1.12317 0.02
1 -5 6 o 101.999 96.867 0.00 1.11755 0.03
0 0 6 o 291.065 282.385 0.00 1.11619 0.10
0 8 -5 o 53.210 49.428 0.00 1.12067 0.02
2 9 -4 o 20.096 18.834 180.00 1.12024 0.01
9 -1 1 o 8.544 8.011 0.00 1.11988 0.00
6 -6 -2 o 560.948 572.873 180.00 1.11422 0.20
7 -2 -4 o 35.440 36.652 0.00 1.11400 0.01
2 8 -5 o 83.801 78.555 0.00 1.11944 0.03
9 0 1 o 2050.541 1922.395 0.00 1.11919 0.77
7 -5 -2 o 107.037 100.459 0.00 1.11916 0.04
9 3 -2 o 72.436 67.796 0.00 1.11894 0.03
5 -8 2 o 157.612 147.803 180.00 1.11888 0.06
4 4 -6 o 17.351 16.230 0.00 1.11882 0.01
8 1 -4 o 4.627 4.336 180.00 1.11882 0.00
4 9 -2 o 10.627 9.997 0.00 1.11803 0.00
2 -3 6 o 100.146 114.904 180.00 1.11226 0.03
3 6 3 o 937.874 1102.605 180.00 1.11162 0.33
8 2 2 o 2.290 2.751 0.00 1.11104 0.00
8 5 -3 o 53.541 51.785 0.00 1.11632 0.02
7 4 2 o 0.666 0.774 180.00 1.10928 0.00
8 3 -4 o 281.769 282.519 0.00 1.11460 0.10
1 6 -6 o 22.518 23.681 0.00 1.11371 0.01
2 -2 6 o 55.471 59.005 180.00 1.10757 0.02
8 -4 2 o 16.873 19.107 180.00 1.11259 0.01
5 -2 -5 o 129.864 134.045 180.00 1.10708 0.04
4 1 -6 o 59.339 59.286 180.00 1.10658 0.02
4 -8 -1 o 127.011 148.047 180.00 1.11195 0.04
6 7 -4 o 5.609 6.629 180.00 1.11157 0.00
3 0 -6 o 6.108 5.784 0.00 1.10584 0.00
1 -9 4 o 0.253 0.324 180.00 1.11110 0.00
7 -6 2 o 0.817 0.998 0.00 1.11077 0.00
8 -5 0 o 3.176 3.869 0.00 1.11070 0.00
0 6 -6 o 120.369 109.226 180.00 1.10527 0.04
0 8 2 o 50.067 44.708 180.00 1.10484 0.02
7 -4 -3 o 9.502 8.421 180.00 1.10473 0.00
1 -8 -2 o 64.999 57.756 180.00 1.10456 0.02
2 -4 6 o 490.416 435.920 180.00 1.10440 0.17
7 2 3 o 7.459 6.639 0.00 1.10428 0.00
2 6 -6 o 9.014 10.716 180.00 1.10960 0.00
6 -5 -3 o 1030.560 925.441 0.00 1.10405 0.36
5 -8 0 o 120.608 142.845 180.00 1.10939 0.04
3 2 5 o 118.513 113.648 0.00 1.10328 0.04
7 -5 3 o 2.106 2.020 0.00 1.10323 0.00
6 1 4 o 26.984 26.256 0.00 1.10313 0.01
9 -2 1 o 63.571 68.759 0.00 1.10782 0.02
7 -6 -1 o 89.207 95.737 0.00 1.10238 0.03
8 0 -4 o 29.781 33.778 0.00 1.10198 0.01
4 9 -3 o 19.233 18.296 180.00 1.10596 0.01
9 1 1 o 1.218 1.153 180.00 1.10583 0.00
8 4 1 o 3.889 5.325 180.00 1.10006 0.00
6 -5 4 o 13.156 17.852 180.00 1.09983 0.00
7 2 -5 o 44.911 61.610 180.00 1.09977 0.02
8 -5 1 o 52.250 46.695 180.00 1.10500 0.02
6 -1 -5 o 0.279 0.378 0.00 1.09954 0.00
5 -2 5 o 15.642 21.508 180.00 1.09919 0.01
8 -4 -2 o 25.417 34.279 180.00 1.09871 0.01
9 -3 0 o 20.990 19.301 0.00 1.10363 0.01
5 -3 5 o 25.712 33.422 180.00 1.09824 0.01
4 5 -6 o 4.728 5.972 180.00 1.09778 0.00
3 -9 3 o 89.615 89.302 0.00 1.10291 0.03
7 7 -2 o 50.948 51.559 180.00 1.10279 0.02
2 5 4 o 53.571 63.370 0.00 1.09719 0.02
1 -8 5 o 5.956 6.370 0.00 1.10239 0.00
8 5 0 o 2.294 2.535 180.00 1.10216 0.00
3 -9 0 o 42.108 52.377 0.00 1.10125 0.01
4 1 5 o 18.551 19.185 180.00 1.09593 0.01
5 8 0 o 1.782 2.318 0.00 1.10088 0.00
1 -7 -3 o 8.510 8.420 180.00 1.09555 0.00
9 -2 -2 o 102.108 100.384 180.00 1.09550 0.04
9 1 -3 o 18.665 25.291 0.00 1.10013 0.01
1 0 6 o 0.048 0.042 180.00 1.09483 0.00
5 8 -4 o 3.349 4.643 0.00 1.10009 0.00
3 8 -5 o 225.084 308.562 0.00 1.10006 0.08
4 9 -1 o 77.852 107.505 180.00 1.09961 0.03
9 -3 -1 o 17.289 14.222 0.00 1.09373 0.01
6 -7 -1 o 688.534 569.474 180.00 1.09367 0.23
0 7 3 o 24.507 20.185 0.00 1.09347 0.01
3 6 -6 o 87.285 71.252 0.00 1.09336 0.03
7 6 -4 o 0.119 0.155 0.00 1.09843 0.00
9 2 -3 o 9.190 12.172 0.00 1.09830 0.00
3 9 -4 o 47.043 61.812 0.00 1.09822 0.02
1 8 2 o 0.519 0.423 180.00 1.09295 0.00
3 -7 5 o 10.266 8.393 180.00 1.09291 0.00
9 3 0 o 23.252 29.724 180.00 1.09795 0.01
7 3 -5 o 62.888 77.854 180.00 1.09757 0.02
2 -8 -2 o 246.210 206.651 0.00 1.09214 0.08
6 8 -2 o 22.245 25.898 0.00 1.09690 0.01
2 -1 6 o 17.446 15.542 0.00 1.09077 0.01
3 9 0 o 111.144 110.799 0.00 1.09561 0.04
4 -3 -5 o 111.940 100.301 0.00 1.08995 0.04
7 1 -5 o 11.777 10.523 0.00 1.08986 0.00
9 0 -3 o 25.562 22.892 0.00 1.08983 0.01
0 10 -2 o 29.234 24.995 0.00 1.09424 0.01
8 4 -4 o 58.744 49.161 0.00 1.09395 0.02
4 -6 5 o 43.152 38.122 0.00 1.08870 0.01
4 7 2 o 201.558 179.616 0.00 1.08820 0.07
5 -1 5 o 8.453 7.573 0.00 1.08807 0.00
4 -9 1 o 0.280 0.257 180.00 1.08745 0.00
4 -5 -4 o 121.208 114.256 0.00 1.08715 0.04
1 10 -2 o 0.049 0.043 0.00 1.09212 0.00
8 -5 -1 o 0.353 0.344 0.00 1.08670 0.00
5 3 -6 o 18.265 17.810 180.00 1.08666 0.01
2 3 5 o 266.207 260.009 180.00 1.08662 0.09
0 9 1 o 68.016 68.272 180.00 1.08620 0.02
2 -7 -3 o 101.421 104.368 0.00 1.08572 0.03
4 8 1 o 311.089 325.423 180.00 1.08540 0.10
5 -4 5 o 101.855 106.783 180.00 1.08532 0.03
1 -6 6 o 548.794 580.039 180.00 1.08512 0.18
5 -7 -2 o 0.831 0.883 180.00 1.08488 0.00
2 -5 6 o 166.131 177.400 0.00 1.08474 0.05
9 -3 1 o 28.846 31.185 180.00 1.08421 0.01
5 7 -5 o 51.461 45.484 180.00 1.08919 0.02
7 7 -1 o 279.932 247.001 180.00 1.08916 0.10
1 -1 -6 o 32.021 34.341 0.00 1.08400 0.01
5 3 4 o 1.676 1.793 0.00 1.08384 0.00
1 -9 -1 o 29.516 31.708 0.00 1.08365 0.01
5 5 3 o 1.935 2.069 180.00 1.08351 0.00
7 4 -5 o 244.173 261.820 180.00 1.08347 0.08
5 2 -6 o 13.324 14.032 180.00 1.08298 0.00
4 4 4 o 185.171 189.619 0.00 1.08239 0.06
7 7 -3 o 1.579 1.490 0.00 1.08712 0.00
6 4 3 o 4.481 4.462 180.00 1.08183 0.00
9 4 -2 o 62.903 61.964 0.00 1.08652 0.02
8 -3 -3 o 31.124 30.201 0.00 1.08119 0.01
9 2 1 o 21.077 20.371 0.00 1.08111 0.01
2 -1 -6 o 9.202 8.880 180.00 1.08091 0.00
0 10 -1 o 1.688 1.623 180.00 1.08085 0.00
4 -9 2 o 175.227 182.112 0.00 1.08558 0.06
9 4 -1 o 14.529 15.302 180.00 1.08531 0.01
6 6 -5 o 8.010 8.493 180.00 1.08512 0.00
1 7 3 o 0.531 0.509 0.00 1.07968 0.00
8 6 -2 o 81.565 87.585 0.00 1.08474 0.03
6 8 -3 o 212.943 229.140 180.00 1.08467 0.07
9 3 -3 o 303.342 326.422 0.00 1.08454 0.11
1 -10 2 o 58.761 63.356 180.00 1.08450 0.02
5 -6 -3 o 125.292 119.750 180.00 1.07928 0.04
6 -7 3 o 1.829 1.746 180.00 1.07917 0.00
8 -1 3 o 648.539 619.752 180.00 1.07914 0.22
8 -2 3 o 37.732 36.075 0.00 1.07910 0.01
5 -8 3 o 0.138 0.133 180.00 1.07907 0.00
2 -9 4 o 126.137 136.297 0.00 1.08397 0.04
4 0 -6 o 0.062 0.059 0.00 1.07868 0.00
5 4 -6 o 243.566 232.654 0.00 1.07863 0.08
6 8 -1 o 68.800 65.613 0.00 1.08030 0.02
1 10 -3 o 90.264 86.153 0.00 1.07931 0.03
0 10 -3 o 33.735 32.206 0.00 1.07900 0.01
2 10 -2 o 5.501 5.253 180.00 1.07833 0.00
