#------------------------------------------------------------------------------
#$Date: 2016-03-24 03:31:49 +0200 (Thu, 24 Mar 2016) $
#$Revision: 179635 $
#$URL: svn://www.crystallography.net/cod/cif/4/50/99/4509942.cif $
#------------------------------------------------------------------------------
#
# This file is available in the Crystallography Open Database (COD),
# http://www.crystallography.net/
#
# All data on this site have been placed in the public domain by the
# contributors.
#
data_4509942
loop_
_publ_author_name
'Dey, Sanjoy Kumar'
'Saha, Rajat'
'Biswas, Susobhan'
'Layek, Animesh'
'Middya, Somnath'
'Steele, Ian M.'
'Fleck, Michel'
'Ray, Partha Pratim'
'Kumar, Sanjay'
_publ_section_title
;
 Tetrabromoterepthalic Acid in Designing Co-crystals and Salts:
 Modification of Optical Properties and Schottky Barrier Effect
;
_journal_issue                   1
_journal_name_full               'Crystal Growth &amp; Design'
_journal_page_first              207
_journal_paper_doi               10.1021/cg4014009
_journal_volume                  14
_journal_year                    2014
_chemical_formula_sum            'C8 H2 Br4 O4'
_chemical_formula_weight         481.70
_chemical_name_systematic        ' ?'
_space_group_IT_number           12
_symmetry_cell_setting           monoclinic
_symmetry_space_group_name_Hall  '-C 2y'
_symmetry_space_group_name_H-M   'C 1 2/m 1'
_audit_creation_date             2013-03-17T00:43
_audit_creation_method           'from EXP file using GSAS2CIF'
_audit_update_record
' 2013-03-17T00:43  Initial CIF as created by GSAS2CIF'
_cell_angle_alpha                90.0
_cell_angle_beta                 99.5592(11)
_cell_angle_gamma                90.0
_cell_formula_units_Z            2
_cell_length_a                   8.0299(9)
_cell_length_b                   10.3117(11)
_cell_length_c                   7.0948(8)
_cell_measurement_temperature    293
_cell_volume                     579.31(11)
_computing_structure_refinement  GSAS
_diffrn_ambient_temperature      293
_diffrn_radiation_polarisn_ratio 0.911
_diffrn_radiation_probe          x-ray
_diffrn_radiation_wavelength     1.54184
_exptl_absorpt_correction_T_max  1.00000
_exptl_absorpt_correction_T_min  1.00000
_exptl_absorpt_process_details
;   GSAS Absorption/surface roughness correction: function number 0
 No correction is applied.
;
_pd_block_id                     2013-03-17T00:43|TBTA|tbta|bruker_d8
_pd_calc_method                  'Rietveld Refinement'
_pd_instr_location               ' ?'
_pd_meas_2theta_range_inc        0.02
_pd_meas_2theta_range_max        75.56
_pd_meas_2theta_range_min        5.0
_pd_meas_number_of_points        3529
_pd_phase_name                   'from E:/TBTA POWDER/gsas/1.cif'
_pd_proc_2theta_range_inc        0.02
_pd_proc_2theta_range_max        75.56007
_pd_proc_2theta_range_min        5.00007
_pd_proc_info_datetime           2013-03-17T00:43:16
_pd_proc_info_excluded_regions   ' ?'
_pd_proc_ls_background_function
;   GSAS Background function number 1 with 20 terms.
 Shifted Chebyshev function of 1st kind
      1:    4681.41     2:   -4800.75     3:    3226.07     4:   -2022.14    
      5:    1276.32     6:   -864.539     7:    594.462     8:   -477.646    
      9:    395.346    10:   -345.954    11:    189.679    12:   -70.3152    
     13:    51.7229    14:   -56.7306    15:    47.6950    16:    7.66512    
     17:    6.09918    18:   -31.8341    19:    14.6417    20:    7.69383    
;
_pd_proc_ls_peak_cutoff          0.00100
_pd_proc_ls_profile_function
;
 CW Profile function number 3 with  19 terms
 Pseudovoigt profile coefficients as parameterized in
 P. Thompson, D.E. Cox & J.B. Hastings (1987). J. Appl. Cryst.,20,79-83.
 Asymmetry correction of L.W. Finger, D.E. Cox & A. P. Jephcoat (1994).
 J. Appl. Cryst.,27,892-900.
 Peak tails are ignored  where the intensity is below 0.0010 times the peak
   Aniso. broadening axis   0.0   0.0   1.0
;
_pd_proc_ls_prof_R_factor        0.0201
_pd_proc_ls_prof_wR_expected     0.0142
_pd_proc_ls_prof_wR_factor       0.0301
_pd_proc_number_of_points        3529
_pd_spec_mounting                ' ?'
_refine_ls_goodness_of_fit_all   2.16
_refine_ls_matrix_type           full
_refine_ls_number_parameters     46
_refine_ls_number_restraints     12
_refine_ls_R_Fsqd_factor         0.03379
_refine_ls_shift/su_max          0.03
_refine_ls_shift/su_mean         0.00
_reflns_d_resolution_high        1.344
_reflns_d_resolution_low         6.996
_reflns_limit_h_max              6
_reflns_limit_h_min              0
_reflns_limit_k_max              7
_reflns_limit_k_min              0
_reflns_limit_l_max              5
_reflns_limit_l_min              -5
_reflns_number_total             278
_cod_data_source_file            cg4014009_si_002.cif
_cod_data_source_block           1_publ
_cod_depositor_comments
;
The following automatic conversions were performed:

'_geom_bond_publ_flag' value 'N' changed to 'n' according to
/usr/data/users/saulius/automatic-downloads/current/ACS/lib/dictionaries/cif_core.dic
dictionary named 'cif_core.dic' version 2.4.2 from 2011-04-26 (21
time).

'_geom_angle_publ_flag' value 'N' changed to 'n' according to
/usr/data/users/saulius/automatic-downloads/current/ACS/lib/dictionaries/cif_core.dic
dictionary named 'cif_core.dic' version 2.4.2 from 2011-04-26 (10
times).

Automatic conversion script
Id: cif_fix_values 2281 2013-09-26 08:29:07Z andrius 
;
_cod_original_cell_volume        579.31(18)
_cod_database_code               4509942
#BEGIN Tags that were not found in dictionaries:
_gsas_exptl_extinct_corr_t_min   1.00000
_gsas_exptl_extinct_corr_t_max   1.00000
#END Tags that were not found in dictionaries
loop_
_symmetry_equiv_pos_site_id
_symmetry_equiv_pos_as_xyz
1 +x,+y,+z
2 -x,+y,-z
-1 -x,-y,-z
-2 +x,-y,+z
101 +x+1/2,+y+1/2,+z
102 -x+1/2,+y+1/2,-z
-101 -x+1/2,-y+1/2,-z
-102 +x+1/2,-y+1/2,+z
loop_
_atom_site_type_symbol
_atom_site_label
_atom_site_fract_x
_atom_site_fract_y
_atom_site_fract_z
_atom_site_occupancy
_atom_site_thermal_displace_type
_atom_site_U_iso_or_equiv
_atom_site_symmetry_multiplicity
Br Br1 0.12998(15) 0.22731(5) 0.21392(10) 1.0 Uiso 0.04 8
O o2 0.1663(6) 0.5 0.5195(5) 1.0 Uiso 0.04 4
O o1 0.3757(5) 0.5 0.3516(6) 1.0 Uiso 0.04 4
C c4 0.05274 0.38195 0.08658 1.0 Uiso 0.04 8
C c5 0.10668 0.5 0.17133 1.0 Uiso 0.04 4
C c6 0.2272(4) 0.5 0.3615(4) 1.0 Uiso 0.04 4
H H2 0.2447 0.5 0.6117 1.0 Uiso 0.06 4
loop_
_atom_type_symbol
_atom_type_number_in_cell
_atom_type_scat_dispersion_real
_atom_type_scat_dispersion_imag
_atom_type_scat_Cromer_Mann_a1
_atom_type_scat_Cromer_Mann_a2
_atom_type_scat_Cromer_Mann_a3
_atom_type_scat_Cromer_Mann_a4
_atom_type_scat_Cromer_Mann_b1
_atom_type_scat_Cromer_Mann_b2
_atom_type_scat_Cromer_Mann_b3
_atom_type_scat_Cromer_Mann_b4
_atom_type_scat_Cromer_Mann_c
_atom_type_scat_source
Br 8.0 0.000 0.000 17.1789 2.17230 5.23580 16.5796 5.63770 0.26090 3.98510
41.4328 2.95570 International_Tables_Vol_C
O 8.0 0.000 0.000 3.04850 13.2771 2.28680 5.70110 1.54630 0.32390 0.86700
32.9089 0.25080 International_Tables_Vol_C
C 16.0 0.000 0.000 2.31000 20.8439 1.02000 10.2075 1.58860 0.56870 0.86500
51.6512 0.21560 International_Tables_Vol_C
H 4.0 0.000 0.000 0.49300 10.5109 0.32291 26.1257 0.14019 3.14236 0.04081
57.7997 0.00304 International_Tables_Vol_C
loop_
_geom_angle_atom_site_label_1
_geom_angle_atom_site_label_2
_geom_angle_atom_site_label_3
_geom_angle
_geom_angle_site_symmetry_1
_geom_angle_site_symmetry_3
_geom_angle_publ_flag
c6 o2 H2 109.7(4) 1_555 1_555 n
Br1 c4 c4 122.281(25) 1_555 2_555 n
Br1 c4 c5 118.530(25) 1_555 1_555 n
c4 c4 c5 119.1851(32) 2_555 1_555 n
c4 c5 c4 121.611(7) 1_555 -2_565 n
c4 c5 c6 119.1943(32) 1_555 1_555 n
c4 c5 c6 119.1943(32) -2_565 1_555 n
o2 c6 o1 124.71(22) 1_555 1_555 n
o2 c6 c5 119.39(22) 1_555 1_555 n
o1 c6 c5 115.90(22) 1_555 1_555 n
loop_
_geom_bond_atom_site_label_1
_geom_bond_atom_site_label_2
_geom_bond_distance
_geom_bond_site_symmetry_2
_geom_bond_publ_flag
Br1 Br1 3.3863(18) 2_555 n
Br1 c4 1.8862(6) 1_555 n
Br1 c4 2.8640(8) 2_555 n
Br1 c5 2.8310(6) 1_555 n
Br1 H2 2.7611(7) 102_546 n
o2 c6 1.2954(27) 1_555 n
o2 H2 0.829(4) 1_555 n
o1 c6 1.2062(28) 1_555 n
c4 Br1 1.8862(6) 1_555 n
c4 Br1 2.8640(8) 2_555 n
c4 c4 1.37159(11) 2_555 n
c4 c5 1.39442(11) 1_555 n
c5 Br1 2.8310(6) 1_555 n
c5 Br1 2.8310(6) -2_565 n
c5 c4 1.39442(11) 1_555 n
c5 c4 1.39442(11) -2_565 n
c5 c6 1.5244(25) 1_555 n
c6 o2 1.2954(27) 1_555 n
c6 o1 1.2062(28) 1_555 n
c6 c5 1.5244(25) 1_555 n
H2 o2 0.829(4) 1_555 n
loop_
_pd_meas_counts_total
_pd_proc_ls_weight
_pd_proc_intensity_bkg_calc
_pd_calc_intensity_total
18874.0 0.0000530 19137.99609 19137.99414
18765.0 0.0000533 18990.76953 18990.76758
18642.0 0.0000536 18845.69922 18845.69727
18499.0 0.0000541 18702.74023 18702.73828
18530.0 0.0000540 18561.86328 18561.86328
18536.0 0.0000539 18423.02930 18423.02930
18071.0 0.0000553 18286.20898 18286.20898
18074.0 0.0000553 18151.37305 18151.37305
18014.0 0.0000555 18018.47852 18018.47852
18005.0 0.0000555 17887.50195 17887.50195
17642.0 0.0000567 17758.40430 17758.40430
17495.0 0.0000572 17631.16211 17631.16211
17365.0 0.0000576 17505.74414 17505.74414
17692.0 0.0000565 17382.11328 17382.11328
17465.0 0.0000573 17260.24414 17260.24414
17270.0 0.0000579 17140.11328 17140.11328
17221.0 0.0000581 17021.68359 17021.68555
16838.0 0.0000594 16904.92969 16904.92969
16767.0 0.0000596 16789.82813 16789.83008
17075.0 0.0000586 16676.34570 16676.34570
16734.0 0.0000598 16564.46094 16564.46289
16429.0 0.0000609 16454.14258 16454.14453
16532.0 0.0000605 16345.36816 16345.36914
16478.0 0.0000607 16238.11230 16238.11328
16235.0 0.0000616 16132.34570 16132.34668
16026.0 0.0000624 16028.04980 16028.05078
16085.0 0.0000622 15925.19531 15925.19629
15861.0 0.0000630 15823.75977 15823.76074
15778.0 0.0000634 15723.72266 15723.72363
15798.0 0.0000633 15625.05762 15625.05859
15555.0 0.0000643 15527.74609 15527.74707
15552.0 0.0000643 15431.75977 15431.76074
15405.0 0.0000649 15337.08105 15337.08203
15327.0 0.0000652 15243.68848 15243.68945
15045.0 0.0000665 15151.55762 15151.55859
15024.0 0.0000666 15060.67090 15060.67188
15115.0 0.0000662 14971.00781 14971.00879
14951.0 0.0000669 14882.54590 14882.54688
14813.0 0.0000675 14795.26563 14795.26660
14699.0 0.0000680 14709.15234 14709.15332
14739.0 0.0000678 14624.18066 14624.18164
14708.0 0.0000680 14540.33887 14540.33887
14383.0 0.0000695 14457.59961 14457.60059
14205.0 0.0000704 14375.95020 14375.95020
14247.0 0.0000702 14295.37402 14295.37500
14166.0 0.0000706 14215.85059 14215.85059
14178.0 0.0000705 14137.36523 14137.36523
14141.0 0.0000707 14059.89648 14059.89746
14040.0 0.0000712 13983.43164 13983.43164
13938.0 0.0000717 13907.95508 13907.95508
13902.0 0.0000719 13833.44629 13833.44629
13750.0 0.0000727 13759.89551 13759.89551
13503.0 0.0000741 13687.28027 13687.28027
13470.0 0.0000742 13615.59082 13615.59082
13602.0 0.0000735 13544.81055 13544.81055
13529.0 0.0000739 13474.92285 13474.92285
13301.0 0.0000752 13405.91797 13405.91797
13127.0 0.0000762 13337.77734 13337.77734
12988.0 0.0000770 13270.48633 13270.48633
13126.0 0.0000762 13204.03613 13204.03613
13074.0 0.0000765 13138.40820 13138.40723
12980.0 0.0000770 13073.59180 13073.59180
12974.0 0.0000771 13009.57422 13009.57422
12867.0 0.0000777 12946.33984 12946.33984
12795.0 0.0000782 12883.87988 12883.87988
12796.0 0.0000781 12822.18164 12822.18066
12676.0 0.0000789 12761.22852 12761.22852
12661.0 0.0000790 12701.01465 12701.01465
12576.0 0.0000795 12641.52344 12641.52344
12564.0 0.0000796 12582.74512 12582.74512
12683.0 0.0000788 12524.67090 12524.67090
12541.0 0.0000797 12467.28516 12467.28516
12323.0 0.0000811 12410.58008 12410.57910
12259.0 0.0000816 12354.54395 12354.54297
12252.0 0.0000816 12299.16602 12299.16504
12236.0 0.0000817 12244.43750 12244.43652
12084.0 0.0000828 12190.34473 12190.34473
12039.0 0.0000831 12136.87988 12136.87988
12015.0 0.0000832 12084.03613 12084.03613
11969.0 0.0000835 12031.79883 12031.79785
11900.0 0.0000840 11980.16211 11980.16113
11781.0 0.0000849 11929.11230 11929.11230
11707.0 0.0000854 11878.64453 11878.64355
11722.0 0.0000853 11828.75000 11828.75000
11776.0 0.0000849 11779.41699 11779.41602
11805.0 0.0000847 11730.63965 11730.63867
11804.0 0.0000847 11682.40625 11682.40625
11715.0 0.0000854 11634.70898 11634.70898
11544.0 0.0000866 11587.54395 11587.54395
11466.0 0.0000872 11540.89746 11540.89746
11400.0 0.0000877 11494.76465 11494.76465
11435.0 0.0000875 11449.13965 11449.13965
11584.0 0.0000863 11404.00977 11404.00977
11472.0 0.0000872 11359.37207 11359.37109
11288.0 0.0000886 11315.21680 11315.21680
11144.0 0.0000897 11271.53711 11271.53711
11228.0 0.0000891 11228.32617 11228.32617
11131.0 0.0000898 11185.57617 11185.57617
11135.0 0.0000898 11143.28125 11143.28125
11185.0 0.0000894 11101.43555 11101.43555
11067.0 0.0000904 11060.02930 11060.02930
11034.0 0.0000906 11019.05957 11019.05957
10865.0 0.0000920 10978.51758 10978.51758
10885.0 0.0000919 10938.39746 10938.39746
10974.0 0.0000911 10898.69531 10898.69531
10790.0 0.0000927 10859.40137 10859.40137
10924.0 0.0000915 10820.51367 10820.51367
10966.0 0.0000912 10782.02246 10782.02246
10835.0 0.0000923 10743.92285 10743.92383
10762.0 0.0000929 10706.21289 10706.21387
10725.0 0.0000932 10668.88379 10668.88379
10580.0 0.0000945 10631.92969 10631.92969
10602.0 0.0000943 10595.34668 10595.34668
10514.0 0.0000951 10559.12793 10559.12891
10484.0 0.0000954 10523.26953 10523.27051
10703.0 0.0000934 10487.76758 10487.76855
10554.0 0.0000948 10452.61523 10452.61621
10477.0 0.0000954 10417.80957 10417.81055
10493.0 0.0000953 10383.34277 10383.34375
10297.0 0.0000971 10349.21289 10349.21387
10259.0 0.0000975 10315.41406 10315.41504
10313.0 0.0000970 10281.94043 10281.94141
10315.0 0.0000969 10248.79199 10248.79297
10349.0 0.0000966 10215.95898 10215.95996
10208.0 0.0000980 10183.43848 10183.43945
10097.0 0.0000990 10151.22949 10151.23047
10077.0 0.0000992 10119.32422 10119.32520
10026.0 0.0000997 10087.72070 10087.72168
10045.0 0.0000996 10056.41309 10056.41504
9993.0 0.0001001 10025.39844 10025.40039
10066.0 0.0000993 9994.67480 9994.67578
10026.0 0.0000997 9964.23340 9964.23535
9940.0 0.0001006 9934.07617 9934.07813
9946.0 0.0001005 9904.19531 9904.19629
9865.0 0.0001014 9874.58887 9874.58984
9816.0 0.0001019 9845.25293 9845.25488
9797.0 0.0001021 9816.18457 9816.18652
9672.0 0.0001034 9787.37891 9787.38086
9610.0 0.0001041 9758.83301 9758.83496
9744.0 0.0001026 9730.54492 9730.54688
9786.0 0.0001022 9702.51074 9702.51270
9584.0 0.0001043 9674.72656 9674.72852
9625.0 0.0001039 9647.18848 9647.19141
9633.0 0.0001038 9619.89746 9619.89941
9668.0 0.0001034 9592.84473 9592.84766
9638.0 0.0001038 9566.03027 9566.03223
9465.0 0.0001057 9539.45215 9539.45410
9381.0 0.0001066 9513.10449 9513.10645
9449.0 0.0001058 9486.98730 9486.99023
9464.0 0.0001057 9461.09570 9461.09766
9387.0 0.0001065 9435.42676 9435.42969
9470.0 0.0001056 9409.97949 9409.98242
9513.0 0.0001051 9384.75195 9384.75488
9518.0 0.0001051 9359.73730 9359.74023
9217.0 0.0001085 9334.93848 9334.94141
9380.0 0.0001066 9310.34766 9310.34961
9341.0 0.0001071 9285.96582 9285.96875
9257.0 0.0001080 9261.78809 9261.79102
9306.0 0.0001075 9237.81445 9237.81641
9284.0 0.0001077 9214.04102 9214.04297
9168.0 0.0001091 9190.46484 9190.46680
9090.0 0.0001100 9167.08398 9167.08691
9082.0 0.0001101 9143.89844 9143.90137
9176.0 0.0001090 9120.90234 9120.90527
9131.0 0.0001095 9098.09570 9098.09863
9148.0 0.0001093 9075.47559 9075.47852
8965.0 0.0001115 9053.04102 9053.04395
8991.0 0.0001112 9030.78711 9030.79004
9177.0 0.0001090 9008.71387 9008.71680
9101.0 0.0001099 8986.82031 8986.82324
9058.0 0.0001104 8965.10156 8965.10449
8930.0 0.0001120 8943.55664 8943.55957
8857.0 0.0001129 8922.18555 8922.18848
8933.0 0.0001119 8900.98242 8900.98535
8967.0 0.0001115 8879.94922 8879.95215
8640.0 0.0001157 8859.08105 8859.08398
8789.0 0.0001138 8838.37793 8838.38086
8783.0 0.0001139 8817.83789 8817.84180
8762.0 0.0001141 8797.45801 8797.46094
8709.0 0.0001148 8777.23730 8777.24023
8817.0 0.0001134 8757.17480 8757.17773
8938.0 0.0001119 8737.26563 8737.26953
8823.0 0.0001133 8717.51074 8717.51465
8721.0 0.0001147 8697.91016 8697.91309
8835.0 0.0001132 8678.45703 8678.45996
8532.0 0.0001172 8659.15430 8659.15723
8669.0 0.0001154 8639.99707 8640.00098
8570.0 0.0001167 8620.98730 8620.99023
8671.0 0.0001153 8602.11914 8602.12305
8645.0 0.0001157 8583.39453 8583.39746
8624.0 0.0001160 8564.80957 8564.81348
8567.0 0.0001167 8546.36523 8546.36816
8603.0 0.0001162 8528.05664 8528.05957
8540.0 0.0001171 8509.88574 8509.88867
8618.0 0.0001160 8491.84766 8491.85059
8566.0 0.0001167 8473.94531 8473.94824
8390.0 0.0001192 8456.17188 8456.17480
8376.0 0.0001194 8438.53027 8438.53320
8413.0 0.0001189 8421.01660 8421.01953
8316.0 0.0001203 8403.63086 8403.63379
8375.0 0.0001194 8386.37012 8386.37305
8395.0 0.0001191 8369.23535 8369.23828
8339.0 0.0001199 8352.22363 8352.22656
8448.0 0.0001184 8335.33301 8335.33594
8373.0 0.0001194 8318.56445 8318.56738
8279.0 0.0001208 8301.91406 8301.91699
8216.0 0.0001217 8285.38379 8285.38672
8280.0 0.0001208 8268.96777 8268.97070
8286.0 0.0001207 8252.66895 8252.67188
8299.0 0.0001205 8236.48340 8236.48633
8105.0 0.0001234 8220.41016 8220.41309
8168.0 0.0001224 8204.45020 8204.45313
8215.0 0.0001217 8188.59961 8188.60205
8300.0 0.0001205 8172.85889 8172.86182
8202.0 0.0001219 8157.22705 8157.22949
7989.0 0.0001252 8141.70068 8141.70361
7943.0 0.0001259 8126.28174 8126.28467
8052.0 0.0001242 8110.96631 8110.96924
8146.0 0.0001228 8095.75488 8095.75732
7991.0 0.0001251 8080.64648 8080.64893
7937.0 0.0001260 8065.63818 8065.64063
8082.0 0.0001237 8050.73047 8050.73291
8010.0 0.0001248 8035.92236 8035.92480
7931.0 0.0001261 8021.21143 8021.21387
8060.0 0.0001241 8006.59863 8006.60059
8142.0 0.0001228 7992.08057 7992.08252
7984.0 0.0001253 7977.65674 7977.65918
7897.0 0.0001266 7963.32813 7963.33057
7967.0 0.0001255 7949.09131 7949.09375
8002.0 0.0001250 7934.94727 7934.94922
8028.0 0.0001246 7920.89258 7920.89453
7932.0 0.0001261 7906.92773 7906.92969
7926.0 0.0001262 7893.05127 7893.05371
7899.0 0.0001266 7879.26416 7879.26611
7831.0 0.0001277 7865.56152 7865.56348
7815.0 0.0001280 7851.94629 7851.94824
7832.0 0.0001277 7838.41455 7838.41650
7773.0 0.0001287 7824.96826 7824.97021
7737.0 0.0001292 7811.60303 7811.60498
7736.0 0.0001293 7798.31982 7798.32129
7727.0 0.0001294 7785.11865 7785.12012
7749.0 0.0001290 7771.99707 7771.99854
7714.0 0.0001296 7758.95361 7758.95508
7647.0 0.0001308 7745.98975 7745.99121
7718.0 0.0001296 7733.10205 7733.10352
7677.0 0.0001303 7720.29150 7720.29297
7634.0 0.0001310 7707.55615 7707.55713
7551.0 0.0001324 7694.89600 7694.89697
7635.0 0.0001310 7682.30811 7682.30957
7678.0 0.0001302 7669.79346 7669.79492
7565.0 0.0001322 7657.35205 7657.35303
7527.0 0.0001329 7644.98047 7644.98145
7621.0 0.0001312 7632.67920 7632.68018
7616.0 0.0001313 7620.44775 7620.44873
7487.0 0.0001336 7608.28564 7608.28662
7616.0 0.0001313 7596.19092 7596.19141
7622.0 0.0001312 7584.16309 7584.16406
7568.0 0.0001321 7572.20117 7572.20166
7482.0 0.0001337 7560.30566 7560.30615
7473.0 0.0001338 7548.47314 7548.47363
7546.0 0.0001325 7536.70459 7536.70508
7467.0 0.0001339 7525.00000 7525.00049
7449.0 0.0001342 7513.35693 7513.35742
7575.0 0.0001320 7501.77539 7501.77539
7562.0 0.0001322 7490.25488 7490.25537
7484.0 0.0001336 7478.79346 7478.79395
7567.0 0.0001322 7467.39258 7467.39258
7490.0 0.0001335 7456.04883 7456.04883
7560.0 0.0001323 7444.76367 7444.76367
7440.0 0.0001344 7433.53418 7433.53418
7292.0 0.0001371 7422.36133 7422.36133
7289.0 0.0001372 7411.24463 7411.24463
7387.0 0.0001354 7400.18164 7400.18164
7429.0 0.0001346 7389.17285 7389.17285
7478.0 0.0001337 7378.21777 7378.21777
7437.0 0.0001345 7367.31494 7367.31494
7325.0 0.0001365 7356.46387 7356.46338
7402.0 0.0001351 7345.66406 7345.66406
7394.0 0.0001352 7334.91504 7334.91455
7380.0 0.0001355 7324.21582 7324.21533
7415.0 0.0001349 7313.56543 7313.56494
7365.0 0.0001358 7302.96338 7302.96240
7401.0 0.0001351 7292.40967 7292.40918
7380.0 0.0001355 7281.90234 7281.90137
7238.0 0.0001382 7271.44141 7271.44092
7260.0 0.0001377 7261.02734 7261.02637
7233.0 0.0001383 7250.65771 7250.65674
7244.0 0.0001380 7240.33301 7240.33252
7348.0 0.0001361 7230.05176 7230.05127
7239.0 0.0001381 7219.81445 7219.81348
7274.0 0.0001375 7209.61914 7209.61816
7253.0 0.0001379 7199.46582 7199.46484
7277.0 0.0001374 7189.35449 7189.35352
7193.0 0.0001390 7179.28369 7179.28223
7198.0 0.0001389 7169.25244 7169.25098
7195.0 0.0001390 7159.26172 7159.26025
7211.0 0.0001387 7149.30908 7149.30811
7178.0 0.0001393 7139.39648 7139.39502
7204.0 0.0001388 7129.51953 7129.51855
7167.0 0.0001395 7119.68213 7119.68066
7119.0 0.0001405 7109.87939 7109.87793
7169.0 0.0001395 7100.11328 7100.11182
6878.0 0.0001454 7090.38281 7090.38135
7039.0 0.0001421 7080.68799 7080.68652
7068.0 0.0001415 7071.02686 7071.02539
7023.0 0.0001424 7061.39990 7061.39795
7120.0 0.0001404 7051.80713 7051.80518
6969.0 0.0001435 7042.24561 7042.24414
7099.0 0.0001409 7032.71777 7032.71582
7126.0 0.0001403 7023.22070 7023.21924
7013.0 0.0001426 7013.75586 7013.75391
6848.0 0.0001460 7004.32080 7004.31885
6935.0 0.0001442 6994.91602 6994.91406
6945.0 0.0001440 6985.54150 6985.53955
7012.0 0.0001426 6976.19531 6976.19336
6987.0 0.0001431 6966.87842 6966.87646
6891.0 0.0001451 6957.59033 6957.58838
6991.0 0.0001430 6948.32910 6948.32666
6998.0 0.0001429 6939.09521 6939.09326
7001.0 0.0001428 6929.88818 6929.88574
7065.0 0.0001415 6920.70703 6920.70508
6970.0 0.0001435 6911.55273 6911.55029
7039.0 0.0001421 6902.42285 6902.42041
6909.0 0.0001447 6893.31787 6893.31543
6884.0 0.0001453 6884.23779 6884.23584
6954.0 0.0001438 6875.18164 6875.17920
6955.0 0.0001438 6866.14844 6866.14648
6835.0 0.0001463 6857.13916 6857.13672
6859.0 0.0001458 6848.15234 6848.14990
7053.0 0.0001418 6839.18848 6839.18604
6734.0 0.0001485 6830.24512 6830.24268
6773.0 0.0001476 6821.32422 6821.32178
6811.0 0.0001468 6812.42334 6812.42090
6727.0 0.0001487 6803.54346 6803.54102
6806.0 0.0001469 6794.68359 6794.68066
6825.0 0.0001465 6785.84375 6785.84131
6784.0 0.0001474 6777.02344 6777.02100
6703.0 0.0001492 6768.22217 6768.21973
6694.0 0.0001494 6759.43896 6765.43262
6784.0 0.0001474 6750.67480 6756.94092
6669.0 0.0001499 6741.92773 6751.52637
6638.0 0.0001506 6733.19824 6743.24902
6750.0 0.0001481 6724.48633 6735.02197
6776.0 0.0001476 6715.79053 6726.84668
6668.0 0.0001500 6707.11133 6718.72803
6740.0 0.0001484 6698.44873 6710.66943
6644.0 0.0001505 6689.80078 6702.67383
6708.0 0.0001491 6681.16992 6694.74854
6763.0 0.0001479 6672.55225 6686.89697
6696.0 0.0001493 6663.95068 6679.12793
6602.0 0.0001515 6655.36230 6671.44678
6676.0 0.0001498 6646.78809 6663.86328
6804.0 0.0001470 6638.22852 6656.38916
6786.0 0.0001474 6629.68164 6649.03564
6634.0 0.0001507 6621.14746 6641.81592
6447.0 0.0001551 6612.62598 6634.74854
6631.0 0.0001508 6604.11816 6627.85254
6594.0 0.0001517 6595.62158 6621.15186
6580.0 0.0001520 6587.13770 6614.67578
6678.0 0.0001497 6578.66455 6608.45801
6626.0 0.0001509 6570.20361 6602.54102
6603.0 0.0001514 6561.75244 6596.97656
6611.0 0.0001513 6553.31299 6591.82764
6616.0 0.0001511 6544.88379 6587.17480
6633.0 0.0001508 6536.46484 6583.11816
6560.0 0.0001524 6528.05518 6579.78516
6543.0 0.0001528 6519.65625 6577.34180
6587.0 0.0001518 6511.26611 6576.00195
6495.0 0.0001540 6502.88623 6576.05420
6554.0 0.0001526 6494.51367 6577.88525
6629.0 0.0001509 6486.15137 6582.03418
6743.0 0.0001483 6477.79639 6589.28076
6690.0 0.0001495 6469.45020 6600.87549
6700.0 0.0001493 6461.11230 6619.16016
6626.0 0.0001509 6452.78174 6649.18457
6746.0 0.0001482 6444.45850 6702.05176
6844.0 0.0001461 6436.14258 6799.70313
7009.0 0.0001427 6427.83447 6977.99072
7294.0 0.0001371 6419.53320 7282.28809
7497.0 0.0001334 6411.23877 7750.41748
7912.0 0.0001264 6402.95068 8377.55566
8422.0 0.0001187 6394.66943 9084.36133
9106.0 0.0001098 6386.39355 9772.32227
9797.0 0.0001021 6378.12402 10344.02930
10398.0 0.0000962 6369.86084 10677.73047
10496.0 0.0000953 6361.60254 10640.62207
9845.0 0.0001016 6353.34961 10155.62695
8937.0 0.0001119 6345.10303 9345.27539
8012.0 0.0001248 6336.86035 8457.03711
7356.0 0.0001359 6328.62402 7703.78076
6935.0 0.0001442 6320.39160 7173.47021
6702.0 0.0001492 6312.16406 6845.52246
6563.0 0.0001524 6303.94092 6657.54248
6368.0 0.0001570 6295.72168 6550.39697
6351.0 0.0001575 6287.50781 6484.63184
6467.0 0.0001546 6279.29688 6439.21826
6444.0 0.0001552 6271.09033 6404.47217
6432.0 0.0001555 6262.88818 6376.10986
6367.0 0.0001571 6254.68896 6352.05615
6296.0 0.0001588 6246.49414 6331.12793
6306.0 0.0001586 6238.30176 6312.54736
6279.0 0.0001593 6230.11328 6295.77246
6226.0 0.0001606 6221.92822 6280.40967
6330.0 0.0001580 6213.74609 6266.16650
6376.0 0.0001568 6205.56689 6252.82227
6225.0 0.0001606 6197.39111 6240.20996
6112.0 0.0001636 6189.21777 6228.19678
6157.0 0.0001624 6181.04639 6216.68115
6282.0 0.0001592 6172.87939 6205.58252
6298.0 0.0001588 6164.71387 6194.83252
6337.0 0.0001578 6156.55127 6184.38135
6293.0 0.0001589 6148.39063 6176.15479
6282.0 0.0001592 6140.23291 6167.21631
6257.0 0.0001598 6132.07666 6157.56543
6186.0 0.0001617 6123.92285 6148.08789
6230.0 0.0001605 6115.77197 6138.76611
6253.0 0.0001599 6107.62207 6129.58154
6160.0 0.0001623 6099.47461 6120.52051
6123.0 0.0001633 6091.32910 6111.57324
6146.0 0.0001627 6083.18555 6102.72803
6060.0 0.0001650 6075.04395 6093.97949
6043.0 0.0001655 6066.90381 6085.32080
6122.0 0.0001633 6058.76611 6076.74658
6147.0 0.0001627 6050.62939 6068.25391
6139.0 0.0001629 6042.49414 6059.83984
6046.0 0.0001654 6034.36035 6051.50391
6067.0 0.0001648 6026.22949 6043.24658
5994.0 0.0001668 6018.09912 6035.06836
6042.0 0.0001655 6009.97021 6026.97119
6018.0 0.0001662 6001.84375 6018.96094
6044.0 0.0001655 5993.71826 6005.27588
5946.0 0.0001682 5985.59473 5994.75635
5978.0 0.0001673 5977.47217 5987.39600
6012.0 0.0001663 5969.35156 5980.13721
6009.0 0.0001664 5961.23145 5972.99658
5937.0 0.0001684 5953.11328 5965.99756
6087.0 0.0001643 5944.99658 5959.16699
6101.0 0.0001639 5936.88184 5952.54199
6024.0 0.0001660 5928.76758 5946.16553
5940.0 0.0001684 5920.65576 5940.09766
6106.0 0.0001638 5912.54492 5934.41309
5992.0 0.0001669 5904.43604 5929.21484
5928.0 0.0001687 5896.32764 5924.64063
5994.0 0.0001668 5888.22119 5920.88330
5908.0 0.0001693 5880.11621 5918.22705
5947.0 0.0001682 5872.01270 5917.13184
5973.0 0.0001674 5863.91064 5918.47363
6069.0 0.0001648 5855.81104 5924.12061
6013.0 0.0001663 5847.71240 5938.05420
6001.0 0.0001666 5839.61523 5967.86426
6085.0 0.0001643 5831.52002 6025.56104
6171.0 0.0001620 5823.42578 6125.94141
6225.0 0.0001606 5815.33447 6280.72363
6369.0 0.0001570 5807.24414 6485.95410
6631.0 0.0001508 5799.15625 6709.02930
6962.0 0.0001436 5791.06885 6908.37109
7146.0 0.0001399 5782.98438 7045.42920
7076.0 0.0001413 5774.90137 7072.17773
7024.0 0.0001424 5766.82080 6964.97070
6795.0 0.0001472 5758.74170 6745.97998
6592.0 0.0001517 5750.66553 6482.11182
6311.0 0.0001585 5742.59082 6238.32373
6042.0 0.0001655 5734.51855 6052.22510
5992.0 0.0001669 5726.44824 5927.73584
5909.0 0.0001692 5718.38037 5850.53174
5814.0 0.0001720 5710.31494 5803.24365
5862.0 0.0001706 5702.25195 5772.50488
5941.0 0.0001683 5694.19092 5750.26855
5698.0 0.0001755 5686.13330 5732.44629
5747.0 0.0001740 5678.07715 5717.14014
5722.0 0.0001748 5670.02490 5703.45654
5714.0 0.0001750 5661.97461 5690.91797
5823.0 0.0001717 5653.92725 5679.22900
5660.0 0.0001767 5645.88281 5668.18848
5807.0 0.0001722 5637.84131 5657.65283
5703.0 0.0001753 5629.80322 5647.51611
5440.0 0.0001838 5621.76758 5637.69873
5566.0 0.0001797 5613.73486 5628.14063
5584.0 0.0001791 5605.70605 5618.79443
5691.0 0.0001757 5597.68066 5609.62549
5607.0 0.0001783 5589.65820 5600.60303
5624.0 0.0001778 5581.64014 5591.70459
5672.0 0.0001763 5573.62500 5582.91162
5724.0 0.0001747 5565.61377 5574.20947
5616.0 0.0001781 5557.60596 5565.58496
5535.0 0.0001807 5549.60205 5557.02881
5589.0 0.0001789 5541.60205 5548.53223
5706.0 0.0001753 5533.60596 5540.08740
5465.0 0.0001830 5525.61426 5531.68896
5459.0 0.0001832 5517.62695 5523.33203
5604.0 0.0001784 5509.64355 5515.01172
5470.0 0.0001828 5501.66504 5506.72510
5635.0 0.0001775 5493.69043 5498.46924
5531.0 0.0001808 5485.72070 5490.23975
5427.0 0.0001843 5477.75537 5482.03613
5612.0 0.0001782 5469.79443 5473.85547
5371.0 0.0001862 5461.83936 5465.69678
5524.0 0.0001810 5453.88867 5457.55762
5475.0 0.0001826 5445.94287 5449.43604
5490.0 0.0001821 5438.00244 5441.33350
5552.0 0.0001801 5430.06689 5433.24609
5494.0 0.0001820 5422.13721 5425.17432
5447.0 0.0001836 5414.21289 5415.22949
5444.0 0.0001837 5406.29395 5407.26611
5330.0 0.0001876 5398.38086 5398.38232
5378.0 0.0001859 5390.47363 5390.47461
5330.0 0.0001876 5382.57178 5382.57275
5447.0 0.0001836 5374.67627 5374.67725
5391.0 0.0001855 5366.78662 5366.78760
5385.0 0.0001857 5358.90283 5358.90430
5393.0 0.0001854 5351.02637 5351.02734
5380.0 0.0001859 5343.15527 5343.15625
5448.0 0.0001836 5335.29150 5335.29248
5438.0 0.0001839 5327.43359 5327.43457
5402.0 0.0001851 5319.58301 5319.58398
5280.0 0.0001894 5311.73828 5311.73975
5377.0 0.0001860 5303.90088 5303.90234
5324.0 0.0001878 5296.07080 5296.07227
5365.0 0.0001864 5288.24756 5288.24902
5378.0 0.0001859 5280.43164 5280.43262
5314.0 0.0001882 5272.62354 5272.62451
5362.0 0.0001865 5264.82178 5264.82324
5321.0 0.0001879 5257.02832 5257.02979
5326.0 0.0001878 5249.24219 5249.24365
5379.0 0.0001859 5241.46436 5241.46582
5433.0 0.0001841 5233.69385 5233.69531
5443.0 0.0001837 5225.93115 5225.93262
5423.0 0.0001844 5218.17676 5218.17822
5413.0 0.0001847 5210.43066 5210.43213
5484.0 0.0001823 5202.69287 5202.69434
5387.0 0.0001856 5194.96289 5194.96436
5210.0 0.0001919 5187.24268 5187.24414
5165.0 0.0001936 5179.52979 5179.53125
5123.0 0.0001952 5171.82666 5171.82813
5110.0 0.0001957 5164.13135 5164.13330
5134.0 0.0001948 5156.44580 5156.44775
5148.0 0.0001943 5148.76904 5148.77051
5180.0 0.0001931 5141.10107 5141.10254
5243.0 0.0001907 5133.44238 5133.44385
5242.0 0.0001908 5125.79346 5125.79492
5162.0 0.0001937 5118.15332 5118.15479
5264.0 0.0001900 5110.52393 5110.52539
5214.0 0.0001918 5102.90283 5102.90430
5136.0 0.0001947 5095.29248 5095.29395
5098.0 0.0001962 5087.69141 5087.69287
5078.0 0.0001969 5080.10010 5080.10205
5124.0 0.0001952 5072.51953 5072.52100
5089.0 0.0001965 5064.94873 5064.95020
5091.0 0.0001964 5057.38818 5057.38965
5150.0 0.0001942 5049.83838 5049.83984
5075.0 0.0001970 5042.29834 5042.30029
4987.0 0.0002005 5034.76904 5034.77100
5079.0 0.0001969 5027.25049 5027.25244
5115.0 0.0001955 5019.74414 5019.74561
5017.0 0.0001993 5012.24707 5078.42773
5076.0 0.0001970 5004.76074 5073.33594
5120.0 0.0001953 4997.28564 5101.17676
5008.0 0.0001997 4989.82275 5097.56494
4931.0 0.0002028 4982.37012 5094.18213
4917.0 0.0002034 4974.92871 5091.04541
4981.0 0.0002008 4967.49951 5088.17432
5039.0 0.0001985 4960.08203 5085.58789
4992.0 0.0002003 4952.67529 5083.30908
4914.0 0.0002035 4945.28027 5081.36279
4977.0 0.0002009 4937.89697 5079.77637
5009.0 0.0001996 4930.52637 5078.58008
4890.0 0.0002045 4923.16699 5077.80762
4832.0 0.0002070 4915.82031 5077.49756
4920.0 0.0002033 4908.48535 5077.69092
4980.0 0.0002008 4901.16309 5078.43408
4960.0 0.0002016 4893.85254 5079.77979
5035.0 0.0001986 4886.55420 5081.78809
4972.0 0.0002011 4879.26855 5084.52539
5033.0 0.0001987 4871.99658 5088.06738
5033.0 0.0001987 4864.73682 5092.49951
5005.0 0.0001998 4857.48926 5097.91895
5123.0 0.0001952 4850.25439 5104.43750
5044.0 0.0001983 4843.03223 5112.18359
4952.0 0.0002019 4835.82422 5121.30469
4988.0 0.0002005 4828.62842 5136.47705
5166.0 0.0001936 4821.44580 5149.04980
5168.0 0.0001935 4814.27734 5165.83301
5214.0 0.0001918 4807.12158 5182.72168
5325.0 0.0001878 4799.97900 5202.18701
5271.0 0.0001897 4792.84961 5224.60742
5242.0 0.0001908 4785.73389 5250.43457
5388.0 0.0001856 4778.63232 5280.20947
5396.0 0.0001853 4771.54395 5314.58398
5360.0 0.0001866 4764.46973 5354.35400
5440.0 0.0001838 4757.40869 5400.49316
5499.0 0.0001819 4750.36230 5454.20654
5539.0 0.0001805 4743.32910 5516.99561
5528.0 0.0001809 4736.31006 5590.75928
5550.0 0.0001802 4729.30518 5677.91455
5643.0 0.0001772 4722.31543 5781.58447
5771.0 0.0001733 4715.33887 5905.85156
5917.0 0.0001690 4708.37695 6056.14160
5947.0 0.0001682 4701.42871 6239.78760
6156.0 0.0001624 4694.49561 6466.93994
6375.0 0.0001569 4687.57666 6752.25049
6657.0 0.0001502 4680.67188 7118.74609
7334.0 0.0001364 4673.78174 7608.06787
8510.0 0.0001175 4666.90674 8306.62598
9992.0 0.0001001 4660.04639 9401.20215
12196.0 0.0000820 4653.20068 11265.63965
15883.0 0.0000630 4646.36914 14535.49609
21132.0 0.0000473 4639.55273 20066.98828
28086.0 0.0000356 4632.75195 28656.95898
36825.0 0.0000272 4625.96533 40398.25781
48048.0 0.0000208 4619.19434 53610.81641
60499.0 0.0000165 4612.43750 64810.84375
68832.0 0.0000145 4605.69678 71233.42969
69584.0 0.0000144 4598.97070 70650.27344
62104.0 0.0000161 4592.25928 62744.53906
49846.0 0.0000201 4585.56348 50844.19141
36131.0 0.0000277 4578.88330 38127.10156
25510.0 0.0000392 4572.21875 27144.79883
17806.0 0.0000562 4565.56836 19175.47070
12604.0 0.0000793 4558.93408 14046.62695
10032.0 0.0000997 4552.31543 10987.84473
8469.0 0.0001181 4545.71191 9216.70996
7518.0 0.0001330 4539.12354 8162.71436
6783.0 0.0001474 4532.55078 7487.18896
6449.0 0.0001551 4525.99512 7016.85059
6248.0 0.0001601 4519.45313 6669.97266
6156.0 0.0001624 4512.92725 6407.91113
5966.0 0.0001676 4506.41699 6211.95117
5774.0 0.0001732 4499.92285 6075.51611
5758.0 0.0001737 4493.44482 6004.00146
5797.0 0.0001725 4486.98145 6017.38379
5960.0 0.0001678 4480.53467 6150.70508
6145.0 0.0001627 4474.10352 6446.45996
6585.0 0.0001519 4467.68848 6932.89063
7460.0 0.0001340 4461.28857 7580.04785
8058.0 0.0001241 4454.90479 8247.25488
9080.0 0.0001101 4448.53711 8738.65723
9397.0 0.0001064 4442.18555 8915.56055
9220.0 0.0001085 4435.85010 8671.34863
8618.0 0.0001160 4429.52979 8078.92676
7887.0 0.0001268 4423.22559 7334.16162
6867.0 0.0001456 4416.93799 6595.72754
6106.0 0.0001638 4410.66602 5985.43408
5680.0 0.0001761 4404.41016 5545.33350
5145.0 0.0001944 4398.16992 5253.45947
4947.0 0.0002021 4391.94678 5067.08496
4870.0 0.0002053 4385.73926 4946.73193
4746.0 0.0002107 4379.54736 4864.38086
4739.0 0.0002110 4373.37158 4803.30664
4654.0 0.0002149 4367.21240 4754.64941
4770.0 0.0002096 4361.06885 4713.94678
4705.0 0.0002125 4354.94141 4678.85693
4671.0 0.0002141 4348.83057 4648.00635
4730.0 0.0002114 4342.73535 4620.48584
4481.0 0.0002232 4336.65674 4595.64648
4569.0 0.0002189 4330.59375 4573.00146
4547.0 0.0002199 4324.54688 4552.18262
4641.0 0.0002155 4318.51611 4532.89795
4456.0 0.0002244 4312.50195 4514.92285
4487.0 0.0002229 4306.50439 4498.06982
4466.0 0.0002239 4300.52148 4482.19141
4436.0 0.0002254 4294.55566 4467.16406
4542.0 0.0002202 4288.60596 4452.88623
4532.0 0.0002207 4282.67236 4439.27295
4552.0 0.0002197 4276.75439 4426.25146
4431.0 0.0002257 4270.85254 4413.75879
4412.0 0.0002267 4264.96777 4401.74512
4346.0 0.0002301 4259.09814 4390.16064
4378.0 0.0002284 4253.24512 4378.96875
4344.0 0.0002302 4247.40771 4303.26025
4439.0 0.0002253 4241.58691 4294.95654
4484.0 0.0002230 4235.78174 4254.39063
4367.0 0.0002290 4229.99219 4247.55225
4317.0 0.0002316 4224.21973 4240.81689
4322.0 0.0002314 4218.46289 4234.17480
4288.0 0.0002332 4212.72168 4227.61719
4236.0 0.0002361 4206.99658 4221.13721
4283.0 0.0002335 4201.28760 4214.72949
4351.0 0.0002298 4195.59424 4208.38770
4386.0 0.0002280 4189.91748 4202.10840
4244.0 0.0002356 4184.25635 4195.88623
4312.0 0.0002319 4178.61084 4189.71777
4322.0 0.0002314 4172.98096 4183.59961
4394.0 0.0002276 4167.36768 4177.52930
4396.0 0.0002275 4161.77002 4171.50342
4285.0 0.0002334 4156.18750 4165.51904
4285.0 0.0002334 4150.62158 4159.57568
4267.0 0.0002344 4145.07178 4153.67139
4201.0 0.0002380 4139.53711 4147.80176
4276.0 0.0002339 4134.01758 4141.96729
4302.0 0.0002325 4128.51465 4136.16650
4241.0 0.0002358 4123.02734 4130.39844
4195.0 0.0002384 4117.55518 4124.66064
4139.0 0.0002416 4112.09863 4114.49707
4190.0 0.0002387 4106.65820 4108.97070
4181.0 0.0002392 4101.23340 4101.23096
4196.0 0.0002383 4095.82349 4095.82104
4247.0 0.0002355 4090.42920 4090.42676
4197.0 0.0002383 4085.05029 4085.04785
4153.0 0.0002408 4079.68750 4079.68506
4184.0 0.0002390 4074.33936 4074.33691
4167.0 0.0002400 4069.00732 4069.00464
4176.0 0.0002395 4063.68994 4063.68726
4145.0 0.0002413 4058.38794 4058.38525
4147.0 0.0002411 4053.10205 4053.09912
4190.0 0.0002387 4047.83057 4047.84937
4125.0 0.0002424 4042.57422 4042.59399
4073.0 0.0002455 4037.33301 4037.35376
4081.0 0.0002450 4032.10815 4032.14063
4089.0 0.0002446 4026.89722 4026.93091
4083.0 0.0002449 4021.70142 4021.73633
4069.0 0.0002458 4016.52075 4016.55762
4101.0 0.0002438 4011.35547 4011.39331
4146.0 0.0002412 4006.20459 4006.24414
4139.0 0.0002416 4001.06885 4001.11035
4103.0 0.0002437 3995.94800 3995.99146
4132.0 0.0002420 3990.84253 3990.88745
4129.0 0.0002422 3985.75098 3985.79834
4038.0 0.0002476 3980.67456 3980.72412
4078.0 0.0002452 3975.61255 3975.66455
4099.0 0.0002440 3970.56592 3970.62061
4063.0 0.0002461 3965.53320 3965.59058
4139.0 0.0002416 3960.51587 3960.57642
4060.0 0.0002463 3955.51245 3955.57617
3989.0 0.0002507 3950.52417 3950.59106
4002.0 0.0002499 3945.54956 3945.62061
3987.0 0.0002508 3940.58960 3940.66431
3989.0 0.0002507 3935.64380 3935.72314
3965.0 0.0002522 3930.71265 3930.79663
3921.0 0.0002550 3925.79663 3925.88623
3940.0 0.0002538 3920.89380 3920.98877
3982.0 0.0002511 3916.00537 3916.10693
4026.0 0.0002484 3911.13110 3911.23926
3997.0 0.0002502 3906.27124 3906.38696
3986.0 0.0002509 3901.42529 3901.54956
3974.0 0.0002516 3896.59302 3896.72681
3888.0 0.0002572 3891.77539 3891.91968
3838.0 0.0002606 3886.97168 3887.12744
3913.0 0.0002556 3882.18164 3882.35034
3937.0 0.0002540 3877.40527 3877.58887
3925.0 0.0002548 3872.64258 3872.84302
3930.0 0.0002545 3867.89429 3868.11401
3980.0 0.0002513 3863.15918 3863.40039
3869.0 0.0002585 3858.43823 3858.70508
3856.0 0.0002593 3853.73047 3854.02686
3882.0 0.0002576 3849.03687 3849.36768
3931.0 0.0002544 3844.35596 3844.72827
3923.0 0.0002549 3839.68896 3840.10986
3946.0 0.0002534 3835.03516 3835.51538
3846.0 0.0002600 3830.39526 3830.94800
3859.0 0.0002591 3825.76831 3826.41089
3791.0 0.0002638 3821.15527 3821.91162
3827.0 0.0002613 3816.55469 3817.45947
3845.0 0.0002601 3811.96753 3813.07617
3839.0 0.0002605 3807.39404 3808.81177
3814.0 0.0002622 3802.83301 3804.77661
3746.0 0.0002670 3798.28516 3801.19531
3706.0 0.0002698 3793.75098 3798.42822
3778.0 0.0002647 3789.22949 3796.89746
3787.0 0.0002641 3784.72070 3796.85425
3780.0 0.0002646 3780.22461 3797.94678
3836.0 0.0002607 3775.74146 3798.82056
3833.0 0.0002609 3771.27148 3797.85889
3811.0 0.0002624 3766.81396 3794.01465
3785.0 0.0002642 3762.36914 3786.94849
3750.0 0.0002667 3757.93726 3800.19507
3691.0 0.0002709 3753.51807 3791.35352
3703.0 0.0002701 3749.11108 3782.99854
3760.0 0.0002660 3744.71655 3787.09863
3725.0 0.0002685 3740.33447 3781.68921
3744.0 0.0002671 3735.96558 3777.33984
3694.0 0.0002707 3731.60815 3773.70557
3752.0 0.0002665 3727.26367 3770.51880
3706.0 0.0002698 3722.93091 3767.61646
3793.0 0.0002636 3718.61133 3764.92017
3762.0 0.0002658 3714.30298 3762.39795
3619.0 0.0002763 3710.00708 3760.04248
3693.0 0.0002708 3705.72314 3757.85474
3729.0 0.0002682 3701.45166 3755.84253
3649.0 0.0002740 3697.19263 3754.01563
3756.0 0.0002662 3692.94482 3752.38550
3758.0 0.0002661 3688.70898 3750.96680
3694.0 0.0002707 3684.48511 3749.77783
3724.0 0.0002685 3680.27368 3748.83984
3826.0 0.0002614 3676.07324 3748.17456
3739.0 0.0002675 3671.88477 3747.80957
3767.0 0.0002655 3667.70874 3747.77661
3780.0 0.0002646 3663.54395 3748.10938
3740.0 0.0002674 3659.39063 3748.84937
3853.0 0.0002595 3655.24878 3750.04224
3747.0 0.0002669 3651.11865 3751.74365
3793.0 0.0002636 3647.00024 3754.01514
3735.0 0.0002677 3642.89331 3756.93018
3822.0 0.0002616 3638.79785 3760.57471
3761.0 0.0002659 3634.71362 3765.04834
3854.0 0.0002595 3630.64111 3770.47070
3689.0 0.0002711 3626.57935 3776.98291
3862.0 0.0002589 3622.52905 3784.75342
3813.0 0.0002623 3618.48999 3793.98706
3854.0 0.0002595 3614.46240 3804.93018
3773.0 0.0002650 3610.44604 3817.88452
3868.0 0.0002585 3606.44067 3833.22095
3796.0 0.0002634 3602.44604 3851.40137
3899.0 0.0002565 3598.46289 3873.00635
3907.0 0.0002560 3594.49072 3898.77002
3860.0 0.0002591 3590.52930 3929.63574
3906.0 0.0002560 3586.57886 3966.82959
3888.0 0.0002572 3582.63989 4011.96753
3985.0 0.0002509 3578.71143 4067.21460
4047.0 0.0002471 3574.79370 4135.53516
4140.0 0.0002415 3570.88696 4221.14014
4150.0 0.0002410 3566.99048 4330.46973
4310.0 0.0002320 3563.10522 4474.70166
4563.0 0.0002192 3559.23096 4676.17676
4880.0 0.0002049 3555.36694 4982.62402
5613.0 0.0001782 3551.51367 5491.49219
6704.0 0.0001492 3547.67139 6376.65039
8072.0 0.0001239 3543.83936 7891.38232
10153.0 0.0000985 3540.01758 10308.46094
13386.0 0.0000747 3536.20654 13765.43164
17247.0 0.0000580 3532.40625 17984.82031
21511.0 0.0000465 3528.61621 22014.45703
25046.0 0.0000399 3524.83667 24662.73047
25869.0 0.0000387 3521.06763 25170.38672
24155.0 0.0000414 3517.30884 23386.50977
20584.0 0.0000486 3513.56055 20093.46680
16615.0 0.0000602 3509.82251 16222.36035
12516.0 0.0000799 3506.09448 12505.74707
9523.0 0.0001050 3502.37671 9523.38672
7282.0 0.0001373 3498.66992 7439.04297
6084.0 0.0001644 3494.97290 6112.27637
5298.0 0.0001888 3491.28589 5314.22510
4787.0 0.0002089 3487.60913 4839.91602
4521.0 0.0002212 3483.94287 4546.22803
4391.0 0.0002277 3480.28638 4349.42285
4243.0 0.0002357 3476.64014 4206.38867
4010.0 0.0002494 3473.00366 4096.16211
3955.0 0.0002528 3469.37817 4008.12866
3853.0 0.0002595 3465.76196 3936.22925
3843.0 0.0002602 3462.15576 3876.54321
3830.0 0.0002611 3458.55957 3826.32349
3820.0 0.0002618 3454.97363 3783.56372
3707.0 0.0002698 3451.39746 3746.76074
3691.0 0.0002709 3447.83105 3714.77319
3625.0 0.0002759 3444.27490 3686.72144
3574.0 0.0002798 3440.72852 3661.91675
3551.0 0.0002816 3437.19214 3639.81543
3539.0 0.0002826 3433.66528 3619.98438
3543.0 0.0002822 3430.14844 3602.07349
3552.0 0.0002815 3426.64160 3585.79834
3589.0 0.0002786 3423.14429 3570.92773
3485.0 0.0002869 3419.65698 3557.26831
3421.0 0.0002923 3416.17944 3544.66113
3442.0 0.0002905 3412.71143 3532.97363
3435.0 0.0002911 3409.25366 3522.09497
3362.0 0.0002974 3405.80566 3511.93066
3409.0 0.0002933 3402.36670 3502.40259
3453.0 0.0002896 3398.93774 3493.44458
3454.0 0.0002895 3395.51929 3485.00317
3488.0 0.0002867 3392.10962 3477.03149
3565.0 0.0002805 3388.70972 3469.49487
3453.0 0.0002896 3385.31982 3462.36719
3402.0 0.0002939 3381.93945 3455.63135
3403.0 0.0002939 3378.56885 3449.28345
3377.0 0.0002961 3375.20752 3443.33813
3413.0 0.0002930 3371.85620 3437.85010
3442.0 0.0002905 3368.51465 3432.97510
3452.0 0.0002897 3365.18237 3429.11987
3376.0 0.0002962 3361.85986 3427.20386
3312.0 0.0003019 3358.54663 3428.91162
3388.0 0.0002952 3355.24365 3436.56152
3425.0 0.0002920 3351.94971 3452.13892
3378.0 0.0002960 3348.66577 3475.30469
3425.0 0.0002920 3345.39111 3500.76831
3426.0 0.0002919 3342.12646 3518.99854
3414.0 0.0002929 3338.87109 3522.87012
3343.0 0.0002991 3335.62500 3510.00928
3365.0 0.0002972 3332.38892 3484.74170
3386.0 0.0002953 3329.16211 3479.31567
3383.0 0.0002956 3325.94531 3426.95557
3403.0 0.0002939 3322.73804 3402.07153
3374.0 0.0002964 3319.54004 3396.34668
3332.0 0.0003001 3316.35156 3373.41626
3391.0 0.0002949 3313.17310 3366.04199
3307.0 0.0003024 3310.00391 3361.21924
3256.0 0.0003071 3306.84399 3357.76709
3303.0 0.0003028 3303.69434 3355.02686
3371.0 0.0002966 3300.55420 3352.68848
3339.0 0.0002995 3297.42310 3350.62012
3348.0 0.0002987 3294.30176 3348.76538
3362.0 0.0002974 3291.18994 3347.09570
3379.0 0.0002959 3288.08813 3345.59595
3367.0 0.0002970 3284.99561 3344.25732
3280.0 0.0003049 3281.91284 3343.07690
3245.0 0.0003082 3278.83936 3342.05493
3263.0 0.0003065 3275.77588 3341.19336
3295.0 0.0003035 3272.72192 3340.49829
3308.0 0.0003023 3269.67725 3339.97607
3348.0 0.0002987 3266.64233 3339.63599
3317.0 0.0003015 3263.61743 3339.48926
3253.0 0.0003074 3260.60205 3339.54834
3366.0 0.0002971 3257.59619 3339.82666
3387.0 0.0002952 3254.59961 3340.34155
3385.0 0.0002954 3251.61328 3341.11206
3349.0 0.0002986 3248.63647 3342.15967
3399.0 0.0002942 3245.66943 3343.50684
3403.0 0.0002939 3242.71167 3345.18091
3455.0 0.0002894 3239.76416 3347.21289
3446.0 0.0002902 3236.82617 3349.63672
3453.0 0.0002896 3233.89795 3352.49097
3497.0 0.0002860 3230.97949 3355.81958
3446.0 0.0002902 3228.07056 3359.67310
3379.0 0.0002959 3225.17139 3364.10889
3386.0 0.0002953 3222.28198 3369.19214
3338.0 0.0002996 3219.40283 3374.99829
3473.0 0.0002879 3216.53296 3381.61377
3399.0 0.0002942 3213.67310 3389.13989
3396.0 0.0002945 3210.82300 3397.69287
3406.0 0.0002936 3207.98291 3407.41016
3413.0 0.0002930 3205.15234 3418.45117
3371.0 0.0002966 3202.33203 3431.00610
3514.0 0.0002846 3199.52148 3445.29883
3537.0 0.0002827 3196.72070 3461.59766
3520.0 0.0002841 3193.92969 3480.22485
3529.0 0.0002834 3191.14917 3501.57056
3585.0 0.0002789 3188.37793 3526.10938
3638.0 0.0002749 3185.61694 3554.42529
3801.0 0.0002631 3182.86572 3587.24268
3748.0 0.0002668 3180.12476 3625.46631
3755.0 0.0002663 3177.39404 3670.24146
3758.0 0.0002661 3174.67285 3723.03247
3768.0 0.0002654 3171.96167 3785.62646
3800.0 0.0002632 3169.26099 3860.72803
3830.0 0.0002611 3166.57007 3951.54248
4053.0 0.0002467 3163.88916 4062.53296
4136.0 0.0002418 3161.21875 4200.18945
4193.0 0.0002385 3158.55811 4374.15430
4481.0 0.0002232 3155.90771 4601.12598
4699.0 0.0002128 3153.26733 4914.16357
5278.0 0.0001895 3150.63745 5383.45703
6134.0 0.0001630 3148.01782 6152.47559
7729.0 0.0001294 3145.40820 7479.69971
9981.0 0.0001002 3142.80884 9748.81836
13628.0 0.0000734 3140.21973 13389.23926
18367.0 0.0000544 3137.64063 18660.27148
24732.0 0.0000404 3135.07227 25271.77930
31760.0 0.0000315 3132.51392 31936.25391
37402.0 0.0000267 3129.96606 36666.75391
38960.0 0.0000257 3127.42847 38085.62500
36468.0 0.0000274 3124.90161 36049.92969
31816.0 0.0000314 3122.38477 31568.20313
26100.0 0.0000383 3119.87842 25849.67969
19892.0 0.0000503 3117.38184 19903.32422
14343.0 0.0000697 3114.89648 14719.18848
10567.0 0.0000946 3112.42188 10835.26270
7826.0 0.0001278 3109.95728 8222.74316
6320.0 0.0001582 3107.50317 6591.13184
5431.0 0.0001841 3105.05957 5611.81738
4986.0 0.0002006 3102.62695 5019.80615
4613.0 0.0002168 3100.20435 4641.19580
4406.0 0.0002270 3097.79272 4378.51172
4105.0 0.0002436 3095.39136 4182.57422
4089.0 0.0002446 3093.00098 4029.20166
3932.0 0.0002543 3090.62134 3905.63232
3891.0 0.0002570 3088.25195 3804.20898
3738.0 0.0002675 3085.89355 3719.79492
3600.0 0.0002778 3083.54565 3648.70850
3543.0 0.0002822 3081.20898 3588.22119
3383.0 0.0002956 3078.88257 3557.47363
3357.0 0.0002979 3076.56689 3513.24097
3448.0 0.0002900 3074.26270 3474.76611
3288.0 0.0003041 3071.96875 3451.56934
3312.0 0.0003019 3069.68555 3422.28320
3411.0 0.0002932 3067.41309 3396.41992
3330.0 0.0003003 3065.15234 3373.48022
3245.0 0.0003082 3062.90186 3353.05811
3266.0 0.0003062 3060.66235 3334.82031
3368.0 0.0002969 3058.43384 3318.49219
3281.0 0.0003048 3056.21606 3303.84692
3291.0 0.0003039 3054.00977 3290.69482
3314.0 0.0003018 3051.81396 3278.87842
3281.0 0.0003048 3049.62964 3268.26782
3299.0 0.0003031 3047.45605 3258.75317
3287.0 0.0003042 3045.29346 3250.24487
3274.0 0.0003054 3043.14209 3242.66943
3318.0 0.0003014 3041.00195 3235.96655
3223.0 0.0003103 3038.87256 3230.08960
3230.0 0.0003096 3036.75488 3225.00366
3289.0 0.0003040 3034.64771 3220.68262
3296.0 0.0003034 3032.55200 3217.11255
3278.0 0.0003051 3030.46729 3214.28760
3336.0 0.0002998 3028.39429 3212.21387
3223.0 0.0003103 3026.33203 3210.90527
3176.0 0.0003149 3024.28125 3210.38892
3159.0 0.0003166 3022.24170 3210.70117
3285.0 0.0003044 3020.21338 3211.89404
3358.0 0.0002978 3018.19629 3214.03296
3220.0 0.0003106 3016.19043 3217.20117
3182.0 0.0003143 3014.19604 3221.50269
3267.0 0.0003061 3012.21313 3227.06641
3278.0 0.0003051 3010.24121 3234.05005
3315.0 0.0003017 3008.28076 3242.64990
3342.0 0.0002992 3006.33203 3253.10840
3361.0 0.0002975 3004.39429 3265.72485
3383.0 0.0002956 3002.46826 3280.87378
3332.0 0.0003001 3000.55371 3299.02612
3406.0 0.0002936 2998.65015 3320.77759
3430.0 0.0002915 2996.75830 3346.89209
3479.0 0.0002874 2994.87793 3378.35767
3468.0 0.0002884 2993.00928 3416.46924
3426.0 0.0002919 2991.15186 3462.94824
3501.0 0.0002856 2989.30591 3520.13184
3606.0 0.0002773 2987.47144 3591.29443
3634.0 0.0002752 2985.64893 3681.34106
3698.0 0.0002704 2983.83765 3798.56177
3919.0 0.0002552 2982.03784 3959.23730
4326.0 0.0002312 2980.25000 4172.94287
4795.0 0.0002086 2978.47314 4565.10254
5578.0 0.0001793 2976.70801 5248.10596
6902.0 0.0001449 2974.95483 6425.18799
8903.0 0.0001123 2973.21313 8379.24512
11661.0 0.0000858 2971.48267 11280.93945
15321.0 0.0000653 2969.76416 15037.80273
19435.0 0.0000515 2968.05737 19018.60352
22694.0 0.0000441 2966.36230 22070.83789
23805.0 0.0000420 2964.67847 23252.57031
22528.0 0.0000444 2963.00635 22427.67773
19990.0 0.0000500 2961.34619 20160.00977
16993.0 0.0000588 2959.69751 17078.84180
13745.0 0.0000728 2958.06055 13683.63965
10543.0 0.0000948 2956.43530 10528.97852
7861.0 0.0001272 2954.82153 8036.91895
6187.0 0.0001616 2953.21948 6294.69922
5185.0 0.0001929 2951.62939 5179.73828
4538.0 0.0002204 2950.05078 4506.84375
4149.0 0.0002410 2948.48413 4107.32813
3891.0 0.0002570 2946.92871 3861.02808
3721.0 0.0002687 2945.38550 3696.73975
3572.0 0.0002800 2943.85352 3577.63086
3442.0 0.0002905 2942.33350 3485.87573
3386.0 0.0002953 2940.82495 3412.56689
3364.0 0.0002973 2939.32861 3352.69312
3275.0 0.0003053 2937.84375 3303.03613
3215.0 0.0003110 2936.37012 3261.33789
3174.0 0.0003151 2934.90894 3225.94360
3195.0 0.0003130 2933.45898 3195.60669
3202.0 0.0003123 2932.02051 3169.37598
3168.0 0.0003157 2930.59399 3146.51318
3151.0 0.0003174 2929.17944 3126.43896
3092.0 0.0003234 2927.77637 3108.69434
3085.0 0.0003241 2926.38477 3092.91040
3078.0 0.0003249 2925.00513 3078.78955
3097.0 0.0003229 2923.63696 3066.08862
3037.0 0.0003293 2922.28052 3054.60645
2997.0 0.0003337 2920.93579 3044.17871
3048.0 0.0003281 2919.60254 3034.66699
3020.0 0.0003311 2918.28125 3025.95459
3062.0 0.0003266 2916.97119 3018.33618
3005.0 0.0003328 2915.67310 3010.95557
3001.0 0.0003332 2914.38623 3004.12207
2945.0 0.0003396 2913.11108 2997.96826
2960.0 0.0003378 2911.84766 2992.06177
2952.0 0.0003388 2910.59570 2986.54443
2876.0 0.0003477 2909.35547 2981.37598
2924.0 0.0003420 2908.12671 2976.52344
2987.0 0.0003348 2906.90942 2971.95557
2963.0 0.0003375 2905.70386 2967.64648
2924.0 0.0003420 2904.50928 2963.57275
2913.0 0.0003433 2903.32666 2959.71411
2905.0 0.0003442 2902.15552 2956.05151
2908.0 0.0003439 2900.99561 2952.56958
2955.0 0.0003384 2899.84717 2949.25366
3003.0 0.0003330 2898.71045 2946.09082
2922.0 0.0003422 2897.58496 2943.06909
2967.0 0.0003370 2896.47095 2940.17896
2967.0 0.0003370 2895.36792 2937.41040
2882.0 0.0003470 2894.27661 2934.75562
2947.0 0.0003393 2893.19653 2932.20703
2914.0 0.0003432 2892.12744 2936.63647
2976.0 0.0003360 2891.07031 2934.53003
2950.0 0.0003390 2890.02393 2932.52490
2956.0 0.0003383 2888.98901 2913.04614
2877.0 0.0003476 2887.96509 2912.07202
2963.0 0.0003375 2886.95239 2911.15991
3022.0 0.0003309 2885.95117 2899.81641
3051.0 0.0003278 2884.96069 2899.39160
2967.0 0.0003370 2883.98145 2899.01318
3065.0 0.0003263 2883.01343 2898.68384
2952.0 0.0003388 2882.05640 2898.40796
2886.0 0.0003465 2881.11035 2898.18848
2991.0 0.0003343 2880.17529 2898.02930
2929.0 0.0003414 2879.25122 2897.93579
2936.0 0.0003406 2878.33813 2897.91284
2904.0 0.0003444 2877.43604 2897.96655
2824.0 0.000354 2876.54468 2898.10352
2926.0 0.0003418 2875.66382 2898.33032
2966.0 0.0003372 2874.79419 2898.65674
2914.0 0.0003432 2873.93555 2904.36963
2906.0 0.0003441 2873.08716 2905.07983
2875.0 0.0003478 2872.24976 2905.93018
2825.0 0.000354 2871.42285 2909.52197
2937.0 0.0003405 2870.60669 2910.77441
2870.0 0.0003484 2869.80078 2912.22168
2853.0 0.0003505 2869.00586 2913.96826
2970.0 0.0003367 2868.22144 2915.88403
2821.0 0.000354 2867.44751 2918.08032
3023.0 0.0003308 2866.68359 2920.63452
2899.0 0.0003449 2865.93066 2923.51538
2881.0 0.0003471 2865.18750 2926.81787
3047.0 0.0003282 2864.45508 2930.60962
2921.0 0.0003423 2863.73267 2934.97437
2948.0 0.0003392 2863.02075 2940.01514
3007.0 0.0003326 2862.31860 2945.86084
3056.0 0.0003272 2861.62695 2952.67725
3032.0 0.0003298 2860.94556 2960.68237
2912.0 0.0003434 2860.27393 2970.17993
3028.0 0.0003303 2859.61206 2981.63623
3065.0 0.0003263 2858.96045 2995.82910
3092.0 0.0003234 2858.31885 3014.12793
3133.0 0.0003192 2857.68701 3038.87012
3152.0 0.0003173 2857.06470 3073.67358
3160.0 0.0003165 2856.45239 3123.28394
3187.0 0.0003138 2855.84985 3192.59326
3276.0 0.0003053 2855.25684 3284.72974
3269.0 0.0003059 2854.67358 3398.37134
3342.0 0.0002992 2854.09985 3524.51294
3525.0 0.0002837 2853.53540 3649.28296
3758.0 0.0002661 2852.98047 3781.76538
3978.0 0.0002514 2852.43506 3991.75171
4447.0 0.0002249 2851.89893 4411.25000
5118.0 0.0001954 2851.37207 5214.06445
6299.0 0.0001588 2850.85425 6562.74512
8105.0 0.0001234 2850.34595 8476.72754
10505.0 0.0000952 2849.84644 10658.18652
12675.0 0.0000789 2849.35596 12447.23242
13509.0 0.0000740 2848.87451 13213.29980
12588.0 0.0000794 2848.40234 12851.72363
11393.0 0.0000878 2847.93872 11747.81055
10289.0 0.0000972 2847.48389 10256.05078
8538.0 0.0001171 2847.03809 8560.84473
6843.0 0.0001461 2846.60059 6888.14014
5329.0 0.0001877 2846.17188 5497.79980
4403.0 0.0002271 2845.75171 4507.03564
3862.0 0.0002589 2845.34009 3887.19507
3673.0 0.0002723 2844.93677 3539.26392
3416.0 0.0002927 2844.54199 3356.43066
3355.0 0.0002981 2844.15552 3259.84253
3306.0 0.0003025 2843.77710 3204.81982
3230.0 0.0003096 2843.40698 3170.63379
3213.0 0.0003112 2843.04468 3148.77563
3150.0 0.0003175 2842.69092 3135.80518
3120.0 0.0003205 2842.34448 3130.24805
3166.0 0.0003159 2842.00635 3131.53125
3155.0 0.0003170 2841.67603 3139.69678
3113.0 0.0003212 2841.35352 3155.43164
3146.0 0.0003179 2841.03833 3180.38184
3171.0 0.0003154 2840.73120 3218.01831
3209.0 0.0003116 2840.43115 3275.48535
3281.0 0.0003048 2840.13892 3366.80811
3471.0 0.0002881 2839.85376 3516.95581
3917.0 0.0002553 2839.57642 3764.32935
4274.0 0.0002340 2839.30591 4157.21484
4837.0 0.0002067 2839.04248 4769.37500
5599.0 0.0001786 2838.78638 5559.28955
6480.0 0.0001543 2838.53711 6506.50342
7512.0 0.0001331 2838.29492 7458.40186
8166.0 0.0001225 2838.05957 8093.15820
8346.0 0.0001198 2837.83105 8217.67285
8072.0 0.0001239 2837.60889 7934.09717
7594.0 0.0001317 2837.39355 7429.12793
6836.0 0.0001463 2837.18506 6758.43750
6121.0 0.0001634 2836.98267 5977.47461
5393.0 0.0001854 2836.78687 5219.25928
4710.0 0.0002123 2836.59717 4585.72803
4206.0 0.0002378 2836.41357 4107.51953
3871.0 0.0002583 2836.23657 3771.25537
3606.0 0.0002773 2836.06543 3544.55664
3458.0 0.0002892 2835.89990 3393.90088
3376.0 0.0002962 2835.74072 3293.26465
3253.0 0.0003074 2835.58716 3224.50073
3223.0 0.0003103 2835.43945 3175.89136
3183.0 0.0003142 2835.29736 3140.37866
3084.0 0.0003243 2835.16064 3113.76221
3099.0 0.0003227 2835.02954 3093.44019
3144.0 0.0003181 2834.90356 3077.73022
3145.0 0.0003180 2834.78345 3065.52100
3103.0 0.0003223 2834.66797 3056.06616
3062.0 0.0003266 2834.55786 3048.85791
3056.0 0.0003272 2834.45288 3043.53687
3048.0 0.0003281 2834.35254 3039.84155
3061.0 0.0003267 2834.25757 3037.58105
3088.0 0.0003238 2834.16650 3036.61255
3116.0 0.0003209 2834.08105 3036.83618
3047.0 0.0003282 2833.99951 3038.18018
3025.0 0.0003306 2833.92285 3040.60181
3019.0 0.0003312 2833.85059 3043.68604
2994.0 0.0003340 2833.78247 3048.23340
3006.0 0.0003327 2833.71875 3068.88965
3003.0 0.0003330 2833.65894 3076.07300
2986.0 0.0003349 2833.60352 3076.05420
2971.0 0.0003366 2833.55176 3085.96948
3075.0 0.0003252 2833.50391 3104.78125
3062.0 0.0003266 2833.45972 3117.78564
3022.0 0.0003309 2833.41943 3132.45850
3088.0 0.0003238 2833.38281 3148.99414
3126.0 0.0003199 2833.34961 3167.62598
3129.0 0.0003196 2833.31958 3188.64063
3111.0 0.0003214 2833.29297 3212.38110
3140.0 0.0003185 2833.26953 3239.26733
3241.0 0.0003085 2833.24951 3269.81128
3234.0 0.0003092 2833.23193 3304.64160
3303.0 0.0003028 2833.21753 3344.53809
3437.0 0.0002910 2833.20630 3390.47241
3460.0 0.0002890 2833.19727 3443.66602
3457.0 0.0002893 2833.19141 3505.67529
3432.0 0.0002914 2833.18750 3578.50073
3522.0 0.0002839 2833.18677 3664.75684
3648.0 0.0002741 2833.18774 3767.94141
3754.0 0.0002664 2833.19116 3892.94043
3909.0 0.0002558 2833.19678 4047.09766
4069.0 0.0002458 2833.20435 4242.65723
4315.0 0.0002317 2833.21411 4502.02197
4797.0 0.0002085 2833.22534 4867.76514
5491.0 0.0001821 2833.23877 5418.05762
6411.0 0.0001560 2833.25366 6283.39648
7749.0 0.0001290 2833.27002 7652.27930
9902.0 0.0001010 2833.28809 9770.16113
12629.0 0.0000792 2833.30737 12781.67676
16577.0 0.0000603 2833.32788 16754.34766
20996.0 0.0000476 2833.34961 21424.24609
25565.0 0.0000391 2833.37256 25993.91211
29181.0 0.0000343 2833.39624 29074.49805
29868.0 0.0000335 2833.42114 29721.89844
28414.0 0.0000352 2833.44678 28388.60742
25797.0 0.0000388 2833.47266 25979.64453
22680.0 0.0000441 2833.49951 22784.43750
19050.0 0.0000525 2833.52661 18987.48047
15313.0 0.0000653 2833.55420 15165.71484
11947.0 0.0000837 2833.58228 11877.82227
9300.0 0.0001075 2833.61035 9337.25879
7543.0 0.0001326 2833.63843 7526.71729
6422.0 0.0001557 2833.66650 6296.46875
5506.0 0.0001816 2833.69458 5494.54395
5033.0 0.0001987 2833.72241 4978.15625
4644.0 0.0002153 2833.75000 4643.15674
4472.0 0.0002236 2833.77710 4412.70313
4261.0 0.0002347 2833.80371 4248.80762
4055.0 0.0002466 2833.82983 4128.85352
4066.0 0.0002459 2833.85522 4040.71826
3888.0 0.0002572 2833.87964 3977.72925
3879.0 0.0002578 2833.90332 3936.10059
3761.0 0.0002659 2833.92578 3913.78125
3679.0 0.0002718 2833.94727 3910.02197
3731.0 0.0002680 2833.96753 3925.32349
3729.0 0.0002682 2833.98682 3961.78027
3907.0 0.0002560 2834.00415 4024.11084
4024.0 0.0002485 2834.02026 4122.01270
4178.0 0.0002393 2834.03467 4274.68164
4389.0 0.0002278 2834.04761 4517.80225
4890.0 0.0002045 2834.05859 4911.28271
5575.0 0.0001794 2834.06763 5542.34082
6471.0 0.0001545 2834.07471 6515.79395
7853.0 0.0001273 2834.07983 7925.05225
9966.0 0.0001003 2834.08276 9803.16016
12340.0 0.0000810 2834.08325 12050.95898
14528.0 0.0000688 2834.08130 14330.97070
16507.0 0.0000606 2834.07715 16021.16406
17164.0 0.0000583 2834.07031 16577.05469
16342.0 0.0000612 2834.06079 16091.30273
15139.0 0.0000661 2834.04834 15020.65918
13948.0 0.0000717 2834.03345 13575.49609
12183.0 0.0000821 2834.01514 11800.36328
10268.0 0.0000974 2833.99414 9916.82715
8440.0 0.0001185 2833.96973 8222.28125
6973.0 0.0001434 2833.94214 6872.93408
5998.0 0.0001667 2833.91138 5886.42920
5416.0 0.0001846 2833.87695 5217.43018
4867.0 0.0002055 2833.83911 4784.69238
4580.0 0.0002183 2833.79761 4521.89551
4392.0 0.0002277 2833.75244 4372.47803
4314.0 0.0002318 2833.70337 4300.26318
4236.0 0.0002361 2833.65039 4278.50879
4191.0 0.0002386 2833.59351 4299.00439
4267.0 0.0002344 2833.53247 4359.70166
4385.0 0.0002281 2833.46704 4465.94678
4588.0 0.0002180 2833.39771 4633.75098
4850.0 0.0002062 2833.32373 4899.66553
5422.0 0.0001844 2833.24536 5339.32080
6189.0 0.0001616 2833.16260 6091.54395
7484.0 0.0001336 2833.07495 7372.60107
9345.0 0.0001070 2832.98267 9451.93652
12444.0 0.0000804 2832.88574 12563.62598
16664.0 0.0000600 2832.78345 16754.81055
21542.0 0.0000464 2832.67676 21693.26367
26146.0 0.0000382 2832.56470 26457.54102
29607.0 0.0000338 2832.44751 29573.04102
30043.0 0.0000333 2832.32495 30060.94141
28069.0 0.0000356 2832.19678 28516.04883
25451.0 0.0000393 2832.06348 25999.09570
22545.0 0.0000444 2831.92480 22832.03906
19313.0 0.0000518 2831.78027 19055.14063
15242.0 0.0000656 2831.63013 15264.85352
12099.0 0.0000827 2831.47412 12053.63672
9809.0 0.0001019 2831.31226 9718.28711
8396.0 0.0001191 2831.14453 8285.30664
7794.0 0.0001283 2830.97046 7698.23730
7793.0 0.0001283 2830.79053 7793.02148
8380.0 0.0001193 2830.60449 8379.28320
9129.0 0.0001095 2830.41211 9206.17188
9725.0 0.0001028 2830.21313 9924.17285
9904.0 0.0001010 2830.00806 10184.81348
9673.0 0.0001034 2829.79590 9927.93457
9011.0 0.0001110 2829.57764 9365.31055
8447.0 0.0001184 2829.35254 8644.35547
7667.0 0.0001304 2829.12061 7775.37451
6818.0 0.0001467 2828.88184 6815.94092
5863.0 0.0001706 2828.63623 5907.12256
5225.0 0.0001914 2828.38354 5150.98340
4638.0 0.0002156 2828.12378 4575.14941
4171.0 0.0002398 2827.85693 4182.61719
3886.0 0.0002573 2827.58276 3902.24756
3690.0 0.0002710 2827.30127 3715.39771
3556.0 0.0002812 2827.01245 3590.10425
3427.0 0.0002918 2826.71606 3512.55005
3334.0 0.0002999 2826.41235 3449.47510
3318.0 0.0003014 2826.10083 3401.58887
3290.0 0.0003040 2825.78174 3364.32300
3279.0 0.0003050 2825.45483 3335.21021
3209.0 0.0003116 2825.12012 3312.87158
3160.0 0.0003165 2824.77759 3296.52441
3180.0 0.0003145 2824.42700 3285.77490
3157.0 0.0003168 2824.06836 3280.55127
3229.0 0.0003097 2823.70166 3281.12183
3230.0 0.0003096 2823.32715 3288.22852
3240.0 0.0003086 2822.94385 3303.46362
3267.0 0.0003061 2822.55273 3330.15015
3337.0 0.0002997 2822.15283 3360.26758
3445.0 0.0002903 2821.74463 3437.06470
3628.0 0.0002756 2821.32813 3568.03638
3854.0 0.0002595 2820.90283 3779.33667
4124.0 0.0002425 2820.46924 4126.70801
4534.0 0.0002206 2820.02686 4636.63916
5222.0 0.0001915 2819.57544 5316.55029
6150.0 0.0001626 2819.11548 6119.57275
6905.0 0.0001448 2818.64648 6909.10889
7509.0 0.0001332 2818.16895 7455.08154
7806.0 0.0001281 2817.68213 7585.47656
7533.0 0.0001327 2817.18628 7369.66797
7088.0 0.0001411 2816.68140 6980.50342
6676.0 0.0001498 2816.16748 6484.67090
6178.0 0.0001619 2815.64404 5881.73047
5475.0 0.0001826 2815.11182 5234.83008
4723.0 0.0002117 2814.56982 4645.12305
4247.0 0.0002355 2814.01880 4170.39502
3904.0 0.0002561 2813.45825 3820.57910
3601.0 0.0002777 2812.88818 3580.38159
3449.0 0.0002899 2812.30884 3424.53516
3376.0 0.0002962 2811.71948 3327.00122
3292.0 0.0003038 2811.12085 3266.46094
3194.0 0.0003131 2810.51245 3228.21899
3191.0 0.0003134 2809.89453 3203.45068
3154.0 0.0003171 2809.26660 3187.36597
3071.0 0.0003256 2808.62891 3177.50220
3148.0 0.0003177 2807.98145 3172.60205
3167.0 0.0003158 2807.32446 3172.01001
3142.0 0.0003183 2806.65698 3153.13330
3184.0 0.0003141 2805.97974 3161.02197
3217.0 0.0003108 2805.29248 3172.82324
3250.0 0.0003077 2804.59497 3177.01123
3279.0 0.0003050 2803.88770 3197.80786
3264.0 0.0003064 2803.17017 3223.69531
3325.0 0.0003008 2802.44238 3255.47754
3345.0 0.0002990 2801.70459 3294.24268
3383.0 0.0002956 2800.95654 3341.45020
3481.0 0.0002873 2800.19800 3399.06787
3566.0 0.0002804 2799.42920 3469.81299
3602.0 0.0002776 2798.65039 3557.64063
3604.0 0.0002775 2797.86084 3668.94922
3788.0 0.0002640 2797.06079 3815.62354
4106.0 0.0002435 2796.25049 4015.39380
4551.0 0.0002197 2795.42969 4333.09619
5061.0 0.0001976 2794.59839 4860.88770
5893.0 0.0001697 2793.75659 5765.97949
7131.0 0.0001402 2792.90430 7276.70996
9378.0 0.0001066 2792.04150 9639.43359
12515.0 0.0000799 2791.16772 12979.53223
16664.0 0.0000600 2790.28369 17156.35742
21466.0 0.0000466 2789.38892 21582.17383
25669.0 0.0000390 2788.48340 25105.62695
27039.0 0.0000370 2787.56738 26516.98047
25921.0 0.0000386 2786.64038 25779.68164
23692.0 0.0000422 2785.70264 23886.91211
21417.0 0.0000467 2784.75439 21486.51172
18709.0 0.0000535 2783.79517 18578.39258
15300.0 0.0000654 2782.82495 15259.77734
11842.0 0.0000844 2781.84424 12026.48340
9110.0 0.0001098 2780.85278 9303.52344
7079.0 0.0001413 2779.85034 7242.74707
5786.0 0.0001728 2778.83716 5812.20850
4829.0 0.0002071 2777.81299 4887.68408
4386.0 0.0002280 2776.77808 4317.26172
4040.0 0.0002475 2775.73193 3967.23535
3871.0 0.0002583 2774.67529 3743.07202
3637.0 0.0002750 2773.60742 3588.27881
3448.0 0.0002900 2772.52881 3472.94531
3437.0 0.0002910 2771.43921 3382.13940
3244.0 0.0003083 2770.33887 3308.20557
3188.0 0.0003137 2769.22754 3270.63696
3144.0 0.0003181 2768.10522 3219.49219
3043.0 0.0003286 2766.97192 3176.06274
3067.0 0.0003261 2765.82788 3138.85449
2951.0 0.0003389 2764.67261 3118.48853
2918.0 0.0003427 2763.50659 3090.82861
2996.0 0.0003338 2762.32959 3066.66138
2941.0 0.0003400 2761.14185 3040.85352
2921.0 0.0003423 2759.94287 3022.23169
2748.0 0.000364 2758.73315 3005.72192
2880.0 0.0003472 2757.51245 2991.02539
2831.0 0.000353 2756.28076 2975.61548
2838.0 0.000352 2755.03809 2963.91504
2710.0 0.000369 2753.78467 2953.40552
2851.0 0.000351 2752.52026 2943.94507
2789.0 0.000359 2751.24512 2935.41333
2802.0 0.000357 2749.95898 2927.70947
2813.0 0.000355 2748.66211 2920.74731
2739.0 0.000365 2747.35425 2914.45435
2889.0 0.0003461 2746.03540 2908.76831
2838.0 0.000352 2744.70605 2903.63599
2829.0 0.000353 2743.36572 2899.01221
2919.0 0.0003426 2742.01440 2894.85938
2863.0 0.0003493 2740.65259 2891.14355
2808.0 0.000356 2739.28027 2887.83911
2839.0 0.000352 2737.89673 2884.92139
2957.0 0.0003382 2736.50244 2882.37231
2952.0 0.0003388 2735.09766 2880.17676
2961.0 0.0003377 2733.68213 2878.64795
2953.0 0.0003386 2732.25586 2877.29492
2831.0 0.000353 2730.81885 2876.11328
2895.0 0.0003454 2729.37183 2875.25586
2989.0 0.0003346 2727.91382 2874.72119
2873.0 0.0003481 2726.44531 2874.75415
2907.0 0.0003440 2724.96606 2874.88086
2972.0 0.0003365 2723.47632 2875.34473
2855.0 0.0003503 2721.97632 2876.15454
2827.0 0.000354 2720.46582 2877.32349
2887.0 0.0003464 2718.94482 2878.86841
2932.0 0.0003411 2717.41357 2880.80591
2921.0 0.0003423 2715.87207 2883.15991
2929.0 0.0003414 2714.32007 2885.95605
2886.0 0.0003465 2712.75757 2889.22412
2856.0 0.0003501 2711.18506 2892.99976
2793.0 0.000358 2709.60229 2897.32251
2825.0 0.000354 2708.00952 2902.23999
2955.0 0.0003384 2706.40625 2907.80396
2951.0 0.0003389 2704.79321 2914.07666
2940.0 0.0003401 2703.16992 2921.12793
2905.0 0.0003442 2701.53687 2929.03906
2904.0 0.0003444 2699.89355 2937.90259
2901.0 0.0003447 2698.24048 2930.86157
2859.0 0.0003498 2696.57739 2942.55200
2898.0 0.0003451 2694.90454 2955.55469
2896.0 0.0003453 2693.22192 2970.03931
3020.0 0.0003311 2691.52930 2977.70532
3115.0 0.0003210 2689.82715 2996.08252
3018.0 0.0003313 2688.11548 3016.64795
2978.0 0.0003358 2686.39404 3039.73364
3048.0 0.0003281 2684.66309 3065.73779
3175.0 0.0003150 2682.92236 3095.13916
3216.0 0.0003109 2681.17236 3128.51904
3229.0 0.0003097 2679.41309 3166.58521
3294.0 0.0003036 2677.64429 3210.21118
3358.0 0.0002978 2675.86597 3260.48047
3388.0 0.0002952 2674.07910 3318.75195
3420.0 0.0002924 2672.28247 3386.74854
3607.0 0.0002772 2670.47681 3466.68506
3747.0 0.0002669 2668.66187 3561.47266
3898.0 0.0002565 2666.83838 3675.08984
4063.0 0.0002461 2665.00537 3813.36328
4376.0 0.0002285 2663.16382 3985.70752
4744.0 0.0002108 2661.31323 4208.93018
5286.0 0.0001892 2659.45386 4514.69287
5879.0 0.0001701 2657.58594 4961.96191
6715.0 0.0001489 2655.70923 5653.11816
8126.0 0.0001231 2653.82397 6746.56543
10062.0 0.0000994 2651.93018 8451.47461
12734.0 0.0000785 2650.02759 10988.59668
16625.0 0.0000602 2648.11694 14511.00684
21339.0 0.0000469 2646.19775 18993.08594
26570.0 0.0000376 2644.27051 24089.01172
31741.0 0.0000315 2642.33496 28959.60547
35218.0 0.0000284 2640.39136 32308.31250
36037.0 0.0000277 2638.43945 33203.57813
34693.0 0.0000288 2636.47974 32009.73242
32161.0 0.0000311 2634.51196 29743.06250
29188.0 0.0000343 2632.53613 26915.52734
25821.0 0.0000387 2630.55273 23486.66797
21791.0 0.0000459 2628.56152 19578.40234
17654.0 0.0000566 2626.56323 15707.45996
13932.0 0.0000718 2624.55664 12345.43945
10982.0 0.0000911 2622.54272 9692.10742
8920.0 0.0001121 2620.52148 7749.90918
7315.0 0.0001367 2618.49292 6420.46826
6228.0 0.0001606 2616.45679 5562.58105
5548.0 0.0001802 2614.41382 5029.65674
4937.0 0.0002026 2612.36328 4692.08105
4480.0 0.0002232 2610.30615 4449.49170
4122.0 0.0002426 2608.24219 4244.31641
3928.0 0.0002546 2606.17114 4060.95898
3751.0 0.0002666 2604.09302 3899.01221
3517.0 0.0002843 2602.00830 3753.88965
3407.0 0.0002935 2599.91699 3618.66870
3268.0 0.0003060 2597.81909 3493.83691
3104.0 0.0003222 2595.71484 3385.86182
3057.0 0.0003271 2593.60400 3299.82397
3141.0 0.0003184 2591.48730 3237.61890
3150.0 0.0003175 2589.36401 3198.53931
3125.0 0.0003200 2587.23462 3179.49512
3166.0 0.0003159 2585.09912 3174.90259
3246.0 0.0003081 2582.95752 3176.16626
3307.0 0.0003024 2580.81030 3172.14722
3253.0 0.0003074 2578.65698 3154.75562
3161.0 0.0003164 2576.49829 3125.61572
3184.0 0.0003141 2574.33423 3092.10303
3209.0 0.0003116 2572.16431 3057.14258
3101.0 0.0003225 2569.98877 3020.72583
2994.0 0.0003340 2567.80786 2983.54224
2957.0 0.0003382 2565.62158 2948.29590
2902.0 0.0003446 2563.43042 2919.19092
2842.0 0.000352 2561.23389 2897.81348
2877.0 0.0003476 2559.03271 2885.27344
2805.0 0.000357 2556.82642 2882.54272
2819.0 0.000355 2554.61572 2892.36133
2885.0 0.0003466 2552.40015 2915.40771
2891.0 0.0003459 2550.17969 2959.15845
2967.0 0.0003370 2547.95483 3032.49365
3078.0 0.0003249 2545.72534 3146.18408
3238.0 0.0003088 2543.49170 3311.14404
3412.0 0.0002931 2541.25366 3531.49878
3681.0 0.0002717 2539.01172 3803.59009
3975.0 0.0002516 2536.76587 4105.46436
4299.0 0.0002326 2534.51563 4388.34619
4535.0 0.0002205 2532.26172 4581.02539
4535.0 0.0002205 2530.00391 4633.96338
4534.0 0.0002206 2527.74243 4564.84863
4345.0 0.0002301 2525.47754 4427.76270
4118.0 0.0002428 2523.20898 4253.61426
3885.0 0.0002574 2520.93701 4042.64258
3671.0 0.0002724 2518.66235 3799.39355
3415.0 0.0002928 2516.38403 3550.57446
3269.0 0.0003059 2514.10278 3325.34839
3060.0 0.0003268 2511.81836 3138.86694
2876.0 0.0003477 2509.53101 2993.74463
2810.0 0.000356 2507.24097 2885.89893
2737.0 0.000365 2504.94800 2808.38599
2644.0 0.000378 2502.65259 2753.62671
2649.0 0.000378 2500.35498 2714.78467
2612.0 0.000383 2498.05518 2686.48999
2612.0 0.000383 2495.75269 2664.97461
2619.0 0.000382 2493.44800 2647.82129
2572.0 0.000389 2491.14136 2633.57202
2500.0 0.000400 2488.83252 2621.36914
2516.0 0.000397 2486.52197 2610.69922
2496.0 0.000401 2484.20947 2601.23145
2440.0 0.000410 2481.89551 2592.74390
2503.0 0.000400 2479.58032 2585.07178
2432.0 0.000411 2477.26318 2578.09033
2469.0 0.000405 2474.94482 2571.70264
2485.0 0.000402 2472.62500 2565.83301
2412.0 0.000415 2470.30420 2560.42285
2458.0 0.000407 2467.98218 2555.42212
2431.0 0.000411 2465.65942 2550.79614
2397.0 0.000417 2463.33545 2546.51685
2510.0 0.000398 2461.01147 2542.56396
2508.0 0.000399 2458.68628 2514.87500
2412.0 0.000415 2456.36060 2512.10913
2399.0 0.000417 2454.03442 2509.62646
2404.0 0.000416 2451.70825 2507.43481
2404.0 0.000416 2449.38159 2493.13647
2389.0 0.000419 2447.05469 2491.86304
2372.0 0.000422 2444.72778 2490.92725
2332.0 0.000429 2442.40112 2490.36694
2398.0 0.000417 2440.07495 2490.22998
2405.0 0.000416 2437.74878 2490.57983
2343.0 0.000427 2435.42261 2491.49976
2391.0 0.000418 2433.09741 2493.09473
2438.0 0.000410 2430.77271 2495.50635
2358.0 0.000424 2428.44849 2498.91895
2505.0 0.000399 2426.12524 2503.58521
2381.0 0.000420 2423.80273 2509.88135
2493.0 0.000401 2421.48193 2518.45459
2465.0 0.000406 2419.16187 2530.61792
2532.0 0.000395 2416.84277 2549.35278
2497.0 0.000400 2414.52515 2581.33032
2628.0 0.000381 2412.20874 2640.04736
2603.0 0.000384 2409.89404 2748.70654
2765.0 0.000362 2407.58105 2939.23779
2933.0 0.0003409 2405.26978 3242.87012
3234.0 0.0003092 2402.96069 3671.43872
3963.0 0.0002523 2400.65332 4196.11621
4586.0 0.0002181 2398.34766 4733.22363
5303.0 0.0001886 2396.04443 5149.70508
5626.0 0.0001777 2393.74316 5332.78516
5241.0 0.0001908 2391.44458 5302.79248
4888.0 0.0002046 2389.14819 5176.24707
4843.0 0.0002065 2386.85449 5027.66992
4907.0 0.0002038 2384.56348 4847.35010
4762.0 0.0002100 2382.27563 4600.98779
4308.0 0.0002321 2379.99023 4304.09082
4062.0 0.0002462 2377.70776 3999.11694
3634.0 0.0002752 2375.42847 3713.34131
3417.0 0.0002927 2373.15210 3461.70410
3217.0 0.0003108 2370.87915 3256.20752
3159.0 0.0003166 2368.60962 3089.69312
3028.0 0.0003303 2366.34351 2954.23389
2896.0 0.0003453 2364.08154 2837.93896
2712.0 0.000369 2361.82251 2736.66382
2661.0 0.000376 2359.56738 2653.17896
2561.0 0.000390 2357.31616 2585.15283
2512.0 0.000398 2355.06885 2532.87256
2448.0 0.000408 2352.82544 2493.90894
2424.0 0.000413 2350.58643 2465.39722
2389.0 0.000419 2348.35156 2444.55664
2380.0 0.000420 2346.12158 2429.02979
2320.0 0.000431 2343.89551 2417.03271
2328.0 0.000430 2341.67407 2405.35986
2351.0 0.000425 2339.45728 2397.26782
2366.0 0.000423 2337.24512 2390.25415
2359.0 0.000424 2335.03809 2384.03955
2351.0 0.000425 2332.83569 2378.44971
2389.0 0.000419 2330.63843 2372.38501
2309.0 0.000433 2328.44604 2367.74585
2319.0 0.000431 2326.25977 2363.46362
2397.0 0.000417 2324.07788 2359.48657
2331.0 0.000429 2321.90161 2355.77490
2304.0 0.000434 2319.73096 2352.29639
2280.0 0.000439 2317.56567 2349.02466
2241.0 0.000446 2315.40625 2345.93896
2260.0 0.000442 2313.25244 2343.03564
2273.0 0.000440 2311.10449 2340.27393
2294.0 0.000436 2308.96313 2337.65747
2286.0 0.000437 2306.82715 2335.17725
2303.0 0.000434 2304.69751 2332.82690
2325.0 0.000430 2302.57397 2330.60938
2309.0 0.000433 2300.45654 2328.50928
2384.0 0.000419 2298.34570 2326.53247
2331.0 0.000429 2296.24121 2324.67920
2234.0 0.000448 2294.14331 2322.95215
2246.0 0.000445 2292.05273 2321.35718
2233.0 0.000448 2289.96826 2319.89893
2244.0 0.000446 2287.89063 2318.58496
2261.0 0.000442 2285.82007 2317.42725
2271.0 0.000440 2283.75635 2316.47534
2327.0 0.000430 2281.69971 2315.67188
2288.0 0.000437 2279.65039 2315.73877
2264.0 0.000442 2277.60815 2315.38232
2329.0 0.000429 2275.57300 2315.28247
2323.0 0.000430 2273.54590 2315.49243
2306.0 0.000434 2271.52588 2316.01685
2285.0 0.000438 2269.51367 2317.25732
2291.0 0.000436 2267.50879 2318.62183
2351.0 0.000425 2265.51172 2320.51343
2352.0 0.000425 2263.52246 2323.02856
2285.0 0.000438 2261.54102 2326.29053
2299.0 0.000435 2259.56763 2330.45557
2378.0 0.000421 2257.60254 2335.72852
2380.0 0.000420 2255.64526 2342.37817
2371.0 0.000422 2253.69629 2350.79346
2381.0 0.000420 2251.75537 2361.58130
2417.0 0.000414 2249.82300 2375.80811
2434.0 0.000411 2247.89893 2395.50464
2456.0 0.000407 2245.98315 2424.59229
2522.0 0.000397 2244.07617 2470.29834
2608.0 0.000383 2242.17798 2544.72266
2747.0 0.000364 2240.28833 2665.57275
2991.0 0.0003343 2238.40723 2854.45874
3271.0 0.0003057 2236.53516 3131.39868
3739.0 0.0002675 2234.67188 3505.82202
4265.0 0.0002345 2232.81763 3964.92383
4834.0 0.0002069 2230.97241 4463.08447
5452.0 0.0001834 2229.13623 4911.13867
5766.0 0.0001734 2227.30908 5192.14111
5849.0 0.0001710 2225.49194 5240.51660
5708.0 0.0001752 2223.68335 5105.05664
5308.0 0.0001884 2221.88428 4882.46973
5066.0 0.0001974 2220.09448 4624.99170
4764.0 0.0002099 2218.31445 4328.53662
4410.0 0.0002268 2216.54370 3983.88477
3916.0 0.0002554 2214.78271 3619.37671
3442.0 0.0002905 2213.03125 3279.07397
3174.0 0.0003151 2211.28979 2992.68555
2912.0 0.0003434 2209.55811 2769.59497
2673.0 0.000374 2207.83594 2606.74048
2540.0 0.000394 2206.12378 2494.97778
2478.0 0.000404 2204.42139 2420.92334
2413.0 0.000414 2202.72925 2372.76367
2347.0 0.000426 2201.04712 2340.66846
2321.0 0.000431 2199.37500 2316.74316
2319.0 0.000431 2197.71338 2299.89087
2287.0 0.000437 2196.06177 2286.51978
2297.0 0.000435 2194.42017 2275.46875
2246.0 0.000445 2192.78906 2266.09546
2256.0 0.000443 2191.16846 2258.01733
2193.0 0.000456 2189.55811 2250.97925
2202.0 0.000454 2187.95825 2244.79907
2223.0 0.000450 2186.36890 2239.34106
2193.0 0.000456 2184.79004 2234.50122
2175.0 0.000460 2183.22192 2230.20020
2130.0 0.000469 2181.66455 2226.38257
2192.0 0.000456 2180.11743 2223.01172
2202.0 0.000454 2178.58130 2220.08081
2208.0 0.000453 2177.05591 2217.61865
2222.0 0.000450 2175.54126 2215.72534
2139.0 0.000468 2174.03735 2214.60059
2219.0 0.000451 2172.54443 2214.59058
2182.0 0.000458 2171.06274 2216.18384
2202.0 0.000454 2169.59180 2219.93286
2163.0 0.000462 2168.13184 2226.24268
2175.0 0.000460 2166.68262 2235.06836
2219.0 0.000451 2165.24487 2245.60034
2213.0 0.000452 2163.81812 2256.05396
2313.0 0.000432 2162.40234 2263.86597
2254.0 0.000444 2160.99780 2267.03174
2310.0 0.000433 2159.60474 2265.98779
2245.0 0.000445 2158.22266 2263.10547
2250.0 0.000444 2156.85181 2260.47681
2265.0 0.000442 2155.49219 2259.10010
2306.0 0.000434 2154.14404 2259.77026
2305.0 0.000434 2152.80688 2264.68799
2266.0 0.000441 2151.48145 2278.02783
2277.0 0.000439 2150.16699 2305.25952
2275.0 0.000440 2148.86450 2352.25562
2315.0 0.000432 2147.57324 2423.92847
2441.0 0.000410 2146.29346 2522.15381
2492.0 0.000401 2145.02490 2643.32910
2728.0 0.000367 2143.76807 2775.90039
2982.0 0.0003353 2142.52271 2897.17065
3064.0 0.0003264 2141.28882 2977.44214
3185.0 0.0003140 2140.06641 2997.44189
3029.0 0.0003301 2138.85571 2966.16846
2877.0 0.0003476 2137.65674 2908.32690
2948.0 0.0003392 2136.46924 2839.97241
2815.0 0.000355 2135.29321 2762.38379
2659.0 0.000376 2134.12891 2671.91406
2655.0 0.000377 2132.97632 2573.05762
2413.0 0.000414 2131.83521 2479.51123
2380.0 0.000420 2130.70581 2395.75342
2270.0 0.000441 2129.58789 2328.23560
2220.0 0.000450 2128.48218 2277.41479
2203.0 0.000454 2127.38770 2241.58276
2200.0 0.000455 2126.30518 2219.16846
2199.0 0.000455 2125.23413 2201.97900
2216.0 0.000451 2124.17480 2195.09570
2144.0 0.000466 2123.12744 2194.04248
2132.0 0.000469 2122.09155 2198.26636
2098.0 0.000477 2121.06738 2206.08276
2171.0 0.000461 2120.05493 2220.47583
2206.0 0.000453 2119.05444 2239.11914
2225.0 0.000449 2118.06519 2261.21606
2252.0 0.000444 2117.08789 2281.34326
2190.0 0.000457 2116.12231 2295.61548
2267.0 0.000441 2115.16846 2300.15552
2250.0 0.000444 2114.22632 2295.26172
2192.0 0.000456 2113.29590 2285.10034
2146.0 0.000466 2112.37695 2271.87793
2196.0 0.000455 2111.46997 2256.87451
2153.0 0.000464 2110.57446 2239.56226
2211.0 0.000452 2109.69067 2220.32349
2133.0 0.000469 2108.81860 2200.95361
2174.0 0.000460 2107.95801 2183.29907
2129.0 0.000470 2107.10938 2168.36523
2056.0 0.000486 2106.27197 2156.40479
2127.0 0.000470 2105.44629 2147.22827
2149.0 0.000465 2104.63232 2140.41772
2146.0 0.000466 2103.82983 2135.46436
2178.0 0.000459 2103.03906 2131.87524
2207.0 0.000453 2102.25977 2129.23755
2148.0 0.000466 2101.49194 2127.24219
2180.0 0.000459 2100.73560 2125.68262
2157.0 0.000464 2099.99072 2124.42920
2217.0 0.000451 2099.25732 2123.40649
2188.0 0.000457 2098.53540 2122.56958
2150.0 0.000465 2097.82495 2121.89551
2118.0 0.000472 2097.12598 2121.36890
2142.0 0.000467 2096.43823 2120.98413
2180.0 0.000459 2095.76196 2129.91187
2216.0 0.000451 2095.09692 2129.99414
2173.0 0.000460 2094.44312 2130.22729
2140.0 0.000467 2093.80054 2130.62256
2090.0 0.000478 2093.16943 2131.19287
2152.0 0.000465 2092.54956 2131.96191
2187.0 0.000457 2091.94092 2137.58374
2137.0 0.000468 2091.34326 2138.97827
2131.0 0.000469 2090.75659 2140.79175
2145.0 0.000466 2090.18140 2143.25830
2163.0 0.000462 2089.61694 2150.07422
2205.0 0.000454 2089.06372 2155.54565
2207.0 0.000453 2088.52148 2163.97632
2199.0 0.000455 2087.99023 2176.78174
2194.0 0.000456 2087.46973 2195.33936
2222.0 0.000450 2086.96021 2222.01147
2308.0 0.000433 2086.46143 2253.05249
2353.0 0.000425 2085.97363 2287.47559
2327.0 0.000430 2085.49658 2320.27539
2393.0 0.000418 2085.03027 2344.50146
2459.0 0.000407 2084.57446 2354.98828
2382.0 0.000420 2084.12964 2352.98755
2322.0 0.000431 2083.69507 2344.43286
2381.0 0.000420 2083.27124 2334.14844
2414.0 0.000414 2082.85815 2323.32544
2403.0 0.000416 2082.45508 2311.02441
2394.0 0.000418 2082.06299 2297.29248
2382.0 0.000420 2081.68066 2284.44482
2304.0 0.000434 2081.30908 2275.22803
2296.0 0.000436 2080.94775 2271.64746
2353.0 0.000425 2080.59668 2275.14917
2360.0 0.000424 2080.25562 2287.19385
2380.0 0.000420 2079.92505 2309.97266
2445.0 0.000409 2079.60425 2347.24463
2525.0 0.000396 2079.29346 2405.02661
2573.0 0.000389 2078.99268 2491.05957
2690.0 0.000372 2078.70215 2616.69946
2904.0 0.0003444 2078.42114 2790.68433
3066.0 0.0003262 2078.15015 3018.69531
3239.0 0.0003087 2077.88892 3298.68457
3572.0 0.0002800 2077.63745 3616.39429
3943.0 0.0002536 2077.39551 3938.46924
4108.0 0.0002434 2077.16333 4210.97363
4215.0 0.0002372 2076.94043 4376.07617
4277.0 0.0002338 2076.72729 4406.85742
4250.0 0.0002353 2076.52344 4336.90771
4161.0 0.0002403 2076.32910 4217.48193
4014.0 0.0002491 2076.14404 4079.91650
3854.0 0.0002595 2075.96826 3928.60742
3756.0 0.0002662 2075.80176 3759.67554
3567.0 0.0002803 2075.64429 3588.42041
3370.0 0.0002967 2075.49585 3441.81104
3348.0 0.0002987 2075.35645 3340.71558
3340.0 0.0002994 2075.22583 3289.89966
3385.0 0.0002954 2075.10425 3280.12744
3351.0 0.0002984 2074.99146 3288.77393
3288.0 0.0003041 2074.88745 3286.93481
3246.0 0.0003081 2074.79199 3255.59253
3244.0 0.0003083 2074.70532 3197.04004
3101.0 0.0003225 2074.62720 3125.34717
2976.0 0.0003360 2074.55737 3049.80103
2959.0 0.0003380 2074.49609 2969.69824
2910.0 0.0003436 2074.44312 2880.81323
2741.0 0.000365 2074.39868 2791.75366
2651.0 0.000377 2074.36230 2697.32349
2569.0 0.000389 2074.33374 2612.86938
2523.0 0.000396 2074.31372 2543.18311
2500.0 0.000400 2074.30127 2489.60010
2489.0 0.000402 2074.29712 2454.80908
2516.0 0.000397 2074.30054 2430.18506
2506.0 0.000399 2074.31201 2416.78076
2449.0 0.000408 2074.33081 2412.32520
2414.0 0.000414 2074.35767 2414.89697
2500.0 0.000400 2074.39185 2423.10303
2524.0 0.000396 2074.43335 2436.08960
2497.0 0.000400 2074.48267 2453.48730
2495.0 0.000401 2074.53906 2475.32349
2604.0 0.000384 2074.60278 2501.96460
2659.0 0.000376 2074.67383 2534.14233
2548.0 0.000392 2074.75195 2573.08691
2654.0 0.000377 2074.83691 2620.88184
2759.0 0.000362 2074.92896 2681.11816
2830.0 0.000353 2075.02783 2759.97998
2945.0 0.0003396 2075.13354 2867.69482
3131.0 0.0003194 2075.24585 3019.99927
3338.0 0.0002996 2075.36475 3238.86108
3672.0 0.0002723 2075.49048 3551.43481
4042.0 0.0002474 2075.62256 3986.53784
4452.0 0.0002246 2075.76099 4568.86523
5169.0 0.0001935 2075.90576 5311.65674
6087.0 0.0001643 2076.05688 6208.86133
7027.0 0.0001423 2076.21411 7223.33643
7985.0 0.0001252 2076.37744 8284.62305
8868.0 0.0001128 2076.54663 9325.16504
9975.0 0.0001003 2076.72192 10344.96484
11021.0 0.0000907 2076.90283 11400.35742
12362.0 0.0000809 2077.08984 12502.03320
13513.0 0.0000740 2077.28223 13534.39258
14362.0 0.0000696 2077.48022 14259.73535
14435.0 0.0000693 2077.68384 14448.37598
13999.0 0.0000714 2077.89307 14067.11230
13046.0 0.0000767 2078.10718 13298.27539
11774.0 0.0000849 2078.32690 12363.77930
11065.0 0.0000904 2078.55176 11378.73828
10039.0 0.0000996 2078.78149 10343.54980
9103.0 0.0001099 2079.01636 9233.33984
7914.0 0.0001264 2079.25610 8083.70215
6896.0 0.0001450 2079.50073 6981.08350
6034.0 0.0001657 2079.75024 6001.07959
5091.0 0.0001964 2080.00439 5180.46924
4466.0 0.0002239 2080.26294 4524.79297
4078.0 0.0002452 2080.52612 4022.03442
3685.0 0.0002714 2080.79370 3651.75732
3520.0 0.0002841 2081.06543 3390.83081
3326.0 0.0003007 2081.34155 3217.53882
3318.0 0.0003014 2081.62183 3114.34009
3142.0 0.0003183 2081.90625 3069.04102
3061.0 0.0003267 2082.19458 3074.38135
3123.0 0.0003202 2082.48657 3126.43262
3221.0 0.0003105 2082.78271 3222.13501
3348.0 0.0002987 2083.08228 3356.38550
3589.0 0.0002786 2083.38574 3520.55957
3689.0 0.0002711 2083.69263 3705.39063
3839.0 0.0002605 2084.00293 3903.13965
4085.0 0.0002448 2084.31689 4099.74170
4262.0 0.0002346 2084.63403 4264.93066
4397.0 0.0002274 2084.95435 4356.32813
4439.0 0.0002253 2085.27759 4357.57617
4389.0 0.0002278 2085.60400 4285.06689
4124.0 0.0002425 2085.93359 4179.45801
4004.0 0.0002498 2086.26563 4071.65747
3854.0 0.0002595 2086.60059 3972.77905
3815.0 0.0002621 2086.93823 3879.58643
3740.0 0.0002674 2087.27881 3804.87720
3748.0 0.0002668 2087.62134 3756.20239
3832.0 0.0002610 2087.96655 3759.66162
3808.0 0.0002626 2088.31421 3831.09814
3971.0 0.0002518 2088.66406 3983.19458
4200.0 0.0002381 2089.01611 4225.80176
4549.0 0.0002198 2089.37012 4586.49561
4929.0 0.0002029 2089.72632 5083.46484
5505.0 0.0001817 2090.08423 5744.95361
6323.0 0.0001582 2090.44409 6563.66504
7379.0 0.0001355 2090.80566 7484.66699
8364.0 0.0001196 2091.16895 8393.25098
9247.0 0.0001081 2091.53369 9122.13281
9793.0 0.0001021 2091.89990 9496.38379
9641.0 0.0001037 2092.26782 9463.11133
9037.0 0.0001107 2092.63672 9126.13086
8554.0 0.0001169 2093.00684 8641.38281
7986.0 0.0001252 2093.37817 8101.40918
7430.0 0.0001346 2093.75073 7511.52100
6988.0 0.0001431 2094.12427 6842.82568
6196.0 0.0001614 2094.49854 6106.31738
5377.0 0.0001860 2094.87354 5364.15674
4676.0 0.0002139 2095.24927 4682.17725
4140.0 0.0002415 2095.62598 4099.94727
3635.0 0.0002751 2096.00293 3630.04907
3265.0 0.0003063 2096.38062 3269.51929
3044.0 0.0003285 2096.75854 3004.76489
2849.0 0.000351 2097.13672 2817.03369
2725.0 0.000367 2097.51514 2686.69116
2595.0 0.000385 2097.89380 2596.59009
2611.0 0.000383 2098.27271 2532.78149
2573.0 0.000389 2098.65112 2486.02441
2483.0 0.000403 2099.02979 2450.23120
2412.0 0.000415 2099.40845 2421.70630
2418.0 0.000414 2099.78638 2398.27026
2337.0 0.000428 2100.16431 2378.62524
2343.0 0.000427 2100.54175 2361.95532
2402.0 0.000416 2100.91870 2347.71240
2321.0 0.000431 2101.29517 2335.50000
2295.0 0.000436 2101.67065 2325.01367
2302.0 0.000434 2102.04565 2318.00830
2232.0 0.000448 2102.41992 2310.35693
2281.0 0.000438 2102.79321 2303.85205
2305.0 0.000434 2103.16553 2298.36621
2287.0 0.000437 2103.53687 2293.80200
2279.0 0.000439 2103.90698 2290.07593
2246.0 0.000445 2104.27612 2288.11743
2245.0 0.000445 2104.64380 2285.91138
2263.0 0.000442 2105.01025 2284.39087
2248.0 0.000445 2105.37524 2283.52734
2230.0 0.000448 2105.73853 2283.30176
2245.0 0.000445 2106.10059 2283.70557
2274.0 0.000440 2106.46069 2284.74072
2251.0 0.000444 2106.81934 2286.41553
2207.0 0.000453 2107.17627 2288.74780
2234.0 0.000448 2107.53101 2291.76782
2243.0 0.000446 2107.88403 2295.51318
2284.0 0.000438 2108.23511 2300.03442
2343.0 0.000427 2108.58398 2305.39868
2340.0 0.000427 2108.93091 2311.68604
2319.0 0.000431 2109.27563 2318.99756
2281.0 0.000438 2109.61768 2327.45679
2313.0 0.000432 2109.95776 2337.21655
2358.0 0.000424 2110.29541 2339.02710
2333.0 0.000429 2110.63037 2352.19360
2296.0 0.000436 2110.96313 2367.37793
2351.0 0.000425 2111.29297 2384.97681
2413.0 0.000414 2111.62012 2405.54077
2455.0 0.000407 2111.94482 2429.88892
2489.0 0.000402 2112.26636 2451.79663
2484.0 0.000403 2112.58521 2488.71924
2553.0 0.000392 2112.90112 2536.74878
2633.0 0.000380 2113.21387 2602.16772
2804.0 0.000357 2113.52368 2694.82886
2904.0 0.0003444 2113.83057 2834.03442
3015.0 0.0003317 2114.13379 3028.36011
3282.0 0.0003047 2114.43408 3303.86328
3599.0 0.0002779 2114.73096 3680.22388
4170.0 0.0002398 2115.02466 4169.71973
4791.0 0.0002087 2115.31470 4772.71094
5410.0 0.0001848 2115.60132 5461.79102
6133.0 0.0001631 2115.88452 6178.64355
6971.0 0.0001435 2116.16406 6831.64111
7484.0 0.0001336 2116.43970 7303.26611
7617.0 0.0001313 2116.71191 7513.17822
7309.0 0.0001368 2116.98022 7483.09131
7020.0 0.0001425 2117.24487 7309.30518
6828.0 0.0001465 2117.50537 7089.29492
6692.0 0.0001494 2117.76196 6867.96631
6437.0 0.0001554 2118.01465 6644.47266
6282.0 0.0001592 2118.26343 6412.76660
6137.0 0.0001629 2118.50806 6196.71826
5878.0 0.0001701 2118.74854 6039.58643
5808.0 0.0001722 2118.98462 5970.73096
5932.0 0.0001686 2119.21680 5988.84961
6023.0 0.0001660 2119.44458 6065.38867
6170.0 0.0001621 2119.66797 6164.38477
6346.0 0.0001576 2119.88696 6275.24854
6360.0 0.0001572 2120.10132 6425.42773
6652.0 0.0001503 2120.31152 6654.32568
6843.0 0.0001461 2120.51709 6978.29346
7279.0 0.0001374 2120.71802 7374.58398
7944.0 0.0001259 2120.91431 7783.36279
8308.0 0.0001204 2121.10596 8119.29492
8567.0 0.0001167 2121.29297 8300.33398
8390.0 0.0001192 2121.47534 8271.30469
8021.0 0.0001247 2121.65283 8050.96826
7618.0 0.0001313 2121.82544 7705.03320
7169.0 0.0001395 2121.99316 7287.73877
6932.0 0.0001443 2122.15601 6850.40918
6400.0 0.0001562 2122.31421 6386.44775
5898.0 0.0001695 2122.46704 5890.85693
5470.0 0.0001828 2122.61499 5380.59863
4988.0 0.0002005 2122.75781 4890.23730
4486.0 0.0002229 2122.89575 4454.98340
4244.0 0.0002356 2123.02832 4107.28613
3980.0 0.0002513 2123.15601 3875.08032
3982.0 0.0002511 2123.27832 3781.83594
4058.0 0.0002464 2123.39526 3843.84375
4161.0 0.0002403 2123.50732 4064.20703
4434.0 0.0002255 2123.61377 4423.77881
4979.0 0.0002008 2123.71509 4875.73535
5309.0 0.0001884 2123.81128 5341.75244
5801.0 0.0001724 2123.90161 5717.53955
5822.0 0.0001718 2123.98657 5904.60693
5593.0 0.0001788 2124.06641 5872.54834
5323.0 0.0001879 2124.14087 5680.12793
5105.0 0.0001959 2124.20947 5415.94141
4753.0 0.0002104 2124.27271 5137.69141
4653.0 0.0002149 2124.33057 4855.25146
4464.0 0.0002240 2124.38281 4547.32080
4025.0 0.0002484 2124.42944 4202.14648
3828.0 0.0002612 2124.47046 3838.80298
3596.0 0.0002781 2124.50586 3490.41602
3073.0 0.0003254 2124.53564 3183.91235
2926.0 0.0003418 2124.55981 2934.42480
2835.0 0.000353 2124.57813 2745.88696
2639.0 0.000379 2124.59106 2612.84058
2546.0 0.000393 2124.59790 2524.51392
2485.0 0.000402 2124.59912 2468.47998
2465.0 0.000406 2124.59473 2433.76465
2434.0 0.000411 2124.58447 2412.23853
2385.0 0.000419 2124.56860 2398.65234
2361.0 0.000424 2124.54688 2389.97192
2309.0 0.000433 2124.51929 2384.58667
2365.0 0.000423 2124.48608 2381.69385
2333.0 0.000429 2124.44678 2380.90576
2367.0 0.000422 2124.40186 2382.04834
2348.0 0.000426 2124.35107 2385.06128
2323.0 0.000430 2124.29419 2389.95728
2245.0 0.000445 2124.23169 2396.81226
2379.0 0.000420 2124.16333 2405.76221
2414.0 0.000414 2124.08887 2417.00439
2382.0 0.000420 2124.00879 2430.82349
2511.0 0.000398 2123.92285 2447.73267
2433.0 0.000411 2123.83081 2468.05542
2545.0 0.000393 2123.73315 2492.74658
2551.0 0.000392 2123.62939 2523.10742
2569.0 0.000389 2123.51978 2561.21973
2740.0 0.000365 2123.40430 2610.44067
2784.0 0.000359 2123.28271 2676.12061
2916.0 0.0003429 2123.15576 2766.14160
2991.0 0.0003343 2123.02246 2891.95947
3226.0 0.0003100 2122.88330 3068.61938
3396.0 0.0002945 2122.73853 3314.24927
3692.0 0.0002709 2122.58765 3648.29639
4195.0 0.0002384 2122.43091 4088.50757
4684.0 0.0002135 2122.26831 4646.76318
5288.0 0.0001891 2122.09985 5323.80957
6042.0 0.0001655 2121.92554 6102.30762
6974.0 0.0001434 2121.74536 6937.64209
7863.0 0.0001272 2121.55957 7751.31543
8475.0 0.0001180 2121.36768 8444.18359
8859.0 0.0001129 2121.16992 8943.17383
9172.0 0.0001090 2120.96655 9239.70020
9148.0 0.0001093 2120.75732 9370.86133
9242.0 0.0001082 2120.54224 9357.19141
9112.0 0.0001097 2120.32129 9182.26855
8860.0 0.0001129 2120.09473 8826.31543
8388.0 0.0001192 2119.86230 8307.02246
7710.0 0.0001297 2119.62427 7682.29883
6957.0 0.0001437 2119.38037 7022.98340
6330.0 0.0001580 2119.13086 6372.22266
5748.0 0.0001740 2118.87573 5749.24902
5225.0 0.0001914 2118.61475 5161.68652
4733.0 0.0002113 2118.34814 4624.68311
4171.0 0.0002398 2118.07593 4156.11523
3845.0 0.0002601 2117.79834 3766.69751
3561.0 0.0002808 2117.51489 3458.42944
3337.0 0.0002997 2117.22607 3224.84692
3119.0 0.0003206 2116.93140 3058.66040
3080.0 0.0003247 2116.63159 2951.36426
2910.0 0.0003436 2116.32568 2894.46411
2885.0 0.0003466 2116.01489 2879.90845
2950.0 0.0003390 2115.69824 2894.60962
2997.0 0.0003337 2115.37646 2942.34277
3044.0 0.0003285 2115.04932 3010.84985
3120.0 0.0003205 2114.71655 3095.73804
3183.0 0.0003142 2114.37842 3195.59717
3292.0 0.0003038 2114.03516 3310.41479
3455.0 0.0002894 2113.68652 3426.66504
3538.0 0.0002826 2113.33252 3536.03882
3667.0 0.0002727 2112.97339 3610.44287
3705.0 0.0002699 2112.60913 3641.95068
3652.0 0.0002738 2112.23950 3626.89551
3564.0 0.0002806 2111.86475 3582.12158
3460.0 0.0002890 2111.48511 3524.19751
3427.0 0.0002918 2111.10034 3463.98608
3366.0 0.0002971 2110.71021 3396.70288
3371.0 0.0002966 2110.31543 3325.62378
3293.0 0.0003037 2109.91553 3241.83447
3148.0 0.0003177 2109.51050 3145.87378
3057.0 0.0003271 2109.10083 3041.13428
2988.0 0.0003347 2108.68628 2936.37695
2914.0 0.0003432 2108.26685 2837.59546
2749.0 0.000364 2107.84277 2749.74585
2652.0 0.000377 2107.41357 2674.37036
2602.0 0.000384 2106.97998 2610.12842
2544.0 0.000393 2106.54175 2554.73218
2517.0 0.000397 2106.09863 2507.03931
2502.0 0.000400 2105.65088 2467.57300
2456.0 0.000407 2105.19873 2437.44238
2428.0 0.000412 2104.74219 2417.23315
2387.0 0.000419 2104.28101 2406.61353
2344.0 0.000427 2103.81543 2404.29858
2345.0 0.000426 2103.34546 2407.97534
2353.0 0.000425 2102.87134 2414.18213
2450.0 0.000408 2102.39258 2418.60889
2473.0 0.000404 2101.90991 2417.50684
2406.0 0.000416 2101.42285 2409.69067
2373.0 0.000421 2100.93164 2396.84961
2330.0 0.000429 2100.43628 2381.64746
2336.0 0.000428 2099.93701 2365.80957
2385.0 0.000419 2099.43335 2349.56226
2370.0 0.000422 2098.92603 2332.26489
2357.0 0.000424 2098.41455 2313.65210
2335.0 0.000428 2097.89941 2294.54395
2266.0 0.000441 2097.38037 2276.37866
2190.0 0.000457 2096.85767 2260.41309
2254.0 0.000444 2096.33105 2247.43604
2262.0 0.000442 2095.80078 2237.87012
2277.0 0.000439 2095.26685 2231.96411
2248.0 0.000445 2094.72949 2229.97070
2196.0 0.000455 2094.18848 2232.34082
2220.0 0.000450 2093.64404 2239.98462
2270.0 0.000441 2093.09619 2254.64282
2294.0 0.000436 2092.54492 2279.24170
2374.0 0.000421 2091.99023 2318.17065
2342.0 0.000427 2091.43237 2377.09790
2420.0 0.000413 2090.87134 2461.92676
2483.0 0.000403 2090.30713 2576.70679
2675.0 0.000374 2089.73975 2720.87451
2811.0 0.000356 2089.16943 2887.00854
2977.0 0.0003359 2088.59595 3060.08496
3248.0 0.0003079 2088.01953 3217.99341
3562.0 0.0002807 2087.44043 3333.93555
3593.0 0.0002783 2086.85840 3385.81738
3498.0 0.0002859 2086.27344 3371.27783
3192.0 0.0003133 2085.68604 3309.67871
2984.0 0.0003351 2085.09570 3226.33154
2930.0 0.0003413 2084.50293 3138.45801
3044.0 0.0003285 2083.90747 3050.86792
3048.0 0.0003281 2083.30957 2959.02368
2935.0 0.0003407 2082.70947 2858.36890
2777.0 0.000360 2082.10669 2752.15405
2658.0 0.000376 2081.50171 2649.57007
2523.0 0.000396 2080.89453 2560.18506
2427.0 0.000412 2080.28516 2491.54395
2348.0 0.000426 2079.67334 2449.03418
2422.0 0.000413 2079.05957 2436.47339
2400.0 0.000417 2078.44385 2451.98975
2538.0 0.000394 2077.82617 2509.50781
2567.0 0.000390 2077.20679 2608.11426
2763.0 0.000362 2076.58521 2751.97803
2910.0 0.0003436 2075.96191 2943.26294
2969.0 0.0003368 2075.33691 3176.98706
3314.0 0.0003018 2074.71045 3446.35986
3593.0 0.0002783 2074.08203 3734.35229
3928.0 0.0002546 2073.45239 4006.78101
4165.0 0.0002401 2072.82104 4222.59863
4230.0 0.0002364 2072.18823 4345.82422
4253.0 0.0002351 2071.55420 4365.82178
4161.0 0.0002403 2070.91895 4307.24561
3989.0 0.0002507 2070.28223 4204.12354
3949.0 0.0002532 2069.64453 4084.00513
3935.0 0.0002541 2069.00537 3958.39575
3707.0 0.0002698 2068.36548 3827.41846
3685.0 0.0002714 2067.72461 3693.02954
3608.0 0.0002772 2067.08252 3569.54272
3465.0 0.0002886 2066.43970 3481.28101
3395.0 0.0002946 2065.79614 3452.74194
3463.0 0.0002888 2065.15161 3500.98950
3562.0 0.0002807 2064.50659 3631.80322
3886.0 0.0002573 2063.86060 3837.43750
3968.0 0.0002520 2063.21436 4094.82910
4444.0 0.0002250 2062.56763 4364.25439
4586.0 0.0002181 2061.92041 4591.50488
4744.0 0.0002108 2061.27271 4722.55322
4725.0 0.0002116 2060.62476 4732.39990
4555.0 0.0002195 2059.97632 4640.43164
4453.0 0.0002246 2059.32788 4488.65088
4176.0 0.0002395 2058.67920 4315.98633
3962.0 0.0002524 2058.03052 4135.68018
3972.0 0.0002518 2057.38159 3942.84106
3677.0 0.0002720 2056.73291 3727.26685
3421.0 0.0002923 2056.08447 3490.20386
3253.0 0.0003074 2055.43579 3246.20410
2981.0 0.0003355 2054.78760 3015.01025
2800.0 0.000357 2054.13965 2809.30298
2576.0 0.000388 2053.49194 2635.72021
2451.0 0.000408 2052.84473 2497.01538
2473.0 0.000404 2052.19775 2390.90039
2427.0 0.000412 2051.55151 2312.91357
2315.0 0.000432 2050.90576 2257.31201
2258.0 0.000443 2050.26074 2218.28198
2231.0 0.000448 2049.61646 2190.56934
2237.0 0.000447 2048.97266 2170.67529
2228.0 0.000449 2048.32983 2155.64404
2198.0 0.000455 2047.68787 2144.22534
2100.0 0.000476 2047.04688 2134.16089
2114.0 0.000473 2046.40674 2125.27637
2081.0 0.000481 2045.76758 2117.11011
2060.0 0.000485 2045.12976 2109.62598
2120.0 0.000472 2044.49304 2102.19922
2172.0 0.000460 2043.85754 2095.07935
2143.0 0.000467 2043.22314 2088.51001
2078.0 0.000481 2042.59021 2082.54614
2130.0 0.000469 2041.95862 2077.55981
2196.0 0.000455 2041.32849 2073.70239
2130.0 0.000469 2040.69971 2070.97192
2154.0 0.000464 2040.07275 2068.80542
2074.0 0.000482 2039.44727 2067.00415
2101.0 0.000476 2038.82336 2065.29102
2107.0 0.000475 2038.20129 2063.80737
2142.0 0.000467 2037.58093 2062.52783
2156.0 0.000464 2036.96240 2061.49707
2155.0 0.000464 2036.34570 2060.66821
2122.0 0.000471 2035.73108 2059.93628
2177.0 0.000459 2035.11829 2059.20117
2268.0 0.000441 2034.50769 2059.53760
2271.0 0.000440 2033.89917 2058.65845
2161.0 0.000463 2033.29260 2057.68066
2160.0 0.000463 2032.68823 2056.61963
2192.0 0.000456 2032.08618 2055.50195
2205.0 0.000454 2031.48645 2054.35425
2132.0 0.000469 2030.88904 2053.20410
2081.0 0.000481 2030.29395 2054.00293
2198.0 0.000455 2029.70154 2052.94946
2141.0 0.000467 2029.11145 2051.93896
2049.0 0.000488 2028.52380 2050.96802
2025.0 0.000494 2027.93884 2049.91187
2020.0 0.000495 2027.35645 2049.00903
2017.0 0.000496 2026.77673 2048.13306
2097.0 0.000477 2026.19983 2047.95911
2065.0 0.000484 2025.62573 2047.25598
2048.0 0.000488 2025.05444 2046.46924
2006.0 0.000499 2024.48608 2044.96057
2022.0 0.000495 2023.92041 2044.24084
2053.0 0.000487 2023.35791 2043.54810
2049.0 0.000488 2022.79822 2042.88293
2028.0 0.000493 2022.24170 2042.24634
2015.0 0.000496 2021.68823 2041.69348
2023.0 0.000494 2021.13782 2041.11609
2089.0 0.000479 2020.59058 2040.56824
2062.0 0.000485 2020.04675 2040.58081
1998.0 0.000501 2019.50610 2040.10559
2003.0 0.000499 2018.96863 2039.66223
1994.0 0.000502 2018.43445 2039.24988
2044.0 0.000489 2017.90381 2038.87061
2034.0 0.000492 2017.37634 2038.52441
2008.0 0.000498 2016.85266 2038.47192
2027.0 0.000493 2016.33215 2038.20251
2005.0 0.000499 2015.81543 2037.97058
2016.0 0.000496 2015.30212 2037.77795
2042.0 0.000490 2014.79236 2037.62659
2056.0 0.000486 2014.28638 2037.51770
2018.0 0.000496 2013.78394 2037.45459
2005.0 0.000499 2013.28516 2035.84753
2039.0 0.000490 2012.79016 2035.91675
2003.0 0.000499 2012.29895 2035.80359
2068.0 0.000484 2011.81165 2037.02588
2106.0 0.000475 2011.32800 2037.83508
2036.0 0.000491 2010.84827 2038.18164
2020.0 0.000495 2010.37244 2038.60254
2044.0 0.000489 2009.90051 2038.31946
2047.0 0.000489 2009.43250 2038.80664
2044.0 0.000489 2008.96851 2039.51099
2028.0 0.000493 2008.50854 2040.83740
2010.0 0.000498 2008.05261 2041.77539
1963.0 0.000509 2007.60071 2043.11829
1997.0 0.000501 2007.15295 2044.33838
2005.0 0.000499 2006.70923 2045.72156
1980.0 0.000505 2006.26965 2047.44128
2016.0 0.000496 2005.83423 2049.22021
2042.0 0.000490 2005.40295 2051.23584
2030.0 0.000493 2004.97595 2051.74854
2018.0 0.000496 2004.55322 2054.38501
2019.0 0.000495 2004.13464 2057.38452
2061.0 0.000485 2003.72046 2060.81543
2087.0 0.000479 2003.31042 2064.84375
2208.0 0.000453 2002.90491 2069.44800
2160.0 0.000463 2002.50354 2074.00903
2083.0 0.000480 2002.10657 2080.64673
2146.0 0.000466 2001.71387 2088.95044
2154.0 0.000464 2001.32556 2099.70996
2180.0 0.000459 2000.94189 2114.11548
2096.0 0.000477 2000.56250 2133.87842
2104.0 0.000475 2000.18750 2161.29688
2137.0 0.000468 1999.81702 2199.24438
2175.0 0.000460 1999.45081 2251.04150
2271.0 0.000440 1999.08923 2320.21313
2408.0 0.000415 1998.73193 2410.13672
2513.0 0.000398 1998.37939 2523.66113
2641.0 0.000379 1998.03125 2662.48462
2833.0 0.000353 1997.68762 2826.15039
2984.0 0.0003351 1997.34839 3010.72290
3185.0 0.0003140 1997.01392 3209.82568
3361.0 0.0002975 1996.68372 3411.01929
3409.0 0.0002933 1996.35828 3607.87476
3618.0 0.0002764 1996.03735 3793.27344
3924.0 0.0002548 1995.72083 3955.43384
4293.0 0.0002329 1995.40906 4074.93091
4372.0 0.0002287 1995.10168 4129.62891
4302.0 0.0002325 1994.79895 4108.26025
4071.0 0.0002456 1994.50085 4019.80615
3833.0 0.0002609 1994.20728 3885.32104
3547.0 0.0002819 1993.91821 3732.03906
3404.0 0.0002938 1993.63379 3576.04346
3380.0 0.0002959 1993.35400 3421.95972
3301.0 0.0003029 1993.07861 3267.22876
3159.0 0.0003166 1992.80798 3110.29712
2995.0 0.0003339 1992.54175 2957.08228
2756.0 0.000363 1992.28027 2815.31519
2654.0 0.000377 1992.02319 2695.59351
2480.0 0.000403 1991.77063 2605.51440
2463.0 0.000406 1991.52283 2550.61792
2542.0 0.000393 1991.27942 2534.69531
2573.0 0.000389 1991.04065 2559.93921
2671.0 0.000374 1990.80627 2626.88672
2721.0 0.000368 1990.57666 2734.22534
2819.0 0.000355 1990.35132 2878.26880
3046.0 0.0003283 1990.13049 3052.05322
3363.0 0.0002974 1989.91431 3244.04004
3392.0 0.0002948 1989.70251 3436.80371
3655.0 0.0002736 1989.49524 3607.31494
3922.0 0.0002550 1989.29236 3731.66821
3828.0 0.0002612 1989.09399 3794.53833
3774.0 0.0002650 1988.90002 3796.70703
3727.0 0.0002683 1988.71045 3753.01074
3496.0 0.0002860 1988.52539 3682.18359
3423.0 0.0002921 1988.34460 3597.03979
3432.0 0.0002914 1988.16833 3500.85156
3379.0 0.0002959 1987.99609 3390.28320
3201.0 0.0003124 1987.82849 3262.27466
3133.0 0.0003192 1987.66516 3119.67505
2897.0 0.0003452 1987.50610 2971.20898
2804.0 0.000357 1987.35144 2827.11572
2685.0 0.000372 1987.20093 2695.23999
2527.0 0.000396 1987.05457 2579.84888
2494.0 0.000401 1986.91248 2482.29736
2312.0 0.000433 1986.77466 2402.20557
2289.0 0.000437 1986.64099 2338.41650
2246.0 0.000445 1986.51135 2289.43848
2246.0 0.000445 1986.38599 2253.62036
2227.0 0.000449 1986.26465 2229.32471
2197.0 0.000455 1986.14746 2215.40186
2193.0 0.000456 1986.03418 2211.43774
2270.0 0.000441 1985.92505 2218.64087
2193.0 0.000456 1985.81982 2237.16772
2195.0 0.000456 1985.71863 2269.96313
2309.0 0.000433 1985.62122 2319.68774
2366.0 0.000423 1985.52795 2388.75708
2415.0 0.000414 1985.43835 2478.48340
2430.0 0.000412 1985.35266 2588.23706
2629.0 0.000380 1985.27075 2714.88354
2824.0 0.000354 1985.19275 2850.62573
2960.0 0.0003378 1985.11829 2984.25024
3224.0 0.0003102 1985.04773 3099.97437
3251.0 0.0003076 1984.98071 3181.14014
3241.0 0.0003085 1984.91748 3217.86157
3155.0 0.0003170 1984.85779 3215.40479
3094.0 0.0003232 1984.80176 3183.87524
3102.0 0.0003224 1984.74902 3141.09692
3074.0 0.0003253 1984.69995 3098.03467
3060.0 0.0003268 1984.65442 3058.78662
3069.0 0.0003258 1984.61218 3022.36450
3008.0 0.0003324 1984.57336 2987.06006
2920.0 0.0003425 1984.53784 2954.38232
2898.0 0.0003451 1984.50574 2929.72388
2788.0 0.000359 1984.47693 2914.96094
2762.0 0.000362 1984.45117 2912.17529
2830.0 0.000353 1984.42871 2920.55005
2933.0 0.0003409 1984.40942 2939.14990
2972.0 0.0003365 1984.39319 2966.63965
3044.0 0.0003285 1984.38000 2999.00854
3177.0 0.0003148 1984.37000 3028.21240
3260.0 0.0003067 1984.36279 3043.97998
3202.0 0.0003123 1984.35840 3038.74341
3100.0 0.0003226 1984.35718 3012.20239
3151.0 0.0003174 1984.35864 2971.10400
3131.0 0.0003194 1984.36304 2924.78149
3093.0 0.0003233 1984.36987 2881.37231
2976.0 0.0003360 1984.37976 2844.07544
3015.0 0.0003317 1984.39209 2815.31934
2955.0 0.0003384 1984.40710 2797.15259
2914.0 0.0003432 1984.42468 2793.85278
2943.0 0.0003398 1984.44482 2811.53809
3011.0 0.0003321 1984.46729 2856.95288
3013.0 0.0003319 1984.49231 2931.66528
3104.0 0.0003222 1984.51965 3036.38989
3180.0 0.0003145 1984.54919 3168.11719
3354.0 0.0002982 1984.58118 3319.61621
3549.0 0.0002818 1984.61523 3479.43628
3653.0 0.0002737 1984.65161 3633.60181
3704.0 0.0002700 1984.68994 3771.74121
3769.0 0.0002653 1984.73035 3891.50903
3914.0 0.0002555 1984.77295 4004.77368
3980.0 0.0002513 1984.81738 4124.37256
4083.0 0.0002449 1984.86365 4257.05176
4277.0 0.0002338 1984.91187 4398.38672
4530.0 0.0002208 1984.96179 4530.30713
4627.0 0.0002161 1985.01367 4625.32129
4708.0 0.0002124 1985.06702 4656.63965
4750.0 0.0002105 1985.12207 4609.65137
4620.0 0.0002165 1985.17871 4491.69482
4357.0 0.0002295 1985.23682 4325.78271
4109.0 0.0002434 1985.29651 4141.82471
3974.0 0.0002516 1985.35754 3957.40674
3781.0 0.0002645 1985.42004 3779.34546
3655.0 0.0002736 1985.48376 3604.66943
3512.0 0.0002847 1985.54871 3427.29785
3293.0 0.0003037 1985.61487 3245.56860
3151.0 0.0003174 1985.68213 3064.62305
2988.0 0.0003347 1985.75061 2892.71143
2783.0 0.000359 1985.81995 2736.80811
2639.0 0.000379 1985.89050 2600.99097
2508.0 0.000399 1985.96167 2486.73828
2399.0 0.000417 1986.03381 2393.64233
2390.0 0.000418 1986.10681 2320.00269
2326.0 0.000430 1986.18042 2263.28857
2220.0 0.000450 1986.25476 2220.55322
2163.0 0.000462 1986.32971 2188.81372
2127.0 0.000470 1986.40540 2165.35229
2106.0 0.000475 1986.48145 2146.51831
2129.0 0.000470 1986.55798 2133.35938
2135.0 0.000468 1986.63477 2123.19189
2157.0 0.000464 1986.71191 2115.14478
2127.0 0.000470 1986.78943 2108.64429
2076.0 0.000482 1986.86707 2103.70581
2080.0 0.000481 1986.94495 2098.62036
2082.0 0.000480 1987.02307 2094.92334
2075.0 0.000482 1987.10095 2092.01660
2033.0 0.000492 1987.17896 2089.71460
2005.0 0.000499 1987.25684 2087.96460
2082.0 0.000480 1987.33459 2086.72925
2139.0 0.000468 1987.41211 2087.60181
2122.0 0.000471 1987.48938 2087.35693
2077.0 0.000481 1987.56641 2087.06323
2036.0 0.000491 1987.64307 2087.77588
2019.0 0.000495 1987.71924 2088.96143
2075.0 0.000482 1987.79492 2090.65356
2122.0 0.000471 1987.87000 2092.89087
2120.0 0.000472 1987.94446 2095.75488
2085.0 0.000480 1988.01843 2099.97681
2136.0 0.000468 1988.09155 2104.34570
2157.0 0.000464 1988.16382 2109.75317
2153.0 0.000464 1988.23535 2116.50928
2197.0 0.000455 1988.30591 2125.10059
2210.0 0.000452 1988.37561 2136.23926
2160.0 0.000463 1988.44409 2150.92603
2123.0 0.000471 1988.51160 2170.50098
2190.0 0.000457 1988.57825 2196.63770
2227.0 0.000449 1988.64343 2231.26147
2270.0 0.000441 1988.70728 2276.35864
2330.0 0.000429 1988.77002 2333.67334
2360.0 0.000424 1988.83130 2404.31763
2390.0 0.000418 1988.89124 2487.30005
2588.0 0.000386 1988.94958 2583.34570
2655.0 0.000377 1989.00659 2688.17944
2746.0 0.000364 1989.06201 2796.46973
2812.0 0.000356 1989.11548 2900.63989
2989.0 0.0003346 1989.16748 2991.87817
3123.0 0.0003202 1989.21765 3063.42139
3219.0 0.0003107 1989.26611 3115.09766
3135.0 0.0003190 1989.31262 3154.86377
3062.0 0.0003266 1989.35742 3195.26294
3100.0 0.0003226 1989.39990 3248.11401
3241.0 0.0003085 1989.44055 3321.11401
3353.0 0.0002982 1989.47913 3416.87378
3390.0 0.0002950 1989.51550 3533.79224
3528.0 0.0002834 1989.54968 3668.04883
3698.0 0.0002704 1989.58179 3814.83716
3837.0 0.0002606 1989.61145 3967.06494
4078.0 0.0002452 1989.63892 4112.93506
4156.0 0.0002406 1989.66382 4236.30713
4397.0 0.0002274 1989.68640 4322.53662
4395.0 0.0002275 1989.70642 4367.34082
4247.0 0.0002355 1989.72375 4380.64893
4200.0 0.0002381 1989.73865 4380.71143
4147.0 0.0002411 1989.75110 4383.66699
4167.0 0.0002400 1989.76062 4396.24756
4153.0 0.0002408 1989.76733 4413.91699
4359.0 0.0002294 1989.77136 4423.38037
4538.0 0.0002204 1989.77258 4408.15967
4389.0 0.0002278 1989.77087 4355.36377
4265.0 0.0002345 1989.76611 4261.84668
4188.0 0.0002388 1989.75867 4135.63232
3910.0 0.0002558 1989.74792 3994.75659
3761.0 0.0002659 1989.73425 3858.10864
3627.0 0.0002757 1989.71741 3738.94434
3519.0 0.0002842 1989.69739 3641.27271
3521.0 0.0002840 1989.67407 3563.79736
3553.0 0.0002815 1989.64758 3497.49902
3518.0 0.0002843 1989.61804 3432.72656
3397.0 0.0002944 1989.58496 3362.38013
3391.0 0.0002949 1989.54846 3282.00488
3262.0 0.0003066 1989.50854 3190.44604
3111.0 0.0003214 1989.46521 3089.06665
2932.0 0.0003411 1989.41833 2987.76123
2827.0 0.000354 1989.36804 2890.57544
2695.0 0.000371 1989.31421 2800.98779
2734.0 0.000366 1989.25659 2722.72974
2721.0 0.000368 1989.19543 2651.47412
2565.0 0.000390 1989.13049 2583.93384
2530.0 0.000395 1989.06177 2518.03833
2403.0 0.000416 1988.98938 2453.93555
2380.0 0.000420 1988.91321 2393.19531
2284.0 0.000438 1988.83325 2336.58545
2288.0 0.000437 1988.74939 2287.27612
2194.0 0.000456 1988.66162 2244.77466
2192.0 0.000456 1988.56982 2209.14111
2137.0 0.000468 1988.47412 2180.01563
2149.0 0.000465 1988.37439 2156.79590
2111.0 0.000474 1988.27075 2138.68921
2107.0 0.000475 1988.16309 2124.84985
2180.0 0.000459 1988.05115 2114.44897
2094.0 0.000478 1987.93518 2106.74170
2048.0 0.000488 1987.81506 2101.14331
2095.0 0.000477 1987.69067 2097.19775
2160.0 0.000463 1987.56226 2094.61328
2154.0 0.000464 1987.42944 2093.23560
2133.0 0.000469 1987.29260 2093.03442
2096.0 0.000477 1987.15137 2094.46973
2074.0 0.000482 1987.00586 2096.97339
2105.0 0.000475 1986.85583 2101.10400
2045.0 0.000489 1986.70166 2107.14063
2077.0 0.000481 1986.54309 2115.33179
2198.0 0.000455 1986.38013 2125.88013
2170.0 0.000461 1986.21289 2138.97876
2106.0 0.000475 1986.04114 2154.57397
2156.0 0.000464 1985.86487 2172.91650
2235.0 0.000447 1985.68408 2193.62305
2280.0 0.000439 1985.49890 2216.96631
2296.0 0.000436 1985.30920 2243.96338
2321.0 0.000431 1985.11511 2275.06079
2396.0 0.000417 1984.91650 2312.81470
2449.0 0.000408 1984.71326 2361.53638
2432.0 0.000411 1984.50549 2419.71997
2558.0 0.000391 1984.29309 2490.84082
2604.0 0.000384 1984.07617 2575.60254
2702.0 0.000370 1983.85461 2673.70117
2758.0 0.000363 1983.62854 2782.82861
2847.0 0.000351 1983.39795 2900.40796
2976.0 0.0003360 1983.16260 3023.72827
3115.0 0.0003210 1982.92273 3151.95752
3209.0 0.0003116 1982.67810 3281.80396
3356.0 0.0002980 1982.42896 3410.70703
3541.0 0.0002824 1982.17505 3530.78467
3680.0 0.0002717 1981.91650 3629.22925
3686.0 0.0002713 1981.65356 3691.34229
3714.0 0.0002693 1981.38574 3707.00073
3722.0 0.0002687 1981.11328 3676.51343
3625.0 0.0002759 1980.83630 3610.33911
3525.0 0.0002837 1980.55457 3522.94653
3403.0 0.0002939 1980.26819 3426.37158
3298.0 0.0003032 1979.97717 3327.17505
3243.0 0.0003084 1979.68164 3226.90894
3200.0 0.0003125 1979.38135 3127.33667
3128.0 0.0003197 1979.07642 3025.24463
3014.0 0.0003318 1978.76685 2928.13965
2884.0 0.0003467 1978.45264 2843.98657
2755.0 0.000363 1978.13391 2780.31860
2675.0 0.000374 1977.81042 2741.83911
2689.0 0.000372 1977.48267 2728.63989
2779.0 0.000360 1977.15002 2736.88403
2806.0 0.000356 1976.81274 2759.77100
2846.0 0.000351 1976.47095 2784.17603
2957.0 0.0003382 1976.12476 2799.35571
2914.0 0.0003432 1975.77380 2795.91748
2745.0 0.000364 1975.41858 2770.88525
2667.0 0.000375 1975.05872 2728.61865
2590.0 0.000386 1974.69434 2677.02319
2485.0 0.000402 1974.32544 2623.62646
2453.0 0.000408 1973.95203 2572.83032
2487.0 0.000402 1973.57422 2525.16382
2463.0 0.000406 1973.19202 2478.16479
2384.0 0.000419 1972.80542 2427.96143
2287.0 0.000437 1972.41455 2374.59131
2219.0 0.000451 1972.01917 2318.66064
2212.0 0.000452 1971.61938 2263.00903
2199.0 0.000455 1971.21533 2210.72437
2192.0 0.000456 1970.80688 2165.67627
2179.0 0.000459 1970.39429 2126.65430
2167.0 0.000461 1969.97729 2095.06885
2102.0 0.000476 1969.55640 2071.03101
2109.0 0.000474 1969.13110 2052.97241
2120.0 0.000472 1968.70154 2039.45288
2090.0 0.000478 1968.26794 2029.14734
2059.0 0.000486 1967.83020 2021.05273
2043.0 0.000489 1967.38831 2013.14758
2032.0 0.000492 1966.94250 2008.12183
1993.0 0.000502 1966.49280 2004.29553
2019.0 0.000495 1966.03894 2001.77490
2094.0 0.000478 1965.58105 2000.44995
2074.0 0.000482 1965.11938 2001.53442
2070.0 0.000483 1964.65381 2001.75159
2058.0 0.000486 1964.18433 2001.28174
2017.0 0.000496 1963.71106 2001.99939
2000.0 0.000500 1963.23413 2002.84717
2107.0 0.000475 1962.75342 2003.88550
2083.0 0.000480 1962.26892 2005.18823
2015.0 0.000496 1961.78076 2006.76550
2007.0 0.000498 1961.28906 2009.29456
2107.0 0.000475 1960.79382 2011.21021
2114.0 0.000473 1960.29492 2013.14722
2013.0 0.000497 1959.79272 2015.03430
2036.0 0.000491 1959.28699 2016.83228
2092.0 0.000478 1958.77783 2018.53491
2040.0 0.000490 1958.26526 2020.16272
2060.0 0.000485 1957.74951 2020.57458
2077.0 0.000481 1957.23047 2024.16467
2114.0 0.000473 1956.70813 2025.92847
2081.0 0.000481 1956.18286 2027.83765
2044.0 0.000489 1955.65430 2029.94580
2060.0 0.000485 1955.12256 2032.30408
2125.0 0.000471 1954.58789 2034.96143
2117.0 0.000472 1954.05029 2037.96936
2063.0 0.000485 1953.50964 2040.80054
2102.0 0.000476 1952.96631 2045.67920
2082.0 0.000480 1952.42029 2051.01685
2097.0 0.000477 1951.87122 2056.25732
2038.0 0.000491 1951.31946 2062.40698
2087.0 0.000479 1950.76514 2069.73755
2145.0 0.000466 1950.20825 2078.63208
2140.0 0.000467 1949.64868 2089.60352
2133.0 0.000469 1949.08667 2103.30469
2102.0 0.000476 1948.52234 2120.50220
2166.0 0.000462 1947.95569 2142.43481
2203.0 0.000454 1947.38660 2169.09302
2322.0 0.000431 1946.81519 2201.58203
2272.0 0.000440 1946.24170 2240.39746
2341.0 0.000427 1945.66602 2285.75488
2373.0 0.000421 1945.08826 2337.44556
2422.0 0.000413 1944.50854 2394.81958
2405.0 0.000416 1943.92676 2456.64233
2455.0 0.000407 1943.34338 2521.12329
2580.0 0.000388 1942.75781 2586.35742
2573.0 0.000389 1942.17065 2651.43140
2645.0 0.000378 1941.58167 2717.84595
2704.0 0.000370 1940.99109 2790.06689
2757.0 0.000363 1940.39905 2874.51733
2853.0 0.0003505 1939.80530 2977.63525
3053.0 0.0003275 1939.21021 3104.26733
3208.0 0.0003117 1938.61377 3256.67407
3418.0 0.0002926 1938.01599 3434.05664
3551.0 0.0002816 1937.41687 3632.33569
3773.0 0.0002650 1936.81665 3844.16211
4088.0 0.0002446 1936.21521 4059.12280
4478.0 0.0002233 1935.61292 4263.97412
4466.0 0.0002239 1935.00952 4442.85010
4713.0 0.0002122 1934.40515 4578.40918
4711.0 0.0002123 1933.80005 4658.08594
4755.0 0.0002103 1933.19409 4672.88330
4594.0 0.0002177 1932.58752 4633.22656
4466.0 0.0002239 1931.98010 4556.76758
4381.0 0.0002283 1931.37231 4461.93896
4178.0 0.0002393 1930.76392 4361.48047
4141.0 0.0002415 1930.15515 4262.36279
4005.0 0.0002497 1929.54602 4164.27686
3980.0 0.0002513 1928.93652 4065.62012
3864.0 0.0002588 1928.32690 3963.74316
3785.0 0.0002642 1927.71704 3864.33325
3744.0 0.0002671 1927.10730 3777.03003
3518.0 0.0002843 1926.49731 3713.12402
3426.0 0.0002919 1925.88757 3680.43921
3491.0 0.0002865 1925.27783 3688.79858
3637.0 0.0002750 1924.66833 3734.20435
3756.0 0.0002662 1924.05908 3813.00146
3878.0 0.0002579 1923.45020 3914.58105
4003.0 0.0002498 1922.84192 4023.06641
4176.0 0.0002395 1922.23401 4118.89697
4182.0 0.0002391 1921.62659 4182.12207
4185.0 0.0002389 1921.01990 4201.25000
4186.0 0.0002389 1920.41382 4174.60889
4041.0 0.0002475 1919.80859 4109.58740
3953.0 0.0002530 1919.20422 4021.35693
3833.0 0.0002609 1918.60095 3921.73779
3686.0 0.0002713 1917.99866 3817.53491
3688.0 0.0002711 1917.39734 3709.86768
3669.0 0.0002726 1916.79712 3596.41382
3519.0 0.0002842 1916.19812 3475.20874
3356.0 0.0002980 1915.60046 3348.02612
3253.0 0.0003074 1915.00415 3221.00366
3174.0 0.0003151 1914.40942 3102.78198
3002.0 0.0003331 1913.81604 3001.10767
2974.0 0.0003362 1913.22449 2922.72705
2888.0 0.0003463 1912.63440 2872.27441
2907.0 0.0003440 1912.04614 2852.60889
2927.0 0.0003416 1911.45959 2864.88354
2947.0 0.0003393 1910.87488 2908.46655
3001.0 0.0003332 1910.29236 2980.78491
3073.0 0.0003254 1909.71167 3077.23438
3131.0 0.0003194 1909.13306 3190.52441
3347.0 0.0002988 1908.55664 3311.09619
3449.0 0.0002899 1907.98254 3427.03027
3561.0 0.0002808 1907.41077 3525.96265
3623.0 0.0002760 1906.84131 3599.00269
3750.0 0.0002667 1906.27429 3645.02295
3718.0 0.0002690 1905.70984 3671.68286
3671.0 0.0002724 1905.14795 3691.83936
3661.0 0.0002731 1904.58862 3718.19092
3678.0 0.0002719 1904.03210 3759.44165
3799.0 0.0002632 1903.47852 3818.84155
3858.0 0.0002592 1902.92761 3894.65942
3921.0 0.0002550 1902.37976 3982.11646
3954.0 0.0002529 1901.83496 4075.71460
4116.0 0.0002430 1901.29309 4170.21143
4258.0 0.0002349 1900.75439 4259.83105
4292.0 0.0002330 1900.21887 4338.05762
4349.0 0.0002299 1899.68665 4400.50391
4347.0 0.0002300 1899.15796 4449.34375
4341.0 0.0002304 1898.63257 4494.32520
4317.0 0.0002316 1898.11060 4548.11230
4383.0 0.0002282 1897.59216 4619.56836
4606.0 0.0002171 1897.07727 4709.26514
4743.0 0.0002108 1896.56604 4808.37402
4931.0 0.0002028 1896.05859 4900.54932
5067.0 0.0001974 1895.55505 4967.48682
4955.0 0.0002018 1895.05530 4997.49365
4821.0 0.0002074 1894.55945 4991.78613
4740.0 0.0002110 1894.06763 4962.28662
4679.0 0.0002137 1893.57983 4922.94775
4643.0 0.0002154 1893.09595 4881.45459
4698.0 0.0002129 1892.61633 4836.46826
4789.0 0.0002088 1892.14099 4778.31738
4748.0 0.0002106 1891.67004 4694.13574
4574.0 0.0002186 1891.20325 4575.35596
4443.0 0.0002251 1890.74109 4423.23438
4222.0 0.0002369 1890.28320 4247.99756
3987.0 0.0002508 1889.82983 4063.04907
3844.0 0.0002601 1889.38098 3879.41602
3654.0 0.0002737 1888.93677 3702.62134
3505.0 0.0002853 1888.49731 3534.45532
3375.0 0.0002963 1888.06250 3372.97754
3286.0 0.0003043 1887.63245 3217.05151
3175.0 0.0003150 1887.20740 3067.17944
3005.0 0.0003328 1886.78711 2925.74854
2880.0 0.0003472 1886.37170 2795.67651
2715.0 0.000368 1885.96143 2679.15405
2626.0 0.000381 1885.55615 2577.36450
2610.0 0.000383 1885.15601 2490.30518
2547.0 0.000393 1884.76086 2417.31348
2462.0 0.000406 1884.37085 2357.61914
2425.0 0.000412 1883.98621 2310.11816
2398.0 0.000417 1883.60681 2273.60767
2364.0 0.000423 1883.23267 2246.92334
2295.0 0.000436 1882.86401 2229.11963
2258.0 0.000443 1882.50073 2219.68384
2336.0 0.000428 1882.14282 2218.75854
2372.0 0.000422 1881.79053 2227.30273
2332.0 0.000429 1881.44360 2247.16724
2288.0 0.000437 1881.10229 2280.69214
2403.0 0.000416 1880.76660 2332.12769
2444.0 0.000409 1880.43677 2405.09692
2429.0 0.000412 1880.11230 2503.55029
2572.0 0.000389 1879.79370 2630.81567
2724.0 0.000367 1879.48083 2788.79443
2857.0 0.0003500 1879.17371 2977.05249
3043.0 0.0003286 1878.87244 3192.31860
3299.0 0.0003031 1878.57703 3427.01147
3616.0 0.0002765 1878.28772 3669.97607
3936.0 0.0002541 1878.00415 3904.58984
4222.0 0.0002369 1877.72656 4112.77051
4333.0 0.0002308 1877.45483 4275.82471
4420.0 0.0002262 1877.18921 4381.40771
4427.0 0.0002259 1876.92957 4424.40625
4427.0 0.0002259 1876.67603 4414.47754
4267.0 0.0002344 1876.42871 4361.98291
4181.0 0.0002392 1876.18738 4281.83594
4122.0 0.0002426 1875.95227 4187.07373
3955.0 0.0002528 1875.72314 4086.68628
3992.0 0.0002505 1875.50024 3984.18408
3815.0 0.0002621 1875.28369 3880.93652
3667.0 0.0002727 1875.07324 3777.67407
3680.0 0.0002717 1874.86914 3679.47656
3507.0 0.0002851 1874.67114 3589.89233
3421.0 0.0002923 1874.47949 3513.71436
3392.0 0.0002948 1874.29419 3454.43579
3348.0 0.0002987 1874.11511 3412.73389
3373.0 0.0002965 1873.94238 3385.80078
3437.0 0.0002910 1873.77600 3367.85596
3432.0 0.0002914 1873.61597 3351.61768
3415.0 0.0002928 1873.46228 3330.10962
3266.0 0.0003062 1873.31494 3298.09863
3205.0 0.0003120 1873.17383 3253.19946
3058.0 0.0003270 1873.03943 3193.99976
2937.0 0.0003405 1872.91113 3128.89185
2972.0 0.0003365 1872.78931 3059.72681
2902.0 0.0003446 1872.67395 2988.32617
2970.0 0.0003367 1872.56494 2915.59937
2862.0 0.0003494 1872.46228 2840.78442
2750.0 0.000364 1872.36609 2762.81226
2658.0 0.000376 1872.27637 2681.23901
2550.0 0.000392 1872.19287 2597.21582
2396.0 0.000417 1872.11584 2512.56543
2350.0 0.000426 1872.04541 2430.56543
2344.0 0.000427 1871.98120 2354.21045
2212.0 0.000452 1871.92334 2285.11157
2221.0 0.000450 1871.87195 2224.43262
2119.0 0.000472 1871.82690 2172.37109
2214.0 0.000452 1871.78821 2128.94897
2003.0 0.000499 1871.75598 2092.71021
2014.0 0.000497 1871.73010 2063.89038
2075.0 0.000482 1871.71045 2040.08191
2013.0 0.000497 1871.69714 2021.07507
2081.0 0.000481 1871.69019 2005.99463
1959.0 0.000510 1871.68958 1994.06238
2100.0 0.000476 1871.69507 1984.61353
2044.0 0.000489 1871.70703 1977.10571
2053.0 0.000487 1871.72534 1971.30688
1968.0 0.000508 1871.74976 1965.13196
2064.0 0.000484 1871.78027 1961.35571
2075.0 0.000482 1871.81714 1958.43933
2127.0 0.000470 1871.86011 1956.34375
1962.0 0.000510 1871.90930 1955.48962
1982.0 0.000505 1871.96460 1955.28296
2040.0 0.000490 1872.02612 1956.33496
2059.0 0.000486 1872.09375 1958.99988
2021.0 0.000495 1872.16724 1963.47168
2060.0 0.000485 1872.24683 1970.83362
2035.0 0.000491 1872.33240 1981.37061
2042.0 0.000490 1872.42407 1995.60474
2058.0 0.000486 1872.52161 2013.91748
2044.0 0.000489 1872.62524 2035.12610
2040.0 0.000490 1872.73450 2061.67456
2085.0 0.000480 1872.84973 2091.54883
2117.0 0.000472 1872.97083 2124.02856
2145.0 0.000466 1873.09766 2156.59229
2269.0 0.000441 1873.23022 2186.97900
2330.0 0.000429 1873.36865 2213.04224
2355.0 0.000425 1873.51270 2232.55225
2222.0 0.000450 1873.66248 2244.18311
2287.0 0.000437 1873.81775 2250.09277
2238.0 0.000447 1873.97852 2250.80566
2199.0 0.000455 1874.14502 2247.42163
2230.0 0.000448 1874.31677 2240.72241
2190.0 0.000457 1874.49414 2230.31763
2200.0 0.000455 1874.67700 2216.49023
2303.0 0.000434 1874.86523 2199.43652
2179.0 0.000459 1875.05859 2177.53271
2149.0 0.000465 1875.25732 2155.72510
2080.0 0.000481 1875.46130 2133.12891
2020.0 0.000495 1875.67041 2110.79077
2043.0 0.000489 1875.88477 2089.49072
2005.0 0.000499 1876.10413 2069.78931
2008.0 0.000498 1876.32874 2052.21460
2039.0 0.000490 1876.55811 2037.42310
2009.0 0.000498 1876.79248 2024.35193
2044.0 0.000489 1877.03186 2020.17493
2071.0 0.000483 1877.27600 2017.54126
2008.0 0.000498 1877.52490 2019.67993
2014.0 0.000497 1877.77869 2026.59729
2042.0 0.000490 1878.03711 2038.05371
2083.0 0.000480 1878.30005 2053.55493
2105.0 0.000475 1878.56775 2072.34448
2084.0 0.000480 1878.83984 2093.97437
2145.0 0.000466 1879.11646 2116.22266
2219.0 0.000451 1879.39758 2140.03687
2175.0 0.000460 1879.68311 2161.54004
2215.0 0.000451 1879.97278 2181.57910
2250.0 0.000444 1880.26672 2199.45166
2260.0 0.000442 1880.56482 2214.20605
2200.0 0.000455 1880.86707 2224.62158
2152.0 0.000465 1881.17346 2229.67139
2230.0 0.000448 1881.48389 2229.27393
2188.0 0.000457 1881.79822 2223.41797
2142.0 0.000467 1882.11658 2213.56055
2137.0 0.000468 1882.43872 2201.13721
2115.0 0.000473 1882.76453 2187.42944
2128.0 0.000470 1883.09412 2173.36572
2169.0 0.000461 1883.42725 2159.47144
2193.0 0.000456 1883.76404 2146.10913
2140.0 0.000467 1884.10449 2133.79785
2075.0 0.000482 1884.44836 2123.47192
2084.0 0.000480 1884.79553 2116.48315
2076.0 0.000482 1885.14612 2114.37280
2059.0 0.000486 1885.49988 2118.54175
2075.0 0.000482 1885.85693 2130.00122
2068.0 0.000484 1886.21716 2149.17578
2133.0 0.000469 1886.58044 2174.49805
2193.0 0.000456 1886.94678 2207.41382
2244.0 0.000446 1887.31604 2244.63379
2356.0 0.000424 1887.68811 2283.27612
2408.0 0.000415 1888.06311 2319.67627
2414.0 0.000414 1888.44080 2349.74854
2418.0 0.000414 1888.82104 2370.02417
2454.0 0.000407 1889.20410 2378.28711
2408.0 0.000415 1889.58984 2375.30933
2291.0 0.000436 1889.97778 2363.78296
2259.0 0.000443 1890.36829 2347.10376
2219.0 0.000451 1890.76111 2328.17725
2284.0 0.000438 1891.15625 2308.79712
2334.0 0.000428 1891.55359 2290.10742
2305.0 0.000434 1891.95313 2270.50073
2279.0 0.000439 1892.35474 2249.79932
2291.0 0.000436 1892.75830 2227.40405
2226.0 0.000449 1893.16394 2203.82666
2173.0 0.000460 1893.57129 2180.24731
2162.0 0.000463 1893.98059 2158.13672
2185.0 0.000458 1894.39160 2138.91455
2173.0 0.000460 1894.80432 2123.79980
2084.0 0.000480 1895.21875 2113.82690
2098.0 0.000477 1895.63464 2110.12988
2095.0 0.000477 1896.05200 2112.78613
2150.0 0.000465 1896.47070 2122.59912
2240.0 0.000446 1896.89087 2139.96729
2212.0 0.000452 1897.31226 2165.20557
2188.0 0.000457 1897.73486 2198.58936
2274.0 0.000440 1898.15881 2240.39185
2352.0 0.000425 1898.58362 2290.91650
2409.0 0.000415 1899.00940 2350.52856
2494.0 0.000401 1899.43628 2419.64209
2641.0 0.000379 1899.86401 2498.68506
2659.0 0.000376 1900.29260 2588.08228
2704.0 0.000370 1900.72192 2688.51953
2765.0 0.000362 1901.15186 2800.18042
2920.0 0.0003425 1901.58252 2927.92700
2974.0 0.0003362 1902.01355 3073.71899
3142.0 0.0003183 1902.44531 3240.20117
3318.0 0.0003014 1902.87732 3427.91479
3488.0 0.0002867 1903.30981 3634.06104
3689.0 0.0002711 1903.74255 3851.98901
4009.0 0.0002494 1904.17566 4070.05933
4328.0 0.0002311 1904.60876 4272.23926
4642.0 0.0002154 1905.04187 4444.52686
4748.0 0.0002106 1905.47522 4570.52930
4756.0 0.0002103 1905.90845 4640.67920
4696.0 0.0002129 1906.34167 4653.32910
4674.0 0.0002139 1906.77466 4614.73242
4348.0 0.0002300 1907.20776 4536.48340
4197.0 0.0002383 1907.64026 4431.72607
4111.0 0.0002432 1908.07239 4311.59033
4003.0 0.0002498 1908.50439 4182.60010
3867.0 0.0002586 1908.93567 4047.21167
3886.0 0.0002573 1909.36658 3905.02710
3846.0 0.0002600 1909.79688 3755.31226
3659.0 0.0002733 1910.22668 3599.01587
3511.0 0.0002848 1910.65564 3439.55127
3328.0 0.0003005 1911.08398 3282.25342
3148.0 0.0003177 1911.51135 3133.53296
2976.0 0.0003360 1911.93774 2998.02612
2836.0 0.000353 1912.36353 2880.10132
2720.0 0.000368 1912.78796 2782.05249
2586.0 0.000387 1913.21179 2704.58154
2597.0 0.000385 1913.63416 2647.02197
2549.0 0.000392 1914.05554 2607.83423
2521.0 0.000397 1914.47559 2583.67212
2646.0 0.000378 1914.89441 2571.20703
2632.0 0.000380 1915.31189 2566.50928
2687.0 0.000372 1915.72791 2564.99048
2561.0 0.000390 1916.14270 2563.74048
2567.0 0.000390 1916.55579 2560.86475
2522.0 0.000397 1916.96753 2556.29419
2414.0 0.000414 1917.37744 2550.90820
2479.0 0.000403 1917.78577 2546.04956
2556.0 0.000391 1918.19238 2542.76050
2519.0 0.000397 1918.59717 2540.96655
2526.0 0.000396 1919.00024 2540.28296
2457.0 0.000407 1919.40137 2539.67700
2492.0 0.000401 1919.80054 2538.24976
2563.0 0.000390 1920.19775 2535.47144
2544.0 0.000393 1920.59290 2531.80566
2573.0 0.000389 1920.98596 2528.86694
2522.0 0.000397 1921.37695 2529.22681
2519.0 0.000397 1921.76575 2536.54736
2639.0 0.000379 1922.15210 2554.24927
2570.0 0.000389 1922.53625 2586.58105
2681.0 0.000373 1922.91809 2637.57642
2804.0 0.000357 1923.29749 2711.09424
2777.0 0.000360 1923.67432 2810.71387
2892.0 0.0003458 1924.04883 2939.43823
3127.0 0.0003198 1924.42065 3099.48853
3375.0 0.0002963 1924.79004 3291.90356
3581.0 0.0002793 1925.15649 3516.11548
3666.0 0.0002728 1925.52026 3768.85474
4066.0 0.0002459 1925.88135 4044.10449
4323.0 0.0002313 1926.23950 4331.95605
4645.0 0.0002153 1926.59497 4618.16846
4969.0 0.0002012 1926.94739 4884.37109
5248.0 0.0001905 1927.29700 5110.23975
5349.0 0.0001870 1927.64331 5278.16602
5307.0 0.0001884 1927.98657 5379.14502
5379.0 0.0001859 1928.32690 5415.88721
5280.0 0.0001894 1928.66382 5400.45605
5188.0 0.0001928 1928.99768 5348.05859
5141.0 0.0001945 1929.32825 5271.05957
5022.0 0.0001991 1929.65540 5175.85986
5025.0 0.0001990 1929.97913 5062.84766
4933.0 0.0002027 1930.29944 4928.70947
4723.0 0.0002117 1930.61621 4770.16895
4486.0 0.0002229 1930.92932 4587.51514
4432.0 0.0002256 1931.23901 4386.10254
4163.0 0.0002402 1931.54504 4174.99756
3940.0 0.0002538 1931.84729 3963.96753
3764.0 0.0002657 1932.14563 3760.53491
3610.0 0.0002770 1932.44031 3570.24854
3416.0 0.0002927 1932.73096 3394.86255
3251.0 0.0003076 1933.01770 3234.65308
3063.0 0.0003265 1933.30042 3089.07129
2976.0 0.0003360 1933.57910 2957.44751
2813.0 0.000355 1933.85376 2839.30908
2718.0 0.000368 1934.12415 2734.41064
2656.0 0.000377 1934.39026 2642.56982
2564.0 0.000390 1934.65210 2562.97559
2456.0 0.000407 1934.90955 2495.84985
2442.0 0.000410 1935.16248 2439.71240
2399.0 0.000417 1935.41113 2393.30103
2349.0 0.000426 1935.65515 2355.25903
2321.0 0.000431 1935.89453 2324.33105
2362.0 0.000423 1936.12915 2299.59692
2316.0 0.000432 1936.35901 2280.63354
2293.0 0.000436 1936.58423 2267.53003
2251.0 0.000444 1936.80444 2260.72900
2227.0 0.000449 1937.01978 2260.83276
2228.0 0.000449 1937.22998 2268.43872
2259.0 0.000443 1937.43506 2284.01196
2316.0 0.000432 1937.63513 2307.78735
2444.0 0.000409 1937.82983 2339.65625
2460.0 0.000407 1938.01929 2379.07397
2523.0 0.000396 1938.20325 2424.95728
2601.0 0.000384 1938.38196 2475.59009
2634.0 0.000380 1938.55493 2528.52856
2603.0 0.000384 1938.72229 2580.67896
2687.0 0.000372 1938.88391 2628.00464
2784.0 0.000359 1939.03979 2666.82910
2690.0 0.000372 1939.18982 2694.40820
2654.0 0.000377 1939.33374 2710.05835
2712.0 0.000369 1939.47180 2715.37231
2741.0 0.000365 1939.60376 2713.85132
2692.0 0.000371 1939.72937 2707.79443
2696.0 0.000371 1939.84863 2699.96851
2731.0 0.000366 1939.96155 2691.29834
2753.0 0.000363 1940.06799 2681.34717
2735.0 0.000366 1940.16772 2668.42114
2669.0 0.000375 1940.26099 2650.63477
2639.0 0.000379 1940.34729 2626.60181
2582.0 0.000387 1940.42676 2596.26392
2551.0 0.000392 1940.49927 2561.10474
2560.0 0.000391 1940.56458 2523.95117
2517.0 0.000397 1940.62268 2487.32007
2444.0 0.000409 1940.67358 2454.13257
2388.0 0.000419 1940.71704 2426.45996
2363.0 0.000423 1940.75293 2405.63647
2382.0 0.000420 1940.78113 2392.28442
2353.0 0.000425 1940.80164 2386.41919
2395.0 0.000418 1940.81433 2387.62354
2415.0 0.000414 1940.81897 2395.21460
2390.0 0.000418 1940.81555 2408.28467
2435.0 0.000411 1940.80396 2425.57739
2446.0 0.000409 1940.78381 2445.29370
2480.0 0.000403 1940.75537 2464.98267
2550.0 0.000392 1940.71826 2481.94336
2524.0 0.000396 1940.67236 2492.62695
2513.0 0.000398 1940.61768 2495.14380
2552.0 0.000392 1940.55408 2488.98047
2503.0 0.000400 1940.48132 2475.43335
2427.0 0.000412 1940.39929 2456.93188
2356.0 0.000424 1940.30786 2434.23560
2350.0 0.000426 1940.20679 2413.05933
2323.0 0.000430 1940.09607 2392.68140
2375.0 0.000421 1939.97559 2373.33423
2451.0 0.000408 1939.84509 2354.70557
2348.0 0.000426 1939.70459 2335.81836
2251.0 0.000444 1939.55383 2316.38452
2223.0 0.000450 1939.39270 2296.57202
2267.0 0.000441 1939.22095 2277.48608
2193.0 0.000456 1939.03845 2258.07153
2232.0 0.000448 1938.84521 2241.91357
2237.0 0.000447 1938.64087 2228.64429
2171.0 0.000461 1938.42542 2218.92334
2140.0 0.000467 1938.19861 2213.22607
2160.0 0.000463 1937.96033 2211.73950
2201.0 0.000454 1937.71033 2214.48438
2165.0 0.000462 1937.44873 2220.46240
2194.0 0.000456 1937.17505 2228.85083
2252.0 0.000444 1936.88916 2238.46240
2274.0 0.000440 1936.59106 2247.78589
2240.0 0.000446 1936.28064 2254.59937
2270.0 0.000441 1935.95752 2257.92993
2277.0 0.000439 1935.62158 2257.45996
2255.0 0.000443 1935.27271 2253.72412
2275.0 0.000440 1934.91089 2247.08203
2219.0 0.000451 1934.53552 2240.47559
2230.0 0.000448 1934.14685 2234.17163
2222.0 0.000450 1933.74451 2229.15820
2195.0 0.000456 1933.32861 2225.91748
2174.0 0.000460 1932.89856 2224.84155
2186.0 0.000457 1932.45447 2225.40161
2270.0 0.000441 1931.99609 2227.51782
2213.0 0.000452 1931.52332 2231.09741
2254.0 0.000444 1931.03613 2235.83228
2310.0 0.000433 1930.53394 2241.89502
2229.0 0.000449 1930.01697 2248.27686
2222.0 0.000450 1929.48486 2254.42017
2160.0 0.000463 1928.93762 2258.77295
2319.0 0.000431 1928.37476 2260.62646
2254.0 0.000444 1927.79663 2257.50415
2247.0 0.000445 1927.20276 2249.83862
2232.0 0.000448 1926.59314 2238.26636
2305.0 0.000434 1925.96753 2224.02124
2232.0 0.000448 1925.32568 2208.44971
2175.0 0.000460 1924.66772 2192.54688
2171.0 0.000461 1923.99329 2177.00391
2239.0 0.000447 1923.30249 2161.82324
2219.0 0.000451 1922.59485 2146.68579
2159.0 0.000463 1921.87073 2131.43384
2124.0 0.000471 1921.12976 2115.17163
2075.0 0.000482 1920.37134 2098.22314
2136.0 0.000468 1919.59631 2080.96313
2143.0 0.000467 1918.80371 2063.94043
2043.0 0.000489 1917.99414 2047.69653
2001.0 0.000500 1917.16699 2029.55725
2063.0 0.000485 1916.32275 2016.04517
2079.0 0.000481 1915.46057 2004.16113
1982.0 0.000505 1914.58118 1993.95654
2000.0 0.000500 1913.68408 1985.36975
1993.0 0.000502 1912.76904 1978.38098
1945.0 0.000514 1911.83655 1972.84460
1971.0 0.000507 1910.88599 1968.63245
1970.0 0.000508 1909.91833 1965.07520
1955.0 0.000512 1908.93225 1961.64648
2029.0 0.000493 1907.92883 1960.87512
1990.0 0.000503 1906.90723 1961.22961
2032.0 0.000492 1905.86841 1962.84106
1939.0 0.000516 1904.81177 1965.94421
1958.0 0.000511 1903.73730 1970.88013
2026.0 0.000494 1902.64563 1978.09717
1925.0 0.000519 1901.53601 1988.13782
1985.0 0.000504 1900.40955 2001.21448
2020.0 0.000495 1899.26538 2018.77563
2080.0 0.000481 1898.10449 2041.03455
2022.0 0.000495 1896.92676 2068.51123
2076.0 0.000482 1895.73157 2101.53467
2059.0 0.000486 1894.52039 2140.13721
2149.0 0.000465 1893.29236 2183.93555
2125.0 0.000471 1892.04846 2232.03857
2166.0 0.000462 1890.78821 2283.03345
2227.0 0.000449 1889.51282 2335.10669
2223.0 0.000450 1888.22156 2386.18530
2451.0 0.000408 1886.91577 2434.32520
2515.0 0.000398 1885.59521 2477.26172
2567.0 0.000390 1884.25989 2512.52856
2619.0 0.000382 1882.91101 2537.55762
2613.0 0.000383 1881.54810 2550.43457
2643.0 0.000378 1880.17249 2550.26660
2511.0 0.000398 1878.78394 2538.26343
2411.0 0.000415 1877.38367 2516.83911
2399.0 0.000417 1875.97144 2488.86450
2319.0 0.000431 1874.54871 2456.90869
2341.0 0.000427 1873.11548 2422.97266
2330.0 0.000429 1871.67188 2388.12329
2424.0 0.000413 1870.21985 2352.62158
2351.0 0.000425 1868.75891 2316.16626
2282.0 0.000438 1867.29089 2278.44629
2212.0 0.000452 1865.81567 2239.40527
2238.0 0.000447 1864.33484 2199.79272
2176.0 0.000460 1862.84875 2160.05469
2103.0 0.000476 1861.35803 2122.66724
2022.0 0.000495 1859.86462 2087.94458
2038.0 0.000491 1858.36841 2056.59521
2046.0 0.000489 1856.87158 2029.06641
1993.0 0.000502 1855.37415 2005.57141
1991.0 0.000502 1853.87842 1986.13245
1997.0 0.000501 1852.38428 1970.61316
2025.0 0.000494 1850.89429 1958.78601
2028.0 0.000493 1849.40918 1950.04761
2018.0 0.000496 1847.92981 1944.70801
2032.0 0.000492 1846.45862 1942.21204
2042.0 0.000490 1844.99622 1942.39758
2018.0 0.000496 1843.54504 1945.19971
1957.0 0.000511 1842.10547 1950.69348
2008.0 0.000498 1840.68079 1959.08032
2045.0 0.000489 1839.27124 1970.68494
2057.0 0.000486 1837.87976 1985.96436
2092.0 0.000478 1836.50806 2005.48254
2067.0 0.000484 1835.15735 2029.91431
2083.0 0.000480 1833.83057 2059.86865
2139.0 0.000468 1832.52905 2096.79395
2144.0 0.000466 1831.25598 2140.75928
2209.0 0.000453 1830.01257 2192.77539
2221.0 0.000450 1828.80225 2253.30444
2286.0 0.000437 1827.62708 2322.38721
2441.0 0.000410 1826.48901 2399.53491
2430.0 0.000412 1825.39172 2483.73950
2483.0 0.000403 1824.33691 2573.58423
2563.0 0.000390 1823.32837 2666.95288
2630.0 0.000380 1822.36829 2762.44824
2765.0 0.000362 1821.46033 2856.94092
2925.0 0.0003419 1820.60718 2946.24390
3061.0 0.0003267 1819.81262 3025.72388
3146.0 0.0003179 1819.07959 3090.45972
3221.0 0.0003105 1818.41138 3136.66748
3167.0 0.0003158 1817.81213 3162.93726
3140.0 0.0003185 1817.28516 3170.55688
3074.0 0.0003253 1816.83459 3162.69141
2970.0 0.0003367 1816.46423 3143.00977
2983.0 0.0003352 1816.17834 3114.61572
3005.0 0.0003328 1815.98096 3079.58472
2981.0 0.0003355 1815.87646 3039.04565
3002.0 0.0003331 1815.86951 2993.50122
2960.0 0.0003378 1815.96472 2943.21777
2898.0 0.0003451 1816.16687 2888.60962
2899.0 0.0003449 1816.48083 2830.50610
2855.0 0.0003503 1816.91174 2770.09888
2734.0 0.000366 1817.46509 2708.63037
2645.0 0.000378 1818.14587 2647.16919
2598.0 0.000385 1818.95984 2586.64722
2524.0 0.000396 1819.91321 2528.03101
2473.0 0.000404 1821.01099 2472.44507
2460.0 0.000407 1822.26025 2420.73340
2426.0 0.000412 1823.66650 2375.15454
2369.0 0.000422 1825.23706 2336.64819
2297.0 0.000435 1826.97754 2306.58105
2248.0 0.000445 1828.89600 2286.30542
2199.0 . . .
2174.0 . . .
2187.0 . . .
2163.0 . . .
2150.0 . . .
2156.0 . . .
2132.0 . . .
2124.0 . . .
2148.0 . . .
2177.0 . . .
2220.0 . . .
2225.0 . . .
2219.0 . . .
2215.0 . . .
2165.0 . . .
2133.0 . . .
2139.0 . . .
2177.0 . . .
2132.0 . . .
2035.0 . . .
2107.0 . . .
2162.0 . . .
2103.0 . . .
2113.0 . . .
2032.0 . . .
2028.0 . . .
2067.0 . . .
2015.0 . . .
1970.0 . . .
1921.0 . . .
1903.0 . . .
1905.0 . . .
1907.0 . . .
1983.0 . . .
2060.0 . . .
1988.0 . . .
1989.0 . . .
1924.0 . . .
1957.0 . . .
2012.0 . . .
2064.0 . . .
2059.0 . . .
1974.0 . . .
2036.0 . . .
2056.0 . . .
2106.0 . . .
2107.0 . . .
2116.0 . . .
2205.0 . . .
2251.0 . . .
2391.0 . . .
2396.0 . . .
2432.0 . . .
2548.0 . . .
2623.0 . . .
2531.0 . . .
2566.0 . . .
2726.0 . . .
2653.0 . . .
2549.0 . . .
2551.0 . . .
2444.0 . . .
2495.0 . . .
2472.0 . . .
2545.0 . . .
2475.0 . . .
2419.0 . . .
2419.0 . . .
2334.0 . . .
2330.0 . . .
2274.0 . . .
2258.0 . . .
2232.0 . . .
2223.0 . . .
2149.0 . . .
2081.0 . . .
2132.0 . . .
2111.0 . . .
2164.0 . . .
2094.0 . . .
2082.0 . . .
2093.0 . . .
2049.0 . . .
2022.0 . . .
2066.0 . . .
2067.0 . . .
2039.0 . . .
2056.0 . . .
2035.0 . . .
2035.0 . . .
2036.0 . . .
2030.0 . . .
2051.0 . . .
2048.0 . . .
1980.0 . . .
2068.0 . . .
2043.0 . . .
2064.0 . . .
2041.0 . . .
2007.0 . . .
2072.0 . . .
2080.0 . . .
2068.0 . . .
2134.0 . . .
2109.0 . . .
2063.0 . . .
2055.0 . . .
2023.0 . . .
2070.0 . . .
2082.0 . . .
2122.0 . . .
2051.0 . . .
1998.0 . . .
2063.0 . . .
2119.0 . . .
2120.0 . . .
2160.0 . . .
2205.0 . . .
2233.0 . . .
2325.0 . . .
2417.0 . . .
2447.0 . . .
2453.0 . . .
2535.0 . . .
2544.0 . . .
2442.0 . . .
2395.0 . . .
2413.0 . . .
2363.0 . . .
2275.0 . . .
2324.0 . . .
2390.0 . . .
2373.0 . . .
2403.0 . . .
2483.0 . . .
2480.0 . . .
2485.0 . . .
2482.0 . . .
2452.0 . . .
2442.0 . . .
2478.0 . . .
2493.0 . . .
2501.0 . . .
2520.0 . . .
2543.0 . . .
2590.0 . . .
2563.0 . . .
2632.0 . . .
2634.0 . . .
2537.0 . . .
2548.0 . . .
2549.0 . . .
2472.0 . . .
2434.0 . . .
2455.0 . . .
2476.0 . . .
2515.0 . . .
2529.0 . . .
2529.0 . . .
2560.0 . . .
2600.0 . . .
2663.0 . . .
2718.0 . . .
2762.0 . . .
2781.0 . . .
2855.0 . . .
2946.0 . . .
3070.0 . . .
3147.0 . . .
3194.0 . . .
3131.0 . . .
3056.0 . . .
3127.0 . . .
3178.0 . . .
3189.0 . . .
3182.0 . . .
3259.0 . . .
3237.0 . . .
3213.0 . . .
3294.0 . . .
3202.0 . . .
3082.0 . . .
3079.0 . . .
3017.0 . . .
2982.0 . . .
2928.0 . . .
2883.0 . . .
2869.0 . . .
2798.0 . . .
2676.0 . . .
2636.0 . . .
2581.0 . . .
2559.0 . . .
2439.0 . . .
2451.0 . . .
2462.0 . . .
2378.0 . . .
2274.0 . . .
2244.0 . . .
2243.0 . . .
2202.0 . . .
2210.0 . . .
2176.0 . . .
2133.0 . . .
2101.0 . . .
2045.0 . . .
2190.0 . . .
2086.0 . . .
2126.0 . . .
2071.0 . . .
2018.0 . . .
2050.0 . . .
1979.0 . . .
1995.0 . . .
2053.0 . . .
2169.0 . . .
2064.0 . . .
2097.0 . . .
2119.0 . . .
2055.0 . . .
2066.0 . . .
2163.0 . . .
2133.0 . . .
2054.0 . . .
2096.0 . . .
2036.0 . . .
2140.0 . . .
2075.0 . . .
2140.0 . . .
2096.0 . . .
2111.0 . . .
2106.0 . . .
2142.0 . . .
2210.0 . . .
2211.0 . . .
2254.0 . . .
2248.0 . . .
2345.0 . . .
2371.0 . . .
2394.0 . . .
2328.0 . . .
2297.0 . . .
2411.0 . . .
2423.0 . . .
2354.0 . . .
2377.0 . . .
2434.0 . . .
2452.0 . . .
2401.0 . . .
2468.0 . . .
2470.0 . . .
2529.0 . . .
2459.0 . . .
2381.0 . . .
2418.0 . . .
2501.0 . . .
2483.0 . . .
2530.0 . . .
2540.0 . . .
2560.0 . . .
2441.0 . . .
2357.0 . . .
2393.0 . . .
2333.0 . . .
2317.0 . . .
2396.0 . . .
2335.0 . . .
2335.0 . . .
2429.0 . . .
2399.0 . . .
2359.0 . . .
2372.0 . . .
2424.0 . . .
2368.0 . . .
2391.0 . . .
2382.0 . . .
2444.0 . . .
2419.0 . . .
2404.0 . . .
loop_
_refln_index_h
_refln_index_k
_refln_index_l
_pd_refln_wavelength_id
_refln_observed_status
_refln_F_squared_meas
_refln_F_squared_calc
_refln_phase_calc
_refln_d_spacing
_gsas_i100_meas
0 0 1 1 o 1651.426 1818.635 0.00 6.99632 6.33
0 0 1 2 o 1642.006 1818.635 0.00 6.99632 3.13
1 1 0 1 o 396.257 314.168 180.00 6.28035 2.59
1 1 0 2 o 410.400 314.168 180.00 6.28035 1.33
0 2 0 1 o 18546.090 19452.721 180.00 5.15585 100.00
0 2 0 2 o 18474.582 19452.721 180.00 5.15585 49.55
1 1 -1 1 o 1555.239 1417.025 180.00 5.01333 7.03
1 1 -1 2 o 1637.302 1417.025 180.00 5.01333 3.67
1 1 1 1 o 368.086 27.971 180.00 4.39468 0.63
1 1 1 2 o 281.850 27.971 180.00 4.39468 0.24
0 2 1 1 o 9251.959 9363.468 180.00 4.15056 34.43
0 2 1 2 o 9327.762 9363.468 180.00 4.15056 17.27
2 0 0 1 o 100.358 236.673 180.00 3.95921 0.09
2 0 0 2 o 107.571 236.673 180.00 3.95921 0.05
2 0 -1 1 o 78672.34 78383.20 0.00 3.72075 57.87
2 0 -1 2 o 78260.86 78383.20 0.00 3.72075 28.64
0 0 2 1 o 34918.145 34040.055 180.00 3.49816 34.43
0 0 2 2 o 34288.219 34040.055 180.00 3.49816 16.81
1 1 -2 1 o 384.056 392.208 180.00 3.24304 0.74
1 1 -2 2 o 389.335 392.208 180.00 3.24304 0.37
2 0 1 1 o 31502.398 31512.961 180.00 3.22389 15.62
2 0 1 2 o 31521.758 31512.961 180.00 3.22389 7.78
1 3 0 1 o 2986.904 2918.080 180.00 3.15299 10.10
1 3 0 2 o 3029.996 2918.080 180.00 3.15299 5.10
2 2 0 1 o 101.841 95.804 180.00 3.14017 0.17
2 2 0 2 o 104.687 95.804 180.00 3.14017 0.09
2 2 -1 1 o 30826.619 31131.090 180.00 3.01714 51.58
2 2 -1 2 o 30971.375 31131.090 180.00 3.01714 25.79
1 3 -1 1 o 8067.593 7952.861 180.00 2.94853 26.84
1 3 -1 2 o 8132.599 7952.861 180.00 2.94853 13.47
0 2 2 1 o 35233.10 35495.61 0.00 2.89476 48.08
0 2 2 2 o 35304.65 35495.61 0.00 2.89476 23.97
1 1 2 1 o 2975.389 2995.275 180.00 2.89810 1.10
2 0 -2 1 o 22850.906 23332.730 0.00 2.86850 12.19
1 1 2 2 o 2972.206 2995.275 180.00 2.89810 0.55
2 0 -2 2 o 22813.547 23332.730 0.00 2.86850 6.06
1 3 1 1 o 7070.246 6975.667 0.00 2.80590 9.00
1 3 1 2 o 7250.113 6975.667 0.00 2.80590 4.60
2 2 1 1 o 48994.85 49236.13 0.00 2.73350 43.56
2 2 1 2 o 48741.64 49236.13 0.00 2.73350 21.56
0 4 0 1 o 49474.21 44324.02 0.00 2.57792 71.12
0 4 0 2 o 49240.59 44324.02 0.00 2.57792 35.22
3 1 0 1 o 228.333 221.581 180.00 2.55703 0.81
3 1 -1 1 o 1007.634 959.443 180.00 2.53685 0.47
3 1 0 2 o 194.380 221.581 180.00 2.55703 0.34
3 1 -1 2 o 1012.669 959.443 180.00 2.53685 0.23
2 2 -2 1 o 4430.633 4923.307 180.00 2.50666 4.02
2 2 -2 2 o 4257.707 4923.307 180.00 2.50666 1.92
1 3 -2 1 o 1381.830 1537.234 0.00 2.42309 0.88
0 4 1 1 o 298.616 329.590 180.00 2.41894 0.87
1 3 -2 2 o 1401.782 1537.234 0.00 2.42309 0.44
0 4 1 2 o 291.971 329.590 180.00 2.41894 0.43
2 0 2 1 o 11950.076 13465.988 180.00 2.42898 4.27
2 0 2 2 o 12755.880 13465.988 180.00 2.42898 2.27
0 0 3 1 o 16491.596 14379.364 180.00 2.33211 7.38
0 0 3 2 o 16554.568 14379.364 180.00 2.33211 3.69
1 1 -3 1 o 19.656 23.219 180.00 2.28674 0.02
1 1 -3 2 o 22.787 23.219 180.00 2.28674 0.02
3 1 1 1 o 350.874 406.449 180.00 2.28601 0.09
1 3 2 1 o 2878.136 2932.001 0.00 2.26864 1.83
3 1 1 2 o 411.420 406.449 180.00 2.28601 0.05
1 3 2 2 o 2876.408 2932.001 0.00 2.26864 0.91
3 1 -2 1 o 323.508 481.490 0.00 2.24343 0.26
3 1 -2 2 o 323.076 481.490 0.00 2.24343 0.13
2 2 2 1 o 1130.509 951.020 0.00 2.19734 0.50
2 2 2 2 o 1180.228 951.020 0.00 2.19734 0.26
2 0 -3 1 o 18300.959 18058.137 180.00 2.17345 5.51
2 0 -3 2 o 18117.098 18058.137 180.00 2.17345 2.71
2 4 0 1 o 1942.726 1904.286 180.00 2.16034 2.27
2 4 0 2 o 1916.758 1904.286 180.00 2.16034 1.11
2 4 -1 1 o 17818.521 18006.035 0.00 2.11901 26.14
2 4 -1 2 o 17816.410 18006.035 0.00 2.11901 13.00
0 2 3 1 o 10988.907 11177.222 0.00 2.12485 8.62
0 2 3 2 o 11035.790 11177.222 0.00 2.12485 4.31
3 3 -1 1 o 1812.750 1840.128 180.00 2.08233 1.74
3 3 0 1 o 5832.322 5827.555 0.00 2.09345 3.97
3 3 -1 2 o 1821.932 1840.128 180.00 2.08233 0.87
3 3 0 2 o 5759.224 5827.555 0.00 2.09345 1.95
1 1 3 1 o 1383.617 1370.884 0.00 2.09793 0.74
1 1 3 2 o 1370.763 1370.884 0.00 2.09793 0.37
0 4 2 1 o 18486.578 18558.434 180.00 2.07528 17.08
0 4 2 2 o 18618.805 18558.434 180.00 2.07528 8.56
2 2 -3 1 o 11324.695 11442.772 0.00 2.00277 6.65
2 4 1 1 o 16125.298 16275.203 180.00 2.01338 12.78
2 2 -3 2 o 11465.354 11442.772 0.00 2.00277 3.36
2 4 1 2 o 15906.111 16275.203 180.00 2.01338 6.27
1 5 0 1 o 7266.701 7228.665 0.00 1.99576 12.00
1 5 0 2 o 7324.163 7228.665 0.00 1.99576 6.02
4 0 -1 1 o 1299.848 1291.606 180.00 1.99353 1.37
4 0 -1 2 o 1323.183 1291.606 180.00 1.99353 0.70
4 0 0 1 o 33135.227 33842.137 180.00 1.97961 7.58
4 0 0 2 o 32469.160 33842.137 180.00 1.97961 3.69
1 5 -1 1 o 7902.672 7846.072 0.00 1.94075 14.38
1 3 -3 1 o 8552.938 8531.010 0.00 1.93720 7.90
1 5 -1 2 o 7883.019 7846.072 0.00 1.94075 7.14
1 3 -3 2 o 8678.620 8531.010 0.00 1.93720 3.99
3 3 1 1 o 150.267 3079.724 0.00 1.93676 0.00
3 3 1 2 o 150.267 3079.724 0.00 1.93676 0.00
2 4 -2 1 o 4485.693 4434.452 0.00 1.91739 3.48
2 4 -2 2 o 4477.133 4434.452 0.00 1.91739 1.73
3 3 -2 1 o 1906.979 1883.465 180.00 1.91066 0.92
3 1 2 1 o 1247.638 1209.930 0.00 1.92225 0.43
3 3 -2 2 o 1890.973 1883.465 180.00 1.91066 0.45
3 1 2 2 o 1223.036 1209.930 0.00 1.92225 0.21
1 5 1 1 o 1042.360 1063.170 180.00 1.89836 0.51
1 5 1 2 o 1081.668 1063.170 180.00 1.89836 0.27
3 1 -3 1 o 1161.792 1172.638 180.00 1.88027 0.33
3 1 -3 2 o 1166.209 1172.638 180.00 1.88027 0.16
2 0 3 1 o 15546.917 15551.964 0.00 1.87768 2.59
2 0 3 2 o 15284.706 15551.964 0.00 1.87768 1.27
4 0 -2 1 o 23370.363 24193.303 0.00 1.86037 5.04
4 2 -1 1 o 3647.738 3757.394 0.00 1.85938 0.73
4 0 -2 2 o 23959.840 24193.303 0.00 1.86037 2.58
4 2 -1 2 o 3749.092 3757.394 0.00 1.85938 0.37
4 2 0 1 o 17197.242 16875.209 0.00 1.84807 6.80
4 2 0 2 o 17483.068 16875.209 0.00 1.84807 3.44
4 0 1 1 o 14.957 247.787 180.00 1.82700 0.00
4 0 1 2 o 14.957 247.787 180.00 1.82700 0.00
1 3 3 1 o -9.602 111.237 0.00 1.81836 0.00
1 3 3 2 o -9.602 111.237 0.00 1.81836 0.00
2 4 2 1 o 5114.297 5232.463 180.00 1.76786 1.84
1 5 -2 1 o 254.416 255.860 180.00 1.76558 0.65
2 4 2 2 o 5223.106 5232.463 180.00 1.76786 0.94
1 5 -2 2 o 252.779 255.860 180.00 1.76558 0.32
2 2 3 1 o 12996.149 13021.009 180.00 1.76432 3.59
2 2 3 2 o 12685.271 13021.009 180.00 1.76432 1.74
4 2 -2 1 o 13003.926 13137.639 180.00 1.74994 3.73
4 2 -2 2 o 12656.180 13137.639 180.00 1.74994 1.80
1 1 -4 1 o 345.587 360.228 180.00 1.74542 0.32
1 1 -4 2 o 337.638 360.228 180.00 1.74542 0.16
0 0 4 1 o 5188.346 5257.601 0.00 1.74908 1.30
0 0 4 2 o 5049.167 5257.601 0.00 1.74908 0.63
0 4 3 1 o 5983.352 6133.886 180.00 1.72944 3.20
0 6 0 1 o 3708.965 3446.641 180.00 1.71862 2.31
0 4 3 2 o 6024.759 6133.886 180.00 1.72944 1.60
0 6 0 2 o 3835.956 3446.641 180.00 1.71862 1.19
4 2 1 1 o 351.908 354.173 0.00 1.72207 0.66
4 2 1 2 o 393.038 354.173 0.00 1.72207 0.37
2 0 -4 1 o 16345.757 16128.132 180.00 1.70820 4.09
2 0 -4 2 o 16160.374 16128.132 180.00 1.70820 2.01
1 5 2 1 o 10386.048 10313.365 180.00 1.70307 5.78
3 3 2 1 o 20.622 195.303 180.00 1.70037 0.00
1 5 2 2 o 10637.294 10313.365 180.00 1.70307 2.95
3 3 2 2 o 20.622 195.303 180.00 1.70037 0.00
3 3 -3 1 o 132.414 136.289 180.00 1.67111 0.05
0 6 1 1 o 2055.811 2123.458 180.00 1.66900 2.51
3 3 -3 2 o 130.926 136.289 180.00 1.67111 0.03
0 6 1 2 o 2030.162 2123.458 180.00 1.66900 1.23
2 4 -3 1 o 11088.693 11507.217 180.00 1.66168 6.22
2 4 -3 2 o 11205.537 11507.217 180.00 1.66168 3.13
4 0 -3 1 o 15572.085 15594.254 0.00 1.65047 2.00
0 2 4 1 o 8897.800 9088.246 180.00 1.65636 3.33
4 0 -3 2 o 15206.786 15594.254 0.00 1.65047 0.97
0 2 4 2 o 9061.091 9088.246 180.00 1.65636 1.69
3 5 0 1 o 3017.279 2934.223 180.00 1.62510 1.37
1 1 4 1 o 826.850 756.416 0.00 1.63037 0.21
2 2 -4 1 o 11136.864 10931.480 0.00 1.62152 4.78
3 5 0 2 o 2992.209 2934.223 180.00 1.62510 0.68
3 5 -1 1 o 1367.718 1333.186 0.00 1.61988 0.03
1 1 4 2 o 791.174 756.416 0.00 1.63037 0.10
2 2 -4 2 o 11315.276 10931.480 0.00 1.62152 2.42
3 5 -1 2 o 1385.974 1333.186 0.00 1.61988 0.01
4 0 2 1 o 13822.773 13689.257 0.00 1.61194 1.71
4 0 2 2 o 13188.367 13689.257 0.00 1.61194 0.81
5 1 -1 1 o 9.523 8.052 180.00 1.58397 0.01
3 1 3 1 o 11.566 82.776 0.00 1.59971 0.00
5 1 -1 2 o 8.673 8.052 180.00 1.58397 0.00
3 1 3 2 o 11.566 82.776 0.00 1.59971 0.00
4 4 -1 1 o 1874.334 1844.606 180.00 1.57700 1.31
2 6 0 1 o 73.461 72.804 180.00 1.57650 0.07
1 3 -4 1 o 95.121 96.242 180.00 1.57430 0.22
4 4 -1 2 o 1841.708 1844.606 180.00 1.57700 0.64
2 6 0 2 o 72.952 72.804 180.00 1.57650 0.04
4 2 -3 1 o 7238.663 7203.749 180.00 1.57189 1.46
1 3 -4 2 o 96.697 96.242 180.00 1.57430 0.11
4 4 0 1 o 17631.648 17586.676 180.00 1.57009 6.95
4 2 -3 2 o 7117.927 7203.749 180.00 1.57189 0.71
4 4 0 2 o 17080.533 17586.676 180.00 1.57009 3.35
3 1 -4 1 o 42.818 43.879 180.00 1.56580 0.00
3 1 -4 2 o 43.060 43.879 180.00 1.56580 0.00
2 6 -1 1 o 6294.567 6364.123 180.00 1.56022 6.94
5 1 0 1 o 456.627 476.678 180.00 1.56533 0.61
2 6 -1 2 o 6417.467 6364.123 180.00 1.56022 3.53
5 1 0 2 o 465.026 476.678 180.00 1.56533 0.31
1 5 -3 1 o 4736.778 4696.269 180.00 1.54868 4.05
3 5 1 1 o 4682.471 4646.961 180.00 1.54845 0.69
1 5 -3 2 o 4640.351 4696.269 180.00 1.54868 1.97
3 5 1 2 o 4582.264 4646.961 180.00 1.54845 0.34
0 6 2 1 o 6140.154 6277.805 0.00 1.54251 5.35
0 6 2 2 o 6136.941 6277.805 0.00 1.54251 2.66
3 5 -2 1 o 10483.322 10532.285 0.00 1.53501 5.70
3 5 -2 2 o 11009.171 10532.285 0.00 1.53501 2.99
4 2 2 1 o 15069.217 15491.488 180.00 1.53850 3.77
4 2 2 2 o 15322.572 15491.488 180.00 1.53850 1.91
5 1 -2 1 o 116.953 99.712 180.00 1.52519 0.06
5 1 -2 2 o 103.888 99.712 180.00 1.52519 0.03
2 6 1 1 o 9158.104 9208.765 0.00 1.51658 4.15
4 4 -2 1 o 6777.149 6847.353 0.00 1.50857 3.07
2 6 1 2 o 9101.464 9208.765 0.00 1.51658 2.05
4 4 -2 2 o 6756.691 6847.353 0.00 1.50857 1.52
2 4 3 1 o 10354.875 10425.788 0.00 1.51776 4.31
2 4 3 2 o 10274.933 10425.788 0.00 1.51776 2.13
2 0 4 1 o 8407.003 8514.879 0.00 1.50991 0.98
2 0 4 2 o 8248.919 8514.879 0.00 1.50991 0.48
4 4 1 1 o 2.531 11.515 180.00 1.49061 0.00
4 4 1 2 o 2.531 11.515 180.00 1.49061 0.00
1 5 3 1 o 610.707 598.369 0.00 1.48591 0.39
1 5 3 2 o 571.489 598.369 0.00 1.48591 0.18
2 6 -2 1 o 1095.275 1108.917 180.00 1.47426 0.92
1 3 4 1 o 3917.828 3555.666 180.00 1.48832 0.96
2 6 -2 2 o 1037.694 1108.917 180.00 1.47426 0.43
1 3 4 2 o 3481.492 3555.666 180.00 1.48832 0.42
5 1 1 1 o 924.878 872.758 0.00 1.47679 0.26
5 1 1 2 o 822.951 872.758 0.00 1.47679 0.11
3 3 3 1 o 5498.345 5455.655 180.00 1.46489 1.36
1 7 0 1 o 6308.889 6354.351 180.00 1.44825 6.10
3 3 3 2 o 5628.830 5455.655 180.00 1.46489 0.70
5 3 -1 1 o 4664.492 4523.120 0.00 1.45277 1.41
1 7 0 2 o 6270.695 6354.351 180.00 1.44825 3.02
5 3 -1 2 o 4495.311 4523.120 0.00 1.45277 0.68
0 4 4 1 o 3859.695 3903.908 0.00 1.44738 1.40
3 3 -4 1 o 4294.016 4356.219 0.00 1.43872 1.59
0 4 4 2 o 3847.280 3903.908 0.00 1.44738 0.70
2 2 4 1 o 6674.141 6731.153 180.00 1.44905 1.85
3 3 -4 2 o 4308.374 4356.219 0.00 1.43872 0.79
4 0 -4 1 o 3779.765 3792.395 180.00 1.43425 0.56
2 2 4 2 o 6620.608 6731.153 180.00 1.44905 0.91
5 3 0 1 o 37.066 374.555 0.00 1.43836 0.00
4 0 -4 2 o 3834.773 3792.395 180.00 1.43425 0.28
5 3 0 2 o 37.066 374.555 0.00 1.43836 0.00
1 7 -1 1 o 11161.107 11177.385 180.00 1.42681 12.18
2 4 -4 1 o 7925.771 7984.195 180.00 1.42396 2.11
1 7 -1 2 o 11105.047 11177.385 180.00 1.42681 6.03
2 4 -4 2 o 7988.115 7984.195 180.00 1.42396 1.06
3 5 2 1 o 1567.722 1564.868 0.00 1.41942 0.59
5 1 -3 1 o 29.532 27.150 180.00 1.41131 0.01
1 7 1 1 o 4141.970 3944.442 0.00 1.40971 2.59
3 5 2 2 o 1595.991 1564.868 0.00 1.41942 0.30
5 1 -3 2 o 28.320 27.150 180.00 1.41131 0.00
5 3 -2 1 o 50.408 49.208 180.00 1.40702 0.02
1 7 1 2 o 4019.434 3944.442 0.00 1.40971 1.25
5 3 -2 2 o 49.285 49.208 180.00 1.40702 0.01
3 5 -3 1 o 57.553 57.464 180.00 1.40226 0.03
1 1 -5 1 o 1774.248 1747.697 0.00 1.40564 0.80
3 5 -3 2 o 57.102 57.464 180.00 1.40226 0.02
2 6 2 1 o 143.999 144.012 0.00 1.40295 0.04
1 1 -5 2 o 1748.842 1747.697 0.00 1.40564 0.39
2 6 2 2 o 144.222 144.012 0.00 1.40295 0.02
0 0 5 1 o 9138.111 9126.163 0.00 1.39926 1.55
4 4 -3 1 o 4324.989 4436.217 0.00 1.38999 0.97
0 0 5 2 o 8699.646 9126.163 0.00 1.39926 0.73
2 0 -5 1 o 1388.409 1480.540 0.00 1.39403 0.18
4 4 -3 2 o 4411.208 4436.217 0.00 1.38999 0.49
4 0 3 1 o 3042.631 3037.179 0.00 1.39893 0.01
2 0 -5 2 o 1431.565 1480.540 0.00 1.39403 0.09
0 6 3 1 o 2349.597 2277.558 0.00 1.38352 1.03
4 0 3 2 o 2860.428 3037.179 0.00 1.39893 0.01
4 2 -4 1 o 171.370 2632.490 0.00 1.38178 0.00
0 6 3 2 o 2535.325 2277.558 0.00 1.38352 0.56
4 2 -4 2 o 171.370 2632.490 0.00 1.38178 0.00
5 3 1 1 o 544.102 587.378 180.00 1.36876 0.50
4 4 2 1 o 8946.526 9267.399 0.00 1.36675 1.87
5 3 1 2 o 573.710 587.378 180.00 1.36876 0.27
4 4 2 2 o 9339.869 9267.399 0.00 1.36675 0.98
1 7 -2 1 o 750.996 727.549 0.00 1.35271 1.11
1 7 -2 2 o 721.940 727.549 0.00 1.35271 0.53
2 6 -3 1 o 2075.331 2079.958 0.00 1.34809 1.48
2 2 -5 1 o 1551.207 1529.185 180.00 1.34571 0.81
2 6 -3 2 o 2117.695 2079.958 0.00 1.34809 0.75
0 2 5 1 o 9800.378 9924.437 180.00 1.35042 1.99
4 2 3 1 o 2843.711 2901.904 180.00 1.35011 1.25
1 5 -4 1 o 662.159 648.662 180.00 1.34358 0.27
5 1 2 1 o 12.552 261.473 0.00 1.34866 0.00
0 2 5 2 o 9948.951 9924.437 180.00 1.35042 1.01
4 2 3 2 o 2913.229 2901.904 180.00 1.35011 0.64
5 1 2 2 o 12.552 261.473 0.00 1.34866 0.00
3 1 4 1 o -6.367 219.716 0.00 1.34625 0.00
3 1 4 2 o -6.367 219.716 0.00 1.34625 0.00
