#------------------------------------------------------------------------------
#$Date: 2016-03-24 14:04:12 +0200 (Thu, 24 Mar 2016) $
#$Revision: 179650 $
#$URL: svn://www.crystallography.net/cod/cif/4/51/03/4510366.cif $
#------------------------------------------------------------------------------
#
# This file is available in the Crystallography Open Database (COD),
# http://www.crystallography.net/
#
# All data on this site have been placed in the public domain by the
# contributors.
#
data_4510366
loop_
_publ_author_name
'Coles, Simon J.'
'Threlfall, Terence L.'
'Tizzard, Graham J.'
_publ_section_title
;
 The Same but Different: Isostructural Polymorphs and the Case of
 3-Chloromandelic Acid
;
_journal_issue                   4
_journal_name_full               'Crystal Growth &amp; Design'
_journal_page_first              1623
_journal_paper_doi               10.1021/cg401655h
_journal_volume                  14
_journal_year                    2014
_chemical_formula_moiety         'C8 H7 Cl O3'
_chemical_formula_sum            'C8 H7 Cl O3'
_chemical_formula_weight         186.59
_chemical_name_systematic
;
 ?
;
_space_group_crystal_system      monoclinic
_space_group_IT_number           14
_space_group_name_Hall           '-P 2ybc'
_space_group_name_H-M_alt        'P 1 21/c 1'
_symmetry_space_group_name_Hall  '-P 2ybc'
_symmetry_space_group_name_H-M   'P 1 21/c 1'
_atom_sites_solution_hydrogens   geom
_audit_creation_method           SHELXL-2013
_cell_angle_alpha                90
_cell_angle_beta                 93.690(6)
_cell_angle_gamma                90
_cell_formula_units_Z            4
_cell_length_a                   8.6101(5)
_cell_length_b                   10.4552(7)
_cell_length_c                   9.3914(7)
_cell_measurement_reflns_used    7537
_cell_measurement_temperature    293(2)
_cell_measurement_theta_max      27.5
_cell_measurement_theta_min      2.9
_cell_volume                     843.66(10)
_computing_cell_refinement
;
CrystalClear-SM Expert 3.1 b27 (Rigaku, 2013)
;
_computing_data_collection
;
CrystalClear-SM Expert 3.1 b27 (Rigaku, 2013)
;
_computing_data_reduction
;
CrystalClear-SM Expert 3.1 b27 (Rigaku, 2013)
;
_computing_molecular_graphics
'OLEX2 (Dolomanov, Bourhis, Gildea, Howard & Puschmann, 2009)'
_computing_publication_material  'WINGX (Farrugia, 1998)'
_computing_structure_refinement  'SHELXL-2012 (Sheldrick, 2012)'
_computing_structure_solution    'SUPERFLIP (Palatinus & Chapuis, 2007)'
_diffrn_ambient_temperature      293(2)
_diffrn_detector                 'CCD plate'
_diffrn_detector_area_resol_mean 28.5714
_diffrn_detector_type            'Rigaku HG Saturn724+ (2x2 bin mode)'
_diffrn_measured_fraction_theta_full 0.972
_diffrn_measured_fraction_theta_max 0.998
_diffrn_measurement_device       'four-circle \k diffractometer'
_diffrn_measurement_device_type  'Rigaku AFC12 (Right)'
_diffrn_measurement_method       'profile data from \w-scans'
_diffrn_measurement_specimen_support 'MiTeGen MicroMesh'
_diffrn_radiation_collimation    'Confocal mirrors, VHF Varimax'
_diffrn_radiation_type           MoK\a
_diffrn_radiation_wavelength     0.71075
_diffrn_reflns_av_R_equivalents  0.1178
_diffrn_reflns_av_unetI/netI     0.0693
_diffrn_reflns_Laue_measured_fraction_full 0.972
_diffrn_reflns_Laue_measured_fraction_max 0.998
_diffrn_reflns_limit_h_max       10
_diffrn_reflns_limit_h_min       -9
_diffrn_reflns_limit_k_max       12
_diffrn_reflns_limit_k_min       -12
_diffrn_reflns_limit_l_max       11
_diffrn_reflns_limit_l_min       -10
_diffrn_reflns_number            7537
_diffrn_reflns_point_group_measured_fraction_full 0.972
_diffrn_reflns_point_group_measured_fraction_max 0.998
_diffrn_reflns_theta_full        25.242
_diffrn_reflns_theta_max         25.025
_diffrn_reflns_theta_min         2.919
_diffrn_source                   'Rotating Anode'
_diffrn_source_current           55.0
_diffrn_source_power             2.475
_diffrn_source_voltage           45.0
_exptl_absorpt_coefficient_mu    0.413
_exptl_absorpt_correction_T_max  1.000
_exptl_absorpt_correction_T_min  0.655
_exptl_absorpt_correction_type   multi-scan
_exptl_absorpt_process_details
;
CrystalClear-SM Expert 3.1 b27 (Rigaku, 2013)
;
_exptl_crystal_colour            Colorless
_exptl_crystal_density_diffrn    1.469
_exptl_crystal_description       Chip
_exptl_crystal_F_000             384
_exptl_crystal_size_max          0.050
_exptl_crystal_size_mid          0.040
_exptl_crystal_size_min          0.020
_refine_diff_density_max         0.311
_refine_diff_density_min         -0.349
_refine_diff_density_rms         0.055
_refine_ls_extinction_method     none
_refine_ls_goodness_of_fit_ref   1.038
_refine_ls_hydrogen_treatment    constr
_refine_ls_matrix_type           full
_refine_ls_number_parameters     112
_refine_ls_number_reflns         1483
_refine_ls_number_restraints     0
_refine_ls_restrained_S_all      1.038
_refine_ls_R_factor_all          0.1224
_refine_ls_R_factor_gt           0.0676
_refine_ls_shift/su_max          0.001
_refine_ls_shift/su_mean         0.000
_refine_ls_structure_factor_coef Fsqd
_refine_ls_weighting_details
'w=1/[\s^2^(Fo^2^)+(0.0769P)^2^+0.5787P] where P=(Fo^2^+2Fc^2^)/3'
_refine_ls_weighting_scheme      calc
_refine_ls_wR_factor_gt          0.1678
_refine_ls_wR_factor_ref         0.1978
_reflns_Friedel_coverage         0.000
_reflns_number_gt                849
_reflns_number_total             1483
_reflns_threshold_expression     'I > 2\s(I)'
_cod_data_source_file            cg401655h_si_001.cif
_cod_data_source_block           shelxl
_cod_depositor_comments
;
The following automatic conversions were performed:

'_exptl_absorpt_correction_type' value 'Multi-scan' changed to
'multi-scan' according to
/usr/data/users/saulius/automatic-downloads/current/ACS/lib/dictionaries/cif_core.dic
dictionary named 'cif_core.dic' version 2.4.2 from 2011-04-26.

Automatic conversion script
Id: cif_fix_values 2281 2013-09-26 08:29:07Z andrius 
;
_cod_database_code               4510366
#BEGIN Tags that were not found in dictionaries:
_shelx_space_group_comment
;
The symmetry employed for this shelxl refinement is uniquely defined
by the following loop, which should always be used as a source of
symmetry information in preference to the above space-group names.
They are only intended as comments.
;
_shelx_estimated_absorpt_t_min   0.980
_shelx_estimated_absorpt_t_max   0.992
_shelxl_version_number           2013-3
_shelx_res_file
;
TITL 2013gjt0004pa
CELL  0.71075   8.6101  10.4552   9.3914   90.000   93.690   90.000
ZERR     4.00   0.0005   0.0007   0.0007    0.000    0.006    0.000
LATT   1
SYMM  - X, 1/2 + Y, 1/2 - Z
SFAC  C    H    CL   O
UNIT  32   28   4    12
MERG   2
SHEL   7 0.84
FMAP   2
PLAN   20
SIZE     0.02   0.04   0.05
ACTA
BOND   $H
CONF
L.S.   7
TEMP  -173.00
WGHT    0.076900    0.578700
FVAR       2.44195   1.00000
C1    1    0.272983    0.900833    0.321118    11.00000    0.04141    0.04274 =
         0.04719    0.00119    0.00094    0.00127
C2    1    0.387511    0.947733    0.237852    11.00000    0.04404    0.08014 =
         0.04857    0.00522   -0.00126   -0.00089
AFIX  43
H2    2    0.359821    0.993975    0.152908    11.00000   -1.20000
AFIX   0
C3    1    0.540486    0.926862    0.279032    11.00000    0.04188    0.08615 =
         0.06896   -0.00958    0.00245   -0.00487
C4    1    0.585734    0.859978    0.399259    11.00000    0.04880    0.06577 =
         0.10136    0.00102   -0.01842    0.00764
AFIX  43
H4    2    0.692658    0.843995    0.424171    11.00000   -1.20000
AFIX   0
C5    1    0.473120    0.816778    0.482546    11.00000    0.07511    0.07562 =
         0.09725    0.03284   -0.02163   -0.00186
AFIX  43
H5    2    0.501974    0.773507    0.569190    11.00000   -1.20000
AFIX   0
C6    1    0.316945    0.835098    0.442589    11.00000    0.05480    0.06842 =
         0.07610    0.02616    0.00207   -0.00268
AFIX  43
H6    2    0.239871    0.801610    0.500254    11.00000   -1.20000
AFIX   0
C7    1    0.103166    0.918806    0.275600    11.00000    0.04079    0.04501 =
         0.04114    0.00226    0.00257    0.00007
AFIX  13
H7    2    0.039538    0.885485    0.352921    11.00000   -1.20000
AFIX   0
C8    1    0.064430    1.058670    0.252003    11.00000    0.03212    0.05658 =
         0.04360   -0.00724    0.00392    0.00072
CL1   3    0.683840    0.987747    0.175627    11.00000    0.04582    0.20435 =
         0.10605    0.01627    0.01489   -0.02399
O1    4    0.062720    0.849705    0.148492    11.00000    0.05486    0.04563 =
         0.05162    0.00277   -0.00339   -0.00274
AFIX 147
H1    2    0.029363    0.900655    0.084464    11.00000   -1.50000
AFIX   0
O2    4    0.034091    1.105435    0.136084    11.00000    0.06724    0.05409 =
         0.04813    0.00234    0.00223    0.00427
O3    4    0.066419    1.123456    0.372564    11.00000    0.07735    0.05307 =
         0.05510   -0.00204   -0.00234    0.02054
AFIX 147
H3    2    0.043818    1.200266    0.355091    11.00000   -1.50000
AFIX   0
HKLF    4

REM  2013gjt0004pa
REM R1 =  0.0676 for     849 Fo > 4sig(Fo)  and  0.1224 for all    1483 data
REM    112 parameters refined using      0 restraints

END

WGHT      0.0597      0.7101

REM Highest difference peak  0.311,  deepest hole -0.349,  1-sigma level  0.055
Q1    1   0.6894  0.8968  0.2188  11.00000  0.05    0.31
Q2    1   0.8167  0.8979  0.2337  11.00000  0.05    0.20
Q3    1   0.0975  1.2582  0.1395  11.00000  0.05    0.17
Q4    1   0.2018  0.8488  0.5543  11.00000  0.05    0.17
Q5    1   0.8347  1.1044  0.2466  11.00000  0.05    0.16
Q6    1   0.5793  1.0063  0.0975  11.00000  0.05    0.16
Q7    1   0.6603  1.0748  0.2522  11.00000  0.05    0.16
Q8    1  -0.0406  0.8627  0.2139  11.00000  0.05    0.15
Q9    1   0.0910  1.1843  0.0255  11.00000  0.05    0.15
Q10   1   0.3204  0.9193  0.2758  11.00000  0.05    0.15
Q11   1   0.0719  1.0807  0.0642  11.00000  0.05    0.15
Q12   1   0.1721  1.1863  0.2413  11.00000  0.05    0.15
Q13   1   0.2503  1.1155  0.3748  11.00000  0.05    0.14
Q14   1   0.1318  1.1243  0.1643  11.00000  0.05    0.14
Q15   1   0.5187  0.8212  0.2964  11.00000  0.05    0.14
Q16   1  -0.1119  0.9153  0.2687  11.00000  0.05    0.14
Q17   1  -0.1203  1.1284  0.3816  11.00000  0.05    0.14
Q18   1   0.1554  0.7836  0.5579  11.00000  0.05    0.14
Q19   1  -0.1079  1.1353  0.0800  11.00000  0.05    0.14
Q20   1   0.5500  0.6785  0.5491  11.00000  0.05    0.13
;
_shelx_res_checksum              2578
_shelx_hkl_file
;
   0   1   1 460.020 101.200   1
   0  -1  -1 317.110 61.4300   1
   0  -1  -1 283.100 33.4700   1
   0   1   1 276.090 51.6800   1
  -1  -1   0 2165.15 85.8100   1
   1  -1   0 2499.87 63.0500   1
   1   1   0 2358.96 93.4000   1
  -1  -1   0 2358.54 61.9500   1
  -1   1   0 2493.29 66.1800   1
  -1   1   0 2752.85 76.5500   1
  -1  -1   1 5178.66 104.440   1
   1  -1  -1 5489.37 113.950   1
   1   1  -1 5162.73 136.870   1
  -1   1   1 4674.50 104.040   1
   1  -1  -1 4896.62 107.550   1
   1   1  -1 5127.07 113.870   1
   1  -1  -1 4857.73 95.2100   1
  -1   1   1 5097.74 98.7600   1
  -1  -1   1 5105.79 110.280   1
   1   1  -1 5176.21 140.460   1
   1   1   1 824.690 38.8300   1
  -1  -1  -1 925.370 43.0100   1
   1   1   1 1322.50 105.430   1
  -1   1  -1 618.940 46.6800   1
   1  -1   1 638.900 49.2200   1
   1  -1   1 592.210 34.2300   1
   0   2   0 34964.4 401.010   1
   0  -2   0 35591.3 382.850   1
   0   0   2 45655.7 919.610   1
   0   0  -2 47616.1 941.990   1
   0   0  -2 47157.0 950.130   1
   0   2  -1 17337.8 260.160   1
   0  -2   1 16767.4 228.700   1
   0   2   1 19215.9 374.330   1
   0   2   1 17136.1 227.290   1
   0  -2  -1 19186.5 245.300   1
   0  -2   1 17243.9 223.890   1
   0   2  -1 16971.6 224.070   1
   1  -2   0 277.540 42.0200   1
  -1   2   0 260.830 33.4200   1
  -1   2   0 263.220 33.8100   1
   1  -2   0 254.840 32.6500   1
   2   0   0 19769.6 288.970   1
  -2   0   0 19371.6 239.900   1
  -2   0   0 19633.5 247.270   1
   2   0   0 19573.2 283.660   1
   0   1  -2 678.920 62.7300   1
   0   1   2 1055.34 66.0000   1
   0   1   2 1542.15 110.990   1
   0   1   2 1143.88 75.7400   1
   0   1   2 921.750 59.5900   1
   0  -1   2 737.540 65.3600   1
   0  -1   2 611.550 38.6400   1
   0   1  -2 718.310 37.3800   1
   0   1   2 1227.55 57.1900   1
   1   0  -2 31322.9 355.690   1
  -1   0   2 30717.0 358.240   1
   1   0  -2 30028.4 361.150   1
  -1   0   2 31711.0 382.820   1
  -1   0   2 28796.0 354.020   1
   1   2  -1 10642.1 273.440   1
  -1   2   1 9638.47 179.650   1
  -1   2   1 10600.2 170.790   1
   1   2  -1 9090.14 169.950   1
  -1  -2   1 9780.80 162.840   1
  -1   2   1 9931.70 153.410   1
   1  -2  -1 10128.3 166.910   1
   1   2  -1 9662.13 175.580   1
  -1  -2   1 9883.08 164.140   1
   1  -2  -1 9958.26 146.220   1
  -1  -2   1 9329.70 181.410   1
   1   0   2 2249.45 75.3900   1
   1   0   2 2561.81 108.910   1
   1   0   2 2476.65 89.1200   1
   1  -2   1 22144.4 275.460   1
  -1  -2  -1 21163.7 339.870   1
   1   2   1 21214.0 408.160   1
  -1   2  -1 21758.6 309.650   1
   1  -2   1 20643.0 272.230   1
  -1   2  -1 20739.6 259.720   1
   1   2   1 20837.5 274.150   1
   1  -2   1 21800.5 290.960   1
   2  -1   0 364.960 34.8400   1
  -2   1   0 312.480 28.2200   1
  -2  -1   0 182.270 32.5500   1
   2   1   0 150.800 27.1700   1
  -2   1   0 335.090 33.3000   1
  -2   1   0 252.450 33.7700   1
  -2  -1   0 101.060 24.2200   1
   2   1   0 137.660 29.1500   1
  -1   1   2 8391.20 267.050   1
   1  -1  -2 7529.44 146.460   1
   1   1  -2 7235.75 135.970   1
   1   1  -2 6739.46 166.740   1
   1  -1  -2 7056.02 135.140   1
  -1  -1   2 6587.15 125.860   1
  -1  -1   2 6935.77 120.830   1
  -1   1   2 7467.63 126.570   1
  -1  -1   2 6670.29 136.890   1
   1   1  -2 6904.12 150.890   1
  -1   1   2 7419.68 136.440   1
  -1   1   2 7964.30 143.130   1
  -1   1   2 7582.29 127.460   1
  -1   1  -2 9284.58 170.000   1
   1   1   2 9154.17 136.720   1
  -1  -1  -2 8223.65 186.260   1
   1   1   2 8147.39 162.930   1
   1  -1   2 8076.75 154.820   1
   2   1  -1 25214.6 344.540   1
  -2   1   1 28616.9 315.780   1
  -2  -1   1 26124.3 297.420   1
   2  -1  -1 28554.6 361.240   1
  -2   1   1 26719.8 324.960   1
   2   1  -1 25368.2 345.220   1
  -2   1   1 27279.7 316.500   1
   2  -1  -1 25258.7 369.070   1
  -2  -1   1 25882.3 311.080   1
   2  -1   1 34236.1 396.890   1
   2   1   1 37227.0 686.370   1
   2   1   1 33698.2 383.210   1
   2   1   1 32078.8 374.300   1
  -2  -1  -1 33784.6 376.270   1
   2  -1   1 35425.0 371.330   1
   0  -2   2 45390.3 499.740   1
   0   2   2 49109.1 980.420   1
   0  -2   2 45242.8 465.320   1
   0   2  -2 45971.4 916.400   1
   0   2  -2 45666.7 903.640   1
   0   2  -2 45366.4 570.530   1
   0  -3   0 99.7000 34.2100   1
   0   3   0 129.590 35.6000   1
  -2  -2   0 2691.53 79.1500   1
   2   2   0 2523.56 78.2800   1
   2   2   0 2718.24 71.5800   1
  -2  -2   0 2692.34 67.9600   1
  -2   2   0 1972.05 61.0000   1
   2  -2   0 2171.63 66.6500   1
  -1   2   2 117.630 29.9400   1
  -1  -2   2 225.770 32.1500   1
   1   2  -2 190.900 32.5500   1
  -1   2   2 102.660 36.5500   1
  -1  -2   2 232.020 34.8400   1
   1  -2  -2 107.770 23.4100   1
  -1  -2   2 188.420 54.5600   1
   1   2  -2 136.100 42.0400   1
  -2   0   2 2034.16 70.0700   1
  -2   0   2 2163.75 67.4500   1
   2   0  -2 1863.24 83.8200   1
   2   0  -2 2068.44 76.5800   1
   2   0  -2 2314.16 71.4600   1
  -2   0   2 2187.23 63.2200   1
   2   0  -2 2782.80 89.8400   1
   0   3  -1 20023.6 251.190   1
   0   3  -1 21001.9 291.530   1
   0   3   1 20349.8 523.310   1
   0   3   1 19382.8 265.890   1
   0  -3  -1 17804.4 226.890   1
   0  -3   1 21198.3 269.790   1
  -1  -3   0 64.6700 37.4100   1
   1   3   0 74.0600 26.4900   1
  -1   3   0 146.590 36.9600   1
   1  -3   0 158.830 35.6500   1
   1  -3   0 176.590 45.0400   1
  -1   3   0 134.230 32.5000   1
  -1  -2  -2 20874.7 261.720   1
   1  -2   2 19120.6 270.250   1
  -1   2  -2 18852.0 285.930   1
   1   2   2 16889.1 503.370   1
   1   2   2 19330.3 260.770   1
  -1   2  -2 19053.5 254.370   1
   1  -2   2 18128.6 264.390   1
  -2   2   1 6933.77 130.530   1
  -2  -2   1 7295.37 152.940   1
   2  -2  -1 7537.29 121.200   1
  -2   2   1 6842.84 126.400   1
   2   2  -1 7737.43 166.510   1
  -2   2   1 6856.56 173.150   1
   2   2  -1 7327.22 163.700   1
  -2  -2   1 7457.63 135.120   1
  -2   2   1 7897.72 132.150   1
   2   2  -1 7732.31 157.010   1
  -2  -2   1 7919.85 121.310   1
   0   0   3 71.5000 42.3400   1
  -2   1   2 2614.09 86.6100   1
   2  -1  -2 2747.57 78.8100   1
   2  -1  -2 2381.96 102.780   1
   2  -1  -2 2880.05 86.9600   1
  -2  -1   2 3062.20 87.4900   1
   2   1  -2 2731.82 114.230   1
   2   1  -2 2817.91 95.5500   1
  -2   1   2 2691.02 79.5500   1
   2  -1  -2 2749.47 87.4600   1
  -2  -1   2 2972.63 77.1900   1
  -2  -1   2 3024.75 72.1300   1
   2   1  -2 2961.88 95.2400   1
  -2   1   2 2774.04 70.3600   1
  -2  -2  -1 173.330 28.3900   1
  -2   2  -1 139.980 25.3300   1
   2   2   1 180.750 68.8600   1
   2  -2   1 132.620 30.2500   1
   2   2   1 139.050 24.2400   1
  -2  -2  -1 169.010 25.8800   1
   1  -3  -1 38879.8 418.560   1
  -1  -3   1 36066.2 408.530   1
  -1  -3   1 37781.4 417.590   1
   1  -3  -1 38386.6 441.790   1
   1   3  -1 39309.1 473.700   1
  -1   3   1 37690.5 435.850   1
  -1   3   1 37610.7 416.260   1
   2   0   2 3004.97 72.4800   1
   2   0   2 4044.44 173.130   1
   1  -3   1 664.060 50.0200   1
  -1  -3  -1 193.010 34.7600   1
  -1  -3  -1 155.150 34.5300   1
  -1   3  -1 602.540 49.3000   1
   0   1   3 9714.21 194.260   1
   0   1   3 8396.70 142.870   1
   0  -1  -3 8828.77 144.210   1
   0   1  -3 8424.23 165.890   1
   0  -1   3 9978.24 180.060   1
   0   1  -3 10106.0 204.350   1
   0   1   3 8201.86 148.990   1
   0   1   3 9553.15 346.290   1
  -2  -1  -2 47.0400 22.3700   1
   2  -1   2 93.0000 32.9000   1
  -1  -1   3 152.380 45.7200   1
  -1  -1   3 97.2200 32.7500   1
   1   1  -3 111.100 37.4900   1
  -1  -1   3 102.700 22.9100   1
   1   1  -3 85.6300 48.8800   1
   1   1  -3 98.7700 33.6100   1
  -1   1   3 136.130 44.3000   1
  -1   1   3 24.3400 27.7900   1
  -3   0   0 42396.2 432.820   1
   3   0   0 44928.2 540.090   1
   3   0   0 45745.6 912.490   1
  -3   0   0 41415.4 447.230   1
   0  -3   2 1198.84 64.3500   1
   0   3   2 1178.87 48.0300   1
   0  -3  -2 1445.50 76.5000   1
   0   3  -2 1057.05 45.3600   1
   0   3  -2 1092.75 55.8400   1
   0  -3   2 1111.09 46.2300   1
   0  -3  -2 1404.81 57.1000   1
  -3   0   1 28.1900 23.7500   1
  -3   0   1 48.2700 25.6800   1
   3   0  -1 52.3800 31.5300   1
  -2  -2   2 635.130 58.3200   1
  -2   2   2 756.030 34.4400   1
  -2  -2   2 745.280 37.1700   1
   2   2  -2 557.070 38.2900   1
   2   2  -2 738.210 59.2200   1
   2  -2  -2 763.990 41.8200   1
  -2   2   2 828.530 49.2900   1
   2  -2  -2 833.370 39.8200   1
   2   2  -2 640.190 35.9000   1
   2  -2  -2 771.630 49.2200   1
  -2   2   2 757.240 50.5400   1
  -2   2   2 818.280 42.2100   1
  -2  -2   2 780.220 45.4200   1
  -1   1  -3 1045.35 58.0600   1
   1  -1   3 922.010 56.3500   1
   1   1   3 586.880 43.6300   1
   1   1   3 476.980 59.5200   1
   1   1   3 489.770 39.9200   1
   1  -1   3 950.820 41.4500   1
  -1   1  -3 799.540 55.1200   1
  -3   1   0 2394.93 68.5100   1
  -3  -1   0 1722.92 52.1500   1
  -3  -1   0 1550.99 57.2400   1
   3   1   0 1700.49 61.1200   1
   3   1   0 1734.37 64.7100   1
   3  -1   0 2147.29 56.7200   1
  -3   1   0 1994.91 59.8200   1
   2   3   0 316.590 167.670   1
   2   3   0 96.4000 31.9200   1
  -2  -3   0 104.830 22.4000   1
   2  -3   0 70.5200 25.8800   1
   2  -3   0 78.8900 28.7900   1
  -2  -3   0 111.160 29.5700   1
   2  -3   0 80.4300 30.5700   1
   3   1  -1 34775.9 405.290   1
  -3  -1   1 33040.8 400.750   1
   3  -1  -1 33042.7 437.790   1
  -3   1   1 32604.5 386.370   1
   3   1  -1 32509.8 427.930   1
   3  -1  -1 34455.0 419.650   1
  -3  -1   1 34211.4 361.920   1
   3   1  -1 35336.9 422.450   1
  -3   1   1 35272.0 382.000   1
   3  -1  -1 34788.7 428.940   1
  -3   0  -1 111.150 25.7500   1
   3   0   1 54.0900 26.7300   1
  -1  -3   2 1454.39 68.6000   1
  -1   3   2 1170.10 119.330   1
   1   3  -2 1359.40 49.4400   1
  -1  -3   2 1543.15 54.3000   1
  -1   3   2 1682.06 60.7500   1
   1  -3  -2 1613.55 49.8900   1
  -1  -3   2 1616.86 68.6300   1
   1  -3  -2 1645.98 63.5100   1
   1   3  -2 1579.06 83.9400   1
   0  -2   3 844.720 41.4700   1
   0   2   3 784.350 43.5500   1
   0   2   3 910.430 62.1500   1
   0   2   3 1106.58 187.430   1
   0   2   3 971.140 58.5300   1
   0   2  -3 726.310 53.6500   1
   0  -2   3 888.500 57.7100   1
   0   2   3 989.640 40.7500   1
   0   2   3 994.000 47.0700   1
   0   2  -3 814.910 42.4500   1
  -2   2  -2 1423.87 49.7900   1
  -2  -2  -2 1021.55 49.4700   1
   2   2   2 862.920 44.3300   1
   2   2   2 701.980 134.880   1
   2   2   2 809.510 42.1800   1
  -2  -2  -2 852.030 36.5000   1
  -1   3  -2 736.620 38.0900   1
  -1  -3  -2 683.070 48.4300   1
   1   3   2 601.940 38.3800   1
  -1   3  -2 678.800 54.7500   1
   1   3   2 635.350 38.3300   1
   1  -3   2 694.490 53.4400   1
   1  -3   2 694.390 37.9900   1
   2  -3  -1 1582.09 61.5300   1
   0  -4   0 25350.4 288.470   1
  -2   0   3 20.5400 26.5400   1
   2   0  -3 54.6200 25.2600   1
  -2   0   3 41.7300 27.5700   1
   2   0  -3 21.9900 47.7800   1
   3  -1   1 3322.07 74.7000   1
  -3  -1  -1 3820.54 83.2700   1
   3   1   1 3828.02 90.6600   1
  -3   1  -1 2901.97 83.4900   1
   3   1   1 3794.96 87.7900   1
   1  -2  -3 1461.13 54.4400   1
  -1   2   3 1602.31 51.9500   1
  -1   2   3 1562.43 69.6800   1
   1   2  -3 1540.01 63.4200   1
  -1  -2   3 1542.16 62.1200   1
  -1   2   3 1481.62 48.3800   1
  -1  -2   3 1479.05 70.8100   1
   1   2  -3 1548.42 66.3600   1
  -1   2   3 1580.39 71.6200   1
  -1   2   3 1593.34 74.0700   1
  -1  -2   3 1619.20 54.8100   1
   2   3   1 242.780 29.3100   1
  -2  -3  -1 237.340 24.0700   1
  -2   3  -1 305.450 38.2600   1
   2  -3   1 302.190 33.5000   1
  -2   3  -1 341.500 29.6400   1
  -2  -3  -1 252.010 37.3400   1
   2  -3   1 334.850 37.4800   1
   2  -3   1 277.700 29.7100   1
   2   3   1 215.080 29.7900   1
   2   1  -3 713.780 41.4500   1
  -2  -1   3 720.700 38.8600   1
   2  -1  -3 567.950 47.9400   1
   2   1  -3 846.680 48.9600   1
  -2   1   3 371.190 96.1600   1
   2  -1  -3 533.560 44.4200   1
  -2   1   3 493.570 55.2400   1
   2   1  -3 660.540 54.8600   1
  -2  -1   3 776.340 59.5400   1
  -2   1   3 547.420 31.7900   1
   2  -1  -3 560.770 36.7500   1
  -2  -1   3 648.080 34.8000   1
   2   1  -3 693.100 46.7100   1
  -2   1   3 785.850 56.7600   1
   2  -1  -3 582.980 36.0200   1
   2  -1  -3 479.850 34.0900   1
  -2   1   3 647.010 38.5400   1
   1   2   3 1426.81 57.4500   1
  -1   2  -3 1750.65 61.2700   1
  -1  -2  -3 1582.57 58.3700   1
  -1  -2  -3 1452.50 70.4500   1
   1   2   3 1100.56 205.610   1
  -1   2  -3 2138.14 79.9100   1
   1  -2   3 1872.91 60.7000   1
   1  -2   3 1944.11 77.3900   1
   0   4   1 821.840 42.1900   1
   0  -4   1 1111.84 51.1100   1
   0  -4   1 964.470 52.1600   1
   0   4  -1 1076.91 59.7200   1
   0   4   1 1185.22 197.350   1
   0  -4  -1 997.720 49.4300   1
   0   4  -1 951.550 44.5200   1
   3   0  -2 625.670 45.2800   1
   3   0  -2 754.890 40.6700   1
   3   0  -2 532.300 40.3100   1
  -3   0   2 619.380 34.5800   1
  -3   0   2 624.280 49.9300   1
  -3   0   2 694.130 42.7600   1
  -3   2   0 11392.5 185.420   1
  -3  -2   0 11720.1 169.550   1
   3   2   0 10736.0 184.210   1
  -3   2   0 12251.9 170.820   1
   3   2   0 10754.4 182.640   1
  -3  -2   0 11346.4 197.830   1
   3  -2   0 12489.7 174.640   1
  -3   2   0 11224.2 197.920   1
   3  -2   0 12111.7 220.570   1
   1   4   0 20151.1 864.170   1
  -1   4   0 19153.5 261.110   1
  -1  -4   0 17071.8 264.370   1
  -1   4   0 18124.2 241.320   1
   3   2  -1 7079.87 152.260   1
  -3  -2   1 6782.96 143.440   1
   3  -2  -1 7064.32 115.010   1
   3   2  -1 6710.33 148.260   1
   3  -2  -1 7029.81 158.960   1
  -3  -2   1 6769.86 116.010   1
  -3   2   1 7448.95 136.840   1
  -3   2   1 7374.15 163.950   1
   3   2  -1 6470.42 151.510   1
  -3   2   1 7410.89 118.990   1
  -3   1   2 120.890 26.2800   1
   3   1  -2 70.8300 32.0900   1
  -3  -1   2 40.0100 24.2500   1
   3  -1  -2 122.990 31.8800   1
   3  -1  -2 121.360 25.1300   1
  -3   1   2 151.160 30.5200   1
  -3  -1   2 93.0800 42.3300   1
  -3   1   2 133.240 31.3600   1
  -3   1   2 104.990 40.9300   1
   3  -1  -2 32.0400 28.1800   1
  -3  -1   2 23.9800 26.2800   1
   3   1  -2 48.3500 25.4400   1
  -1   4   1 5202.55 117.420   1
  -1  -4   1 5686.05 145.760   1
   1   4  -1 5358.65 124.820   1
  -1   4   1 7172.00 563.690   1
   1  -4  -1 5275.02 126.790   1
   1  -4  -1 5758.16 122.760   1
  -1   4   1 5023.66 113.590   1
  -1  -4   1 4942.44 96.5700   1
   1   4  -1 5330.64 124.660   1
   1   4   1 5965.77 114.620   1
  -1  -4  -1 6876.01 126.070   1
  -1   4  -1 7096.25 150.020   1
   1   4   1 5352.82 589.000   1
  -1  -4  -1 5894.35 148.310   1
  -1   4  -1 6824.85 117.110   1
  -1   4  -1 6499.48 128.630   1
   1  -4   1 7016.74 130.750   1
   1  -4   1 7104.17 118.820   1
  -1  -4  -1 6985.82 121.460   1
   3   2   1 4060.25 94.5500   1
   3  -2   1 3438.92 76.5800   1
  -3  -2  -1 4264.58 108.360   1
   3  -2   1 3507.53 97.9700   1
  -3  -2  -1 4044.98 92.4000   1
   3   2   1 4111.68 90.8000   1
  -3   2  -1 4083.38 95.1800   1
  -2  -1  -3 324.440 48.8100   1
   2   1   3 120.100 125.170   1
   2  -1   3 196.090 40.0100   1
   2   1   3 361.980 32.9500   1
  -2   3   2 408.720 49.3000   1
  -2   3   2 396.010 46.3500   1
   2   3  -2 559.220 52.0700   1
  -2  -3   2 355.350 47.2200   1
  -2   3   2 373.460 29.1800   1
   2  -3  -2 352.860 31.2200   1
  -2  -3   2 448.800 31.2200   1
   2   3  -2 560.450 43.8700   1
  -2   3   2 330.140 34.0900   1
   2   3  -2 402.540 36.0100   1
  -2  -3   2 351.710 33.4800   1
  -2   3   2 370.460 37.5400   1
  -3   0  -2 28373.4 370.810   1
   3   0   2 29333.5 311.000   1
   3   0   2 24205.3 674.380   1
   0   0   4 3457.09 90.6000   1
   0   0  -4 2424.13 137.960   1
   0   0   4 3436.38 178.550   1
   0   0   4 3768.11 95.7500   1
   0   0  -4 3483.54 100.110   1
   0   0   4 3069.73 85.5200   1
   0   0  -4 3442.20 87.9000   1
  -2   2   3 475.500 31.5200   1
   2   2  -3 567.050 47.9500   1
  -2   2   3 515.760 51.4600   1
   2  -2  -3 474.360 39.8500   1
  -2  -2   3 589.520 37.7000   1
   2   2  -3 563.800 43.6300   1
  -2   2   3 503.140 39.2000   1
   2  -2  -3 589.110 38.4900   1
  -2  -2   3 552.990 37.6100   1
   2   2  -3 688.690 63.7300   1
  -2  -2   3 630.600 56.6400   1
   0   3   3 202.320 35.4200   1
   0  -3  -3 286.390 66.0000   1
   0   3   3 -52.320 72.7000   1
   0  -3  -3 303.730 45.6300   1
   0   3  -3 287.890 27.1200   1
   0   3  -3 259.490 32.2300   1
   0  -3   3 339.100 38.7200   1
   0  -3   3 261.180 43.2300   1
   0   3  -3 345.580 45.0700   1
   3  -1   2 167.230 53.1700   1
   3  -1   2 106.650 42.2400   1
  -3  -1  -2 122.680 24.7600   1
   3  -1   2 172.720 25.6700   1
   3   1   2 141.650 26.7200   1
  -2  -3  -2 -68.380 121.740   1
  -1   0   4 1386.75 74.8100   1
   1   0  -4 1510.18 93.1100   1
  -1   0   4 1622.73 104.060   1
  -1   0   4 1718.70 57.8700   1
   1   0  -4 1746.38 93.0100   1
  -1   0   4 1546.91 54.9300   1
   1   0  -4 1483.01 58.4300   1
  -1   0   4 1511.39 51.4600   1
   1   0  -4 1366.97 78.4400   1
   0  -1   4 832.050 41.4300   1
   0   1   4 1145.70 83.4900   1
   0   1   4 1123.70 165.900   1
   0   1  -4 539.610 59.0800   1
   0  -1  -4 938.880 45.0100   1
   0   1   4 868.200 47.3400   1
   0   1  -4 634.550 40.0400   1
   0  -1   4 991.220 68.2900   1
   0  -1   4 881.960 60.1100   1
   0   1  -4 859.860 63.4600   1
   0   1   4 1030.58 68.6800   1
   0   4  -2 88.0000 43.0300   1
   0   4   2 98.2400 64.4900   1
   0   4   2 288.840 33.8600   1
   0  -4  -2 292.940 38.4800   1
   0   4   2 277.680 39.0900   1
   0  -4   2 103.940 30.7500   1
   0  -4   2 115.500 46.4300   1
   0   4  -2 45.4200 24.8400   1
   1  -3  -3 262.820 32.6800   1
  -1  -3   3 58.5500 49.4300   1
   1   3  -3 107.150 47.3000   1
  -1   3   3 263.710 43.7900   1
  -1   3   3 172.630 83.7000   1
  -1   3   3 265.390 45.9800   1
  -1   3   3 214.190 31.0800   1
  -1  -3   3 51.8300 33.1600   1
   1   3  -3 52.2100 27.6700   1
  -1   3   3 307.690 34.2100   1
  -1  -3   3 111.480 36.5300   1
  -3   2   2 683.500 39.0200   1
  -3  -2   2 372.640 35.3000   1
   3   2  -2 425.550 36.4400   1
  -3  -2   2 334.770 44.8000   1
   3   2  -2 448.060 50.7300   1
  -3   2   2 749.620 47.6700   1
   3  -2  -2 725.270 48.5300   1
   3   2  -2 339.560 31.3500   1
  -3  -2   2 367.880 30.5100   1
  -3   2   2 789.870 41.8800   1
   1  -1  -4 194.910 40.0300   1
  -1   1   4 204.370 44.0300   1
   1  -1  -4 234.240 31.6900   1
   1   1  -4 257.220 50.6700   1
  -1  -1   4 156.750 47.5600   1
  -1   1   4 214.880 22.8900   1
  -1  -1   4 161.070 29.0300   1
  -1   1   4 159.460 88.9800   1
   1   1  -4 272.300 35.4400   1
  -1   1   4 554.110 93.0400   1
  -1  -1   4 235.150 29.3900   1
   1   1  -4 196.630 29.2700   1
  -1   1   4 193.820 30.8000   1
  -1   1   4 219.330 27.1400   1
  -2   4   0 10517.9 250.640   1
   2   4   0 11927.4 324.960   1
   2   4   0 11683.4 267.260   1
  -2   4   0 11841.3 276.300   1
   2  -4   0 11496.8 279.980   1
  -1   0  -4 31113.8 686.480   1
   1   0   4 25615.6 559.670   1
   1   0   4 32180.1 713.030   1
   1   0   4 29136.8 799.130   1
   1   0   4 30638.0 672.980   1
   1  -4  -2 523.250 59.2400   1
  -1  -4   2 115.030 31.1300   1
  -1   4   2 377.630 35.3600   1
   1  -4  -2 295.020 45.4000   1
   1   4  -2 211.630 42.1400   1
  -1  -4   2 107.020 42.7400   1
   1  -4  -2 449.850 32.7600   1
  -1  -4   2 111.430 35.6400   1
   1   4  -2 114.390 25.5500   1
  -2   2  -3 1371.35 60.7000   1
   2  -2   3 1354.99 63.1600   1
   2   2   3 1617.21 76.0400   1
  -2  -2  -3 1472.63 59.5400   1
   2  -2   3 1102.73 83.9100   1
   2   2   3 1655.65 63.9400   1
  -2  -2  -3 1613.27 69.5800   1
  -2   2  -3 1408.77 75.8200   1
  -1   3  -3 4178.30 160.410   1
  -1  -3  -3 3461.20 119.940   1
  -1  -3  -3 3143.50 95.5800   1
   1   3   3 3193.08 99.7600   1
   1  -3   3 4376.89 135.240   1
  -1   3  -3 4566.70 145.310   1
   1  -3   3 4406.45 128.790   1
  -3  -3   0 2850.96 85.6800   1
   3  -3   0 3239.24 101.250   1
  -3   3   0 2964.42 95.5700   1
  -3  -3   0 3030.28 92.2800   1
   3   3   0 2850.61 89.4100   1
   3  -3   0 2980.51 88.3300   1
   3   3   0 3172.58 102.120   1
  -1  -4  -2 4779.96 129.380   1
  -1   4  -2 5344.31 166.010   1
   1  -4   2 5581.21 155.060   1
  -1   4  -2 5861.37 148.140   1
  -1   4  -2 5050.71 134.660   1
   1  -4   2 5624.46 144.250   1
  -2  -4   1 81.7800 22.9600   1
  -2   4   1 96.9600 39.9000   1
   2   4  -1 65.2600 28.3200   1
   2  -4  -1 -1.5000 69.2500   1
  -2  -4   1 41.0600 147.840   1
   2  -4  -1 35.4900 31.8000   1
  -2   4   1 41.1400 27.4200   1
   2   4  -1 120.900 36.0800   1
   2   4  -1 81.7300 43.3000   1
  -2  -4   1 136.830 37.1100   1
   2  -4  -1 47.6800 27.9200   1
  -3   0   3 34.0200 44.0400   1
   3   0  -3 3.75000 24.6300   1
  -3   3   1 718.380 41.6500   1
   3   3  -1 1208.67 59.5300   1
  -3   3   1 873.860 46.1400   1
   3  -3  -1 684.150 49.5400   1
   3   3  -1 1317.94 55.5300   1
   3   3  -1 1279.39 69.4500   1
  -3  -3   1 1232.33 59.7300   1
   3  -3  -1 736.510 39.7400   1
  -3   3   1 644.820 42.8900   1
   1  -1   4 1416.22 74.7800   1
  -1   1  -4 1376.41 67.8800   1
   1  -1   4 1492.14 57.6600   1
   1   1   4 1402.25 174.150   1
   1  -1   4 1811.18 124.460   1
   1   1   4 1741.56 94.6900   1
   1   1   4 1505.57 70.2300   1
  -3  -2  -2 3030.84 87.3400   1
  -3   2  -2 2449.92 97.0700   1
  -3  -2  -2 3009.20 92.4600   1
   3   2   2 3050.28 94.6400   1
   3   2   2 2766.60 82.9000   1
   3  -2   2 3170.19 89.6100   1
   3  -2   2 2963.02 100.180   1
  -2   4  -1 4238.45 122.070   1
   2   4   1 4583.23 134.330   1
   2  -4   1 3946.98 117.730   1
  -2  -4  -1 5578.84 309.220   1
   2  -4   1 4681.27 132.230   1
  -2   4  -1 4489.70 142.060   1
   2   4   1 3826.77 170.110   1
  -2  -4  -1 4642.33 124.180   1
  -2  -4  -1 4888.18 125.900   1
   2  -4   1 5072.63 142.630   1
   4   0   0 84.6700 27.5400   1
  -4   0   0 98.8800 22.2000   1
  -4   0   0 119.020 22.9600   1
   4   0   0 71.5400 25.0400   1
   0  -2   4 724.360 57.5500   1
   0   2   4 961.420 67.1700   1
   0   2   4 1068.17 234.340   1
   0   2   4 1043.41 68.1700   1
   0   2  -4 535.760 50.2000   1
   0   2   4 890.650 51.3500   1
   0   2   4 954.710 55.7300   1
   0  -2   4 659.080 42.8100   1
   0   2  -4 718.790 40.9200   1
  -3   1   3 16720.9 369.830   1
  -3  -1   3 16236.0 356.740   1
  -3   1   3 16577.9 360.110   1
   3   1  -3 15993.0 378.760   1
   3  -1  -3 15990.5 358.750   1
   3   1  -3 15477.5 356.160   1
   3  -1  -3 17620.5 440.610   1
  -3  -1   3 16732.1 353.310   1
   3   1  -3 16201.2 396.950   1
  -3   1   3 16950.1 352.620   1
   3   1  -3 15975.9 379.800   1
   3  -1  -3 15796.9 357.270   1
   3  -1  -3 16809.7 357.250   1
  -3  -1   3 16489.1 368.830   1
   3  -3   1 573.850 41.9200   1
  -3  -3  -1 333.280 33.6800   1
   3   3   1 292.850 32.9200   1
   3   3   1 298.660 32.3100   1
  -4   0   1 20.3200 25.8500   1
   4   0  -1 2.78000 32.7400   1
   2   0  -4 3372.15 100.390   1
  -2   0   4 3406.41 99.2400   1
   2   0  -4 3235.74 97.3700   1
  -2   0   4 3533.49 114.360   1
   2   0  -4 3156.51 122.700   1
  -2   0   4 3660.83 149.410   1
  -2   0   4 3160.06 89.9600   1
   2   0  -4 3308.23 105.690   1
   4   1   0 273.970 31.8600   1
  -4   1   0 214.980 26.1100   1
   4  -1   0 261.940 32.9900   1
   4   1   0 277.650 31.7100   1
  -4  -1   0 239.810 27.8200   1
  -4   1   0 211.860 28.9200   1
  -4  -1   0 227.020 25.5400   1
   4  -1   0 275.080 29.2600   1
  -1   2   4 8532.14 227.100   1
   1   2  -4 8120.65 247.250   1
  -1   2   4 7701.00 199.040   1
  -1  -2   4 8258.38 213.010   1
  -1   2   4 8237.99 200.570   1
  -1  -2   4 8331.15 229.210   1
  -1   2   4 8184.41 669.970   1
  -1   2   4 7704.34 224.550   1
   1   2  -4 8263.35 210.040   1
  -1   2   4 7739.59 224.530   1
  -1  -2   4 7966.34 191.190   1
  -1   2   4 8167.92 197.210   1
   0   5   0 157.840 35.7000   1
   0  -5   0 105.630 35.0200   1
   0   5   0 82.5700 33.5300   1
  -2   3   3 1211.26 56.3000   1
  -2   3   3 1315.43 74.6800   1
  -2   3   3 1232.09 68.4300   1
   2   3  -3 1936.71 92.7000   1
  -2  -3   3 1836.28 78.7200   1
  -2  -3   3 1877.96 86.0400   1
  -2  -3   3 1926.99 78.7400   1
  -2   3   3 1093.43 52.9700   1
   2   3  -3 1844.74 74.6700   1
   2  -3  -3 1237.55 55.9800   1
   4   1  -1 2172.56 91.0900   1
  -4   1   1 2216.54 72.2100   1
   4  -1  -1 2086.15 78.0500   1
  -4  -1   1 2240.86 71.1200   1
   4  -1  -1 2179.13 82.8600   1
   4   1  -1 1915.25 84.4000   1
  -4   1   1 2062.95 69.7500   1
   4  -1  -1 2099.41 82.5700   1
  -4  -1   1 2163.53 77.9000   1
   4   1  -1 2156.39 81.0700   1
   2   1  -4 59.3700 49.0100   1
   2   1  -4 28.7300 29.6700   1
  -2   1   4 -8.3500 47.1600   1
   2   1  -4 49.6200 30.7600   1
   2  -1  -4 13.2500 30.7200   1
  -2   1   4 -67.920 36.0300   1
  -2  -1   4 59.9900 27.5700   1
   2   1  -4 96.1800 39.6900   1
  -4   0  -1 10.9300 20.2400   1
   1   2   4 2769.62 98.3800   1
   1   2   4 2379.78 82.3700   1
   1  -2   4 2514.87 78.0700   1
   1   2   4 1807.94 94.1800   1
  -1   2  -4 1735.14 78.9100   1
   1  -2   4 2454.77 97.7000   1
  -1   2  -4 2552.70 116.770   1
   2  -4  -2 3962.29 123.700   1
  -2  -4   2 3729.62 110.600   1
  -2  -4   2 3428.70 118.080   1
  -2  -4   2 3427.53 105.380   1
   2   4  -2 3471.92 124.850   1
   2   4  -2 3455.41 113.040   1
  -2   4   2 3503.91 107.080   1
   2  -4  -2 3969.95 106.100   1
  -2   4   2 3945.32 122.880   1
   0  -5   1 159.490 168.360   1
   0   5  -1 71.6600 25.4400   1
   0   5   1 55.3200 28.6600   1
   0  -5   1 64.1900 38.0100   1
   0  -5  -1 8.57000 35.8600   1
   0   5  -1 36.0100 44.3700   1
   0  -5  -1 -45.080 88.9400   1
  -3   3   2 28.1800 31.0700   1
  -3  -3   2 0.45000 38.6400   1
  -3  -3   2 -33.010 22.1500   1
   3   3  -2 36.8800 28.9400   1
  -3  -3   2 5.01000 28.0200   1
   3   3  -2 8.55000 23.4800   1
  -1   5   0 48.3900 27.4600   1
   1   5   0 264.960 30.9000   1
  -1  -5   0 315.920 37.1400   1
   1  -5   0 51.8800 34.5700   1
   1  -5   0 -33.160 173.810   1
   1   5   0 253.710 44.2500   1
  -1  -5   0 198.010 38.8800   1
  -1   5   0 63.4300 32.0200   1
  -4   1  -1 2863.23 94.0100   1
   4   1   1 2543.41 89.9700   1
   4  -1   1 3109.44 86.2100   1
  -4  -1  -1 2473.51 81.6800   1
   4   1   1 2152.24 77.8300   1
  -4   1  -1 2829.66 85.5800   1
   3  -2  -3 7263.55 188.200   1
  -3   2   3 7290.14 171.910   1
   3   2  -3 7689.73 207.280   1
  -3  -2   3 8137.39 189.260   1
   3  -2  -3 7141.87 188.140   1
   3   2  -3 7465.68 195.270   1
  -3  -2   3 7459.24 190.060   1
   3  -2  -3 7730.82 188.300   1
  -3   2   3 6807.16 168.520   1
  -3  -2   3 7289.58 178.230   1
   3   2  -3 7278.23 224.580   1
   3  -2  -3 7260.45 188.080   1
  -3   2   3 7103.29 187.530   1
   3  -1   3 3945.28 105.750   1
   3  -1   3 3471.74 170.620   1
   3  -1   3 4220.83 130.520   1
   3   1   3 3793.39 99.1200   1
   2   3   3 10187.0 254.980   1
   2  -3   3 9628.62 232.530   1
   2  -3   3 9610.61 239.140   1
  -2   3  -3 9909.15 263.300   1
   2   3   3 10241.2 267.360   1
  -2   3  -3 9679.70 233.990   1
   0  -4  -3 7276.10 190.440   1
   0  -4  -3 7521.99 185.810   1
   0   4   3 6444.80 170.470   1
   0   4  -3 6197.63 188.210   1
   0  -4   3 6422.37 185.550   1
   0  -4   3 6241.05 170.730   1
   0   4  -3 5904.94 159.800   1
   0   4  -3 6449.78 163.630   1
   2   0   4 9.86000 53.1000   1
   2   0   4 101.700 95.5100   1
   4   0  -2 2710.77 96.6100   1
   4   0  -2 2609.66 86.4600   1
  -4   0   2 2771.86 100.830   1
  -4   0   2 2622.18 90.0700   1
   4   0  -2 2800.43 105.080   1
  -4   0   2 2837.81 85.9100   1
   1   5  -1 4447.52 142.310   1
  -1  -5   1 4549.61 165.990   1
   1  -5  -1 4790.44 133.330   1
  -1  -5   1 4449.33 119.760   1
  -1   5   1 3964.86 125.070   1
  -1   5   1 4257.84 171.450   1
   1   5  -1 3870.30 127.620   1
  -1   5   1 3636.92 496.200   1
   2  -4   2 236.610 37.8000   1
  -2   4  -2 250.070 44.3900   1
  -2  -4  -2 42.8500 105.190   1
   2   4   2 72.6700 66.5000   1
   2  -4   2 176.120 30.7200   1
   2   4   2 56.9500 24.8000   1
  -2   4  -2 186.810 31.1500   1
   2  -4   2 141.230 29.3100   1
  -4  -2   0 729.840 40.3800   1
  -4  -2   0 780.520 42.0400   1
  -4   2   0 1065.01 74.1800   1
   4  -2   0 1166.76 54.4700   1
  -4   2   0 1144.77 56.0900   1
   4   2   0 668.450 39.4800   1
   4  -2   0 1208.29 47.8500   1
   4   2   0 712.420 45.1200   1
  -1   5  -1 4303.74 117.230   1
   1   5   1 4151.34 546.320   1
  -1   5  -1 4411.21 140.840   1
  -1  -5  -1 3586.91 157.640   1
   1  -5   1 4342.66 119.200   1
   1   5   1 4606.46 125.850   1
  -1  -5  -1 5427.46 140.970   1
  -1  -4   3 300.870 46.2700   1
   1  -4  -3 121.080 20.6300   1
   1   4  -3 322.680 31.7400   1
  -1  -4   3 304.250 39.9300   1
  -1   4   3 182.690 37.2700   1
   1  -4  -3 51.9400 150.780   1
   1   4  -3 280.180 43.2000   1
   1  -4  -3 193.560 47.0600   1
  -1  -4   3 270.730 43.6000   1
   2  -1   4 188.560 36.9600   1
   2   1   4 180.310 29.8900   1
   2   1   4 231.760 104.620   1
   2  -1   4 242.280 74.2700   1
   2   1   4 233.520 48.4800   1
   2  -1   4 223.970 45.2700   1
   2   1   4 227.060 26.8000   1
   4   2  -1 28.0600 31.9200   1
  -4  -2   1 12.3000 26.4300   1
  -4   2   1 52.6800 35.1000   1
  -4   2   1 49.2300 25.4300   1
  -4   2   1 23.2700 21.3400   1
  -4  -2   1 27.6500 22.8000   1
  -4  -1   2 137.440 33.9500   1
  -4   1   2 150.850 34.5100   1
  -4   1   2 129.860 32.1000   1
   4   1  -2 116.540 28.6000   1
   4  -1  -2 109.190 34.4100   1
   4   1  -2 75.9400 35.2200   1
  -4  -1   2 172.670 30.6900   1
   4  -1  -2 93.2700 29.0800   1
   4   1  -2 141.660 33.1000   1
  -4   1   2 94.7500 34.1800   1
  -4  -1   2 189.850 45.8900   1
   4   1  -2 117.140 27.3700   1
  -4   1   2 105.380 22.5300   1
   3   3   2 -1.2200 55.3600   1
   3  -3   2 -22.430 28.7600   1
  -2  -2   4 85.3400 44.5300   1
   2  -2  -4 33.1200 32.3500   1
  -2   2   4 -19.480 34.4600   1
   2   2  -4 35.8300 26.8500   1
   2   2  -4 64.5500 50.4300   1
  -2  -2   4 91.1700 28.3800   1
  -2   2   4 8.12000 54.1700   1
  -2  -2   4 6.16000 29.0300   1
   0  -3   4 1000.49 68.0600   1
   0   3  -4 964.140 72.7000   1
   0   3   4 1390.44 64.4000   1
   0  -3   4 891.090 43.4000   1
   0   3  -4 856.910 44.3700   1
   0   3   4 1538.58 77.0200   1
   1   4   3 8317.29 228.480   1
  -1  -4  -3 8923.00 210.310   1
   1   4   3 8164.40 205.770   1
   1  -4   3 8657.10 215.860   1
  -1   4  -3 7672.11 190.580   1
  -1   4  -3 7533.49 233.920   1
   1  -4   3 7716.79 204.920   1
   3  -4   0 31.4700 25.8200   1
   3   4   0 101.040 27.1200   1
  -3  -4   0 121.760 31.9400   1
  -3   4   0 48.4600 31.9600   1
   3  -4   0 40.0000 30.4400   1
   3  -4   0 143.740 28.3200   1
  -3  -4   0 135.770 28.0700   1
   3   4   0 175.380 30.2400   1
   4   2   1 753.980 40.3100   1
   4  -2   1 593.350 42.4000   1
  -4   2  -1 493.070 35.0100   1
   4  -2   1 553.670 45.0800   1
  -4  -2  -1 758.960 40.6300   1
   4   2   1 653.610 37.2400   1
  -4  -2  -1 724.910 38.9600   1
  -4   2  -1 452.540 40.6000   1
  -1   3   4 163.340 91.5000   1
   1   3  -4 325.360 35.6500   1
  -1   3   4 318.290 25.6300   1
  -1   3   4 397.910 40.6800   1
  -1  -3   4 312.010 49.5400   1
  -1   3   4 358.630 58.1900   1
   1   3  -4 305.060 52.7700   1
  -1   3   4 339.120 56.9600   1
  -1  -3   4 281.710 38.8300   1
  -1   3   4 341.940 40.8400   1
  -1  -3   4 295.350 38.3400   1
   0  -5   2 113.180 48.8400   1
   0  -5   2 91.1100 32.2100   1
   0   5   2 322.650 34.7800   1
   0   5   2 464.060 55.9800   1
   0   5  -2 149.250 40.4700   1
   0  -5  -2 456.730 52.1800   1
   0   5  -2 132.860 28.7200   1
   3   4  -1 320.910 38.0700   1
  -3  -4   1 321.210 32.3400   1
   3  -4  -1 212.850 34.1700   1
   3   4  -1 240.150 46.3300   1
   3  -4  -1 179.950 43.9200   1
  -3   4   1 153.460 30.3000   1
  -3  -4   1 203.850 32.4700   1
   3  -4  -1 170.900 35.6000   1
   3   4  -1 267.470 36.7000   1
   4   0   2 12930.4 276.070   1
   4   0   2 12631.7 308.360   1
  -4   0  -2 12028.4 272.660   1
   3  -2   3 3173.13 103.250   1
   2  -5   0 161.520 49.5100   1
   2   5   0 202.050 36.4900   1
   2  -5   0 142.780 36.8100   1
  -2  -5   0 253.320 30.4600   1
  -2   5   0 86.5900 29.1600   1
  -2  -5   0 303.460 38.3100   1
   2   5   0 109.340 30.9800   1
  -2   5   0 118.990 41.7100   1
  -2   5   0 159.890 36.0700   1
   4   1   2 414.920 37.6700   1
   4  -1   2 333.370 30.7400   1
  -4  -1  -2 437.470 36.4900   1
   4  -1   2 342.080 103.820   1
  -4  -1  -2 383.060 30.4300   1
  -1  -3  -4 1040.89 55.3100   1
   1   3   4 935.530 54.6800   1
   1  -3   4 1595.56 81.4600   1
  -1   3  -4 1537.44 75.3100   1
  -1  -3  -4 1146.23 75.9700   1
  -1   3  -4 1455.06 61.5300   1
   1  -3   4 1691.71 72.4500   1
   3   4   1 1037.33 52.1900   1
   3  -4   1 769.540 45.5300   1
   3  -4   1 931.640 47.0000   1
  -3  -4  -1 1065.76 50.3100   1
  -3   4  -1 999.990 53.1600   1
   3  -4   1 1005.73 53.1800   1
   3  -4   1 1159.47 51.2900   1
  -3  -4  -1 1071.03 52.5500   1
   3   4   1 1140.05 56.5300   1
  -3   4  -1 1092.25 61.5300   1
   1  -5  -2 3515.62 101.880   1
  -1  -5   2 3426.72 102.750   1
   1   5  -2 2741.47 87.3700   1
  -1  -5   2 3451.88 109.030   1
   1   5  -2 3341.68 126.970   1
   1  -5  -2 3027.00 106.970   1
  -1  -5   2 3333.71 150.460   1
   0   0   5 50.9300 61.9700   1
   0   0   5 89.5700 56.8700   1
   0   0   5 12.6200 33.9500   1
   3   0  -4 15795.0 404.870   1
  -3   0   4 16140.1 636.500   1
  -3   0   4 15941.5 458.210   1
  -3   0   4 15672.6 365.400   1
  -3   0   4 16535.8 655.990   1
   3   0  -4 16474.3 654.320   1
   2   2   4 2517.12 86.7900   1
  -2  -2  -4 2802.28 111.500   1
  -2   2  -4 2908.98 130.000   1
   2  -2   4 3009.54 112.660   1
   2   2   4 2760.60 92.4700   1
   4  -2  -2 1785.53 81.9500   1
  -4   2   2 1724.83 131.140   1
   4   2  -2 2770.41 116.060   1
   4  -2  -2 1774.05 76.6000   1
  -4   2   2 1898.72 69.9100   1
  -4   2   2 1718.59 71.0100   1
   4  -2  -2 1879.49 77.2400   1
  -4   2   2 1821.00 72.5600   1
   4   2  -2 2709.55 107.930   1
  -1   0   5 -11.380 23.2200   1
  -1   0   5 48.9400 61.8800   1
   1   0  -5 -47.380 40.0500   1
  -1   0   5 -27.810 56.0300   1
  -1   0   5 -12.280 33.0000   1
   1   0  -5 21.3700 33.5300   1
  -1   0   5 -0.0100 34.4700   1
  -1   5  -2 7796.34 194.240   1
  -1   5  -2 6354.83 173.390   1
   1  -5   2 7229.73 205.840   1
  -1  -5  -2 6225.97 164.260   1
  -1   5  -2 6918.30 208.140   1
   1  -5   2 7786.67 203.710   1
   2  -5  -1 3111.78 99.0100   1
  -2   5   1 2776.84 94.1400   1
  -2   5   1 2870.37 102.220   1
   2  -5  -1 3180.49 120.110   1
   2  -5  -1 3263.83 104.070   1
  -2   5   1 2995.64 122.300   1
  -2  -5   1 3737.04 126.730   1
  -3   3   3 6741.96 166.960   1
   3  -3  -3 6434.33 174.480   1
   3  -3  -3 6809.78 178.090   1
   3   3  -3 6416.02 192.080   1
  -3   3   3 6094.91 169.310   1
  -3  -3   3 6764.78 180.490   1
  -3   3   3 6350.43 178.500   1
  -3  -3   3 7124.60 183.660   1
  -2  -4   3 925.030 58.7700   1
  -2   4   3 665.020 51.0500   1
  -2   4   3 622.680 62.4800   1
  -2  -4   3 957.600 53.5000   1
  -2   4   3 588.620 48.7900   1
  -2   4   3 658.300 48.4500   1
   2  -4  -3 665.440 38.0900   1
   0  -1   5 94.8900 58.5300   1
   0   1   5 187.500 58.0100   1
   0  -1   5 59.9500 28.9800   1
   0   1   5 143.780 53.7900   1
   0   1  -5 76.3100 42.5900   1
   0  -1   5 120.030 27.1800   1
   0   1   5 192.580 37.7800   1
   0   1  -5 124.930 30.5800   1
   0  -1  -5 149.890 32.7900   1
  -3  -1   4 1977.73 71.1600   1
  -3   1   4 2189.41 80.6900   1
   3  -1  -4 1780.25 77.7500   1
   3   1  -4 2023.96 92.2600   1
  -3   1   4 1964.22 83.9800   1
  -3  -1   4 1977.28 87.9900   1
  -3   1   4 2162.96 82.9900   1
  -3  -1   4 2038.26 77.4100   1
   3  -1  -4 2071.17 77.8000   1
   3   1  -4 2052.82 81.6300   1
   3  -1  -4 2052.73 78.2000   1
  -3   1   4 1631.22 65.5700   1
  -2  -5  -1 131.780 55.7700   1
   2   5   1 51.8200 31.9100   1
  -2   5  -1 9.39000 25.6000   1
   2  -5   1 44.6800 32.5300   1
  -2  -5  -1 -0.3200 92.6200   1
   2  -5   1 73.8000 41.1500   1
   4  -3   0 132.000 34.4800   1
   4   3   0 287.240 36.7600   1
  -4  -3   0 351.810 30.5800   1
  -4   3   0 132.110 30.9000   1
  -4  -3   0 330.260 33.3400   1
   4   3   0 423.660 33.1100   1
  -4   3   0 145.730 33.3300   1
  -1   1   5 158.690 93.7500   1
   1  -1  -5 40.3800 38.5400   1
  -1   1   5 25.0100 44.5300   1
  -1   1   5 102.750 55.4300   1
   1   1  -5 258.660 61.7800   1
  -1  -1   5 245.860 59.4000   1
  -1   1   5 75.7800 37.1300   1
   1  -1  -5 87.8000 35.0900   1
  -1  -1   5 164.040 29.6000   1
   1   1  -5 215.210 36.2800   1
   1  -1  -5 35.7400 30.5000   1
  -1  -1   5 195.120 30.4800   1
  -1   1   5 82.9700 21.4000   1
   4   0  -3 37.2100 28.0800   1
   4   0  -3 9.54000 31.2400   1
   4   0  -3 -44.170 49.8500   1
  -4   0   3 39.8800 43.3100   1
  -4   0   3 -1.8300 28.3900   1
  -4  -3   1 11452.6 263.930   1
  -4   3   1 9553.83 254.540   1
   4   3  -1 9517.27 257.220   1
  -4   3   1 11493.1 270.460   1
   4  -3  -1 11373.1 261.970   1
   4   3  -1 11354.3 285.090   1
  -4  -3   1 10450.0 252.160   1
   4   3  -1 10337.3 261.090   1
  -3   4   2 3819.53 135.970   1
  -3   4   2 3542.09 129.390   1
  -3   4   2 3977.47 126.850   1
   3   4  -2 3260.68 118.820   1
  -2   3   4 -62.690 43.8900   1
  -2   3   4 19.5200 34.5500   1
   2  -3  -4 59.6400 82.3100   1
  -2  -3   4 22.3000 53.1900   1
  -2  -3   4 65.8800 37.2400   1
  -2   3   4 -8.8500 78.1600   1
   1   0   5 157.970 52.5300   1
   1   0   5 84.4600 45.3700   1
  -4   1   3 795.730 53.1800   1
   4   1  -3 526.520 54.0400   1
   4  -1  -3 764.950 55.5700   1
  -4   1   3 729.260 45.2300   1
  -4   1   3 788.760 44.5000   1
   4  -1  -3 776.200 42.4100   1
   4   1  -3 684.870 41.1600   1
  -4   1   3 662.630 35.9700   1
  -4  -1   3 508.050 47.4400   1
  -4  -1   3 652.810 45.1900   1
   4   2   2 3107.99 98.4800   1
   4  -2   2 4181.71 136.760   1
  -4  -2  -2 3374.45 105.980   1
  -4   2  -2 3750.66 122.220   1
   4  -2   2 3788.43 107.700   1
   4   2   2 3356.51 99.5200   1
  -4  -2  -2 3423.32 102.750   1
   2  -4   3 28.9900 36.5100   1
  -2  -4  -3 191.020 163.400   1
   2   4   3 -3.3300 52.2300   1
   2   4   3 -29.540 30.6000   1
  -2  -4  -3 54.2400 42.4900   1
   1   1   5 2366.47 101.080   1
   1   1   5 2137.60 89.1300   1
   1  -1   5 2422.73 86.4000   1
   1   1   5 1963.99 115.670   1
  -1   1  -5 2053.43 92.1500   1
   4   3   1 8998.98 233.910   1
   4   3   1 9526.28 233.560   1
  -4  -3  -1 9629.72 236.320   1
   4  -3   1 9003.39 222.970   1
   4  -3   1 8237.10 222.180   1
  -4   3  -1 9298.67 230.580   1
  -4  -3  -1 10311.3 251.700   1
   3   3   3 100.090 27.0700   1
   3  -3   3 228.220 34.4800   1
   3   3   3 112.120 23.9400   1
  -3  -3  -3 76.3800 19.0200   1
  -3   3  -3 231.800 25.9400   1
  -3  -3  -3 124.710 36.0800   1
  -3  -3  -3 56.8100 120.670   1
   3   3   3 -119.24 74.0300   1
  -3   3  -3 256.660 39.9300   1
   3  -3   3 217.800 45.6200   1
   0   2   5 1557.80 63.2600   1
   0  -2   5 1776.02 84.9500   1
   0  -2   5 1560.61 91.4600   1
   0   2   5 1609.66 84.6900   1
   0   2  -5 1489.60 75.8100   1
   0   2  -5 1847.86 83.4700   1
   0  -2   5 1744.30 68.2600   1
   0   2   5 1221.42 86.4000   1
   0   2   5 1129.74 121.880   1
  -3   2   4 860.720 63.2400   1
  -3   2   4 1493.35 92.6500   1
  -3   2   4 908.500 51.4300   1
   3  -2  -4 867.610 48.4700   1
   3  -2  -4 778.070 51.8600   1
  -3  -2   4 1299.60 74.1500   1
  -3   2   4 708.760 41.3600   1
   3  -2  -4 820.300 45.7400   1
   2  -5  -2 4042.18 120.150   1
  -2  -5   2 3949.01 121.830   1
   2  -5  -2 3706.05 107.370   1
  -2  -5   2 4301.77 130.860   1
  -2   5   2 3893.40 113.830   1
   2   0  -5 -25.030 34.4100   1
  -2   0   5 -9.1300 35.4500   1
  -2   0   5 -16.040 46.7600   1
  -2   0   5 -4.1700 21.1200   1
   3   0   4 1234.06 50.5600   1
   3   0   4 1036.15 70.7600   1
   3   0   4 909.930 164.660   1
   3  -4   2 27.3600 25.1400   1
  -3  -4  -2 61.9100 31.8100   1
   3   4   2 -24.880 83.3100   1
  -3  -4  -2 -151.41 104.850   1
  -1   2   5 949.300 52.0000   1
  -1   2   5 911.360 56.2200   1
  -1  -2   5 915.200 64.2600   1
  -1   2   5 923.230 49.4500   1
  -1  -2   5 786.300 59.1400   1
  -1   2   5 843.420 66.2300   1
  -1   2   5 512.710 166.120   1
   1   2  -5 1036.33 61.9600   1
  -1   2   5 963.480 81.0300   1
  -1  -2   5 928.860 48.0000   1
   1   2  -5 907.560 55.7100   1
   0   4  -4 4470.16 130.090   1
   0   4  -4 3970.02 119.620   1
   0  -4   4 4526.26 131.290   1
   0  -4   4 4701.39 144.300   1
   0  -6   0 -25.830 34.5500   1
   0   6   0 55.5800 42.7000   1
   0  -6   0 15.8700 51.4100   1
   0  -6   0 -237.78 156.300   1
   0   5  -3 4817.40 163.250   1
   0  -5  -3 5208.42 167.720   1
   0  -5  -3 5273.59 142.910   1
   0  -5   3 5508.49 162.190   1
   0   5  -3 4446.10 146.040   1
   0   5  -3 5251.89 145.350   1
   0  -5   3 5251.31 159.880   1
  -2   3  -4 133.160 49.9400   1
   2  -3   4 92.2000 42.5100   1
   2  -3   4 35.7600 24.1800   1
   2   3   4 208.940 33.0800   1
  -2  -3  -4 79.1600 31.7700   1
  -2  -3  -4 184.810 58.1500   1
  -2  -3  -4 122.360 103.880   1
  -4   3   2 540.700 41.3400   1
   4  -3  -2 596.820 37.8200   1
  -4   3   2 598.930 39.1200   1
  -4  -3   2 716.850 48.0600   1
  -4   3   2 438.550 47.6300   1
   4   3  -2 783.960 50.4100   1
  -2  -1   5 5918.24 152.840   1
  -2   1   5 5369.64 375.470   1
   2  -1  -5 5766.04 151.710   1
  -2   1   5 5865.60 154.560   1
  -2  -1   5 5808.49 165.430   1
  -2   1   5 6060.90 162.000   1
  -2  -1   5 6270.77 173.070   1
  -2   1   5 5840.18 167.640   1
  -2   1   5 7384.31 202.410   1
   2  -1  -5 5468.54 171.800   1
   3  -1   4 159.170 26.6200   1
   3   1   4 101.290 24.2200   1
  -3  -1  -4 94.4800 57.6900   1
   3   1   4 -58.810 117.020   1
   3  -1   4 75.7000 60.1200   1
  -3  -1  -4 -30.950 80.7600   1
   3  -1   4 76.1400 51.4300   1
   2  -5   2 56.3800 56.8600   1
   2  -5   2 209.440 37.4900   1
  -2  -5  -2 309.800 24.8700   1
  -2   5  -2 201.320 38.5800   1
  -2   5  -2 231.440 34.0100   1
   2   5   2 327.890 36.3800   1
   2  -5   2 180.170 39.9000   1
  -2  -5  -2 337.470 46.9300   1
  -1   4   4 7125.71 206.450   1
  -1  -4   4 8059.08 212.560   1
  -1   4   4 6764.37 196.130   1
  -1  -4   4 8016.40 220.780   1
  -4   2   3 264.080 52.7800   1
   4   2  -3 249.620 37.4300   1
  -4  -2   3 265.800 45.7900   1
   4  -2  -3 155.690 30.0600   1
  -4  -2   3 275.840 39.3800   1
  -4   2   3 78.1000 37.6100   1
  -4   2   3 64.0500 26.7800   1
   4   2  -3 185.350 41.2200   1
   4   0   3 59.5600 22.0400   1
   4   0   3 -13.850 113.110   1
   5   0   0 12062.2 293.430   1
  -5   0   0 12542.4 287.500   1
   5   0   0 12162.5 319.710   1
  -1  -5   3 2294.74 86.4700   1
   1  -5  -3 3337.80 104.990   1
  -1  -5   3 2324.05 87.6000   1
   0  -6  -1 519.770 45.8900   1
   0  -6   1 53.0800 174.900   1
   0  -6   1 250.030 43.7400   1
   0   6  -1 314.070 48.8700   1
   5   0  -1 75.1700 29.3400   1
   5   0  -1 55.9800 36.3900   1
  -5   0   1 67.9400 26.2400   1
   1   2   5 1317.52 72.6100   1
  -1   2  -5 1377.80 70.2300   1
   1  -2   5 1535.39 60.5200   1
   1  -2   5 1305.59 65.7400   1
   1   2   5 1445.39 73.7200   1
   1   2   5 1248.43 72.0700   1
   1  -2   5 1521.50 74.3300   1
  -1   6   0 2359.18 78.4000   1
   1  -6   0 2419.28 85.3300   1
  -1  -6   0 2494.67 109.680   1
  -1   6   0 2366.38 89.5400   1
   4  -1   3 338.820 94.2200   1
   4  -1   3 257.460 52.2200   1
  -4  -1  -3 270.420 30.2900   1
  -4   1  -3 169.180 43.1400   1
   4  -1   3 323.900 35.1700   1
   4   1   3 362.290 31.5300   1
   5   1   0 164.200 31.0400   1
   5   1   0 181.840 26.0900   1
   5  -1   0 350.490 41.4200   1
   5  -1   0 337.010 35.9600   1
  -5  -1   0 219.310 29.0800   1
   5  -1   0 381.280 35.3900   1
  -5   1   0 469.190 33.4300   1
  -1  -4  -4 2379.22 87.9700   1
  -1  -4  -4 2076.55 100.710   1
   1  -4   4 2608.76 106.160   1
  -1   4  -4 2449.42 93.4000   1
   1  -4   4 2453.46 112.780   1
   1   4   4 1893.70 82.1700   1
  -1   4  -4 2154.29 100.080   1
  -1   5  -3 545.580 40.6200   1
   1  -5   3 563.890 43.6400   1
  -1  -5  -3 323.470 40.2400   1
   1   5   3 210.200 42.9700   1
  -1   5  -3 546.520 58.4300   1
   1  -5   3 640.470 58.4300   1
  -1  -5  -3 1.47000 123.120   1
  -3   5   0 263.630 37.9700   1
   3  -5   0 293.460 32.4500   1
  -3  -5   0 337.480 32.3800   1
   3   5   0 460.490 46.7800   1
  -3  -5   0 438.750 40.2500   1
  -3   5   0 145.950 38.1100   1
   3  -5   0 246.430 41.0200   1
  -3  -5   0 -113.34 107.500   1
   1  -6  -1 69.1600 98.6800   1
  -1  -6   1 252.410 44.1300   1
   1  -6  -1 97.7100 46.9500   1
   2   0   5 -125.15 58.5000   1
  -1  -6  -1 625.600 47.8300   1
  -1  -6  -1 344.170 52.8100   1
  -1   6  -1 626.660 56.4900   1
   1  -6   1 721.570 60.9400   1
  -1  -6  -1 585.870 47.1000   1
   1  -6   1 586.250 45.5200   1
  -1   6  -1 700.260 47.0300   1
  -3   4   3 82.5700 22.4400   1
  -3  -4   3 95.9700 45.9800   1
  -3   4   3 217.220 44.1800   1
  -3  -4   3 -8.6100 31.6900   1
  -3   4   3 84.3300 52.1700   1
  -3   4   3 83.6200 39.6300   1
   3   4  -3 45.1900 44.7200   1
   3  -4  -3 139.450 29.2200   1
  -3  -5   1 -2.9700 33.3200   1
  -3  -5   1 81.9600 198.580   1
   3  -5  -1 40.7400 43.7800   1
   3   5  -1 56.1600 36.3500   1
   3  -5  -1 30.8600 28.5000   1
   4   3   2 118.940 25.9700   1
  -4  -3  -2 173.850 22.4100   1
   4   3   2 183.820 31.2000   1
   4  -3   2 213.400 37.2200   1
  -4  -3  -2 208.490 33.4700   1
  -4   3  -2 265.050 29.1600   1
   4   3   2 12.2600 59.6200   1
   4  -3   2 248.740 40.8000   1
   5   0   1 -4.2300 32.7000   1
  -2   2   5 1639.32 61.9300   1
   2  -2  -5 1559.82 61.1400   1
  -2   2   5 1643.35 62.3000   1
  -2  -2   5 1619.16 64.1400   1
  -2   2   5 962.500 244.050   1
   2  -2  -5 1323.74 80.6300   1
  -2   2   5 1630.61 83.1700   1
  -2  -2   5 1543.77 79.6600   1
  -3  -2  -4 -68.050 102.840   1
  -3  -2  -4 250.210 60.8500   1
   3   2   4 196.700 30.3700   1
   3   2   4 251.980 25.5500   1
   3  -2   4 36.6500 72.7700   1
  -4  -4   0 342.320 44.2300   1
  -4  -4   0 345.880 34.0700   1
   4   4   0 398.440 38.7300   1
   4   4   0 338.250 37.2900   1
  -4   4   0 877.100 53.1400   1
   2  -1   5 352.390 59.6500   1
   2   1   5 233.210 26.3000   1
   2   1   5 237.720 40.0200   1
   2   1   5 157.450 61.9400   1
   2   1   5 156.900 30.2400   1
   2  -1   5 370.890 53.2300   1
   3  -5   1 864.410 49.6100   1
  -3   5  -1 777.170 62.3800   1
  -3  -5  -1 -53.650 102.890   1
   3  -5   1 805.750 51.5100   1
  -3   5  -1 863.120 48.8900   1
  -3  -5  -1 383.640 44.0500   1
   0   3   5 374.870 61.5200   1
   0  -3  -5 -114.47 108.030   1
   0  -3   5 324.990 33.0400   1
   0  -3   5 322.100 58.3000   1
   0   3  -5 359.910 40.2800   1
   0   3   5 424.350 45.0900   1
  -5  -1  -1 4149.91 118.370   1
   5   1   1 3566.05 131.430   1
   5  -1   1 4258.09 114.930   1
   5   1   1 4171.27 117.730   1
   3  -3  -4 1499.90 64.0100   1
  -3   3   4 1385.92 92.4700   1
  -3  -3   4 1869.23 69.8800   1
  -3   3   4 1372.52 58.9400   1
  -3   3   4 1524.00 76.7000   1
  -3  -3   4 1816.43 81.2800   1
  -3   3   4 1241.61 57.2900   1
   4   4  -1 138.660 29.5900   1
   4  -4  -1 -20.610 27.1500   1
  -4   4   1 131.110 29.1600   1
  -4   4   1 85.9100 39.3600   1
  -4  -4   1 176.680 38.9600   1
   5   0  -2 8139.76 239.620   1
   5   0  -2 8791.52 251.320   1
   5   0  -2 8899.41 230.870   1
  -5   0   2 8777.90 212.110   1
   2  -4  -4 1884.59 74.1000   1
  -2   4   4 1833.03 84.9200   1
  -2  -4   4 2182.32 88.9800   1
  -2   4   4 1872.03 85.6300   1
  -2  -4   4 2119.31 87.4600   1
  -2   4   4 1824.77 80.8100   1
  -2   4   4 1994.71 84.6400   1
  -1  -3   5 692.340 47.4000   1
  -1   3   5 447.650 43.6500   1
  -1   3   5 300.630 76.0000   1
  -1   3   5 425.360 33.3800   1
  -1  -3   5 758.730 58.4200   1
  -1   3   5 624.290 58.5600   1
  -4   0   4 789.170 61.3600   1
  -4   0   4 805.850 45.1000   1
   4   0  -4 698.280 57.3200   1
   4   0  -4 722.940 46.2800   1
   0  -6   2 4507.05 129.400   1
   0  -6  -2 3642.87 111.490   1
   0  -6   2 4498.48 133.650   1
   0   6  -2 4223.04 152.560   1
   4   2   3 90.3500 23.7300   1
  -4  -2  -3 69.2900 26.1000   1
   4  -2   3 34.2800 27.4000   1
   4   2   3 -82.590 87.9400   1
   4  -2   3 -12.030 56.4500   1
   5  -2   0 1399.26 68.3500   1
   5  -2   0 1502.36 58.1700   1
   5   2   0 1409.63 57.5100   1
   5   2   0 1444.93 70.8700   1
  -5   2   0 1537.21 61.9500   1
  -5  -2   0 1673.40 60.8000   1
  -5   2   0 1166.62 87.4400   1
   2  -5  -3 311.010 52.0200   1
  -2  -5   3 606.490 42.9200   1
   2  -5  -3 286.810 31.7700   1
  -2  -5   3 521.040 54.2300   1
  -2   5   3 340.620 38.9400   1
   5   1  -2 904.870 60.6000   1
   5  -1  -2 846.280 56.4600   1
   5   1  -2 935.190 50.5500   1
   5  -1  -2 943.680 52.9700   1
  -5  -1   2 974.460 49.6300   1
  -5   1   2 842.060 44.5400   1
   5  -1  -2 842.110 52.8500   1
   5   2  -1 2035.40 76.0000   1
   5  -2  -1 1818.83 78.5800   1
   5   2  -1 1746.67 82.4900   1
   5  -2  -1 1576.49 72.0000   1
  -5   2   1 1290.47 109.040   1
  -5  -2   1 1864.51 68.9500   1
  -5   2   1 1702.23 64.7000   1
   5   2  -1 1804.32 78.4600   1
  -4  -4  -1 1243.71 51.5600   1
  -4   4  -1 1210.10 58.5800   1
   4  -4   1 1253.98 53.9900   1
   4   4   1 1116.60 55.2600   1
   4  -4   1 1126.68 57.6900   1
  -4  -4  -1 1353.03 59.7200   1
   4   4   1 1351.62 57.9300   1
   4  -4   1 1321.90 69.1300   1
   4  -3  -3 337.910 33.8900   1
   4   3  -3 486.170 38.9100   1
  -4  -3   3 592.040 61.7700   1
  -4   3   3 307.100 39.8900   1
  -4   3   3 315.570 40.1200   1
  -4   3   3 420.280 76.5000   1
  -4  -3   3 470.270 46.9100   1
  -4   1   4 119.980 37.3300   1
  -4   1   4 11.7900 33.6400   1
  -4  -1   4 148.270 32.0500   1
   4   1  -4 177.840 39.0300   1
   4  -1  -4 141.780 29.8000   1
  -4   1   4 107.350 41.6300   1
   4  -1  -4 18.4600 42.1900   1
  -4  -1   4 59.3300 51.8300   1
  -3   0   5 -76.850 57.6200   1
  -3   0   5 63.4600 40.0600   1
  -3   0   5 97.4600 31.3200   1
  -3   0   5 10.3400 45.5100   1
   3   0  -5 28.1100 25.1400   1
   2  -6   0 579.910 66.0000   1
   2  -6   0 583.210 50.1700   1
  -2  -6   0 1007.95 62.5600   1
  -2   6   0 572.510 53.0100   1
  -2  -6   0 726.140 57.5400   1
  -2   6   0 541.490 47.0400   1
   3  -4   3 1.16000 29.9200   1
  -3  -4  -3 115.260 149.440   1
   1  -6  -2 -24.390 78.1600   1
   1  -6  -2 92.1500 52.6300   1
   1  -6  -2 137.250 38.0500   1
  -1  -6   2 352.380 42.0400   1
  -1  -6   2 287.480 45.7300   1
   3   5  -2 58.9000 39.8300   1
   3  -5  -2 33.2000 31.3300   1
  -3  -5   2 -244.80 216.570   1
  -3  -5   2 54.3300 32.7000   1
  -3   5   2 -86.860 157.140   1
   3  -5  -2 111.950 50.2500   1
   1  -3   5 3020.72 139.910   1
   1  -3   5 3232.20 166.510   1
   1   3   5 3026.76 153.250   1
   1   3   5 2610.03 126.750   1
  -1   3  -5 2987.51 156.290   1
   1   3   5 2391.78 137.570   1
   2   2   5 169.760 34.0000   1
   2   2   5 333.970 37.0500   1
   2  -2   5 285.270 52.1300   1
   2   2   5 444.940 59.1800   1
   2  -2   5 344.070 61.3100   1
   2   2   5 306.960 29.3200   1
   2  -2   5 382.290 32.4300   1
  -1  -6  -2 120.880 110.680   1
  -1  -6  -2 64.0100 29.7200   1
  -1   6  -2 49.1900 39.1600   1
   1  -6   2 114.360 36.2300   1
  -1  -6  -2 159.550 47.6000   1
   1  -6   2 22.5000 45.9300   1
   2  -6  -1 112.560 57.4800   1
  -2  -6   1 243.020 46.0000   1
  -2  -6   1 -168.76 199.010   1
   2  -6  -1 -117.07 95.4300   1
  -2   6   1 113.820 31.8300   1
   2  -6  -1 111.640 37.5600   1
  -2   6   1 110.960 37.6400   1
  -3  -1   5 1238.78 70.1700   1
   3   1  -5 1409.46 75.8000   1
   3  -1  -5 1409.54 72.2500   1
  -3   1   5 1313.99 72.9800   1
  -3  -1   5 1219.20 77.4700   1
  -3   1   5 1354.23 89.7800   1
   3  -1  -5 1277.65 85.5500   1
  -3   1   5 1300.98 228.120   1
  -3   1   5 1349.29 73.3800   1
  -3   1   5 1115.43 63.9800   1
   3  -1  -5 1233.84 71.0300   1
  -5   2  -1 145.210 27.6100   1
   5   2   1 154.250 35.0900   1
   5  -2   1 124.600 27.3200   1
  -5   2  -1 59.1800 26.1700   1
  -5  -2  -1 186.060 28.5900   1
   5   2   1 176.290 25.0700   1
  -2   5  -3 1333.05 81.5600   1
   2  -5   3 1496.00 89.2700   1
  -2  -5  -3 1817.01 96.3100   1
  -2   5  -3 1281.09 83.9200   1
  -2  -5  -3 1359.56 84.5000   1
   2  -5   3 1479.97 88.5600   1
   2  -4   4 5109.40 226.510   1
  -2  -4  -4 4587.07 214.450   1
  -2  -4  -4 4805.74 207.500   1
   2  -4   4 5261.16 236.560   1
   2   4   4 3809.64 197.390   1
   2   4   4 4001.06 203.740   1
  -2   4  -4 4736.68 219.980   1
   2  -4   4 4354.48 207.370   1
  -2   4  -4 4646.21 229.940   1
  -4   4   2 -15.470 43.4700   1
  -4   4   2 29.3000 33.0400   1
  -4  -4   2 128.570 37.1400   1
  -4  -4   2 122.700 154.080   1
   4  -4  -2 -44.090 30.5900   1
   4   4  -2 93.9500 33.1000   1
   2  -6   1 87.8900 44.8200   1
   2  -6   1 -80.760 179.080   1
  -2  -6  -1 60.5600 88.5200   1
  -2   6  -1 102.530 33.7700   1
  -2  -6  -1 29.7300 21.0500   1
   2  -6   1 63.8100 36.3600   1
  -2  -6  -1 54.2500 53.7800   1
  -2  -6  -1 55.3000 45.7100   1
   5   0   2 89.0400 32.5800   1
   5  -2  -2 4272.33 182.780   1
   5  -2  -2 3762.90 172.630   1
  -5  -2   2 3275.14 145.210   1
  -5   2   2 4020.62 171.030   1
   5   2  -2 3472.29 153.920   1
  -2  -3   5 6.74000 32.1900   1
  -2   3   5 85.4700 53.2700   1
  -2   3   5 42.1000 53.2500   1
  -2   3   5 3.53000 35.5500   1
   2  -3  -5 67.7800 77.9800   1
   3  -3   4 246.970 44.2500   1
  -3   3  -4 289.160 46.0100   1
   3   3   4 297.480 33.6800   1
   3   3   4 372.350 32.1800   1
  -3   3  -4 224.450 28.3200   1
  -3  -3  -4 183.200 36.0800   1
   3  -3   4 299.740 32.5200   1
  -3  -3  -4 80.7200 103.220   1
  -3   5  -2 428.560 38.3600   1
  -3  -5  -2 344.280 48.8000   1
   3  -5   2 486.050 51.8000   1
  -3  -5  -2 133.030 43.3800   1
  -3  -5  -2 -236.94 136.970   1
  -3  -5  -2 339.220 32.3000   1
   3  -5   2 461.480 50.0400   1
   5   1   2 29.6500 33.4400   1
   5  -1   2 51.6500 24.9100   1
   0   0   6 1186.98 68.4700   1
   0   0  -6 887.660 57.0900   1
   0   0   6 645.620 61.4200   1
   0   0   6 1076.55 83.9200   1
   4   2  -4 1733.89 87.5500   1
  -4   2   4 927.790 99.0500   1
   4  -2  -4 1593.02 89.9900   1
  -4   2   4 1713.28 85.3500   1
  -4   2   4 1631.69 88.0800   1
  -4  -2   4 1920.06 100.370   1
   4  -2  -4 1861.51 90.0300   1
   4  -2  -4 1404.45 80.5100   1
  -4  -2   4 1836.89 89.5800   1
   0  -5   4 1146.95 75.0900   1
   0  -5  -4 1399.48 85.2200   1
   0  -5   4 1138.12 66.7000   1
   0   5  -4 1159.47 70.4200   1
   0  -5  -4 899.640 56.2700   1
   0  -5  -4 1302.56 102.730   1
  -1   0   6 534.940 42.7000   1
  -1   0   6 576.200 72.4700   1
  -1   0   6 632.070 46.9900   1
   5   0  -3 -12.120 28.6600   1
  -5   0   3 46.2300 44.4400   1
   5   0  -3 118.790 46.9500   1
  -5   0   3 37.8100 34.8800   1
   1  -5  -4 -318.00 196.340   1
   1  -5  -4 59.2600 50.7700   1
  -1  -5   4 -4.3400 46.2400   1
  -1  -5   4 43.1200 39.0200   1
   0  -1   6 1202.42 84.2800   1
   0   1   6 1582.72 87.7900   1
   0  -1   6 1360.88 92.8800   1
   0   1   6 1582.57 91.3900   1
   0  -1  -6 1845.64 94.6600   1
   0   1  -6 1425.00 83.3600   1
   0   1   6 1373.66 111.680   1
   0   1  -6 1498.04 107.900   1
   0  -1   6 1514.61 78.8400   1
   0   1   6 1688.09 98.0200   1
  -3   2   5 135.530 35.6600   1
  -3  -2   5 113.890 61.9700   1
  -3   2   5 109.110 24.1700   1
   3  -2  -5 155.230 31.4800   1
   3   2  -5 140.070 36.7600   1
  -3  -2   5 107.420 37.8300   1
  -3   2   5 82.5400 62.8400   1
  -3   2   5 -30.870 113.040   1
   3  -2  -5 95.9000 44.4300   1
  -3   2   5 72.9900 45.9000   1
  -4  -3  -3 3990.66 185.430   1
   4  -3   3 4949.24 221.940   1
   4   3   3 3389.62 156.980   1
   4  -3   3 5408.74 232.220   1
  -4  -3  -3 3727.73 165.290   1
   4   3   3 4277.11 181.380   1
   5   3   0 2953.85 132.210   1
  -5   3   0 2208.14 103.380   1
   5   3   0 2442.73 123.790   1
  -5  -3   0 3067.86 135.030   1
  -5   3   0 2096.08 116.280   1
   5  -3   0 2804.97 137.960   1
   5  -3   0 2392.98 109.850   1
   4   4   2 767.230 51.0700   1
   4  -4   2 756.760 66.8200   1
   4  -4   2 1044.42 72.0300   1
  -4  -4  -2 761.050 49.7600   1
   4  -4   2 1100.80 69.5400   1
  -4  -4  -2 724.830 50.7900   1
   4   4   2 567.680 42.4800   1
  -4   4  -2 962.440 64.1500   1
  -2   6   2 1577.16 85.7000   1
  -2  -6   2 1641.06 88.1800   1
   2  -6  -2 1674.24 87.2400   1
   2  -6  -2 1713.63 90.0700   1
  -1   1   6 260.480 49.9600   1
  -1   1   6 310.810 55.0900   1
  -1  -1   6 248.840 54.5600   1
  -1   1   6 169.500 40.8700   1
  -1   1   6 206.890 28.5400   1
  -1  -1   6 191.930 30.7200   1
  -1  -1   6 217.240 32.7100   1
  -5   3   1 1415.98 74.1800   1
  -5   3   1 1110.39 77.9300   1
   5  -3  -1 1351.84 71.6300   1
   5   3  -1 1944.76 95.1600   1
  -5  -3   1 1825.74 91.4000   1
  -4   0  -4 2675.46 147.430   1
   4   0   4 3155.97 154.610   1
   4   0   4 3258.82 140.650   1
  -5   1   3 1740.21 87.4300   1
  -5  -1   3 1781.26 85.9900   1
   5  -1  -3 1565.78 92.0700   1
   5   1  -3 1553.60 98.8200   1
  -5   1   3 1638.61 91.1000   1
  -5  -1   3 1861.11 99.5700   1
   5  -1  -3 1755.41 94.4500   1
   5   1  -3 1691.81 83.6800   1
   3   0   5 -102.55 52.8500   1
   1  -5   4 42.0500 38.9400   1
  -1   5  -4 108.110 32.3100   1
  -1  -5  -4 127.510 46.6300   1
  -1  -5  -4 44.1900 60.4200   1
  -1  -5  -4 274.400 170.410   1
   1  -5   4 48.0000 46.1600   1
   0  -4   5 54.1200 35.5300   1
   0   4   5 92.3200 36.3000   1
   0  -4  -5 -2.1400 110.280   1
   0   4   5 -44.940 52.5100   1
   0  -4   5 70.8300 56.7900   1
  -3   4   4 888.430 97.5000   1
   3  -4  -4 781.890 48.9300   1
   3   4  -4 598.770 54.8200   1
  -3   4   4 986.350 71.8400   1
  -3  -4   4 502.760 58.6300   1
  -3   4   4 886.440 56.9000   1
  -3  -4   4 524.840 48.4500   1
  -3   4   4 993.820 65.7600   1
   0  -6  -3 121.170 63.1800   1
   0   6  -3 92.8500 37.9200   1
   0  -6  -3 129.280 118.160   1
   0  -6   3 235.120 55.6700   1
   0  -6  -3 107.620 48.2100   1
   1   0   6 1802.84 107.880   1
   1   0   6 2127.16 121.110   1
  -1   0  -6 2343.76 118.820   1
   4  -1   4 107.600 57.6600   1
  -4  -1  -4 43.2300 55.0300   1
   2  -6   2 199.870 61.4100   1
  -2  -6  -2 -158.69 120.420   1
   2  -6   2 43.3400 38.2600   1
  -2  -6  -2 8.78000 22.5000   1
   2  -6   2 124.080 43.0800   1
  -2  -6  -2 77.3400 46.5000   1
  -1   4   5 336.680 63.7900   1
  -1  -4   5 553.330 62.1500   1
  -1  -4   5 407.990 43.3500   1
   1  -4  -5 310.540 140.990   1
   1   4  -5 373.570 34.5700   1
  -1   4   5 376.640 45.0000   1
  -5  -2  -2 841.300 70.4500   1
   5  -2   2 659.720 49.6300   1
   5   2   2 1047.51 62.6400   1
   5   2   2 832.500 58.5700   1
  -5   2  -2 429.210 41.6100   1
  -5   2  -2 692.740 46.8500   1
   5  -2   2 586.520 53.4000   1
   2  -3   5 1646.09 95.9400   1
   2   3   5 2059.17 106.000   1
   2  -3   5 1613.92 88.5500   1
  -2   3  -5 1268.37 77.3300   1
   2   3   5 1680.21 135.220   1
   2  -3   5 1397.84 86.6100   1
  -3  -5   3 396.600 52.5100   1
  -3  -5   3 412.630 44.2300   1
  -3   5   3 431.690 46.9400   1
  -3   5   3 364.470 55.4100   1
  -3   5   3 332.680 52.5400   1
   3  -5  -3 422.430 39.9200   1
   3   1   5 2412.33 111.530   1
   3  -1   5 2290.29 116.920   1
   3  -1   5 2912.17 137.060   1
   3   1   5 1899.39 105.540   1
   3   1   5 2151.95 119.580   1
  -5  -3  -1 397.020 43.1200   1
  -5   3  -1 44.7200 50.5800   1
   5  -3   1 461.350 45.7100   1
   5  -3   1 549.250 42.5300   1
   5   3   1 416.470 42.7900   1
   5   3   1 293.840 30.7900   1
  -5   3  -1 473.370 38.7500   1
   1  -6  -3 1101.68 67.2100   1
   1  -6  -3 1230.88 89.4100   1
   1  -6  -3 1143.71 74.1600   1
  -1  -6   3 1198.82 70.8200   1
  -1  -6   3 1143.44 77.6200   1
   1   1   6 78.6400 37.5800   1
   1  -1   6 -48.800 29.1000   1
   1   1   6 50.4400 33.5800   1
  -1   1  -6 50.7700 23.6100   1
  -1   1  -6 26.1000 31.2000   1
   1  -1   6 5.72000 61.5000   1
   1   1   6 -59.930 52.6400   1
   1   1   6 3.55000 46.6500   1
  -2   0   6 739.680 68.0300   1
  -2   0   6 688.590 52.7500   1
   2   0  -6 825.560 60.3000   1
  -2   0   6 912.380 62.0200   1
   4   5   0 2179.20 112.450   1
  -4  -5   0 2182.97 106.460   1
   4  -5   0 1804.99 100.430   1
   4  -5   0 1877.35 94.6800   1
  -4   5   0 1382.89 80.9000   1
  -4   4   3 923.730 56.7100   1
  -4  -4   3 1208.49 66.8300   1
  -4   4   3 831.860 59.1800   1
  -4  -4   3 1193.42 75.8600   1
   4   4  -3 1284.76 74.9300   1
   4  -4  -3 1083.50 61.7300   1
   0  -2  -6 -69.000 94.3500   1
   0  -2   6 -19.760 60.8100   1
   0   2   6 8.73000 52.9700   1
   0   2  -6 71.5900 57.6700   1
   0   2   6 -2.0000 59.2500   1
   0  -2   6 20.1000 31.4600   1
   0   2  -6 31.2700 32.0900   1
   0   2   6 -7.2300 36.7900   1
   0  -7   0 11.2000 39.6600   1
   0  -7   0 27.6200 53.7000   1
   0  -7   0 -151.54 153.360   1
   1  -6   3 2314.25 135.480   1
  -1   6  -3 2537.33 122.810   1
   1  -6   3 2401.31 117.750   1
  -1  -6  -3 2400.14 117.120   1
  -1  -2   6 919.020 81.8300   1
  -1   2   6 781.310 55.1900   1
  -1   2   6 934.360 72.2300   1
  -1   2   6 783.410 57.7600   1
  -1   2   6 923.050 58.0600   1
  -1  -2   6 797.600 53.6700   1
  -1   2   6 1345.16 136.750   1
   4   5  -1 8686.52 213.600   1
   4  -5  -1 8503.84 347.100   1
  -4  -5   1 7814.24 322.130   1
   5   3  -2 1911.50 92.7600   1
  -5   3   2 1557.25 81.3000   1
   5  -3  -2 1576.39 81.5600   1
  -5  -3   2 1907.38 91.6200   1
   5  -3  -2 1324.87 78.3200   1
  -3  -6   0 1.90000 114.350   1
   3  -6   0 448.880 46.0400   1
  -3  -6   0 265.620 48.0500   1
   3  -6   0 315.740 37.0500   1
  -3   6   0 322.620 40.5800   1
  -2   5   4 402.250 42.6300   1
  -2  -5   4 276.470 50.4600   1
   2  -5  -4 224.100 185.130   1
  -2   5   4 584.060 63.7700   1
  -2  -5   4 281.090 63.2700   1
  -2   5   4 492.240 48.6300   1
   2  -5  -4 464.910 43.0400   1
   1   4   5 8.49000 31.9500   1
  -1   4  -5 9.78000 29.6000   1
  -1  -4  -5 2.82000 140.410   1
   1  -4   5 46.6700 47.4300   1
   1  -4   5 58.4600 28.3600   1
   5  -2  -3 316.100 37.6400   1
  -5  -2   3 333.710 46.7500   1
  -5   2   3 210.520 43.7100   1
   5  -2  -3 176.610 39.4100   1
  -5   2   3 94.7100 40.4600   1
  -5  -2   3 393.280 45.7300   1
  -5   2   3 137.000 38.4700   1
   5   2  -3 335.260 38.4900   1
   2  -1  -6 75.1000 33.9700   1
  -2   1   6 138.150 53.8300   1
  -2   1   6 156.070 37.9200   1
  -2  -1   6 186.060 40.4900   1
  -2   1   6 149.740 35.4200   1
  -2  -1   6 79.4700 60.4000   1
  -2   1   6 75.1700 27.6500   1
  -4   3   4 44.8200 33.4500   1
   4  -3  -4 27.4000 34.2300   1
  -4  -3   4 110.110 43.7100   1
  -4   3   4 -66.490 85.9800   1
   4   3  -4 -10.730 40.7700   1
   4  -3  -4 -19.160 53.0700   1
  -4   3   4 -23.910 42.6800   1
  -4  -3   4 -14.030 53.1900   1
  -3  -6   1 898.360 65.0000   1
   3  -6  -1 1215.27 71.0900   1
  -3   6   1 1095.80 73.8600   1
   3  -6  -1 1271.96 67.9700   1
   0  -7  -1 103.380 87.6300   1
   0  -7   1 70.9400 234.500   1
   0  -7   1 -96.900 68.1500   1
   0  -7  -1 -21.400 40.1900   1
   0  -7   1 -74.430 47.8100   1
   4   2   4 7131.90 291.230   1
   4  -2   4 6409.25 271.410   1
   4  -2   4 6146.30 266.100   1
  -1  -7   0 144.400 140.570   1
   1  -7   0 57.2900 43.5500   1
   1  -7   0 56.4000 144.520   1
   1  -7   0 6.08000 45.5600   1
  -1   7   0 -17.200 42.7500   1
  -1  -7   0 -30.710 54.2600   1
  -1  -7   0 71.9300 49.7400   1
   4   5   1 3185.46 142.940   1
  -4  -5  -1 2567.55 121.510   1
  -4  -5  -1 2996.59 133.610   1
   4  -5   1 2716.48 127.680   1
   4  -5   1 2626.61 132.740   1
  -4   5  -1 2394.70 120.060   1
   3  -3  -5 3011.40 136.640   1
   3   3  -5 3745.64 186.080   1
  -3   3   5 3902.75 294.330   1
  -3   3   5 3489.74 167.190   1
  -3  -3   5 2852.08 137.080   1
  -3   3   5 3280.70 150.980   1
  -3  -3   5 2838.41 129.470   1
  -3   3   5 3460.47 153.980   1
   5   0   3 32.0300 30.1700   1
   5   0   3 162.520 106.720   1
   3  -2   5 160.500 57.0600   1
  -3  -2  -5 123.220 72.3600   1
  -3  -2  -5 -125.31 92.5100   1
  -3   6  -1 311.120 45.7300   1
   3  -6   1 330.120 42.7300   1
  -3  -6  -1 351.880 31.8100   1
  -3  -6  -1 -128.69 90.2800   1
  -3  -6  -1 386.660 44.6200   1
  -3   5  -3 38.4100 28.9500   1
   3  -5   3 74.5700 73.5400   1
  -3  -5  -3 40.1600 42.0100   1
   3  -5   3 29.5500 37.0600   1
  -3   5  -3 10.0200 44.8600   1
  -3  -5  -3 49.9700 182.540   1
  -2   4   5 1815.13 77.3300   1
  -2  -4   5 2366.77 123.630   1
  -2   4   5 1003.29 144.320   1
  -2   4   5 2144.08 119.070   1
  -2  -4   5 2522.46 132.580   1
  -2   4   5 1514.79 83.5100   1
   2  -4  -5 1440.06 101.880   1
  -2   4   5 1884.48 100.940   1
   4   0  -5 -27.810 34.0400   1
  -4   0   5 100.620 39.6900   1
  -4   0   5 -57.810 45.6800   1
  -1   2  -6 78.9900 50.6900   1
   1   2   6 61.9200 56.0200   1
  -1   2  -6 79.6000 27.7300   1
   1   2   6 57.1400 33.1800   1
   1  -2   6 168.190 28.7200   1
   1  -2   6 186.560 61.2900   1
   1   2   6 8.11000 70.7500   1
   1   2   6 195.330 33.5400   1
  -1  -2  -6 42.6000 80.1900   1
   3  -4   4 305.220 55.8700   1
  -3   4  -4 445.250 53.8300   1
   3   4   4 434.550 39.0000   1
  -3  -4  -4 -62.440 114.440   1
  -3  -4  -4 712.890 49.4200   1
  -3   4  -4 377.120 31.1200   1
   3  -4   4 390.140 36.0900   1
   3  -4   4 386.180 37.5700   1
  -1  -7   1 -127.61 183.730   1
   1  -7  -1 -6.8300 83.9000   1
  -1   7   1 257.970 37.4300   1
   1  -7  -1 229.840 50.6600   1
  -1  -7   1 177.580 46.8600   1
   5  -1   3 76.1900 55.3900   1
  -5  -1  -3 -38.460 80.5300   1
   5  -1   3 96.0000 27.7500   1
   5  -1   3 38.5600 66.2100   1
   5   1   3 56.1300 35.3500   1
  -1  -7  -1 814.180 55.0100   1
   1  -7   1 875.270 70.5200   1
  -1   7  -1 632.830 47.5600   1
   1  -7   1 744.890 51.2700   1
  -1  -7  -1 703.370 58.8800   1
  -1  -7  -1 96.4100 107.150   1
   2  -6  -3 8.39000 23.8000   1
  -2  -6   3 82.5200 45.8300   1
   2  -6  -3 373.380 146.770   1
   2  -6  -3 14.5500 49.9900   1
  -2  -6   3 -18.530 44.6000   1
  -2   6   3 17.2600 35.7000   1
  -2  -5  -4 131.850 38.8800   1
   2  -5   4 122.060 31.6800   1
  -2   5  -4 101.670 31.9200   1
  -2  -5  -4 -241.12 177.270   1
  -4  -5   2 41.7400 34.0900   1
   4   5  -2 117.100 39.3200   1
  -4  -5   2 204.230 205.480   1
   4  -5  -2 48.8600 33.4600   1
  -4   1   5 29.6200 34.7900   1
  -4   1   5 77.8700 34.6200   1
   4  -1  -5 0.56000 33.6300   1
  -4   1   5 -34.530 89.3200   1
  -4   1   5 58.0800 49.9000   1
  -4  -1   5 -12.740 45.8300   1
   4   1  -5 86.0200 35.0500   1
  -4  -1   5 29.7500 32.3600   1
   4  -1  -5 9.77000 31.0700   1
  -2   2   6 2736.49 96.3400   1
  -2  -2   6 3159.41 104.460   1
  -2   2   6 2891.32 105.230   1
  -2  -2   6 2833.82 88.5200   1
  -2   2   6 2996.02 94.8100   1
  -2   2   6 3790.06 192.430   1
   5  -3   2 -51.540 34.0800   1
   5   3   2 21.4800 26.2700   1
   5   3   2 -3.8000 75.4900   1
  -5  -3  -2 -96.370 159.480   1
   2   0   6 464.750 59.8500   1
   4   4   3 1886.58 81.7300   1
   4  -4   3 2119.79 90.0800   1
   4  -4   3 2241.18 93.6900   1
  -4  -4  -3 2064.33 72.6600   1
   5   4   0 175.030 32.3700   1
  -5  -4   0 174.330 33.4900   1
  -5  -4   0 73.9000 97.0400   1
  -5   4   0 45.0400 34.0200   1
   5  -4   0 91.9500 30.4100   1
  -5   4   0 14.7700 31.6600   1
  -5   4   0 34.2500 32.6700   1
   3  -6  -2 98.1100 34.6800   1
   3  -6  -2 98.8200 43.0000   1
  -3  -6   2 -592.48 207.530   1
   3  -6  -2 13.5700 87.9700   1
  -3  -6   2 -62.450 44.6100   1
   6   0   0 86.1500 36.8900   1
   6   0   0 114.560 33.4500   1
   6   0   0 141.130 26.1100   1
  -6   0   0 127.630 31.3500   1
  -5   4   1 34.9600 36.2900   1
  -5  -4   1 84.5900 35.3700   1
  -5   4   1 -33.630 44.5900   1
  -5  -4   1 164.910 80.7400   1
   5  -4  -1 45.7200 29.0300   1
   5   4  -1 58.1200 31.6400   1
  -5   0   4 766.620 60.9700   1
   5   0  -4 795.320 65.7900   1
  -5   0   4 814.630 44.9800   1
   5   0  -4 969.680 50.6100   1
   6   0  -1 -27.720 40.3100   1
   6   0  -1 14.8300 85.2100   1
   6   0  -1 29.9600 25.0000   1
  -6   0   1 -9.6100 27.4400   1
   6   0  -1 -26.860 32.2200   1
   0   3   6 389.200 60.0200   1
   0   3   6 59.3200 45.8600   1
   0  -3   6 363.070 35.4800   1
   0   3   6 482.490 45.6800   1
   0  -3   6 396.540 57.9300   1
   2  -1   6 202.620 53.5900   1
   2   1   6 71.5800 68.2600   1
   2  -1   6 -40.860 61.0100   1
   2   1   6 19.6100 59.9300   1
   0  -7  -2 565.600 56.0800   1
   0  -7  -2 40.5300 107.650   1
   0  -7   2 775.230 53.8700   1
  -2  -6  -3 587.230 53.7000   1
   2  -6   3 385.660 54.9000   1
  -2  -6  -3 -118.69 159.840   1
   2  -6   3 454.930 42.5300   1
  -2  -6  -3 370.580 37.2900   1
  -1  -3   6 72.2900 53.7100   1
  -1   3   6 143.710 64.4800   1
  -1   3   6 68.4200 49.2100   1
  -1   3   6 10.1700 39.2000   1
  -1  -3   6 54.3700 31.5900   1
  -1   3   6 -8.1400 32.3800   1
   6   1   0 178.030 31.6000   1
   6  -1   0 145.930 33.4500   1
   6  -1   0 15.8300 36.8300   1
   6  -1   0 493.230 39.4700   1
   6   1   0 150.140 35.9100   1
   6  -1   0 437.920 42.3400   1
  -5  -1   4 52.2200 32.5800   1
  -5  -1   4 104.460 43.1900   1
   5  -1  -4 65.0700 35.3900   1
  -5   1   4 37.2200 32.3400   1
   5   1  -4 57.3200 32.4400   1
   6  -1  -1 8865.34 253.140   1
   6  -1  -1 8286.38 214.470   1
  -6   1   1 9098.52 198.890   1
   6   1  -1 7894.14 213.670   1
   6   1  -1 9615.56 805.530   1
   6  -1  -1 9321.09 781.760   1
  -6  -1   1 9174.49 766.800   1
  -5   3   3 -113.96 60.9400   1
  -5   3   3 44.4600 33.1900   1
  -5  -3   3 162.070 36.8300   1
   5  -3  -3 58.9200 30.8500   1
   5   3  -3 211.860 41.4900   1
   2   4   5 172.160 36.5000   1
  -2  -4  -5 266.260 49.6100   1
  -2  -4  -5 378.080 69.5000   1
   2  -4   5 161.870 36.5700   1
   2  -4   5 171.070 27.9700   1
  -2   4  -5 144.250 26.8700   1
   2  -4   5 257.780 51.0200   1
  -2  -4  -5 73.4500 117.140   1
   5   2   3 239.940 31.5800   1
  -5  -2  -3 -126.89 106.210   1
   5  -2   3 283.390 33.3300   1
  -5  -2  -3 161.830 26.3900   1
   5  -2   3 200.670 47.0600   1
   5  -2   3 123.690 67.9500   1
  -5  -2  -3 150.140 30.4500   1
  -2  -7   0 55.9800 108.920   1
   2  -7   0 -120.92 115.230   1
   2  -7   0 3.51000 39.6200   1
  -2  -7   0 -15.440 48.9800   1
  -2   7   0 37.5300 45.4900   1
   3   0  -6 1776.56 70.3300   1
  -3   0   6 1385.84 80.6300   1
  -3   0   6 1451.94 58.6300   1
  -4  -5  -2 61.9600 43.8200   1
  -4  -5  -2 -87.320 118.890   1
  -4  -5  -2 91.2200 24.6800   1
   4   5   2 129.170 33.5300   1
   4  -5   2 9.55000 35.0600   1
   4  -5   2 41.8800 34.5300   1
   4  -5   2 24.2100 30.7900   1
  -1  -7   2 -122.39 211.180   1
  -1  -7   2 54.9100 46.6900   1
   1  -7  -2 16.8900 40.4600   1
   1  -7  -2 2.14000 59.8500   1
   1  -7  -2 34.6900 85.2400   1
   5   4   1 458.810 36.9900   1
   5   4   1 318.330 32.7000   1
  -5  -4  -1 529.400 46.0000   1
   5  -4   1 461.640 45.6900   1
  -5   4  -1 478.010 37.8400   1
  -5   4  -1 276.060 32.3700   1
   4   2  -5 169.540 41.9500   1
   4  -2  -5 85.5400 27.7200   1
  -4   2   5 46.2600 50.3100   1
   4  -2  -5 -8.2300 41.2400   1
  -4   2   5 -31.140 119.160   1
  -4  -2   5 74.6300 33.1500   1
  -4   2   5 76.7600 34.3900   1
   4  -2  -5 -20.100 32.6200   1
  -4   2   5 -39.520 40.2100   1
  -3   6  -2 363.860 42.4900   1
  -3  -6  -2 -217.29 111.150   1
   3  -6   2 324.860 39.4200   1
  -3  -6  -2 697.360 50.3700   1
  -3  -6  -2 434.490 31.9600   1
   3  -6   2 395.700 43.0900   1
   4   3   4 1450.49 61.0500   1
   4  -3   4 1118.75 53.3100   1
  -4  -3  -4 1131.96 58.3800   1
   4   3   4 1017.56 51.1100   1
   4  -3   4 1063.71 69.2500   1
   6   0   1 -4.8200 29.7400   1
  -1   7  -2 665.050 45.0200   1
   1  -7   2 665.380 49.1800   1
  -1  -7  -2 1082.37 58.1600   1
  -2   7   1 336.300 48.0700   1
  -2  -7   1 201.220 41.8500   1
  -2   7   1 292.390 39.5100   1
   2  -7  -1 42.2300 81.1100   1
  -2  -7   1 -206.67 155.880   1
   2  -7  -1 356.950 63.9400   1
   2  -7  -1 300.140 42.6600   1
   0  -6  -4 651.560 86.3000   1
   0  -6  -4 -222.55 162.480   1
   0  -6   4 884.550 60.9800   1
   0   6  -4 952.070 51.1300   1
   0  -6  -4 661.640 59.1100   1
   0  -6   4 857.270 57.1100   1
  -3  -1   6 -5.6500 50.4700   1
  -3   1   6 47.9500 36.3900   1
  -3  -1   6 84.9000 33.6100   1
  -3   1   6 -55.830 41.8800   1
  -3   1   6 130.820 54.2700   1
   3   1  -6 43.4100 42.1400   1
   3  -1  -6 49.0100 25.5800   1
  -3   1   6 27.3700 25.9000   1
   3  -3   5 591.910 49.6600   1
   3  -3   5 494.810 64.3400   1
   3   3   5 437.890 37.9700   1
   3   3   5 302.940 47.9500   1
  -3  -3  -5 34.8000 120.210   1
  -3   3  -5 291.950 40.0500   1
   3   3   5 454.150 37.1600   1
   3  -3   5 484.610 62.2200   1
  -3  -3  -5 736.090 81.1900   1
   0  -5   5 729.280 73.3800   1
   0  -5   5 727.050 50.1600   1
   0  -5  -5 -47.360 102.950   1
  -3  -5   4 167.020 40.9200   1
  -3   5   4 37.8500 41.4100   1
   3  -5  -4 116.060 35.4100   1
  -3  -5   4 67.3500 52.2400   1
   3  -5  -4 -143.55 96.1800   1
  -3   5   4 224.790 53.2300   1
   6   0  -2 5571.32 134.910   1
  -6   0   2 5797.13 133.830   1
   6   0  -2 4919.56 156.530   1
   5   4  -2 96.6800 41.9800   1
   5  -4  -2 7.92000 28.5700   1
  -5   4   2 5.42000 51.7300   1
  -5  -4   2 -3.2800 35.6600   1
  -5   4   2 14.2200 38.4200   1
  -5  -4   2 12.3100 146.490   1
   1  -3   6 -27.720 25.3700   1
   1   3   6 41.7500 30.4600   1
  -1   3  -6 -17.260 38.3200   1
   1  -3   6 95.2600 53.0300   1
   1   3   6 32.0700 68.0100   1
  -1  -3  -6 -66.600 83.7300   1
  -2  -7  -1 57.0300 93.9500   1
   2  -7   1 464.230 56.7300   1
  -2  -7  -1 103.470 42.6100   1
  -2   7  -1 278.020 43.1100   1
  -2   7  -1 214.120 41.2300   1
   2  -7   1 195.920 41.2900   1
  -2  -7  -1 98.2700 55.4800   1
   1  -6  -4 310.390 30.0100   1
  -1  -6   4 307.270 53.3500   1
   1  -6  -4 381.880 185.220   1
   1  -6  -4 299.440 48.9100   1
  -1  -6   4 263.270 39.2700   1
   1   5  -5 1055.92 58.4600   1
  -1  -5   5 1065.74 73.9400   1
  -1   5   5 687.160 56.1100   1
  -1  -5   5 1029.52 69.4100   1
  -1   5   5 619.410 68.9900   1
  -4   4   4 2305.08 74.0000   1
   4  -4  -4 2506.87 74.2100   1
   4   4  -4 2525.95 96.8500   1
  -4   4   4 2113.79 89.4000   1
  -4  -4   4 2310.05 86.5200   1
  -4  -4   4 2026.02 69.9300   1
   2   2   6 813.240 56.0500   1
   2  -2   6 1008.22 86.3000   1
   2   2   6 937.360 70.0000   1
   2  -2   6 1053.03 68.4600   1
   2   2   6 894.880 50.5600   1
   2  -2   6 1051.91 46.9800   1
   2   2   6 884.240 69.4500   1
   6  -1  -2 90.1400 34.4900   1
  -6   1   2 70.9000 36.0900   1
  -6  -1   2 75.9400 35.9200   1
   6  -1  -2 4.06000 42.6100   1
   6   1  -2 82.6700 38.4500   1
  -6   2   0 156.530 39.3100   1
  -6  -2   0 314.840 38.2300   1
   6   2   0 206.870 28.8700   1
  -6   2   0 375.470 38.1300   1
   6  -2   0 390.620 37.8300   1
   6  -2   0 396.040 40.8100   1
   6   2   0 338.220 36.0600   1
   5  -2  -4 248.660 39.8100   1
   5   2  -4 58.5400 33.5800   1
  -5   2   4 199.820 37.4500   1
  -5  -2   4 83.1400 36.5600   1
  -5   2   4 283.180 49.7700   1
   5  -2  -4 209.490 39.2700   1
  -5   2   4 263.010 48.0300   1
  -5  -2   4 69.0400 47.6700   1
   6   2  -1 1682.79 67.1900   1
   6  -2  -1 1685.34 62.1200   1
  -6  -2   1 1582.76 62.5600   1
  -6   2   1 1425.03 59.4900   1
   6  -2  -1 1518.05 73.0100   1
  -2  -3   6 -17.800 38.7400   1
  -2   3   6 -61.890 42.1200   1
  -2   3   6 -3.9200 60.2700   1
   2  -3  -6 -126.27 88.2200   1
  -2   3   6 -36.290 59.7200   1
  -2  -3   6 109.360 54.1700   1
   2  -3  -6 11.0200 23.3000   1
  -4   5   3 116.010 47.9900   1
  -4  -5   3 112.960 39.8300   1
  -4  -5   3 177.100 226.300   1
   4  -5  -3 235.350 156.530   1
   4   5  -3 12.1600 40.6800   1
  -4   5   3 68.3400 117.000   1
   4  -5  -3 68.3400 28.0900   1
  -3  -4   5 888.990 64.1500   1
  -3   4   5 747.380 45.0400   1
  -3  -4   5 756.260 52.4600   1
  -3   4   5 676.010 73.3800   1
   3  -4  -5 808.710 46.3600   1
  -3   4   5 690.720 44.9000   1
  -3   4   5 960.810 62.4000   1
   1  -6   4 122.590 36.4800   1
  -1  -6  -4 -1.0600 196.780   1
   1  -6   4 162.290 46.1500   1
  -1  -6  -4 34.6300 83.5500   1
  -1  -6  -4 -10.040 40.2700   1
   4   0   5 -65.450 52.7800   1
   4   0   5 -24.000 24.1100   1
  -1  -5  -5 798.660 59.9500   1
  -1  -5  -5 539.420 86.0100   1
   1  -5   5 536.750 53.9500   1
   1  -5   5 620.650 57.5100   1
  -3  -6   3 -78.220 44.9700   1
   3  -6  -3 7.73000 31.9200   1
  -3  -6   3 -239.12 189.490   1
  -3  -6   3 31.9500 47.6100   1
   3  -6  -3 -26.840 116.620   1
  -3   2   6 1426.98 60.9700   1
  -3  -2   6 1503.26 58.2300   1
   3  -2  -6 1256.55 59.0300   1
  -3   2   6 1267.05 56.9200   1
  -3  -2   6 1611.44 77.8500   1
  -3   2   6 1505.51 85.3200   1
  -3   2   6 1435.18 77.3200   1
   3   2  -6 2022.45 86.5800   1
  -2   7   2 -31.970 37.5800   1
  -2  -7   2 42.6700 39.2400   1
   2  -7  -2 29.3200 41.5400   1
   2  -7  -2 161.170 69.3000   1
  -2  -7   2 27.6200 191.360   1
   2  -7  -2 -130.75 100.170   1
   2  -7  -2 20.2700 25.9200   1
   4   1   5 936.660 43.7800   1
   4  -1   5 1147.72 51.7100   1
   4  -1   5 1272.57 81.5800   1
   4   1   5 844.700 69.1200   1
  -4  -1  -5 888.190 74.5500   1
   6   2   1 73.5600 30.7500   1
   6  -2   1 -10.870 33.2000   1
  -6  -2  -1 50.8300 32.8300   1
  -4  -6   0 73.5700 46.4300   1
   4  -6   0 323.510 52.9000   1
   4   6   0 123.920 38.3200   1
   4  -6   0 449.790 40.2300   1
  -4  -6   0 -252.98 91.2100   1
  -5  -4  -2 70.7000 159.770   1
   5  -4   2 6.29000 38.2900   1
  -5  -4  -2 115.960 37.9100   1
   5   4   2 73.5600 28.9700   1
   5   4   2 32.4500 34.0500   1
  -5  -3  -3 713.820 49.2500   1
   5  -3   3 454.070 95.3200   1
   5  -3   3 538.430 54.3800   1
   5   3   3 611.270 39.0800   1
   5   3   3 791.070 41.0000   1
  -5  -3  -3 632.990 41.1600   1
   5  -3   3 665.450 41.8700   1
   6   2  -2 170.040 33.4400   1
  -6  -2   2 217.320 35.5500   1
  -6   2   2 161.880 39.2500   1
   6  -2  -2 107.100 39.6700   1
   0  -7  -3 1059.32 81.2300   1
   0  -7  -3 -59.590 140.580   1
   0  -7   3 865.980 59.8500   1
   0  -7   3 918.210 53.8300   1
   0  -7  -3 991.430 62.4300   1
   0   7  -3 849.460 48.2500   1
   4  -6  -1 -13.260 36.6700   1
  -4  -6   1 104.450 110.520   1
   4  -6  -1 75.8900 52.2300   1
  -4  -6   1 79.0500 47.1400   1
   4  -6  -1 96.5800 76.1200   1
  -2   5   5 1004.50 75.9000   1
  -2   5   5 820.060 49.3400   1
  -2  -5   5 824.250 75.0600   1
   2  -5  -5 767.700 59.9200   1
  -2  -5   5 945.310 54.1100   1
  -2   5   5 900.150 56.3000   1
  -4  -3   5 3813.03 109.440   1
  -4   3   5 3521.08 111.190   1
  -4  -3   5 4087.66 120.980   1
   4  -3  -5 3754.63 98.8700   1
  -4   3   5 3562.06 96.9600   1
  -3  -5  -4 67.8700 36.0100   1
  -3  -5  -4 -377.67 208.890   1
   3  -5   4 181.030 45.9300   1
   3  -5   4 106.190 31.6500   1
  -3   5  -4 42.2500 30.3600   1
   6   0   2 1242.53 61.2500   1
  -5   0  -4 76.9800 48.3900   1
   5   0   4 177.100 55.1500   1
   5   0   4 125.530 26.1800   1
   2  -6  -4 667.530 40.5500   1
  -2  -6   4 501.610 70.5800   1
  -2   6   4 686.820 59.8200   1
  -2   6   4 691.710 47.2700   1
  -2  -6   4 415.200 41.8400   1
   2  -7   2 -59.750 46.6200   1
  -2  -7  -2 -112.97 122.360   1
   2  -7   2 39.3200 37.8200   1
  -2   7  -2 1.83000 48.8300   1
   2  -7   2 7.10000 36.5300   1
  -2  -7  -2 22.8800 21.8700   1
  -2  -7  -2 -93.810 48.0100   1
   0   4   6 -11.420 34.7900   1
   0  -4   6 -56.720 30.1500   1
   0  -4  -6 112.810 98.0200   1
   0   4   6 45.6800 65.0000   1
   0  -4   6 31.5400 54.6200   1
   0   0   7 59.9100 32.3000   1
   0   0   7 101.840 57.5400   1
   1  -7  -3 145.560 24.9400   1
   1  -7  -3 203.920 72.2500   1
  -1  -7   3 69.8000 48.4000   1
  -1  -7   3 39.9000 47.1900   1
   1  -7  -3 79.9300 53.8100   1
   1  -7  -3 -68.990 135.570   1
  -1   4   6 303.480 47.0700   1
  -1  -4   6 232.730 42.1000   1
  -1  -4   6 210.430 55.8600   1
  -1   4   6 207.660 67.0200   1
   1  -4  -6 224.170 113.880   1
  -1   4   6 379.910 71.3000   1
  -1   4   6 401.280 38.2500   1
  -1   0   7 5.09000 40.7800   1
  -1   0   7 33.9100 64.8500   1
  -1   0   7 -27.760 24.7800   1
   3   0   6 921.640 85.2000   1
   3   0   6 871.870 43.7100   1
   6   0  -3 -53.590 47.4100   1
   6   0  -3 31.9100 39.7500   1
  -6   0   3 28.3200 38.2000   1
   6   1   2 761.940 46.8000   1
   6  -1   2 610.490 42.4200   1
  -5  -1  -4 -58.280 85.4700   1
   5   1   4 69.8700 31.4100   1
   5  -1   4 119.530 50.8800   1
   5  -1   4 150.220 30.0800   1
   5   4  -3 390.480 41.4600   1
   5  -4  -3 215.970 35.4500   1
  -5  -4   3 279.940 43.1900   1
  -5   4   3 178.490 42.9400   1
  -5   4   3 -70.140 66.7900   1
   4   6   1 88.6200 43.2200   1
   4  -6   1 114.620 40.2600   1
   4  -6   1 -132.21 168.590   1
   4  -6   1 211.890 44.7600   1
  -4  -6  -1 0.63000 43.4100   1
  -4  -6  -1 166.130 101.960   1
   2   3   6 135.140 35.4300   1
   2  -3   6 52.9900 24.8300   1
   2   3   6 81.5600 38.2600   1
   2  -3   6 47.2600 34.3900   1
   2  -3   6 -56.690 63.2400   1
  -2  -3  -6 32.2500 100.430   1
  -2   3  -6 24.5900 48.7500   1
   2   3   6 171.340 73.3600   1
   0  -1   7 726.780 97.1100   1
   0   1   7 817.600 88.8800   1
   0   1   7 755.750 102.670   1
   0   1   7 823.410 84.1700   1
   0   1   7 1107.51 118.590   1
   0  -1   7 1058.74 101.240   1
   0  -1   7 1087.75 117.450   1
  -4  -5  -3 42.3200 186.050   1
   4  -5   3 20.3800 42.4400   1
   4  -5   3 38.3100 39.8500   1
   4   5   3 70.6000 30.5800   1
   4  -5   3 64.7500 34.3800   1
  -4  -5  -3 116.350 37.4200   1
   4  -5   3 60.0100 36.5700   1
   5   5   0 837.900 83.2500   1
   5  -5   0 619.260 68.9300   1
  -5  -5   0 816.620 91.1600   1
  -5   5   0 508.740 60.7700   1
  -3  -6  -3 395.960 59.9600   1
   3  -6   3 457.440 56.7900   1
   3  -6   3 467.220 66.4300   1
  -3  -6  -3 333.860 42.8600   1
  -3   6  -3 369.410 53.9800   1
  -3   6  -3 445.810 64.8500   1
  -3  -6  -3 -43.300 177.520   1
  -1   7  -3 503.860 64.4400   1
  -1  -7  -3 670.900 74.3200   1
   1  -7   3 470.730 70.6800   1
   1  -7   3 489.320 63.0300   1
  -1   1   7 65.1000 38.6200   1
  -1  -1   7 25.9400 37.0000   1
  -1   1   7 126.170 68.7500   1
  -1   1   7 81.0600 26.3500   1
  -1  -1   7 20.7600 69.2800   1
  -1   1   7 75.2800 35.9800   1
   3   1   6 129.450 31.5700   1
   3   1   6 142.100 30.3200   1
   3   1   6 200.620 61.7400   1
   3  -1   6 247.980 69.4500   1
   3  -1   6 43.7900 34.6100   1
   4   2   5 458.730 51.7600   1
   4  -2   5 235.050 38.7500   1
  -4  -2  -5 175.380 63.8300   1
  -4  -2  -5 293.590 85.6700   1
   4  -2   5 227.090 58.8800   1
  -6  -3   0 -52.450 36.4300   1
  -6   3   0 44.6000 35.0500   1
  -6   3   0 26.8300 32.6900   1
   6   3   0 121.960 39.0900   1
   6  -3   0 81.5000 30.6500   1
  -6  -3   0 -90.680 93.8900   1
  -6   3   0 3.79000 26.1000   1
   3  -7   0 1300.01 120.370   1
  -3   7   0 1318.83 125.580   1
   3  -7   0 1490.23 143.500   1
  -3  -7   0 1842.11 164.630   1
   6  -1  -3 4007.53 352.880   1
   6  -1  -3 4744.44 275.030   1
   6   1  -3 4845.17 280.860   1
  -6  -1   3 4201.18 358.930   1
  -5   5   1 582.630 71.8100   1
  -5  -5   1 703.790 75.9600   1
  -5  -5   1 150.310 115.380   1
   5  -5  -1 446.470 58.2100   1
   5   5  -1 599.420 69.7400   1
  -4  -4  -4 698.460 75.4500   1
  -4  -4  -4 -73.560 112.740   1
   4  -4   4 793.060 87.4600   1
   4  -4   4 999.640 98.1500   1
  -4  -4  -4 532.150 59.1100   1
   4   4   4 674.330 69.6100   1
   4   4   4 452.920 51.8400   1
  -5  -3   4 64.7500 36.1200   1
  -5   3   4 17.5800 47.9200   1
  -5  -3   4 47.8300 48.2700   1
   5  -3  -4 61.9000 38.5900   1
   5   3  -4 -42.240 31.8100   1
  -5   3   4 22.6700 36.3100   1
   6   3  -1 1553.93 138.550   1
   6  -3  -1 1312.78 119.740   1
  -6  -3   1 1688.44 150.090   1
  -6   3   1 1336.87 123.610   1
   3  -7  -1 84.8500 48.3300   1
  -3  -7   1 33.0700 47.4200   1
   3  -7  -1 70.0000 29.6700   1
   3  -7  -1 47.3500 76.3500   1
  -3  -7   1 -69.220 159.660   1
  -3   4  -5 113.590 32.2000   1
   3   4   5 101.250 39.8500   1
   3  -4   5 78.5800 25.7700   1
   3   4   5 149.180 36.9500   1
   3  -4   5 50.1900 31.3600   1
  -3  -4  -5 189.230 48.5500   1
  -3  -4  -5 1.73000 131.200   1
   3  -4   5 153.800 56.4300   1
  -3  -4  -5 366.300 88.7000   1
   2  -6   4 207.890 56.7600   1
  -2  -6  -4 -383.24 206.540   1
  -2  -6  -4 99.3100 40.0600   1
   2  -6   4 145.380 36.3400   1
   4   6  -2 100.460 50.6100   1
  -4   6   2 -25.880 38.9800   1
  -4  -6   2 11.2700 37.2900   1
   4  -6  -2 75.6200 31.2400   1
  -4  -6   2 282.470 210.000   1
   1   4   6 752.860 93.5100   1
   1  -4   6 1314.51 130.440   1
   1   4   6 990.850 112.200   1
  -1  -4  -6 99.4000 113.040   1
   1  -4   6 1368.22 129.080   1
   1   0   7 31.2200 53.6100   1
  -1   0  -7 1.44000 31.3600   1
  -5   0   5 -24.140 42.5500   1
  -5   0   5 -34.290 41.4400   1
   5   0  -5 14.4100 30.6400   1
  -2  -5  -5 164.770 69.6100   1
  -2  -5  -5 23.0800 40.4700   1
  -2   5  -5 66.5600 30.8700   1
   2  -5   5 65.7400 31.4200   1
   2  -5   5 -41.260 57.4500   1
  -2  -5  -5 136.310 121.890   1
  -3   3   6 244.590 33.1600   1
  -3  -3   6 290.650 51.9900   1
   3  -3  -6 201.360 35.4300   1
  -3   3   6 250.530 44.0200   1
  -3  -3   6 201.200 65.5300   1
  -3   3   6 365.730 78.1700   1
  -3   3   6 296.820 65.8900   1
   3  -3  -6 -150.71 74.7200   1
   0  -8   0 39.0800 42.6500   1
   0  -8   0 62.3900 145.200   1
   0  -8   0 -87.530 56.5600   1
  -3  -7  -1 -136.57 113.180   1
   3  -7   1 -17.590 48.9600   1
  -3  -7  -1 24.2000 41.3300   1
  -3  -7  -1 -68.290 53.9900   1
   3  -7   1 -229.69 195.390   1
  -5  -5  -1 -2.0500 136.180   1
   5  -5   1 -27.840 32.3100   1
   5   5   1 -50.590 34.6400   1
  -5   5  -1 19.8600 35.4500   1
  -5  -5  -1 -75.160 40.7400   1
  -5   5  -1 -34.650 35.4500   1
  -4   0   6 126.460 58.6100   1
   4   0  -6 41.7300 28.1600   1
   4   0  -6 42.7900 34.0300   1
  -4   0   6 88.5700 35.8700   1
   6   2   2 697.020 70.8800   1
   6  -2   2 722.160 70.8700   1
  -6   2  -2 769.030 85.4400   1
  -6  -2  -2 644.340 65.8800   1
   6  -2   2 652.650 77.9000   1
   5   2   4 304.360 40.4900   1
   5  -2   4 365.150 45.3900   1
  -5  -2  -4 260.180 39.9100   1
   5  -2   4 480.730 73.5500   1
  -5  -2  -4 -25.670 77.4000   1
  -2   0   7 57.3300 36.0400   1
  -2   0   7 8.07000 69.4900   1
   6   3   1 120.410 38.7900   1
   6  -3   1 19.8500 29.7500   1
  -6  -3  -1 -24.380 30.0400   1
  -6  -3  -1 -201.11 151.480   1
  -2   4   6 305.680 46.6900   1
   2   4  -6 606.520 65.6200   1
  -2   4   6 217.470 41.0000   1
  -2  -4   6 647.400 73.3400   1
  -2   4   6 210.750 67.5000   1
   2  -4  -6 -96.620 75.5500   1
  -2   4   6 437.390 74.8500   1
  -2  -4   6 823.920 101.540   1
  -2   4   6 200.710 32.6800   1
   1   1   7 1355.91 133.810   1
   1  -1   7 1423.51 142.650   1
   1   1   7 1601.39 151.570   1
  -1   1  -7 995.480 98.7600   1
   1   1   7 815.340 102.690   1
   5   1  -5 2488.25 219.260   1
  -5   1   5 2568.51 226.570   1
   5  -1  -5 2553.31 221.640   1
  -5  -1   5 2361.22 212.030   1
  -5  -1   5 2132.20 187.330   1
   0   2   7 687.510 77.7500   1
   0   2   7 557.110 138.850   1
   0  -2   7 1117.65 119.290   1
   0   2   7 792.950 89.9200   1
   0  -2   7 966.180 92.3100   1
  -2   7   3 855.730 91.5100   1
  -2  -7   3 1201.68 119.060   1
   2  -7  -3 899.810 92.4400   1
   2  -7  -3 751.690 75.0500   1
  -6  -3   2 32.9300 33.2900   1
  -6   3   2 15.2000 38.2600   1
  -6   3   2 -39.650 34.1000   1
  -6  -3   2 190.020 93.0500   1
   6  -3  -2 -12.330 40.8900   1
   6   3  -2 1.88000 33.5000   1
  -1  -2   7 233.440 62.4800   1
  -1   2   7 232.270 33.2200   1
  -1   2   7 268.030 74.1600   1
  -1   2   7 240.700 39.6300   1
  -1   2   7 324.890 55.4600   1
  -1   2   7 114.190 56.7900   1
  -1  -2   7 213.090 37.6100   1
   0  -8   1 97.5500 53.0900   1
   0  -8   1 203.400 63.2700   1
   0  -8  -1 153.070 46.8200   1
   0  -8  -1 -149.36 86.8400   1
   0  -8   1 -55.680 224.690   1
   5   5  -2 559.170 65.6800   1
   5  -5  -2 422.050 49.6100   1
  -5   5   2 270.860 56.2000   1
  -5  -5   2 427.730 54.2300   1
  -5   5   2 334.440 48.0200   1
   3   2   6 338.520 67.7800   1
   3  -2   6 274.380 58.5700   1
  -3  -2  -6 42.6500 101.010   1
   3   2   6 235.050 36.9600   1
   3   2   6 242.990 32.9500   1
  -4   1   6 65.9000 35.4200   1
  -4  -1   6 47.0900 34.1800   1
  -4   1   6 -70.580 60.7600   1
  -4  -1   6 44.2900 51.9700   1
   4  -1  -6 -9.6800 34.7200   1
   4  -1  -6 25.0700 27.1400   1
   4   1  -6 -14.850 32.0200   1
   6   2  -3 537.060 62.9700   1
   6  -2  -3 287.450 48.8400   1
  -6  -2   3 450.750 58.8000   1
   6  -2  -3 423.190 57.3800   1
  -6   2   3 357.790 52.2400   1
  -2  -1   7 310.020 74.3800   1
  -2   1   7 312.700 64.4900   1
  -2   1   7 405.290 53.8600   1
  -2  -1   7 244.500 45.9600   1
  -2   1   7 243.290 49.6100   1
  -1  -8   0 211.280 159.240   1
  -1  -8   0 1117.11 119.570   1
   1  -8   0 901.490 91.7700   1
  -1  -8   0 846.670 88.1800   1
  -1   8   0 748.090 82.2300   1
  -4  -5   4 188.690 53.0700   1
   4  -5  -4 92.3800 35.7700   1
   4   5  -4 200.360 49.4400   1
  -4   5   4 213.660 42.8300   1
  -4  -5   4 282.420 52.7100   1
  -4   5   4 85.5500 46.8400   1
  -4   5   4 20.9800 71.7600   1
   4  -5  -4 121.200 90.4300   1
  -4   5   4 171.560 48.9800   1
  -4  -6  -2 -10.630 37.1800   1
   4  -6   2 111.310 36.7000   1
  -4  -6  -2 -65.800 162.450   1
   4  -6   2 100.880 40.3600   1
   4  -6   2 217.790 44.9700   1
   4   6   2 -14.660 37.2400   1
  -4  -6  -2 -22.600 45.5500   1
  -3  -7   2 496.560 61.9400   1
   3  -7  -2 350.910 62.8800   1
  -3  -7   2 -47.370 230.440   1
   3  -7  -2 -37.840 82.7400   1
   3  -7  -2 292.370 45.8400   1
  -3   7   2 251.470 41.3300   1
  -1  -8   1 -12.280 42.6400   1
   1  -8  -1 64.1400 49.6500   1
  -1  -8   1 -265.89 234.860   1
   1  -8  -1 60.7900 91.6200   1
   3  -5  -5 212.500 38.3900   1
  -3  -5   5 190.110 64.7400   1
  -3   5   5 177.400 60.5300   1
   3  -5  -5 14.6100 127.200   1
  -3  -5   5 99.5900 39.1300   1
  -3   5   5 277.840 52.1900   1
  -3   5   5 88.5000 47.9800   1
  -5  -4  -3 532.680 62.2300   1
  -5  -4  -3 -3.1800 155.490   1
   5  -4   3 567.500 70.5900   1
   5  -4   3 662.230 73.7600   1
  -5  -4  -3 431.880 49.4800   1
   5   4   3 522.610 56.0200   1
   5   4   3 374.460 46.1300   1
   1  -8   1 -259.00 237.480   1
  -1  -8  -1 435.420 69.2300   1
   1  -8   1 292.480 63.0900   1
  -1  -8  -1 328.360 64.3100   1
   1  -8   1 287.930 57.1100   1
  -1   8  -1 245.910 52.9900   1
  -1  -8  -1 76.4000 93.8400   1
   0  -6  -5 250.850 60.4400   1
   0  -6   5 147.510 40.4300   1
   0  -6  -5 54.4000 156.220   1
   0  -6   5 117.580 52.7400   1
   3  -6  -4 -115.73 157.600   1
  -3  -6   4 -33.190 44.3300   1
  -3   6   4 133.210 53.9200   1
  -3  -6   4 15.0500 51.2900   1
  -3   6   4 90.8900 53.5800   1
   3  -6  -4 66.3100 31.8400   1
  -2  -7  -3 736.140 83.8200   1
  -2  -7  -3 362.390 47.2800   1
   2  -7   3 731.680 81.5300   1
   2  -7   3 711.610 85.6900   1
  -4  -3  -5 1249.73 141.160   1
  -4  -3  -5 -13.930 109.390   1
   4  -3   5 1361.13 132.310   1
   4  -3   5 1514.16 141.240   1
   4   3   5 553.240 72.2100   1
   4  -4  -5 72.7500 32.3200   1
  -4   4   5 -17.240 42.4900   1
   4  -4  -5 -2.7000 70.3100   1
  -4   4   5 50.1500 42.3900   1
  -4  -4   5 73.8600 53.6300   1
  -4  -4   5 187.230 40.5200   1
  -4   4   5 -138.78 63.4600   1
  -4   4   5 -60.930 58.2700   1
   4   4  -5 158.460 46.0000   1
   6   0   3 -24.040 30.2000   1
   6   0   3 19.2300 105.360   1
   1   2   7 1052.80 116.170   1
   1   2   7 1389.48 137.350   1
   1   2   7 792.590 81.5700   1
   1  -2   7 1234.29 117.980   1
  -1   2  -7 786.770 107.310   1
   1  -2   7 1325.20 131.040   1
  -1   6   5 1775.13 170.790   1
  -1  -6   5 1783.56 167.570   1
   1   6  -5 1672.40 153.600   1
  -1  -6   5 1551.30 156.070   1
  -5   2   5 376.850 57.0600   1
   5   2  -5 356.820 47.7700   1
  -5   2   5 385.540 59.1500   1
  -5  -2   5 352.800 48.3500   1
  -5   2   5 379.980 55.4400   1
   5  -2  -5 302.880 52.3600   1
  -5  -2   5 468.730 67.5900   1
   5  -2  -5 350.240 45.9700   1
  -4   2   6 176.260 43.3100   1
  -4   2   6 187.850 50.7000   1
  -4  -2   6 141.830 42.2500   1
  -4  -2   6 145.450 65.4000   1
   4   2  -6 182.100 48.5400   1
   4  -2  -6 191.540 34.7700   1
  -4   2   6 209.200 49.6200   1
  -3  -7  -2 24.2500 21.4100   1
   3  -7   2 99.3700 34.7300   1
  -3   7  -2 -0.4100 42.0200   1
  -3  -7  -2 119.040 44.3100   1
  -3  -7  -2 -100.88 120.440   1
   3  -7   2 56.0200 38.3100   1
   3  -7   2 58.6500 42.9100   1
  -2  -2   7 734.170 78.3300   1
  -2   2   7 774.410 82.4700   1
  -2   2   7 618.810 77.9700   1
  -2   2   7 814.520 93.8500   1
  -2  -2   7 713.110 87.3300   1
  -2   2   7 574.330 61.5700   1
  -6  -1  -3 810.010 83.2000   1
   6  -1   3 1239.91 129.290   1
   6  -1   3 1131.75 103.300   1
   6   1   3 1093.58 103.120   1
   5  -5   2 1742.32 161.240   1
   5  -5   2 1523.81 144.770   1
   5  -5   2 1562.97 166.410   1
  -5  -5  -2 1624.08 147.380   1
   5   5   2 1542.84 138.710   1
  -4  -6   3 141.010 187.410   1
  -4   6   3 30.7500 152.750   1
  -4  -6   3 16.8400 47.3200   1
  -4   6   3 78.1700 51.1700   1
   4  -6  -3 64.3700 123.300   1
   4  -6  -3 -25.520 32.3400   1
   2   4   6 351.440 57.9600   1
  -2   4  -6 208.340 43.9700   1
   2  -4   6 307.560 45.0200   1
   2  -4   6 352.940 62.5800   1
  -2  -4  -6 238.450 133.610   1
   0  -7   4 1140.54 112.560   1
   0  -7  -4 180.830 190.430   1
   0  -7  -4 1598.12 148.880   1
   0  -7   4 1232.04 123.690   1
   0   7  -4 1226.04 117.580   1
   0  -7  -4 1525.58 156.740   1
   0  -7  -4 929.450 102.970   1
   0  -8  -2 258.150 59.7200   1
   0  -8   2 265.970 50.4600   1
   0  -8   2 -432.76 253.440   1
   0  -8  -2 -37.300 95.9100   1
   6   0  -4 1567.27 139.930   1
  -6   0   4 1407.37 130.670   1
   6   4   0 2850.19 245.800   1
  -6   4   0 2900.03 254.940   1
   6  -4   0 3097.14 264.760   1
  -6  -4   0 2694.22 233.600   1
   2   0   7 38.5600 36.1800   1
   2   0   7 -68.970 66.2800   1
   6  -3   2 52.6400 31.7700   1
   6   3   2 23.5000 35.5400   1
  -6  -3  -2 -9.7500 91.4500   1
   6   3   2 10.5400 21.1800   1
  -5  -3  -4 264.600 39.0200   1
  -5  -3  -4 -2.2000 96.9800   1
  -5  -3  -4 246.400 48.3000   1
   5  -3   4 418.100 55.1000   1
   5   3   4 360.710 43.2400   1
   5  -3   4 320.850 54.7800   1
   5  -4  -4 48.5200 40.1000   1
  -5   4   4 -41.500 41.9800   1
  -5  -4   4 -22.600 35.8500   1
  -5   4   4 -97.410 93.0500   1
  -5  -4   4 -23.110 47.9600   1
   5   4  -4 83.3200 47.2900   1
  -1  -6  -5 -8.1900 162.830   1
  -1  -6  -5 290.640 55.3200   1
  -1  -6  -5 509.120 86.4500   1
   1  -6   5 202.930 53.0500   1
   1  -6   5 121.900 43.2000   1
  -6  -4   1 2.03000 34.8900   1
  -6   4   1 -7.0800 58.2200   1
  -6  -4   1 68.7600 73.5400   1
   6  -4  -1 116.430 33.6000   1
   6   4  -1 89.7400 39.0000   1
  -6   4   1 46.0900 36.2500   1
  -1  -7   4 35.1900 59.1600   1
   1  -7  -4 -221.41 157.310   1
   1  -7  -4 4.77000 46.3700   1
  -1  -7   4 -21.120 41.8100   1
   0  -5   6 226.880 67.8500   1
   0   5   6 211.390 73.0600   1
   0  -5   6 239.350 47.5000   1
   0   5   6 162.150 44.6300   1
  -2  -8   0 30.9100 44.0300   1
   2  -8   0 115.860 133.200   1
  -2  -8   0 58.3200 58.7800   1
   2  -8   0 114.500 49.0500   1
  -2   8   0 4.50000 40.1300   1
  -2   8   0 48.2300 44.4000   1
  -2  -8   0 48.4900 135.410   1
   0   3   7 238.550 77.5200   1
   0  -3  -7 -133.07 82.3900   1
   0   3   7 40.0400 57.0800   1
   0  -3   7 22.9600 30.9900   1
   0   3   7 129.650 37.5200   1
   0  -3   7 111.540 65.7700   1
   6   1  -4 19.4500 37.5800   1
   6  -1  -4 35.3500 37.0600   1
  -6   1   4 66.6800 48.2600   1
  -6  -1   4 132.080 41.4200   1
   6  -1  -4 42.3500 39.3400   1
  -6  -1   4 103.930 52.6200   1
   1  -8  -2 169.320 64.8900   1
   1  -8  -2 25.0100 48.3400   1
  -1  -8   2 48.2200 42.0900   1
   1  -8  -2 -18.400 92.1100   1
  -1  -8   2 -407.13 236.470   1
  -1  -5   6 846.920 93.7700   1
  -1   5   6 994.470 115.120   1
  -1  -5   6 680.720 75.0400   1
  -1   5   6 887.720 99.5700   1
  -1  -3   7 1714.49 159.990   1
  -1   3   7 1084.63 172.610   1
  -1  -3   7 1755.64 161.220   1
  -1   3   7 1663.05 151.220   1
  -1   3   7 1714.88 165.020   1
  -1   3   7 1328.30 125.170   1
  -1   3   7 1496.80 146.640   1
  -3  -3  -6 -248.97 100.970   1
   3  -3   6 66.9300 27.3600   1
   3   3   6 70.0400 75.9400   1
   3   3   6 77.9400 36.5600   1
   3  -3   6 178.300 63.9800   1
   2   1   7 -9.0200 27.8100   1
  -2   1  -7 236.510 45.4700   1
   2   1   7 252.040 65.8200   1
   2   1   7 194.940 31.5800   1
   6  -3  -3 1361.93 128.850   1
  -6  -3   3 1349.88 122.520   1
  -6   3   3 1453.61 130.680   1
   6   3  -3 1513.91 137.360   1
   6  -3  -3 1556.71 140.890   1
  -5   5   3 544.500 61.3900   1
  -5   5   3 83.0800 78.6700   1
   5   5  -3 749.320 80.8900   1
   5  -5  -3 598.180 66.8300   1
  -5  -5   3 702.710 75.5800   1
  -3   0   7 48.2200 66.6900   1
   3   0  -7 2.12000 42.3200   1
  -1   8  -2 110.910 38.7700   1
   1  -8   2 96.4400 43.8100   1
  -1  -8  -2 116.070 45.9900   1
   1  -8   2 736.290 229.300   1
  -1  -8  -2 149.190 99.5700   1
  -1  -8  -2 125.210 38.0600   1
   1  -8   2 229.640 92.6800   1
  -2  -8   1 -17.250 137.720   1
   2  -8  -1 45.1400 87.2100   1
  -2   8   1 -39.460 38.1500   1
   2  -8  -1 -56.560 41.0200   1
   2  -8  -1 65.1800 51.4300   1
  -2  -8   1 111.300 42.2100   1
  -3  -4   6 106.240 38.0400   1
   3  -4  -6 23.4700 69.1300   1
  -3   4   6 233.160 61.7400   1
  -3   4   6 127.560 45.8600   1
  -3   4   6 65.9000 23.4600   1
  -3   4   6 -54.670 57.1200   1
  -3  -4   6 58.4500 55.2600   1
   3  -4  -6 96.8100 31.2500   1
  -1  -7  -4 114.210 171.260   1
   1  -7   4 40.1300 53.9100   1
  -1  -7  -4 46.2500 52.1700   1
   1  -7   4 65.7800 38.2400   1
  -1  -7  -4 42.6500 69.7100   1
  -2   6   5 82.2900 43.5100   1
  -2  -6   5 -29.270 35.9500   1
  -2   6   5 56.7900 51.4200   1
  -2   6   5 -14.640 43.7700   1
   2  -6  -5 40.1300 134.870   1
  -2  -6   5 -145.57 63.4800   1
   3  -6   4 30.9000 38.8300   1
  -3  -6  -4 -99.520 43.1200   1
  -3  -6  -4 296.310 184.030   1
   3  -6   4 -27.080 42.9000   1
  -4   5  -4 16.7700 41.3400   1
   4  -5   4 17.4700 46.3700   1
  -4  -5  -4 -404.93 143.580   1
  -4  -5  -4 26.7300 22.0200   1
  -4  -5  -4 45.2200 34.3400   1
   4  -5   4 62.6800 46.7900   1
   2  -8   1 1009.83 91.0500   1
  -2  -8  -1 1211.58 107.590   1
  -2   8  -1 889.030 79.0700   1
   2  -8   1 1178.33 85.5400   1
  -2  -8  -1 1305.26 95.8100   1
  -2   8  -1 1336.52 96.9200   1
  -6   4  -1 135.620 32.1700   1
  -6   4  -1 -43.010 37.6500   1
   6   4   1 80.9200 41.6800   1
  -6   4  -1 33.4100 34.1100   1
  -6  -4  -1 105.140 34.7800   1
   6  -4   1 125.440 33.5700   1
  -6  -4  -1 -12.180 121.540   1
  -3   1   7 441.710 65.6000   1
  -3  -1   7 278.440 43.5600   1
  -3  -1   7 249.470 71.0300   1
   3  -1  -7 270.820 42.9600   1
   3   1  -7 166.160 47.7100   1
   6  -2   3 97.5500 53.4200   1
   6   2   3 71.5800 31.0800   1
   6  -2   3 70.9100 34.8100   1
  -6  -2  -3 32.6400 91.4900   1
  -3  -7   3 40.0700 39.1500   1
   3  -7  -3 62.0100 133.920   1
   3  -7  -3 -5.1200 27.9300   1
  -3  -7   3 -70.450 210.250   1
   3  -7  -3 -99.320 46.6300   1
  -3  -5  -5 -210.99 123.460   1
  -3  -5  -5 404.040 81.2900   1
  -3  -5  -5 225.630 41.5800   1
   3  -5   5 194.430 33.6800   1
  -3   5  -5 147.630 32.3100   1
   3  -5   5 234.010 49.8800   1
   6   4  -2 637.380 57.5800   1
  -6   4   2 852.820 75.3100   1
  -6  -4   2 655.790 57.2200   1
   6  -4  -2 893.410 66.8300   1
   1   5   6 -63.870 62.4400   1
  -1  -5  -6 -188.76 161.800   1
   1   5   6 42.6600 38.2300   1
   1  -5   6 63.2300 31.7200   1
   1  -5   6 -72.810 57.9300   1
   5   0   5 -20.270 53.1700   1
   5   0   5 9.39000 27.7900   1
   7   0   0 108.410 40.8100   1
   7   0   0 250.620 39.1600   1
   7   0   0 -46.450 48.9300   1
  -7   0   0 129.710 28.9800   1
   7   0   0 124.740 32.1200   1
   7   0  -1 54.1600 34.4900   1
  -7   0   1 28.6100 33.4900   1
   1  -3   7 411.750 62.9600   1
   1   3   7 428.920 68.8000   1
  -1  -3  -7 320.950 88.9000   1
   1  -3   7 260.760 37.8000   1
   1   3   7 309.570 47.2400   1
   4   0   6 4533.60 391.050   1
   4   0   6 3887.38 333.220   1
   4  -7   0 30.2700 31.5400   1
   4  -7   0 -59.610 94.8800   1
  -4  -7   0 151.440 41.7400   1
   4  -7   0 78.2800 40.1300   1
  -4  -7   0 -283.12 93.9100   1
  -5   3   5 16.1300 42.3700   1
   5   3  -5 48.5200 38.5500   1
   5  -3  -5 -24.690 36.1800   1
  -5  -3   5 84.3100 36.5600   1
  -5   3   5 -180.38 50.1000   1
   5  -3  -5 5.21000 33.7400   1
  -5  -3   5 86.0300 60.4800   1
  -5   3   5 73.5100 39.2500   1
  -4  -6  -3 1109.01 85.0400   1
   4  -6   3 895.810 90.5100   1
  -4   6  -3 1018.18 95.1700   1
   4  -6   3 1038.81 78.9000   1
  -4  -6  -3 866.390 71.5700   1
   5   6   0 194.870 42.9100   1
  -5  -6   0 -38.720 92.7300   1
  -5  -6   0 259.300 49.5800   1
  -5   6   0 100.860 36.5000   1
  -6   2   4 2860.82 247.720   1
  -6  -2   4 2764.06 170.400   1
   6   2  -4 3100.89 267.920   1
  -6  -2   4 2830.67 193.120   1
  -6   2   4 2579.16 160.620   1
   6  -2  -4 2078.93 141.860   1
   6  -2  -4 3128.71 270.720   1
   4  -7  -1 -32.400 32.1600   1
  -4  -7   1 150.590 138.330   1
   4  -7  -1 13.1700 52.2100   1
   4  -7  -1 -110.75 85.1300   1
  -4  -7   1 -16.310 44.0400   1
   4  -3  -6 -3.2200 32.1000   1
  -4   3   6 -10.750 45.1700   1
   4   3  -6 151.040 49.8600   1
  -4   3   6 -52.980 57.4900   1
  -4  -3   6 46.9500 52.0300   1
   2  -2   7 793.360 84.9200   1
   2   2   7 328.580 60.3000   1
   2   2   7 339.680 47.2000   1
  -2   2  -7 482.490 61.6500   1
   2   2   7 596.230 52.7700   1
   2   2   7 655.480 86.7800   1
   5  -6  -1 151.820 35.1000   1
  -5   6   1 -17.610 45.2800   1
  -5  -6   1 127.430 39.4500   1
  -5  -6   1 -117.38 117.790   1
   5   6  -1 79.8500 50.1900   1
  -2  -7   4 1463.43 104.540   1
  -2   7   4 1583.54 114.930   1
   2  -7  -4 1567.05 109.610   1
   2  -7  -4 1661.74 111.680   1
  -2  -7   4 1807.92 129.530   1
  -2   3   7 602.430 80.3200   1
  -2   3   7 465.180 46.9600   1
  -2  -3   7 583.010 69.6400   1
  -2  -3   7 405.750 49.2600   1
  -2   3   7 605.300 55.8700   1
  -2   3   7 667.540 99.1900   1
   5  -1   5 1873.92 122.630   1
   5   1   5 1220.37 89.0100   1
   5  -1   5 1677.30 124.740   1
   5   1   5 1294.09 104.460   1
  -5  -1  -5 1181.46 119.880   1
   7   1   0 65.5400 31.8300   1
   7   1   0 233.480 38.6700   1
   7  -1   0 -3.1100 31.5500   1
  -7  -1   0 102.520 33.7500   1
  -7  -1   1 2832.25 170.800   1
   7   1  -1 2876.74 250.100   1
   7  -1  -1 3331.19 286.820   1
   7  -1  -1 2500.21 165.520   1
   2  -5  -6 -14.300 126.240   1
  -2   5   6 54.1000 47.5700   1
  -2   5   6 222.810 40.2200   1
  -2   5   6 120.200 44.0900   1
  -2  -5   6 29.7200 53.2200   1
  -2  -5   6 1.21000 34.2400   1
  -2   5   6 62.4700 56.5700   1
   4  -1   6 -20.990 26.3300   1
   4   1   6 53.4600 23.6300   1
   4   1   6 47.8200 73.6900   1
   4  -1   6 3.33000 67.1100   1
   2  -8  -2 143.460 43.0000   1
   2  -8  -2 29.5300 70.9100   1
  -2  -8   2 -9.2700 202.430   1
  -2   8   2 -26.000 38.4900   1
   2  -8  -2 -113.36 99.7600   1
   2  -8  -2 47.4800 36.7800   1
  -2  -8   2 71.4400 42.5000   1
  -2   8   2 69.5900 32.3700   1
   4   4   5 592.190 69.5000   1
  -4  -4  -5 1009.71 89.7600   1
  -4  -4  -5 1433.31 119.480   1
   4  -4   5 1000.95 85.5300   1
   4   4   5 830.640 82.4800   1
  -4  -4  -5 300.660 120.330   1
  -4  -7  -1 -3.4000 67.7400   1
   4  -7   1 59.9200 44.8700   1
   4  -7   1 52.6000 191.890   1
  -4  -7  -1 41.8300 101.200   1
   4  -7   1 169.790 37.2000   1
  -3  -2   7 138.940 35.3900   1
  -3   2   7 90.1400 45.7900   1
  -3   2   7 94.3200 53.9400   1
   3  -2  -7 48.1200 27.0700   1
  -3  -2   7 86.8800 54.0200   1
  -3   2   7 33.5100 41.8000   1
   2  -6   5 88.5700 42.0800   1
   2  -6   5 145.050 57.7700   1
  -2  -6  -5 -270.96 153.290   1
  -2  -6  -5 140.630 47.8600   1
  -2  -6  -5 17.1100 79.4100   1
   7   0   1 -26.070 41.2400   1
   7   0  -2 316.720 41.6600   1
   7   0  -2 210.020 43.5900   1
   3  -7   3 803.740 72.4200   1
  -3  -7  -3 1017.91 77.1300   1
  -3  -7  -3 -51.860 173.150   1
  -3   7  -3 543.560 66.7600   1
  -3  -7  -3 583.880 55.8700   1
   3  -7   3 922.920 76.4200   1
   5   6   1 126.850 36.9300   1
  -5  -6  -1 71.0300 107.910   1
   5  -6   1 106.670 36.1600   1
   5  -6   1 103.570 179.350   1
   5  -6   1 43.7300 38.1300   1
  -5  -6  -1 133.870 44.1000   1
   0  -8   3 1311.53 94.1000   1
   0  -8  -3 944.490 74.3700   1
   0   8  -3 1034.43 87.5900   1
   0  -8  -3 1251.84 106.120   1
   0  -8   3 1338.93 100.630   1
  -2  -8  -2 240.990 48.6400   1
   2  -8   2 191.230 44.6200   1
   2  -8   2 195.980 56.3900   1
   2  -8   2 26.1300 243.530   1
  -2  -8  -2 181.870 38.7700   1
  -2  -8  -2 -109.94 105.610   1
  -5  -5  -3 2039.53 134.100   1
   5  -5   3 2502.81 163.120   1
  -5  -5  -3 2926.06 255.280   1
   5  -5   3 2332.86 151.660   1
   5   5   3 2939.82 262.860   1
   7   1   1 1327.12 111.520   1
  -7  -1  -1 2003.82 125.440   1
   7   1   1 2130.45 142.100   1
   7  -1   1 2007.32 148.210   1
   7   1  -2 2804.46 169.640   1
   7  -1  -2 2623.66 158.870   1
   7  -1  -2 1876.88 134.120   1
  -7  -1   2 2466.10 153.310   1
   1  -8  -3 1257.10 112.300   1
   1  -8  -3 1207.82 89.5600   1
   1  -8  -3 981.310 75.8000   1
  -1  -8   3 1219.55 92.6200   1
  -2  -7  -4 442.950 174.810   1
   2  -7   4 588.160 68.8100   1
   2  -7   4 537.120 56.0500   1
  -2  -7  -4 899.310 74.9300   1
   5  -6  -2 -83.360 107.000   1
  -5   6   2 -50.510 50.7400   1
  -5  -6   2 130.690 125.560   1
   5  -6  -2 43.2700 37.5800   1
   5   6  -2 93.2000 56.8200   1
  -5  -6   2 11.7000 42.5800   1
  -4  -7   2 -27.150 45.3200   1
   4  -7  -2 -35.710 33.4700   1
   4  -7  -2 28.0000 92.4400   1
  -4  -7   2 -42.020 148.050   1
   4  -7  -2 -47.610 46.8500   1
  -4   5   5 695.560 58.0100   1
  -4  -5   5 775.850 67.4100   1
  -4   5   5 467.790 115.200   1
  -4   5   5 719.140 71.8700   1
  -4  -5   5 940.910 82.2900   1
   4  -5  -5 826.240 64.3600   1
  -6  -4  -2 54.2800 157.620   1
  -6   4  -2 145.160 29.4200   1
   6   4   2 165.050 38.2300   1
  -6   4  -2 35.6600 29.6100   1
  -6  -4  -2 189.390 39.2900   1
   6  -4   2 84.1600 41.9600   1
  -5  -4  -4 406.690 51.1000   1
  -5  -4  -4 177.100 129.820   1
   5   4   4 427.000 43.5900   1
  -5  -4  -4 327.480 38.1900   1
   5  -4   4 749.470 67.7200   1
   5  -4   4 740.790 70.5100   1
  -5  -2  -5 56.0100 58.2000   1
   5  -2   5 93.5600 30.4600   1
   5  -2   5 115.970 49.0300   1
  -5  -2  -5 33.8200 78.8400   1
   5   2   5 48.8200 28.2400   1
   7   2   0 30.0500 39.1500   1
   7  -2   0 -59.840 32.9000   1
  -7   2   0 -2.4400 30.3500   1
  -7  -2   0 118.040 35.7500   1
   7   2  -1 1387.35 91.5400   1
   7  -2  -1 1111.22 78.9400   1
   7  -2  -1 1030.18 85.2200   1
  -7  -2   1 1501.14 101.000   1
  -5   0   6 799.840 76.8800   1
   5   0  -6 912.030 69.3000   1
   6   3   3 -55.530 31.7100   1
   6  -3   3 -15.210 31.0100   1
   6  -3   3 64.9200 46.6600   1
   6  -3   3 115.490 79.5500   1
  -6  -3  -3 50.3100 117.160   1
  -4  -2  -6 -26.830 101.280   1
   4   2   6 441.990 45.1500   1
   4  -2   6 534.350 49.0900   1
   4   2   6 467.160 80.4900   1
   4  -2   6 471.880 61.7800   1
  -4  -6   4 -46.960 48.1500   1
  -4   6   4 108.960 46.7400   1
   4  -6  -4 -246.46 136.460   1
  -4  -6   4 206.090 62.9500   1
   4  -6  -4 153.120 36.8300   1
   0   4   7 64.4700 39.3900   1
   0  -4   7 2.89000 28.6500   1
   0   4   7 -34.970 48.0300   1
   0  -4  -7 -117.33 99.7800   1
   0   4   7 102.950 75.0800   1
   0  -4   7 -14.270 60.1100   1
  -1  -8  -3 240.160 125.900   1
  -1  -8  -3 -43.380 42.8200   1
   1  -8   3 112.460 41.9500   1
  -1   8  -3 131.370 38.3500   1
  -1   4   7 288.590 98.5500   1
  -1  -4   7 691.570 57.4600   1
  -1   4   7 733.790 60.0600   1
  -1   4   7 668.350 61.8900   1
  -1  -4   7 796.650 82.7000   1
  -1   4   7 622.490 72.7300   1
   3  -4   6 -11.850 56.1200   1
   3   4   6 7.16000 37.8800   1
  -3  -4  -6 64.3700 79.6000   1
  -3  -4  -6 -15.900 98.0000   1
   3  -8   0 474.600 54.6000   1
  -3   8   0 369.480 47.1500   1
  -3  -8   0 -67.030 119.690   1
   3  -8   0 465.820 56.0100   1
  -3  -8   0 397.210 60.1900   1
   6  -4  -3 67.8200 34.1600   1
  -6   4   3 -13.890 65.1400   1
  -6  -4   3 282.820 44.8500   1
  -6   4   3 292.780 44.5300   1
   6   4  -3 402.250 48.0600   1
  -6   0  -4 782.540 81.2000   1
   6   0   4 847.670 69.4300   1
  -5  -1   6 11.4600 39.8200   1
  -5   1   6 83.9400 75.3100   1
  -5   1   6 153.970 58.3200   1
  -5  -1   6 6.58000 46.5800   1
   5  -1  -6 109.580 41.3500   1
   3  -6  -5 -8.4800 108.360   1
  -3   6   5 592.540 70.0600   1
  -3  -6   5 649.490 70.1500   1
   3  -6  -5 292.450 38.9100   1
  -3  -6   5 531.340 65.5700   1
  -3   6   5 411.660 62.2600   1
   2  -5   6 167.620 39.2400   1
   2  -5   6 201.420 60.7000   1
   2   5   6 156.370 42.6700   1
   3   0   7 103.920 57.1100   1
   3   0   7 45.5100 23.3400   1
   6  -3  -4 187.720 39.7400   1
  -6   3   4 289.900 44.0200   1
   6  -3  -4 279.190 45.3200   1
   6   3  -4 324.480 46.7400   1
  -6   3   4 190.470 43.5400   1
  -6  -3   4 360.130 43.9300   1
  -6   3   4 169.720 50.0700   1
  -3  -8   1 -73.930 48.8200   1
   3  -8  -1 118.730 41.5100   1
  -3  -8   1 -20.410 119.600   1
   3  -8  -1 72.4900 76.8000   1
   3  -8  -1 14.9600 29.8200   1
   6   5   0 211.710 37.1400   1
  -6   5   0 163.140 38.5600   1
  -6  -5   0 251.900 45.2500   1
  -6  -5   0 27.6200 86.2600   1
  -6   5   0 47.7400 55.7900   1
   6  -5   0 188.410 42.6400   1
   2  -3   7 449.440 51.3400   1
   2   3   7 489.820 58.5400   1
  -2   3  -7 411.550 58.5000   1
   2  -3   7 755.040 67.2900   1
  -2  -3  -7 155.300 83.7000   1
   2  -3   7 781.800 76.7400   1
   2   3   7 736.070 80.1100   1
   6  -1   4 50.5800 61.0400   1
   6  -1   4 38.8900 34.2700   1
   6   1   4 -15.340 28.4200   1
   5  -5  -4 -11.510 67.5800   1
  -5  -5   4 270.730 50.1000   1
   5  -5  -4 150.900 34.9400   1
   5   5  -4 232.760 48.8700   1
  -5  -5   4 121.140 45.0900   1
  -5   5   4 194.480 46.2500   1
  -5   5   4 -39.260 62.1000   1
  -5  -5   4 -304.23 193.380   1
  -5   5   4 60.2800 124.400   1
   6  -5  -1 197.300 34.7000   1
   6   5  -1 65.1100 34.3500   1
  -6   5   1 -33.660 60.3600   1
  -6   5   1 115.410 43.2400   1
  -6  -5   1 66.9300 78.9700   1
  -6  -5   1 111.700 36.2000   1
  -6   5   1 158.050 35.0200   1
   3   1   7 643.000 53.4700   1
   3  -1   7 715.710 60.5000   1
   3   1   7 315.790 45.9200   1
   3   1   7 569.300 73.6000   1
   3  -1   7 791.410 75.6400   1
   7   2   1 2.59000 35.9000   1
  -7   2  -1 114.610 28.8100   1
   7  -2   1 -10.480 39.8300   1
  -4  -7  -2 63.1400 149.810   1
  -4   7  -2 391.730 50.8700   1
   4  -7   2 355.320 44.4100   1
   4  -7   2 432.810 48.5100   1
  -7  -2   2 424.980 47.9900   1
   7  -2  -2 329.350 41.2300   1
   7  -2  -2 240.610 44.9600   1
   7   2  -2 392.910 48.7900   1
  -3  -8  -1 1452.33 99.8600   1
   3  -8   1 1237.43 106.110   1
   3  -8   1 937.130 94.0500   1
  -3  -8  -1 517.530 80.8800   1
  -3   8  -1 1060.86 94.4600   1
  -6   0   5 56.8000 50.4300   1
   6   0  -5 123.710 37.7000   1
  -3   3   7 48.1100 63.7100   1
  -3  -3   7 154.460 57.4100   1
  -3   3   7 133.640 27.7000   1
   3  -3  -7 133.670 32.0800   1
  -3   3   7 221.540 40.6000   1
  -3  -3   7 48.9100 40.8200   1
  -3   3   7 139.670 70.1100   1
   0   0   8 738.480 76.0400   1
   0   0   8 450.490 68.2500   1
   1   4   7 -52.470 37.3300   1
   1  -4   7 64.9000 30.7900   1
   1   4   7 152.620 55.8300   1
  -1  -4  -7 12.6000 100.770   1
   1   4   7 158.920 61.1600   1
   1  -4   7 -34.390 63.2500   1
  -1   0   8 870.930 86.8400   1
  -1   0   8 893.830 104.950   1
   5  -6   2 1321.83 128.810   1
  -5  -6  -2 -8.8400 135.140   1
   5  -6   2 1172.39 127.820   1
  -5  -6  -2 970.260 96.8400   1
   5  -6   2 1447.65 142.380   1
   5   6   2 500.170 64.8400   1
  -5   4   5 184.620 86.7100   1
  -5   4   5 193.160 40.5400   1
  -5  -4   5 203.920 57.2400   1
  -5   4   5 207.650 46.9600   1
  -5  -4   5 124.780 42.3900   1
  -5   4   5 15.1200 55.5500   1
   5  -4  -5 89.7400 36.8600   1
   5   4  -5 334.790 57.8000   1
   4   0  -7 78.1500 39.4400   1
  -4   0   7 32.6200 56.8300   1
   7   0   2 640.530 66.1100   1
  -3   5   6 158.870 67.0800   1
  -3  -5   6 329.340 47.0700   1
  -3  -5   6 509.110 72.4000   1
  -3   5   6 398.770 52.2400   1
   3  -5  -6 317.690 48.6600   1
  -3   5   6 403.900 71.8200   1
   3  -5  -6 160.970 88.1800   1
   2  -8  -3 66.9300 112.960   1
  -2  -8   3 -308.98 211.500   1
   2  -8  -3 378.400 62.7700   1
  -2  -8   3 360.890 57.3000   1
  -2   8   3 531.260 68.9900   1
   2  -8  -3 440.550 53.0400   1
   7   0  -3 -28.600 33.3400   1
   0  -7  -5 571.440 196.980   1
   0  -7   5 629.140 72.8600   1
   0   7  -5 605.850 65.2100   1
   0  -7  -5 982.060 103.740   1
   0  -7   5 547.700 77.1900   1
  -3  -7   4 144.760 45.6000   1
  -3  -7   4 -6.2500 49.1500   1
   3  -7  -4 75.0200 25.8100   1
   3  -7  -4 121.150 171.980   1
  -3   7   4 141.220 46.6900   1
  -3   7   4 34.9200 43.7300   1
  -6  -1   5 -12.210 61.3500   1
   6   1  -5 -15.000 34.1200   1
  -6   1   5 -13.450 46.3600   1
   6  -1  -5 33.0400 31.4100   1
  -6  -1   5 13.7300 45.9900   1
  -4   4   6 177.230 47.9100   1
   4  -4  -6 -39.500 68.4200   1
  -4  -4   6 119.350 51.7800   1
  -4   4   6 310.300 112.570   1
   4  -4  -6 140.340 34.7100   1
   4   4  -6 245.140 49.8900   1
  -4  -4   6 77.2400 36.1300   1
  -4   4   6 19.0200 54.5600   1
  -2  -4   7 301.320 50.5400   1
  -2   4   7 142.410 58.9700   1
  -2   4   7 347.400 63.4500   1
  -2  -4   7 385.200 76.2400   1
  -2   4   7 166.320 32.3100   1
  -2   4   7 266.280 48.6700   1
   5   2  -6 173.250 39.9100   1
   5  -2  -6 189.290 40.9800   1
  -5   2   6 188.000 53.7200   1
  -5   2   6 43.8400 37.3500   1
  -5  -2   6 196.590 43.9200   1
  -5   2   6 147.420 39.0200   1
  -5  -2   6 295.260 64.1300   1
   6  -5   1 177.770 42.8400   1
   6   5   1 224.960 38.6900   1
  -6  -5  -1 238.240 42.9200   1
  -6   5  -1 73.1900 48.5100   1
   0   1   8 27.4600 35.6600   1
   0   1   8 47.5800 24.5400   1
   0  -1   8 79.6300 58.2400   1
   0   1   8 66.3800 63.4200   1
  -1  -7   5 30.9100 36.9900   1
   1   7  -5 -32.760 33.2200   1
  -1  -7   5 38.7300 52.5500   1
   1  -7  -5 137.140 168.880   1
   1  -7  -5 54.3200 51.2000   1
  -1   1   8 373.360 56.8700   1
  -1  -1   8 322.890 66.2600   1
  -1   1   8 334.450 50.0000   1
  -1   1   8 387.770 77.8500   1
   4   1  -7 898.300 95.8100   1
  -4  -1   7 1040.28 100.770   1
  -4   1   7 931.030 99.3700   1
  -4  -1   7 1213.06 126.570   1
   4  -1  -7 1050.20 99.3200   1
   4   1  -7 1426.78 132.380   1
   0  -6   6 767.830 92.7000   1
   0   6   6 504.230 71.3000   1
   0  -6   6 753.060 90.6300   1
   0  -6  -6 -53.970 101.930   1
   0   6   6 594.950 87.7000   1
   7   1   2 11.8700 38.1900   1
   7  -1   2 -32.090 34.8000   1
   7   1   2 6.97000 62.5200   1
   0  -9   0 42.7400 42.9300   1
   0  -9   0 -10.480 55.6200   1
   0  -9   0 -27.110 129.040   1
  -7  -1   3 1487.15 138.350   1
   7  -1  -3 1702.10 164.360   1
   7   1  -3 1812.41 160.070   1
   7  -1  -3 2037.72 181.260   1
   6   5  -2 197.660 45.7500   1
  -6  -5   2 -58.790 93.1600   1
   6  -5  -2 326.270 47.3400   1
  -6   5   2 179.910 47.5300   1
  -6  -5   2 362.470 56.8200   1
  -6   5   2 258.180 42.0300   1
  -1  -6   6 45.9600 67.2500   1
  -1   6   6 93.1900 55.4000   1
  -1  -6   6 -5.6500 33.4600   1
   1  -6  -6 -252.66 117.740   1
  -1   6   6 -35.440 41.5900   1
  -3  -8   2 1037.19 247.190   1
   3  -8  -2 1.64000 42.1800   1
   3  -8  -2 42.3700 95.9000   1
  -3  -8   2 16.1100 46.8700   1
   3  -8  -2 -16.490 28.5900   1
  -6  -2  -4 120.640 80.8200   1
   6  -2   4 9.97000 59.4800   1
   6  -2   4 -38.690 33.0000   1
   6   2   4 -24.350 33.3700   1
  -5  -3  -5 1549.02 162.580   1
   5  -3   5 1010.23 102.460   1
   5  -3   5 1202.51 117.930   1
   5   3   5 1697.62 161.260   1
   7  -3   0 1904.32 177.870   1
   7  -3   0 2113.51 193.570   1
  -7   3   0 2104.13 188.810   1
   7  -3   0 2290.27 216.450   1
  -7  -3   0 2517.68 186.760   1
   7   3   0 2789.81 203.630   1
   7  -3  -1 1278.68 136.970   1
  -7  -3   1 1046.03 98.9300   1
   7  -3  -1 1608.08 144.610   1
   7   3  -1 872.160 84.6700   1
  -7   3   1 1401.22 126.700   1
  -5   6   3 152.370 41.3300   1
  -5  -6   3 302.370 46.9200   1
  -5  -6   3 -152.07 213.960   1
   5  -6  -3 234.270 37.4300   1
   5   6  -3 339.580 61.0400   1
   4  -3   6 -37.810 58.7700   1
   4   3   6 148.620 28.6100   1
   4  -3   6 20.7200 40.0200   1
  -4  -3  -6 -91.390 91.7000   1
  -4  -3  -6 125.670 77.1300   1
  -4   7   3 1310.28 131.840   1
  -4  -7   3 935.540 92.8400   1
  -4   7   3 998.570 104.300   1
   4  -7  -3 1271.52 118.450   1
   3   2   7 630.820 85.0300   1
   3   2   7 610.850 65.2800   1
   3   2   7 141.770 56.9300   1
   3   2   7 431.300 54.5700   1
   3  -2   7 689.230 88.1000   1
   2  -8   3 17.0900 48.9800   1
  -2  -8  -3 62.7900 157.100   1
   2  -8   3 0.36000 45.2000   1
  -2  -8  -3 -96.160 43.9300   1
   2  -8   3 -111.48 52.4100   1
   0  -9   1 -87.050 63.1700   1
   0  -9   1 363.010 179.650   1
   0  -9  -1 70.4000 51.2200   1
   0  -9   1 100.480 45.7400   1
   0  -9  -1 31.9100 88.2500   1
   4  -6   4 1482.93 147.470   1
  -4  -6  -4 376.750 219.870   1
  -4  -6  -4 1204.29 117.010   1
  -4   6  -4 1103.41 112.100   1
  -4  -6  -4 1949.75 178.640   1
   4  -6   4 1384.12 148.360   1
   1  -7   5 65.9100 47.8700   1
  -1  -7  -5 -355.44 215.110   1
  -1  -7  -5 57.2600 66.6000   1
  -1  -7  -5 19.4400 49.1100   1
   1  -7   5 138.400 38.4800   1
  -1   9   0 185.860 51.8200   1
  -1  -9   0 208.680 54.9700   1
   1  -9   0 -1.6000 109.650   1
  -1  -9   0 7.57000 105.340   1
  -1  -9   0 269.180 52.4800   1
   1  -9   0 236.720 54.7300   1
   1   0   8 682.410 102.330   1
   1   0   8 2269.30 208.610   1
  -2   0   8 9405.85 660.670   1
  -3  -6  -5 192.510 122.920   1
   3  -6   5 -34.300 48.5800   1
  -3  -6  -5 -1.6800 34.6400   1
   3  -6   5 -46.290 34.3100   1
  -3  -6  -5 -126.01 80.9000   1
  -6  -2   5 35.4800 55.9800   1
  -6   2   5 82.6900 40.4300   1
  -6  -2   5 -45.310 39.3700   1
  -6   2   5 -7.4500 36.5200   1
   6  -2  -5 92.0100 32.9200   1
   6   2  -5 -17.360 31.5900   1
  -4  -5  -5 236.050 49.4100   1
   4  -5   5 297.350 50.6400   1
  -4  -5  -5 96.8900 129.040   1
   4  -5   5 167.720 38.9300   1
   1  -6   6 44.5300 38.8900   1
   1  -6   6 33.0400 50.2600   1
  -1  -6  -6 159.010 106.480   1
   3  -8   2 -159.44 227.550   1
  -3  -8  -2 53.2000 42.2200   1
  -3  -8  -2 189.640 111.230   1
   3  -8   2 -5.7100 37.2700   1
   1   1   8 24.4300 32.8800   1
   1   1   8 -25.590 52.4600   1
   1  -1   8 85.1900 55.1000   1
   1  -9  -1 174.130 54.8900   1
  -1  -9   1 -4.1900 52.2000   1
   1  -9  -1 -58.320 103.160   1
  -1  -9   1 -185.47 151.780   1
  -1  -9   1 38.0600 59.3600   1
  -1   9   1 175.870 42.6600   1
   6   4   3 128.210 33.5100   1
  -6  -4  -3 120.800 38.6300   1
  -6  -4  -3 -298.60 96.9700   1
   6   4   3 78.6900 27.7900   1
   6  -4   3 124.510 41.0000   1
   0   2   8 -5.4300 41.7300   1
   0  -2   8 -40.330 34.9800   1
   0   2   8 7.11000 51.2000   1
   0   2   8 -49.640 52.5700   1
   0  -2   8 -6.3600 64.6300   1
  -1  -2   8 21.3100 54.0600   1
  -1   2   8 -56.650 53.9200   1
  -1   2   8 -61.640 51.0200   1
  -1  -2   8 32.1200 30.9600   1
  -1   2   8 10.7000 36.3400   1
  -2  -1   8 172.180 68.0800   1
  -2   1   8 256.700 72.6900   1
   4  -2  -7 -10.510 32.7500   1
  -4   2   7 59.5400 45.7700   1
  -4   2   7 -32.630 34.6400   1
  -4  -2   7 124.310 41.5800   1
   4   2  -7 74.9200 38.6400   1
  -4  -2   7 -22.740 51.7800   1
  -4   2   7 -62.300 46.4000   1
  -1  -9  -1 -246.36 91.5500   1
  -1   9  -1 26.3300 49.0900   1
   1  -9   1 435.400 226.200   1
   1  -9   1 73.5000 49.2400   1
  -1  -9  -1 103.350 51.0800   1
   1  -9   1 130.460 45.8200   1
   0  -8  -4 1533.69 154.050   1
   0  -8   4 3474.70 255.450   1
   0  -8  -4 2616.44 207.330   1
   0   8  -4 3069.42 233.250   1
   0  -8   4 3191.15 245.720   1
   0  -8  -4 3015.23 222.150   1
  -7   2  -2 400.490 51.4100   1
   7  -2   2 485.320 66.5200   1
  -7  -2  -2 278.440 40.4000   1
   7   2   2 385.600 56.1500   1
   7  -2   2 574.270 60.5400   1
  -7  -2  -2 -151.83 71.9000   1
  -7   3  -1 2122.25 198.900   1
   7  -3   1 2868.35 228.820   1
   7  -3   1 2597.94 190.140   1
  -7  -3  -1 1567.75 147.740   1
   7   3   1 2722.94 200.680   1
  -7  -2   3 66.6400 40.4400   1
   7  -2  -3 48.0100 35.4600   1
   7   2  -3 70.2000 41.0700   1
  -7   3   2 1869.40 170.350   1
  -7  -3   2 1867.14 166.110   1
   7  -3  -2 2208.95 198.830   1
   7   3  -2 2211.13 194.200   1
  -2   7   5 489.870 58.4900   1
   2  -7  -5 226.030 40.8200   1
   2  -7  -5 -117.67 187.260   1
  -2   7   5 489.210 76.8800   1
  -2  -7   5 602.420 86.6300   1
  -2  -7   5 601.800 76.0900   1
  -2   7   5 422.810 63.2200   1
   3  -7   4 1245.61 138.980   1
  -3  -7  -4 799.280 92.3200   1
  -3  -7  -4 1402.15 131.410   1
  -3  -7  -4 36.9900 191.520   1
   3  -7   4 1331.20 131.440   1
  -2  -6   6 962.210 101.330   1
  -2   6   6 1420.28 150.710   1
   2  -6  -6 806.640 156.440   1
  -2  -6   6 1056.45 110.530   1
  -2   6   6 1044.39 108.330   1
  -2   6   6 973.540 96.7100   1
   1  -8  -4 50.0100 53.6000   1
  -1  -8   4 93.0200 48.3900   1
   1  -8  -4 -32.400 160.300   1
  -1  -8   4 60.2800 43.7400   1
   6   4  -4 830.510 83.5600   1
   6  -4  -4 586.010 100.930   1
  -6   4   4 511.810 61.0600   1
  -6   4   4 452.440 55.5300   1
  -6  -4   4 896.770 90.8600   1
   2  -4   7 5.15000 30.3700   1
   2   4   7 39.4100 38.9000   1
  -2   4  -7 -4.8100 37.2800   1
  -2  -4  -7 126.580 88.3700   1
   2   4   7 -55.500 70.4000   1
   2  -4   7 -6.3700 51.0900   1
   6  -5   2 218.820 43.7000   1
  -6  -5  -2 61.6900 155.250   1
  -6  -5  -2 20.0600 33.3800   1
  -6  -5  -2 266.330 41.4400   1
  -6   5  -2 182.340 41.3700   1
  -6   5  -2 107.120 38.2800   1
   6   5   2 175.020 40.2700   1
   6  -5   2 231.600 45.8200   1
  -5  -5  -4 482.500 61.7000   1
   5  -5   4 776.580 85.9400   1
  -5  -5  -4 281.060 128.470   1
   5   5   4 449.190 61.9900   1
  -5  -5  -4 412.340 50.3800   1
   5  -5   4 758.010 82.1600   1
  -5   3   6 75.7200 41.5500   1
  -5  -3   6 55.2500 49.5800   1
   5  -3  -6 39.6800 32.9000   1
   5   3  -6 171.710 50.3400   1
  -5   3   6 89.1600 40.0700   1
  -5  -3   6 87.7500 35.9000   1
  -5   3   6 -80.480 51.4500   1
   0  -9   2 881.430 93.9500   1
   0  -9  -2 999.200 103.200   1
   0  -9  -2 166.640 117.390   1
   0  -9   2 1413.85 150.900   1
   0  -5  -7 -158.05 97.1000   1
   0   5   7 185.960 61.9000   1
   0  -5   7 122.250 42.9400   1
   0  -5   7 94.1000 59.4900   1
   0   5   7 161.820 44.0900   1
  -4  -7  -3 1335.39 127.070   1
   4  -7   3 1042.16 123.930   1
  -4   7  -3 1060.84 118.570   1
   4  -7   3 1195.78 122.320   1
  -4  -7  -3 30.8600 151.430   1
  -4  -7  -3 850.990 86.4800   1
   5  -7   0 76.4500 48.5900   1
   5  -7   0 21.9800 86.8500   1
  -5  -7   0 212.840 115.210   1
  -5  -7   0 158.980 42.3700   1
   5  -7   0 135.310 34.9800   1
   5   7   0 149.560 50.0800   1
  -1  -8  -4 696.660 80.1600   1
   1  -8   4 427.050 58.3600   1
  -1  -8  -4 182.760 186.300   1
   1  -8   4 551.650 70.0500   1
  -1  -8  -4 712.940 102.540   1
  -1  -5   7 492.550 70.6200   1
   1  -5  -7 8.19000 107.700   1
  -1   5   7 74.9600 61.9800   1
  -1   5   7 388.950 51.7400   1
  -1   5   7 284.180 49.0900   1
  -1  -5   7 456.160 59.8200   1
  -1   5   7 449.410 83.8000   1
  -3  -5  -6 -3.8400 83.0100   1
  -3  -5  -6 -130.48 116.030   1
   3  -5   6 14.9500 50.8600   1
  -3   5  -6 5.45000 26.1200   1
   3  -5   6 24.9000 25.8100   1
  -6   5   3 408.580 56.9800   1
  -6  -5   3 288.460 50.4100   1
  -6   5   3 -31.390 119.160   1
  -6  -5   3 -27.220 130.390   1
   6   5  -3 216.440 49.5800   1
   6  -5  -3 337.880 47.2300   1
   5   7  -1 -29.090 39.8400   1
   5  -7  -1 113.040 39.2400   1
   5  -7  -1 -86.590 68.9400   1
  -5  -7   1 -98.770 90.1400   1
  -5  -7   1 92.3300 39.3900   1
  -5   7   1 45.5100 48.0100   1
  -6  -3  -4 56.0000 101.140   1
   6  -3   4 20.0700 45.8200   1
   6   3   4 105.230 35.8900   1
   6  -3   4 62.5400 31.5000   1
   1   2   8 28.8200 68.2000   1
   1  -2   8 422.840 74.2700   1
   1   2   8 200.700 46.9000   1
   1  -2   8 387.500 49.0800   1
   1   2   8 261.650 73.5700   1
  -3   4   7 391.180 120.020   1
   3  -4  -7 -102.13 81.1700   1
  -3  -4   7 386.920 75.5000   1
  -3   4   7 248.560 65.8800   1
  -3  -4   7 408.580 51.6600   1
  -3   4   7 174.560 46.1300   1
   3  -4  -7 216.360 39.8700   1
  -2   2   8 837.870 84.2000   1
  -2   2   8 652.690 87.8000   1
  -2   2   8 1140.09 117.220   1
  -2  -2   8 994.750 113.320   1
   5  -6   3 287.230 42.8800   1
   5  -6   3 271.360 46.9700   1
  -5  -6  -3 242.890 219.690   1
   5  -6   3 115.340 37.7700   1
  -5  -6  -3 504.570 59.9500   1
   2  -9   0 182.900 121.330   1
  -2  -9   0 -12.640 48.8400   1
   2  -9   0 172.810 67.2700   1
   2  -9   0 186.370 45.9000   1
  -2  -9   0 158.960 102.220   1
  -2  -9   0 16.7500 43.3900   1
  -2   9   0 -0.9000 44.0000   1
   3  -8  -3 -295.74 124.520   1
   3  -8  -3 340.800 56.2200   1
  -3  -8   3 652.300 71.6300   1
  -3  -8   3 -214.94 216.900   1
   3  -8  -3 456.990 58.9100   1
  -3  -3  -7 99.3400 82.7500   1
   3  -3   7 60.9500 29.9200   1
   3   3   7 88.9400 60.6300   1
   3   3   7 -29.380 42.3900   1
   3   3   7 22.2900 33.3600   1
   3  -3   7 116.080 53.0900   1
   5   0   6 546.180 58.7700   1
   5   0   6 728.970 96.6000   1
  -1   9   2 299.810 46.9700   1
  -1  -9   2 376.470 61.0500   1
   1  -9  -2 413.330 57.0100   1
   1  -9  -2 198.820 63.3100   1
  -1  -9   2 148.620 190.770   1
   1  -9  -2 -33.250 93.6400   1
  -4   6   5 32.7400 43.5200   1
   4  -6  -5 52.9600 27.5500   1
  -4  -6   5 144.600 60.1800   1
  -4   6   5 3.20000 51.8500   1
   4  -6  -5 -185.83 116.770   1
  -4   6   5 -14.520 46.3000   1
  -4  -6   5 180.140 43.4300   1
   7   0   3 -85.540 37.9000   1
   7   0  -4 105.820 38.9700   1
   4  -8   0 6.03000 30.8000   1
  -4  -8   0 -128.87 94.4000   1
   4  -8   0 52.7900 43.2800   1
  -4  -8   0 30.2600 38.7100   1
   4  -8   0 29.6700 109.780   1
   2  -7   5 1238.55 129.230   1
  -2  -7  -5 1293.00 124.720   1
  -2  -7  -5 110.600 180.680   1
  -2  -7  -5 1159.69 129.240   1
   2  -7   5 1529.25 146.550   1
   1  -9   2 691.970 80.7000   1
  -1   9  -2 702.190 78.0300   1
  -1  -9  -2 -69.840 113.840   1
   1  -9   2 946.330 105.780   1
  -1  -9  -2 768.370 82.4700   1
   2  -9  -1 169.620 98.9400   1
  -2   9   1 -52.560 45.6300   1
   2  -9  -1 -23.900 38.8000   1
   2  -9  -1 13.7100 49.4400   1
  -2  -9   1 136.960 148.520   1
   5  -1   6 2080.68 198.640   1
   5   1   6 2810.40 220.160   1
   5  -1   6 2167.60 193.060   1
   5   1   6 2625.71 191.770   1
   5  -7   1 420.330 62.4100   1
  -5  -7  -1 417.050 54.4100   1
   5   7   1 409.110 57.0800   1
   5  -7   1 446.750 54.7400   1
  -5  -7  -1 101.920 111.550   1
   6   3  -5 1203.21 112.230   1
  -6  -3   5 859.980 91.1400   1
  -6   3   5 1162.79 110.420   1
  -6  -3   5 963.740 92.3500   1
  -6   3   5 1105.54 112.590   1
   6  -3  -5 1499.26 136.400   1
  -6   3   5 1184.11 110.050   1
   4  -8  -1 94.7800 43.4700   1
   4  -8  -1 17.4300 71.4000   1
  -4  -8   1 -16.960 103.330   1
   4  -8  -1 32.0200 35.8800   1
  -4  -8   1 -72.340 38.6800   1
   2   0   8 136.140 54.5800   1
   7   1   3 1282.85 125.230   1
   7  -1   3 1166.42 124.810   1
   7  -1   3 1255.77 157.070   1
  -7  -1  -3 1269.72 132.160   1
  -2   8   4 2368.64 177.930   1
  -2  -8   4 2101.93 204.570   1
   2  -8  -4 2620.71 197.410   1
  -2  -8   4 2062.45 184.860   1
   2  -8  -4 2079.30 189.170   1
   5  -4   5 710.110 83.3200   1
  -5  -4  -5 127.170 113.170   1
   5   4   5 910.970 100.220   1
   5  -4   5 641.000 73.6700   1
   2  -9   1 -236.37 170.800   1
   2  -9   1 -3.7700 49.0400   1
  -2  -9  -1 210.490 97.2500   1
  -2   9  -1 -58.200 51.3900   1
  -2  -9  -1 -24.160 51.4500   1
  -2  -9  -1 -200.69 59.7700   1
   7   4   0 -35.330 30.9700   1
  -7   4   0 -50.780 28.3600   1
  -7   4   0 40.1200 28.1400   1
  -7  -4   0 42.4000 37.7400   1
  -7  -4   0 -94.750 99.0900   1
   7  -4   0 -18.760 30.0500   1
   7   1  -4 155.440 40.0800   1
  -7  -1   4 167.460 41.3900   1
   7  -1  -4 -7.7200 32.7300   1
   7   4  -1 436.110 57.8200   1
  -7   4   1 178.890 42.3100   1
   7  -4  -1 180.850 39.1600   1
  -7  -4   1 -49.510 97.2800   1
  -7   4   1 -21.690 38.9700   1
  -7  -4   1 245.250 48.7300   1
   0   3   8 -98.590 99.6800   1
   0   3   8 88.0900 62.5900   1
   0  -3   8 7.39000 33.6800   1
   0   3   8 54.8500 44.5600   1
   0  -3   8 -72.430 50.2800   1
  -1  -5  -7 -15.020 119.820   1
   1  -5   7 -48.580 34.0100   1
   1   5   7 70.5600 42.9200   1
   1  -5   7 64.4100 48.7100   1
   1   5   7 35.5700 68.1100   1
   4  -4   6 493.820 69.7100   1
  -4  -4  -6 317.630 127.700   1
  -4  -4  -6 452.450 88.9700   1
  -1   3   8 26.0000 41.1300   1
  -1  -3   8 53.5200 38.9200   1
  -1   3   8 83.5600 79.0200   1
  -1   3   8 -60.690 54.5500   1
  -1  -3   8 63.9700 62.5600   1
  -5  -5   5 39.2200 48.1100   1
   5  -5  -5 -32.560 53.3800   1
  -5   5   5 -11.340 34.9800   1
  -5   5   5 -23.300 63.0900   1
  -5  -5   5 5.01000 34.3600   1
   5   5  -5 167.490 46.6100   1
   5  -5  -5 28.4300 34.5700   1
  -4   3   7 394.320 69.9000   1
  -4   3   7 267.580 42.0900   1
   4  -3  -7 267.470 37.9300   1
   4   3  -7 470.260 60.3100   1
  -4  -3   7 494.420 52.6000   1
  -4   3   7 242.550 50.1000   1
  -4  -3   7 446.420 63.4000   1
  -3   0   8 130.660 64.9200   1
   2  -6   6 9.05000 37.1400   1
   2  -6   6 61.6300 45.5300   1
  -2  -6  -6 40.6800 121.830   1
  -2  -6  -6 -95.160 85.5100   1
  -2  -6  -6 -13.450 44.4000   1
  -7  -3  -2 337.110 44.1200   1
   7  -3   2 215.910 35.1600   1
   7   3   2 336.340 42.4400   1
   7  -3   2 147.550 44.7500   1
  -7  -3  -2 87.8500 121.800   1
   7   3  -3 587.100 59.2100   1
  -7   3   3 154.170 42.6600   1
  -7  -3   3 394.050 51.4500   1
   7  -3  -3 166.760 43.1100   1
  -5  -7   2 -106.41 128.670   1
   5   7  -2 133.460 53.2900   1
   5  -7  -2 35.9700 32.3900   1
   5  -7  -2 60.5600 97.9200   1
  -5  -7   2 182.630 47.6100   1
  -5   7   2 153.760 46.1900   1
   4  -5  -6 -6.5200 31.1700   1
  -4   5   6 25.5100 45.5900   1
   4  -5  -6 49.4300 77.2700   1
  -4  -5   6 -0.4700 38.7400   1
  -4   5   6 14.8800 35.3500   1
  -4   5   6 22.5000 57.6400   1
  -4  -5   6 -32.680 51.3700   1
  -6   6   0 373.460 56.8200   1
  -6  -6   0 359.520 52.1800   1
  -6  -6   0 74.6700 102.560   1
   6  -6   0 503.430 52.4600   1
   6   6   0 441.600 54.5800   1
   2   1   8 -7.9500 53.5400   1
   2  -1   8 22.7700 53.1700   1
   5  -6  -4 109.770 39.0900   1
   5  -6  -4 107.600 86.2200   1
  -5  -6   4 -298.29 214.400   1
  -5   6   4 -39.880 55.1300   1
  -5  -6   4 60.0500 46.2500   1
  -5   6   4 56.9100 44.9900   1
   5   6  -4 138.070 45.9300   1
  -2  -5   7 36.4500 41.3100   1
  -2   5   7 1.62000 34.9500   1
  -2   5   7 -9.6200 34.9500   1
  -2  -5   7 106.990 60.3900   1
  -2   5   7 -37.640 61.2900   1
   2  -5  -7 158.640 90.5100   1
  -2   5   7 -122.90 59.0600   1
  -6   6   1 119.340 35.6900   1
  -6  -6   1 99.0700 37.0300   1
  -6   6   1 -51.360 55.0800   1
  -6  -6   1 42.1600 93.6400   1
   6  -6  -1 119.180 39.1500   1
   6   6  -1 -28.000 35.0300   1
   4   0   7 97.7400 30.7000   1
   4   0   7 -35.220 70.3900   1
   4  -8   1 1.07000 44.2700   1
  -4  -8  -1 27.9700 40.0200   1
   4  -8   1 -159.74 181.320   1
   4  -8   1 27.7600 37.5900   1
  -4  -8  -1 79.9000 102.840   1
  -4  -8  -1 -153.70 52.0200   1
  -6   0  -5 13.1200 49.4100   1
   6   0   5 -155.99 50.3900   1
   6   0   5 -17.160 24.2600   1
  -3  -1   8 110.320 58.4000   1
  -3   1   8 60.4500 55.5500   1
  -4  -7   4 333.020 53.8200   1
  -4   7   4 137.060 47.0000   1
  -4  -7   4 -69.780 183.860   1
   4  -7  -4 24.2900 144.020   1
  -4   7   4 174.480 44.3000   1
   3  -8   3 10.9300 44.7600   1
  -3  -8  -3 -28.000 40.8500   1
   3  -8   3 21.3300 36.4000   1
   3  -8   3 141.160 47.8000   1
  -3  -8  -3 -329.86 135.950   1
   4   1   7 1055.17 88.2800   1
   4  -1   7 1168.41 100.670   1
   4  -1   7 1141.93 106.450   1
   4   1   7 1276.82 125.080   1
   6  -1   5 643.040 82.6700   1
   6  -1   5 505.160 53.3300   1
   6   1   5 440.280 54.8700   1
  -6  -1  -5 243.160 58.1400   1
  -3  -7   5 938.750 83.5000   1
  -3  -7   5 1008.53 103.140   1
  -3   7   5 1060.24 100.920   1
   3  -7  -5 855.720 92.7200   1
  -3   7   5 936.350 92.1000   1
  -3  -6   6 65.8600 40.4400   1
  -3   6   6 -2.1100 41.9200   1
   3  -6  -6 -62.210 105.940   1
  -3  -6   6 -10.670 59.4600   1
  -3   6   6 17.3000 54.7200   1
  -3   6   6 68.1500 48.2300   1
   3  -6  -6 -5.2900 28.8200   1
  -7  -4  -1 -82.390 169.860   1
  -7  -4  -1 1006.49 84.4800   1
  -7   4  -1 596.530 70.0900   1
   7   4   1 982.590 82.8300   1
   7  -4   1 742.300 67.9000   1
  -5  -2  -6 426.140 73.8300   1
   5  -2   6 412.190 65.6400   1
   5  -2   6 353.340 41.1200   1
   5   2   6 390.870 52.9500   1
   5   2   6 437.090 78.1000   1
  -5  -2  -6 138.320 92.8700   1
   7   4  -2 921.410 83.6700   1
   7  -4  -2 1062.02 89.2700   1
  -7  -4   2 974.560 83.2800   1
  -7   4   2 799.370 71.1300   1
   2  -9  -2 96.3900 63.7600   1
  -2  -9   2 -101.38 181.220   1
   2  -9  -2 -96.230 101.790   1
   2  -9  -2 -1.9600 26.6800   1
   2  -9  -2 -99.980 38.4700   1
  -2  -9   2 208.420 44.3900   1
  -2   9   2 -7.9500 46.0700   1
   2  -8   4 174.860 42.2500   1
  -2  -8  -4 -453.88 189.030   1
   2  -8   4 305.270 53.3600   1
  -2  -8  -4 124.240 47.0400   1
   4  -8  -2 226.530 40.8300   1
   4  -8  -2 -49.940 79.2500   1
  -4  -8   2 409.580 50.9200   1
  -4  -8   2 -129.51 125.140   1
   7   2   3 30.5800 30.1400   1
  -7  -2  -3 74.1100 84.5700   1
   7  -2   3 93.2200 44.6000   1
   7  -2   3 61.2800 35.6000   1
   1   3   8 80.2500 71.4000   1
   1  -3   8 89.1600 57.1900   1
  -1  -3  -8 -257.72 116.110   1
   1   3   8 -73.580 85.5500   1
   1  -3   8 106.730 34.6600   1
   1   3   8 48.7800 35.7700   1
  -7  -2   4 235.860 38.9500   1
   7   2  -4 273.170 46.0900   1
   7  -2  -4 397.710 55.3800   1
   6   6   1 103.890 35.4000   1
  -6   6  -1 171.160 44.6100   1
  -6  -6  -1 184.560 38.7800   1
  -6  -6  -1 23.5900 115.810   1
   6  -6   1 236.840 40.6000   1
  -6   6  -1 -24.580 40.0400   1
  -2   3   8 343.940 58.4600   1
  -2  -3   8 440.340 70.3400   1
  -2   3   8 382.930 65.0600   1
  -2  -3   8 289.540 48.2800   1
  -2   3   8 355.860 66.1900   1
   6   0  -6 1096.59 92.1800   1
  -6   0   6 899.570 86.7000   1
  -5   0   7 84.7200 56.7000   1
   5   0  -7 22.1800 36.1900   1
   6   6  -2 -36.080 45.3200   1
   6  -6  -2 202.360 41.1000   1
  -6   6   2 5.84000 54.8100   1
  -6  -6   2 21.6900 35.8500   1
  -6   6   2 95.1700 42.2600   1
  -6  -6   2 123.080 103.710   1
   0  -9   3 335.130 249.260   1
   0  -9  -3 166.470 42.8400   1
   0  -9  -3 -23.960 78.2200   1
   0  -9  -3 -20.190 116.400   1
   0   9  -3 328.550 46.1700   1
   0  -9   3 244.510 45.9100   1
   2  -2   8 -4.8400 59.9800   1
  -5   4   6 56.4000 44.8900   1
  -5  -4   6 -42.560 44.5200   1
  -5   4   6 70.1200 49.0300   1
  -5   4   6 64.7200 43.9500   1
  -5  -4   6 38.3200 57.8600   1
   5  -4  -6 61.0100 29.5000   1
   5   4  -6 59.3400 41.7800   1
  -2  -9  -2 -177.85 99.0100   1
   2  -9   2 -9.4400 220.410   1
   2  -9   2 374.610 65.0300   1
  -2  -9  -2 235.410 53.4100   1
   2  -9   2 220.190 45.7000   1
  -6  -5  -3 164.710 43.0700   1
  -6  -5  -3 -149.86 148.060   1
   6  -5   3 35.3500 39.7900   1
   6  -5   3 98.6100 32.5000   1
   6   5   3 276.200 43.0700   1
   5   7   2 107.270 46.8600   1
   5  -7   2 76.1300 35.2300   1
  -5  -7  -2 -71.690 130.700   1
  -5  -7  -2 -41.560 44.4400   1
   5  -7   2 -300.23 190.850   1
   5  -7   2 94.1700 43.0200   1
  -5  -7  -2 78.5300 40.6500   1
  -3   2   8 -7.9700 35.8400   1
  -3  -2   8 43.3100 52.2300   1
  -3   2   8 47.7200 36.7300   1
   3  -2  -8 -15.690 30.1100   1
  -3   2   8 20.1200 51.0600   1
   6   1  -6 10.1600 32.0400   1
  -6  -1   6 -48.020 50.7200   1
   6  -1  -6 -8.7600 34.6300   1
  -6   1   6 50.5900 50.8300   1
  -5  -1   7 95.0400 48.9900   1
   5  -1  -7 76.9300 36.7000   1
  -5   1   7 -20.030 53.2300   1
   5   1  -7 5.37000 34.1000   1
  -1  -9   3 54.9800 50.5100   1
   1  -9  -3 -78.630 46.5500   1
   1  -9  -3 165.220 76.1800   1
  -1  -9   3 -168.99 227.600   1
   1  -9  -3 -0.7800 116.050   1
   6  -4   4 505.420 61.5900   1
   6  -4   4 623.950 71.0900   1
  -6  -4  -4 92.9500 168.180   1
   6   4   4 375.150 48.1200   1
   4   2   7 2022.44 169.960   1
   4  -2   7 2249.55 307.490   1
   4   2   7 2171.69 296.070   1
   4  -2   7 2077.01 165.030   1
   6   2   5 379.930 44.4100   1
   6  -2   5 558.010 60.4600   1
   6  -2   5 590.910 77.6600   1
  -6  -2  -5 372.320 78.2400   1
   0  -7  -6 114.130 104.040   1
   0  -7   6 -51.890 54.8200   1
   0  -7   6 73.9100 35.1100   1
   3   4   7 -18.150 30.8700   1
   3  -4   7 13.8500 55.8900   1
   3   4   7 50.3200 59.2800   1
  -3  -4  -7 93.3400 105.270   1
   6  -5  -4 64.1700 39.8800   1
   6   5  -4 75.5900 51.7700   1
  -6   5   4 70.5800 35.8700   1
  -6  -5   4 -174.52 172.400   1
  -6   5   4 -141.88 76.7200   1
  -6  -5   4 -16.020 39.7600   1
   4  -8   2 52.3600 42.5100   1
   4  -8   2 -59.170 208.740   1
  -4  -8  -2 -191.62 128.820   1
  -4  -8  -2 30.2900 41.3800   1
   4  -8   2 -50.740 40.8000   1
   1  -9   3 489.090 206.810   1
   1  -9   3 49.3700 73.7000   1
  -1  -9  -3 341.960 155.640   1
  -1  -9  -3 35.5700 49.0100   1
  -1   9  -3 -78.330 34.5200   1
   1  -9   3 -60.330 51.0800   1
  -1   7   6 49.8200 59.9800   1
  -1   7   6 193.900 45.1900   1
   1  -7  -6 70.3900 103.660   1
  -1  -7   6 71.7900 50.3300   1
  -1  -7   6 -10.870 34.9700   1
  -4  -6  -5 348.780 106.700   1
  -4  -6  -5 -56.790 37.8400   1
   4  -6   5 40.4500 47.4300   1
   4  -6   5 -89.590 76.3400   1
   3  -9   0 -5.7500 33.0500   1
   3  -9   0 -17.990 47.3100   1
  -3  -9   0 -112.58 65.7600   1
   3  -9   0 12.1300 43.1800   1
  -3  -9   0 -48.440 48.9100   1
   3  -9   0 186.040 116.140   1
  -3  -9   0 -104.23 110.150   1
   2   5   7 876.600 102.400   1
   2  -5   7 1250.24 117.670   1
  -2  -5  -7 -98.840 116.410   1
   2  -5   7 869.540 95.7900   1
   2   5   7 464.940 69.8800   1
  -5  -7   3 361.320 49.0800   1
  -5  -7   3 -58.380 166.220   1
   5  -7  -3 296.860 44.1300   1
  -5   7   3 432.880 58.3000   1
   8   0  -1 56.6800 33.3000   1
   8   0   0 3849.35 513.450   1
  -3  -9   1 -16.130 112.050   1
   3  -9  -1 -41.890 39.2600   1
  -3  -9   1 0.59000 49.7100   1
   3  -9  -1 246.780 95.5700   1
   3  -9  -1 16.5600 37.1400   1
   0   8  -5 259.520 44.0600   1
   0  -8   5 291.210 51.7500   1
   0  -8  -5 352.000 60.7100   1
   0  -8  -5 211.060 73.1700   1
   0  -8  -5 -29.970 167.760   1
   0  -8   5 447.330 59.8200   1
  -3  -8   4 214.700 65.8900   1
  -3  -8   4 58.5400 215.540   1
   3  -8  -4 -95.800 160.120   1
   3  -8  -4 122.700 30.8500   1
  -3   8   4 144.440 55.5900   1
  -6  -4   5 283.660 63.9800   1
  -6   4   5 311.920 46.5100   1
  -6  -4   5 334.740 55.9600   1
  -6   4   5 188.490 40.9300   1
   6  -4  -5 309.880 46.2100   1
   6   4  -5 253.710 45.6400   1
  -6   4   5 305.720 56.2800   1
  -4  -7  -4 -48.130 180.130   1
  -4  -7  -4 1108.24 96.0000   1
   4  -7   4 660.890 92.7200   1
   4  -7   4 802.240 74.7300   1
   8   1  -1 25.6700 31.8100   1
  -8  -1   1 14.9900 27.8100   1
   8  -1  -1 34.3600 33.9100   1
  -3  -5   7 656.400 74.9300   1
  -3   5   7 734.720 87.1300   1
   3  -5  -7 383.500 65.1100   1
  -3   5   7 248.340 114.930   1
  -3  -5   7 724.110 74.2400   1
  -3   5   7 599.060 65.0100   1
   0   4   8 490.740 59.1400   1
   0  -4  -8 -51.200 83.4600   1
   0  -4   8 507.280 73.1400   1
   0   4   8 695.010 82.2100   1
   0   4   8 132.730 79.0700   1
   0  -4   8 498.550 53.9300   1
   1  -8  -5 1047.42 98.3100   1
  -1  -8   5 1039.85 100.300   1
   1   8  -5 1020.93 97.1400   1
   1  -8  -5 711.810 69.1100   1
  -1  -8   5 1233.62 106.990   1
  -1   4   8 488.970 76.4800   1
  -1   4   8 527.660 56.7100   1
  -1   4   8 589.650 62.5300   1
  -1  -4   8 575.870 62.2500   1
  -1   4   8 332.110 128.150   1
   1  -4  -8 78.6800 96.7000   1
  -1  -4   8 354.040 71.3200   1
   8  -1   0 28.4600 40.0400   1
   8   1   0 -13.450 37.1800   1
  -4   4   7 414.140 67.0400   1
  -4   4   7 365.870 48.4100   1
  -4  -4   7 428.770 56.2400   1
  -4   4   7 238.230 84.5600   1
  -4  -4   7 420.110 64.0900   1
   4  -4  -7 463.530 56.2800   1
  -6   2   6 807.140 76.3700   1
   6   2  -6 1217.34 99.6100   1
   6  -2  -6 1023.47 85.2900   1
  -6  -2   6 1171.91 100.700   1
  -5   2   7 191.290 47.7500   1
  -5   2   7 294.180 43.7800   1
  -5  -2   7 124.020 62.5900   1
   5   2  -7 454.730 54.2900   1
   5  -2  -7 303.750 41.6100   1
  -7  -4  -2 -151.47 103.110   1
  -7   4  -2 400.950 48.2600   1
   7  -4   2 710.520 66.2700   1
   7  -4   2 603.820 68.0200   1
   7   4   2 486.880 50.9000   1
  -7  -4  -2 529.510 52.7000   1
  -3  -7  -5 947.250 208.520   1
  -3  -7  -5 -152.09 205.370   1
  -3  -7  -5 1035.64 88.0000   1
   3  -7   5 828.870 94.2800   1
   3  -7   5 1079.22 98.0800   1
   5  -3   6 1813.22 150.780   1
   5  -3   6 1758.72 145.710   1
   5   3   6 1225.87 114.940   1
  -5  -3  -6 1091.59 118.790   1
  -7   4   3 220.270 39.4400   1
  -7  -4   3 361.120 48.6500   1
   7  -4  -3 362.720 45.4900   1
   7   4  -3 344.100 51.0100   1
   3  -9   1 -119.62 207.550   1
   3  -9   1 76.0400 49.2900   1
  -3  -9  -1 6.77000 110.990   1
  -3  -9  -1 184.640 56.1000   1
   3  -9   1 228.070 44.1500   1
  -3  -9  -1 260.950 59.5400   1
  -1  -7  -6 221.800 54.9200   1
  -1  -7  -6 294.760 109.250   1
   1  -7   6 55.7700 38.1600   1
   1  -7   6 9.58000 65.7100   1
   6   6   2 377.830 48.5600   1
  -6  -6  -2 370.130 55.7100   1
  -6   6  -2 82.6900 45.7500   1
  -6  -6  -2 34.2000 178.400   1
   6  -6   2 276.770 40.4500   1
  -7  -3  -3 -194.52 95.5400   1
   7  -3   3 82.6600 43.3200   1
   7  -3   3 111.300 35.2100   1
   7   3   3 -12.840 28.7500   1
  -5  -6  -4 -142.27 145.620   1
   5  -6   4 397.680 49.4000   1
   5  -6   4 482.630 52.6300   1
   5  -6   4 149.600 51.8100   1
  -5  -6  -4 255.700 48.2900   1
  -7   3   4 141.130 45.2600   1
  -7  -3   4 124.050 43.2400   1
  -7  -3   4 -214.56 141.570   1
   7  -3  -4 134.130 37.3800   1
   7   3  -4 -2.5800 34.6800   1
  -4  -8   3 440.860 53.3700   1
  -4  -8   3 -69.100 195.700   1
   4  -8  -3 -176.49 129.130   1
   4  -8  -3 505.720 54.4600   1
  -4   8   3 392.500 56.4100   1
   8   0  -2 1345.10 107.030   1
   0   6   7 162.400 60.6300   1
   0  -6  -7 39.9100 146.250   1
   0   6   7 34.1800 38.6800   1
   0  -6   7 105.670 37.5700   1
   0  -6   7 63.8000 63.3100   1
  -2   9   3 51.4100 38.7900   1
  -2  -9   3 97.9000 41.9200   1
   2  -9  -3 45.1900 30.8500   1
   2  -9  -3 79.9600 132.570   1
  -2  -9   3 147.540 239.130   1
   2  -9  -3 -10.020 41.5800   1
   3   0   8 363.050 62.2200   1
   3   0   8 218.690 36.4000   1
  -1   6   7 40.5300 80.1600   1
   1  -6  -7 91.4900 133.370   1
  -1   6   7 -32.870 49.8300   1
  -1   6   7 28.5200 41.1000   1
  -1  -6   7 205.070 54.2900   1
  -1  -6   7 13.1600 34.6200   1
  -3  -6  -6 -224.92 144.860   1
   3  -6   6 87.4500 44.8900   1
   3  -6   6 -6.8300 31.8800   1
  -3  -6  -6 79.0000 68.5300   1
   7   0   4 24.3800 30.8600   1
  -6   6   3 -34.260 39.0500   1
  -6   6   3 67.4900 57.5400   1
  -6  -6   3 -15.780 155.190   1
  -6  -6   3 29.8900 34.9600   1
   6  -6  -3 5.58000 34.3500   1
   6   6  -3 26.0800 42.6200   1
   2   3   8 -95.150 69.0200   1
  -2  -3  -8 -264.64 101.330   1
   2  -3   8 228.010 66.4700   1
   2  -3   8 33.5400 29.2600   1
   2   3   8 22.0700 38.0900   1
   2   3   8 64.4700 60.8800   1
   8   0   1 -29.360 37.1800   1
   1  -8   5 147.460 51.1900   1
  -1  -8  -5 166.690 80.4800   1
   1  -8   5 210.490 61.9200   1
  -1  -8  -5 -123.05 199.960   1
  -1  -8  -5 450.760 80.8200   1
   5  -5   5 731.380 114.340   1
   5  -5   5 635.200 102.700   1
   5   5   5 499.750 85.7900   1
  -5  -5  -5 530.290 89.6300   1
  -5  -5  -5 313.880 133.920   1
   7   0  -5 -1.9200 40.1400   1
  -7   0   5 92.6300 45.8900   1
  -7  -5   0 119.340 131.350   1
  -7  -5   0 1282.85 175.500   1
  -7   5   0 1350.17 187.120   1
   7   5   0 1718.63 628.160   1
   7  -5   0 1578.28 576.640   1
  -7  -5   1 35.6900 39.4900   1
  -7   5   1 -60.040 40.5200   1
   7  -5  -1 35.3300 31.7800   1
  -7   5   1 119.910 44.2300   1
   7   5  -1 -51.160 36.2200   1
   2  -7  -6 103.130 125.560   1
  -2   7   6 514.910 97.0600   1
  -2   7   6 560.270 87.7700   1
  -2   7   6 446.120 84.6000   1
  -2  -7   6 457.690 83.1300   1
  -2  -7   6 500.440 91.7700   1
   4  -5   6 93.1800 52.8000   1
  -4  -5  -6 -90.810 79.2200   1
  -4  -5  -6 -121.23 132.980   1
  -4  -5  -6 53.2100 46.9500   1
  -4   0   8 44.1000 57.0600   1
   4   0  -8 42.7700 40.4500   1
  -3   3   8 85.8400 57.6200   1
   3  -3  -8 33.8800 36.8400   1
  -3  -3   8 145.170 70.6000   1
  -3   3   8 -2.0300 42.2500   1
  -3  -3   8 50.0700 41.9500   1
  -3   3   8 110.290 47.6900   1
   8  -1  -2 18.2200 33.5000   1
   8   1  -2 92.7000 46.6200   1
   3  -1   8 55.1400 54.2700   1
   3   1   8 -64.130 56.8600   1
   3  -1   8 50.0600 34.2700   1
  -3  -9   2 151.530 47.2200   1
   3  -9  -2 137.320 52.1200   1
  -3  -9   2 -318.61 152.830   1
   3  -9  -2 -74.340 83.9100   1
   3  -9  -2 119.020 36.6800   1
   7  -1   4 33.7100 56.5300   1
   7  -1   4 24.4800 33.7000   1
   7   1   4 0.25000 35.3100   1
  -8  -1  -1 523.460 79.4600   1
   8  -1   1 711.380 104.050   1
   8   1   1 589.620 89.9300   1
   1   4   8 121.700 44.8900   1
   1  -4   8 225.120 71.0600   1
   1   4   8 113.750 63.6700   1
  -1  -4  -8 52.9400 85.0100   1
   1   4   8 106.650 62.5100   1
   1  -4   8 40.8200 33.8500   1
  -7   1   5 30.8500 36.4000   1
   7   1  -5 31.4000 39.0500   1
   7  -1  -5 -49.380 37.1900   1
  -7  -1   5 47.0300 53.2000   1
  -4  -3  -7 138.250 97.5800   1
   4   3   7 549.240 96.9500   1
   4  -3   7 384.910 80.0000   1
   4  -3   7 222.670 53.2400   1
   8   2  -1 -42.340 39.7100   1
  -8  -2   1 -10.690 32.5400   1
   8  -2  -1 -26.810 38.0800   1
   6  -3   5 109.500 56.7300   1
   6   3   5 9.07000 33.3700   1
   6  -3   5 8.09000 35.0900   1
  -6  -3  -5 -261.77 91.8500   1
  -4  -1   8 -2.1800 55.2200   1
   4   1  -8 98.5100 53.2000   1
   4  -1  -8 118.710 49.4900   1
  -4   1   8 110.340 65.5100   1
  -8  -2   0 654.410 98.5200   1
   8  -2   0 482.940 74.7300   1
   8   2   0 808.380 118.250   1
  -2  -4   8 574.560 90.9900   1
  -2   4   8 852.510 211.530   1
   2  -4  -8 -103.54 117.460   1
  -2   4   8 608.260 93.3400   1
  -2   4   8 724.240 120.850   1
  -2  -4   8 666.860 107.120   1
   2  -9   3 -141.13 242.970   1
   2  -9   3 32.5300 49.9700   1
   2  -9   3 188.770 51.0400   1
  -2  -9  -3 131.350 46.8500   1
  -2  -9  -3 234.700 138.500   1
   2  -8  -5 -46.050 179.220   1
  -2  -8   5 755.550 114.640   1
  -2   8   5 912.630 138.890   1
  -2   8   5 820.860 117.730   1
  -2  -8   5 585.120 96.8000   1
   3  -8   4 100.050 47.5900   1
  -3  -8  -4 179.660 178.060   1
   3  -8   4 39.7800 66.0300   1
  -3  -8  -4 87.8400 48.2200   1
   3  -8   4 -42.440 43.6300   1
   1   6   7 5.57000 58.2200   1
  -1  -6  -7 211.540 128.540   1
   1   6   7 89.3600 51.1600   1
   1  -6   7 75.9400 39.3500   1
   1  -6   7 179.540 59.4500   1
  -5  -6   5 -92.320 58.7400   1
   5  -6  -5 -30.110 41.4300   1
  -5   6   5 -11.480 36.2400   1
  -5  -6   5 128.300 44.4800   1
  -5   6   5 96.0400 59.7000   1
   5  -6  -5 5.46000 75.6500   1
  -5  -7  -3 158.280 50.5500   1
   5  -7   3 316.090 61.9300   1
   5  -7   3 217.140 49.5400   1
  -5  -7  -3 380.650 170.160   1
   5  -7   3 138.800 48.7600   1
   5   7   3 89.9000 54.1800   1
   0 -10   0 119.480 102.590   1
   0 -10   0 8.65000 44.4200   1
  -7   5  -1 23.4200 30.2000   1
  -7  -5  -1 136.260 43.5700   1
  -7   5  -1 29.6200 33.4200   1
  -7  -5  -1 187.900 147.140   1
   7  -5   1 -7.5400 37.8200   1
   7   5   1 -10.490 31.7700   1
  -7   5   2 125.150 52.8800   1
   7  -5  -2 144.020 45.5800   1
  -7  -5   2 -12.580 86.5800   1
  -7  -5   2 45.6800 34.7500   1
  -7   5   2 74.3400 41.0200   1
   7   5  -2 110.240 41.1200   1
  -4  -6   6 84.3000 55.3900   1
   4  -6  -6 21.1600 31.4600   1
  -4  -6   6 147.000 47.8800   1
  -4   6   6 -1.8800 65.7100   1
   4  -6  -6 75.1200 81.2300   1
  -4   6   6 66.3600 52.1700   1
  -4   6   6 88.5700 51.8000   1
  -4  -7   5 234.230 56.3600   1
  -4   7   5 126.400 66.0200   1
  -4   7   5 460.980 80.7200   1
   4  -7  -5 -77.890 101.300   1
  -4   7   5 265.280 67.3700   1
  -4  -7   5 285.850 72.3600   1
   3  -9   2 13.4900 39.9100   1
  -3  -9  -2 236.050 59.8900   1
  -3  -9  -2 -73.830 108.990   1
   3  -9   2 -69.570 209.750   1
  -2   6   7 7.93000 54.3600   1
  -2   6   7 -30.790 38.6200   1
  -2   6   7 34.8100 45.3300   1
  -2   6   7 -77.960 46.2000   1
   2  -6  -7 213.290 120.170   1
  -2  -6   7 20.2900 51.8400   1
  -2  -6   7 -91.190 36.9600   1
  -1   0   9 35.8800 56.3900   1
   0   0   9 27.7800 66.3600   1
  -6   3   6 150.580 57.5600   1
   6   3  -6 94.5100 42.6700   1
   6  -3  -6 55.1500 42.9200   1
  -6  -3   6 137.030 59.6300   1
  -6   3   6 -19.490 36.8000   1
  -6   3   6 36.6200 36.2200   1
  -6  -3   6 34.7300 35.2500   1
  -5  -3   7 -22.670 41.6500   1
  -5   3   7 -27.330 55.9800   1
  -5   3   7 105.190 42.1900   1
  -5   3   7 -30.660 36.4300   1
  -5  -3   7 -18.260 49.4700   1
   5   3  -7 24.1400 40.0000   1
   5  -3  -7 67.1700 31.3400   1
   0  -9  -4 568.630 88.6900   1
   0  -9  -4 224.420 52.4400   1
   0  -9   4 447.240 83.9200   1
   0  -9  -4 -170.77 135.750   1
   0  -9  -4 229.360 77.5000   1
   0  -9   4 480.620 81.3100   1
   0   9  -4 502.420 80.3800   1
   8  -2  -2 466.350 84.8500   1
   8   2  -2 499.210 76.2600   1
  -8  -2   2 452.560 70.0500   1
  -4  -8  -3 -225.62 198.350   1
   4  -8   3 182.850 49.8600   1
  -4  -8  -3 417.240 77.0000   1
   4  -8   3 310.990 58.2700   1
  -5  -8   0 116.670 126.350   1
  -5  -8   0 32.4100 43.2800   1
   5  -8   0 -83.910 79.6400   1
   5  -8   0 -56.870 50.3400   1
   5  -8   0 78.1000 43.3800   1
   3   2   8 -5.5900 32.0900   1
   3   2   8 -33.620 43.3700   1
   3   2   8 126.480 64.5400   1
   3  -2   8 38.4600 63.1400   1
   0 -10   1 391.680 76.9900   1
   0 -10  -1 324.490 64.1000   1
   0 -10  -1 -173.42 106.890   1
   0 -10   1 464.660 182.070   1
   0 -10   1 207.420 61.2700   1
   7  -2   4 907.580 138.470   1
   7   2   4 1113.48 158.290   1
  -7  -2  -4 64.3100 107.540   1
   7  -2   4 878.290 124.910   1
  -5  -8   1 66.2200 94.6700   1
  -5  -8   1 -87.120 48.1900   1
   5  -8  -1 83.8900 50.2900   1
   5  -8  -1 12.7400 32.9600   1
   5  -8  -1 -61.750 87.3700   1
   8  -2   1 -11.090 37.8200   1
   8   2   1 -33.660 36.8300   1
  -8  -2  -1 37.6900 27.7900   1
  -1 -10   0 61.4100 101.950   1
  -1 -10   0 20.1200 51.0600   1
   1 -10   0 -35.230 103.220   1
  -1 -10   0 92.3500 62.6300   1
  -1  10   0 123.620 49.4900   1
   1 -10   0 56.6000 45.5700   1
  -7  -2   5 -251.35 147.610   1
  -7  -2   5 77.3300 42.3600   1
   7   2  -5 114.470 38.5400   1
  -7  -2   5 104.570 44.0800   1
  -7   2   5 89.5100 42.8900   1
   7  -2  -5 142.050 44.1900   1
   5  -5  -6 44.3500 29.2400   1
  -5   5   6 49.8200 36.8000   1
  -5   5   6 256.340 116.140   1
   5   5  -6 12.6500 59.4500   1
  -5  -5   6 122.650 46.0400   1
   5  -5  -6 -52.270 60.6900   1
  -5  -5   6 32.1300 52.9700   1
  -5   5   6 22.1400 48.0400   1
  -1  -9   4 90.0200 42.4900   1
   1  -9  -4 198.220 52.0200   1
  -1  -9   4 -74.810 209.830   1
   1  -9  -4 -99.540 133.550   1
   1  -9  -4 41.7300 24.3100   1
  -1   1   9 245.480 66.0200   1
  -1  -1   9 409.710 88.2600   1
   4  -2  -8 93.7700 35.2000   1
  -4   2   8 66.6100 37.5300   1
  -4  -2   8 229.280 64.7800   1
  -4   2   8 92.2700 38.4300   1
  -4  -2   8 141.490 38.5700   1
   8   0  -3 -5.3600 41.1700   1
   0   1   9 447.170 85.2400   1
   0  -1   9 387.340 79.9900   1
  -2  -7  -6 195.430 60.4100   1
  -2  -7  -6 568.520 116.370   1
  -2  -7  -6 -201.55 128.580   1
   2  -7   6 56.2600 41.4400   1
   2  -7   6 165.480 52.2300   1
   6   7   0 799.220 116.390   1
  -6  -7   0 586.890 90.0300   1
  -6  -7   0 9.25000 114.650   1
   6  -7   0 476.340 75.3900   1
  -6   7   0 315.070 76.1900   1
   6  -5   4 -81.580 42.3300   1
   6  -5   4 92.8300 35.2100   1
   6   5   4 36.8000 31.7200   1
  -6  -5  -4 154.440 99.7100   1
  -6  -5  -4 4.21000 35.7100   1
  -5   7   4 852.260 127.780   1
  -5  -7   4 931.930 133.490   1
   5  -7  -4 969.540 139.090   1
  -6  -7   1 -57.940 42.1700   1
   6   7  -1 2.06000 42.8100   1
  -6  -7   1 33.0200 87.8200   1
   6  -7  -1 63.7100 72.1100   1
   6  -7  -1 42.9400 32.9700   1
  -6   7   1 74.8800 49.8400   1
  -6   7   1 -16.650 59.9900   1
   8   0   2 1.73000 44.9300   1
  -1 -10   1 -243.07 126.530   1
  -1 -10   1 293.550 68.7800   1
  -1 -10   1 269.490 65.8700   1
  -1  10   1 293.720 61.2700   1
   1 -10  -1 -36.820 89.4300   1
   1 -10  -1 30.6600 56.0100   1
   8   1  -3 759.990 110.910   1
   8  -1  -3 799.960 113.290   1
  -2  -8  -5 290.370 193.820   1
   2  -8   5 390.770 78.4300   1
  -2  -8  -5 567.630 110.810   1
   2  -8   5 382.970 81.2800   1
  -2  -8  -5 484.320 83.0300   1
   1 -10   1 36.7800 53.9100   1
  -1 -10  -1 -42.750 45.1300   1
   1 -10   1 -17.610 47.9700   1
  -1 -10  -1 59.6100 117.410   1
   1 -10   1 246.800 174.320   1
  -1  10  -1 56.9600 44.6500   1
   3   5   7 -0.2100 50.5500   1
   3  -5   7 136.160 57.6800   1
   3   5   7 65.3600 65.0000   1
   3  -5   7 114.090 35.7600   1
  -3  -5  -7 -165.51 121.620   1
  -5  -4  -6 -18.960 114.810   1
   5  -4   6 43.3800 35.2900   1
  -5  -4  -6 103.100 65.0200   1
   5  -4   6 -13.100 51.6100   1
   5  -4   6 187.500 40.8800   1
  -1  -9  -4 -279.94 176.870   1
   1  -9   4 72.5100 45.4600   1
  -1  -9  -4 40.1700 52.3700   1
   1  -9   4 36.9700 44.1800   1
  -1  -9  -4 164.200 71.3100   1
  -5  -8  -1 -32.540 142.790   1
  -5  -8  -1 109.660 87.0400   1
  -5  -8  -1 917.290 132.700   1
   5  -8   1 745.550 108.590   1
   5  -8   1 607.980 103.650   1
  -7  -4  -3 32.1300 32.8700   1
   7   4   3 54.3300 36.5300   1
   7  -4   3 66.3600 34.3100   1
  -7  -4  -3 -91.000 105.230   1
   8   1   2 367.400 106.640   1
  -8  -1  -2 258.060 54.0300   1
   8  -1   2 228.230 52.1400   1
  -7   4   4 434.330 69.2000   1
  -7  -4   4 489.720 77.7300   1
   7  -4  -4 670.350 102.970   1
   7   4  -4 510.710 78.3000   1
  -2   0   9 129.110 61.7600   1
  -8  -3   1 91.9900 38.1100   1
   8   3  -1 58.6900 33.5000   1
   8  -3  -1 69.1300 42.2200   1
  -8  -3   1 186.850 115.050   1
  -6  -6  -3 13.0400 39.8700   1
  -6  -6  -3 -144.76 177.010   1
   6  -6   3 64.3100 42.4400   1
   6   6   3 12.2400 35.3900   1
   8  -3   0 94.7000 36.6500   1
  -8  -3   0 47.3100 31.9100   1
   8   3   0 49.3700 47.9700   1
   1   0   9 196.560 76.0600   1
  -3  -9   3 355.770 64.3300   1
   3  -9  -3 378.140 70.4700   1
  -3  -9   3 516.770 252.380   1
   3  -9  -3 -11.640 111.480   1
   3  -9  -3 306.030 54.4200   1
  -3   7   6 627.200 111.520   1
   3  -7  -6 304.760 65.1500   1
  -3   7   6 504.900 85.1400   1
  -3  -7   6 512.950 85.0200   1
  -3  -7   6 608.870 107.840   1
   5   0   7 22.2300 34.9500   1
   5   0   7 -27.890 69.8200   1
   6  -5  -5 10.6200 40.9400   1
  -6  -5   5 -169.12 183.470   1
  -6   5   5 24.6600 41.2900   1
  -6  -5   5 -79.340 40.3100   1
   6   5  -5 69.7000 58.7800   1
  -6   5   5 126.780 70.6800   1
  -5  -8   2 95.2100 134.440   1
  -5  -8   2 15.7100 50.2900   1
  -5   8   2 168.620 54.6900   1
   5  -8  -2 98.7800 92.7200   1
   5  -8  -2 21.3700 34.0100   1
   2   4   8 -27.110 45.4400   1
   2   4   8 -113.65 74.4000   1
   2  -4   8 16.7300 60.5400   1
   2   4   8 13.4400 32.7100   1
   2  -4   8 70.1600 35.1300   1
  -2  -4  -8 -116.59 85.8400   1
   6   0   6 214.060 72.5100   1
   6   0   6 251.080 43.9000   1
  -2  -1   9 201.900 69.5400   1
  -2   1   9 24.6900 56.6300   1
  -6  -7  -1 -205.19 134.820   1
  -6  -7  -1 -48.830 42.5800   1
   6   7   1 101.210 49.5300   1
  -6  -7  -1 -38.140 62.2200   1
   6  -7   1 50.0000 38.9800   1
   6  -7   1 203.150 159.700   1
  -6   7  -1 -32.920 39.1800   1
   0  -5  -8 69.5700 105.650   1
   0  -5   8 88.6700 43.1100   1
   0   5   8 -108.97 52.7300   1
   0   5   8 164.410 64.9400   1
   0   5   8 -14.110 39.3000   1
   0  -5   8 28.4600 58.4900   1
  -4  -9   0 -39.340 73.8000   1
  -4  -9   0 61.3200 113.690   1
   4  -9   0 35.8100 40.8400   1
   4  -9   0 37.9400 39.0700   1
  -4  -9   0 62.7000 48.4500   1
   4  -9   0 -97.760 101.110   1
  -1   2   9 536.090 88.9600   1
  -1   2   9 290.520 77.1600   1
  -1   2   9 792.960 151.500   1
  -1  -2   9 734.150 119.690   1
  -1   5   8 83.0600 59.7900   1
  -1  -5   8 257.010 78.3000   1
  -1  -5   8 46.0900 40.9500   1
  -1   5   8 141.690 44.5200   1
   1  -5  -8 55.3300 82.5900   1
  -1   5   8 140.140 50.3200   1
  -1   5   8 -16.630 63.1600   1
  -4   5   7 33.4400 37.3200   1
  -4  -5   7 62.0100 44.1300   1
  -4   5   7 66.1500 52.5700   1
   4  -5  -7 18.6800 33.3200   1
  -4  -5   7 -86.670 52.8500   1
   4  -5  -7 80.1500 79.9800   1
  -4   5   7 12.2100 166.860   1
  -3  -4   8 363.300 62.1500   1
  -3   4   8 390.010 67.5400   1
  -3   4   8 199.280 85.0500   1
  -3  -4   8 215.580 62.8800   1
  -3   4   8 625.440 111.200   1
  -4   8   4 -113.77 45.0600   1
  -4  -8   4 -240.81 227.980   1
   4  -8  -4 -147.44 160.070   1
   4  -8  -4 -4.6500 36.6800   1
  -4  -8   4 167.700 58.4300   1
   0  -2   9 339.610 79.8400   1
   0   2   9 254.840 51.4600   1
   0   2   9 9.85000 58.2000   1
   0   2   9 99.5600 57.3300   1
   1   1   9 406.610 80.0500   1
   1  -1   9 338.970 74.7300   1
  -7  -5  -2 1300.99 177.980   1
  -7  -5  -2 -394.68 155.560   1
   7  -5   2 1226.24 174.250   1
   7   5   2 1481.39 544.450   1
   0 -10   2 -14.530 53.9400   1
   0 -10  -2 16.7000 52.2200   1
   0 -10   2 194.800 79.4400   1
   0 -10   2 -165.17 238.360   1
   0 -10  -2 -59.820 94.1300   1
   0  10  -2 -29.610 35.3500   1
  -6   6   4 234.670 51.4900   1
   6   6  -4 344.220 76.8300   1
   6  -6  -4 314.020 58.3000   1
  -6  -6   4 -0.3700 225.580   1
  -6   6   4 115.290 85.2600   1
  -6  -6   4 298.630 65.0900   1
   7  -5  -3 239.730 57.4500   1
  -7   5   3 -40.400 53.7100   1
  -7  -5   3 340.620 65.4000   1
   7   5  -3 340.860 60.4400   1
  -7   5   3 193.370 44.5900   1
   5  -1   7 269.290 62.8000   1
   5  -1   7 178.230 73.6600   1
   5   1   7 217.290 77.1400   1
   5   1   7 168.600 42.2100   1
   6   7  -2 177.560 69.3700   1
  -6  -7   2 57.6900 93.8300   1
  -6  -7   2 199.960 55.7300   1
  -6   7   2 -22.690 56.5700   1
   6  -7  -2 133.010 41.6600   1
  -6   7   2 168.990 51.1900   1
  -4  -9   1 -18.240 124.640   1
   4  -9  -1 25.0700 86.9400   1
  -4  -9   1 56.3000 44.1300   1
   4  -9  -1 10.5800 44.0200   1
   4  -9  -1 3.05000 31.1000   1
   2   6   7 15.5700 41.8700   1
   2   6   7 121.500 66.2500   1
  -2  -6  -7 -110.45 120.940   1
   2  -6   7 -48.090 33.6100   1
   2  -6   7 89.9800 49.0100   1
   6   1   6 26.6500 62.9800   1
   6  -1   6 93.0400 63.2700   1
   6  -1   6 76.3700 36.0000   1
   6   1   6 -17.390 28.7600   1
   2  -9  -4 -55.080 137.590   1
   2  -9  -4 145.280 39.1500   1
  -2  -9   4 -267.99 258.390   1
  -2  -9   4 227.030 62.4500   1
   2  -9  -4 96.5800 50.4500   1
  -2   9   4 72.4600 40.9900   1
   4   4   7 -67.200 33.5200   1
   4   4   7 -33.270 66.0900   1
   4  -4   7 8.72000 47.6000   1
  -4  -4  -7 -211.79 92.9000   1
  -6  -4  -5 -29.360 112.580   1
   6   4   5 7.29000 29.0100   1
   6  -4   5 20.1500 47.2800   1
   6  -4   5 -15.010 32.1800   1
   8   2  -3 941.920 173.220   1
   8  -2  -3 1242.01 299.870   1
  -8  -2   3 762.870 144.820   1
  -3  -8   5 -105.06 45.3900   1
  -3   8   5 88.7200 57.7500   1
  -3  -8   5 26.3200 61.8000   1
  -3   8   5 -62.110 61.7300   1
   3  -8  -5 411.620 178.650   1
   2 -10   0 -51.700 55.4700   1
   2 -10   0 35.3000 45.4700   1
  -2 -10   0 109.290 55.7000   1
  -2  10   0 -2.3300 42.0800   1
  -2 -10   0 101.200 103.120   1
   2 -10   0 -100.31 112.210   1
  -2 -10   0 84.3600 49.0700   1
   8   3  -2 158.320 45.0000   1
   8  -3  -2 144.520 46.1300   1
  -8  -3   2 136.220 46.1500   1
   1 -10  -2 -28.570 55.2200   1
  -1 -10   2 -289.69 291.850   1
  -1 -10   2 238.690 91.4800   1
   1 -10  -2 11.3400 93.7100   1
  -1  10   2 -8.3300 44.7700   1
  -1 -10   2 150.700 51.7600   1
   1 -10  -2 190.320 62.0800   1
   3  -3   8 415.240 102.520   1
   3   3   8 352.590 99.5900   1
  -3  -3  -8 18.0900 103.910   1
   3   3   8 54.8200 48.3300   1
   7  -3   4 153.660 45.1200   1
   7  -3   4 91.6700 45.0200   1
  -7  -3  -4 4.73000 83.5200   1
   7   3   4 54.0600 38.2800   1
   8  -3   1 621.860 124.860   1
  -8  -3  -1 280.990 63.1800   1
   8   3   1 497.490 97.2700   1
  -8  -2  -2 224.480 50.9500   1
  -8  -2  -2 96.9200 68.9700   1
   8  -2   2 177.540 58.1800   1
   8  -2   2 146.090 44.3700   1
   8   2   2 268.540 64.2100   1
  -7   3   5 78.5400 39.2800   1
  -7   3   5 202.740 57.5100   1
  -7  -3   5 233.850 60.8000   1
   7  -3  -5 133.200 44.7400   1
   7   3  -5 291.110 68.4600   1
  -4  -9  -1 78.9600 46.2700   1
   4  -9   1 -93.790 43.0900   1
  -4  -9  -1 -69.950 43.5700   1
  -4  -9  -1 -79.150 103.110   1
   4  -9   1 22.5200 34.1300   1
   4  -9   1 165.210 156.760   1
  -3   6   7 -64.230 50.3500   1
  -3   6   7 -86.710 37.1500   1
   3  -6  -7 141.260 98.9100   1
  -3   6   7 129.070 60.0700   1
  -3  -6   7 -84.070 42.7000   1
  -3  -6   7 15.7600 65.0400   1
  -4   3   8 164.860 62.1400   1
  -4   3   8 80.7900 42.9600   1
  -4  -3   8 -4.8800 40.1400   1
  -4   3   8 204.930 53.5400   1
  -4  -3   8 110.580 60.3000   1
   4  -3  -8 144.170 45.6500   1
   1 -10   2 169.290 63.6500   1
   1 -10   2 195.640 238.050   1
  -1 -10  -2 147.560 108.260   1
  -1 -10  -2 149.940 61.3600   1
   1 -10   2 162.800 59.1700   1
  -1  10  -2 217.530 63.1200   1
   2 -10  -1 130.810 95.8200   1
  -2  10   1 43.7600 49.1300   1
  -2 -10   1 27.8300 45.4200   1
   2 -10  -1 -36.810 49.7100   1
   2 -10  -1 165.950 61.7100   1
  -2 -10   1 -73.850 68.5000   1
  -2 -10   1 -122.59 113.750   1
   6   0  -7 17.0900 37.7600   1
  -6   0   7 -149.72 57.6500   1
   3  -9   3 203.150 55.2200   1
  -3  -9  -3 295.570 183.960   1
   3  -9   3 -357.31 266.620   1
   3  -9   3 205.020 67.1600   1
  -3  -9  -3 289.500 70.8000   1
   4  -7   5 124.020 54.6300   1
  -4  -7  -5 83.8900 161.480   1
   4  -7   5 34.7200 55.5400   1
   4  -7   5 129.980 53.5100   1
  -4  -7  -5 153.720 57.8000   1
  -2 -10  -1 36.7500 99.0300   1
   2 -10   1 -105.85 152.290   1
   2 -10   1 97.6600 48.7400   1
  -2 -10  -1 176.560 56.3800   1
   1   5   8 45.7600 52.4900   1
   1  -5   8 36.0600 31.9100   1
   1   5   8 -85.000 46.7600   1
  -1  -5  -8 81.5900 99.0100   1
   1   5   8 141.500 73.6300   1
   1  -5   8 85.3100 61.2000   1
  -2   2   9 -85.910 72.0500   1
  -2  -2   9 204.990 76.6500   1
  -2   2   9 232.740 58.4500   1
  -2   2   9 120.130 44.6800   1
  -5  -8  -2 -16.840 47.5600   1
  -5  -8  -2 131.030 166.920   1
  -5  -8  -2 8.19000 40.5100   1
   5  -8   2 -31.220 39.4200   1
   5  -8   2 -141.24 160.740   1
   5  -8   2 15.7100 32.9800   1
   2  -5  -8 72.3000 84.1100   1
  -2  -5   8 92.3900 63.6400   1
  -2   5   8 -71.810 55.1200   1
  -2   5   8 32.3400 60.7800   1
  -2  -5   8 28.0900 38.3800   1
  -2   5   8 55.4600 40.2800   1
   6  -4  -6 539.610 105.970   1
  -6   4   6 293.330 84.9400   1
  -6  -4   6 298.680 65.2500   1
  -6   4   6 385.260 83.1100   1
  -6   4   6 390.170 83.6400   1
  -6  -4   6 233.640 76.6900   1
   6   4  -6 412.030 92.2100   1
   1   2   9 23.0500 51.1100   1
   1   2   9 -207.60 55.2800   1
   1  -2   9 4.68000 54.2800   1
   1  -2   9 73.0800 37.7100   1
   1   2   9 -0.1500 37.6500   1
  -5   4   7 -63.430 54.3200   1
  -5   4   7 15.0600 51.7500   1
  -5  -4   7 145.950 69.8900   1
   5  -4  -7 39.7100 37.1600   1
   5   4  -7 160.110 52.7000   1
  -5  -4   7 15.6700 43.6000   1
  -5   4   7 -171.28 46.1500   1
   6   1  -7 -16.280 40.9700   1
   6  -1  -7 39.5000 42.2100   1
  -6  -1   7 77.0400 64.4100   1
  -6   1   7 55.4100 53.3700   1
   5  -2   7 411.600 96.8700   1
   5   2   7 385.910 81.7400   1
   5  -2   7 498.360 98.6200   1
   5   2   7 516.040 118.520   1
   2  -9   4 127.210 48.0700   1
   2  -9   4 228.820 101.590   1
  -2  -9  -4 -336.50 194.550   1
  -2  -9  -4 244.290 70.2500   1
   2  -9   4 154.060 50.3300   1
   4  -9  -2 35.4300 35.9900   1
  -4  -9   2 217.790 153.710   1
  -4  -9   2 96.4300 54.6800   1
   4  -9  -2 -203.15 83.8100   1
   4  -9  -2 50.1300 48.7700   1
   6   2   6 497.070 117.420   1
   6  -2   6 487.060 101.980   1
   6  -2   6 260.140 61.7600   1
   6   2   6 343.980 76.0500   1
  -6  -2  -6 317.500 85.8700   1
   5  -6   5 84.7300 46.2400   1
   5  -6   5 -10.960 43.3200   1
  -5  -6  -5 47.2500 42.7700   1
  -5  -6  -5 -92.510 132.680   1
   5  -6   5 125.490 40.8300   1
  -7  -6   0 64.1200 38.1700   1
   7   6   0 73.2200 44.5800   1
  -7  -6   0 -147.21 126.420   1
   7  -6   0 32.4800 39.6400   1
  -7   6   0 62.0300 33.9900   1
  -7   6   1 -16.610 31.4600   1
  -7   6   1 -79.720 104.300   1
  -7  -6   1 9.55000 48.0100   1
   7   6  -1 -8.8500 41.9900   1
   7  -6  -1 -20.610 38.2800   1
  -7  -6   1 159.060 105.250   1
  -4  -6  -6 -56.370 134.150   1
  -4  -6  -6 273.470 104.760   1
  -4  -6  -6 92.3300 49.1100   1
   4  -6   6 145.220 45.7200   1
   4  -6   6 180.320 54.7000   1
   0  -8  -6 -244.96 127.340   1
   0  -8  -6 635.110 127.730   1
   0  -8   6 537.070 115.190   1
   0  -8   6 455.040 96.8800   1
   4   0   8 461.740 92.0600   1
   4   0   8 637.890 136.810   1
   8   0  -4 494.520 96.9600   1
  -1   8   6 181.640 77.9200   1
   1  -8  -6 -23.890 163.510   1
  -1   8   6 39.3500 46.9500   1
  -1   8   6 27.8800 51.9300   1
  -1  -8   6 38.4900 51.2200   1
  -1  -8   6 63.3600 50.1700   1
   1   8  -6 131.970 44.5500   1
   6  -7   2 124.750 220.650   1
  -6   7  -2 126.090 50.6900   1
  -6  -7  -2 432.010 92.8100   1
   6   7   2 352.770 80.2400   1
  -6  -7  -2 -64.930 144.200   1
   6  -7   2 281.690 70.9300   1
  -3   0   9 10.2900 53.1200   1
  -5  -7  -4 68.1700 49.5300   1
   5  -7   4 33.1400 35.4100   1
   5  -7   4 72.7400 44.2700   1
  -5  -7  -4 -63.030 249.370   1
   5  -7   4 -16.250 28.1200   1
  -5   8   3 50.6700 56.4600   1
   5  -8  -3 -63.530 135.000   1
  -5  -8   3 411.650 194.490   1
  -5  -8   3 2.97000 49.0100   1
   5  -8  -3 60.8400 36.3000   1
  -5   0   8 569.750 124.720   1
   5   0  -8 591.320 116.560   1
  -1  -3   9 -61.310 68.3800   1
  -1   3   9 32.8200 47.0200   1
  -1  -3   9 75.0400 37.6900   1
  -1   3   9 -29.350 51.6000   1
  -1   3   9 101.530 68.3700   1
   7   0   5 0.08000 37.6600   1
   7   0   5 104.330 58.0500   1
  -7   0  -5 35.7900 59.7500   1
   0   3   9 -117.99 67.8000   1
   0   3   9 73.1100 55.5300   1
   0   3   9 -12.510 44.6800   1
   0  -3   9 58.9400 37.3100   1
   0  -3   9 82.0100 68.6700   1
   2   0   9 99.1800 66.1400   1
   4  -1   8 445.100 95.3800   1
   4   1   8 531.880 101.480   1
   4   1   8 714.880 144.670   1
   4  -1   8 728.500 143.430   1
   0   7   7 -70.460 58.0500   1
   0  -7   7 20.6200 50.0700   1
   0  -7  -7 238.610 166.550   1
   0  -7   7 -28.320 40.4200   1
   0   7   7 -10.760 48.6900   1
  -7   0   6 61.4100 49.1700   1
   7   0  -6 89.6200 40.4200   1
   8   1  -4 98.8900 46.4000   1
   8  -1  -4 97.0900 43.6300   1
   8   0   3 87.7900 44.3400   1
  -2  10   2 304.250 73.3700   1
  -2 -10   2 160.670 58.8400   1
   2 -10  -2 203.520 56.6400   1
   2 -10  -2 195.870 50.5800   1
   2 -10  -2 271.770 122.420   1
  -2 -10   2 -135.13 164.260   1
   2 -10  -2 225.110 82.3700   1
  -1  -7   7 91.9000 61.0800   1
  -1   7   7 -143.98 54.2200   1
  -1   7   7 -76.330 40.3800   1
  -1  -7   7 -69.640 35.8700   1
  -1   7   7 22.0600 59.8400   1
   1  -7  -7 -461.62 152.800   1
   3  -7   6 168.380 61.8300   1
  -3  -7  -6 198.000 64.4600   1
  -3  -7  -6 459.170 113.360   1
   3  -7   6 130.670 46.9600   1
  -3  -7  -6 92.6700 133.770   1
  -6  -7   3 129.400 46.2000   1
  -6   7   3 122.590 45.4600   1
  -6   7   3 -113.85 64.8500   1
  -6  -7   3 -215.56 149.110   1
   6  -7  -3 19.7800 115.490   1
   6  -7  -3 -20.720 35.2100   1
   6   7  -3 137.120 57.6500   1
   4  -8   4 -19.140 45.5300   1
  -4  -8  -4 40.1100 51.9600   1
   4  -8   4 39.6900 40.1900   1
  -4  -8  -4 160.470 187.240   1
   4  -8   4 -11.280 45.5700   1
  -3  -1   9 767.640 152.500   1
  -3   1   9 586.200 123.070   1
   8   4  -1 595.040 113.480   1
   8  -4  -1 749.620 139.650   1
  -8  -4   1 80.4100 111.140   1
  -8  -4   1 561.440 108.600   1
  -8   4   1 460.820 92.3400   1
  -5   1   8 70.8800 53.9300   1
  -5  -1   8 76.7100 51.5700   1
   5  -1  -8 -92.860 40.6900   1
   5   1  -8 -40.020 50.4700   1
   8   4   0 45.0400 47.7300   1
   8  -4   0 -33.970 42.6900   1
  -8   4   0 4.28000 30.5000   1
  -8  -4   0 56.1100 43.2500   1
  -8  -4   0 96.4900 146.820   1
  -8  -3   3 106.720 46.5300   1
   8  -3  -3 216.420 54.5600   1
   8   3  -3 377.430 79.9400   1
  -7  -1  -5 -76.760 62.3100   1
   7   1   5 62.0900 39.9200   1
   7  -1   5 -31.550 33.5500   1
   7  -1   5 40.5300 66.8800   1
   2   1   9 338.440 83.9200   1
   2  -1   9 354.000 86.6400   1
  -6   2   7 -6.7900 48.7400   1
  -6  -2   7 -11.150 56.1300   1
   6   2  -7 140.740 53.9800   1
   6  -2  -7 -18.060 38.8700   1
  -7  -1   6 -8.5600 45.6000   1
  -7   1   6 52.5100 52.9300   1
   7   1  -6 59.5800 36.8400   1
   7  -1  -6 52.7700 36.9400   1
  -7  -6  -1 -27.710 176.320   1
  -7   6  -1 -16.690 52.0300   1
  -7  -6  -1 43.8800 47.4500   1
  -7   6  -1 20.6700 39.7400   1
   7  -6   1 -48.520 34.8500   1
   7   6   1 -0.9600 36.6800   1
   3  -8   5 115.720 42.7500   1
   3  -8   5 154.590 52.4000   1
  -3  -8  -5 -434.15 221.670   1
  -3  -8  -5 196.690 81.1000   1
  -3  -8  -5 124.160 47.5300   1
   4  -9   2 46.1900 48.5900   1
   4  -9   2 149.380 50.3500   1
  -4  -9  -2 -335.60 148.380   1
  -4  -9  -2 234.620 65.9300   1
   7   6  -2 402.290 84.4100   1
  -7  -6   2 306.890 70.1800   1
  -7   6   2 -78.570 79.3900   1
   7  -6  -2 460.500 93.0400   1
  -7   6   2 303.720 71.3800   1
   8  -1   3 938.530 185.020   1
   8   1   3 935.240 173.200   1
   8  -1   3 1150.91 282.710   1
   0 -10  -3 64.8400 124.440   1
   0 -10   3 -62.760 200.760   1
   0 -10  -3 -31.490 68.3300   1
   0 -10  -3 -48.160 51.7500   1
   0 -10   3 -14.670 54.4200   1
   0  10  -3 -136.23 46.4200   1
   1  -8   6 -87.890 53.9000   1
  -1  -8  -6 187.360 57.9300   1
   1  -8   6 74.0700 44.7100   1
  -1  -8  -6 474.800 207.450   1
   8  -3   2 234.570 54.7500   1
   8   3   2 248.010 58.6900   1
  -8  -3  -2 173.240 42.8300   1
   2 -10   2 -91.880 187.050   1
  -2 -10  -2 236.240 69.8200   1
   2 -10   2 140.090 56.3800   1
   2 -10   2 168.770 57.1600   1
  -2 -10  -2 0.02000 127.630   1
   5  -5   6 -19.030 34.5100   1
  -5  -5  -6 155.450 86.8100   1
  -5  -5  -6 40.8300 141.700   1
   5  -5   6 100.120 44.1700   1
   5  -5   6 3.88000 50.1200   1
  -5  -5  -6 89.7500 46.7400   1
   0  -9   5 138.610 57.7900   1
   0  -9  -5 -69.560 173.520   1
   0   9  -5 -31.800 40.7000   1
   0  -9  -5 -129.55 51.7700   1
   0  -9  -5 -32.670 78.7400   1
   0  -9   5 -13.620 55.7100   1
  -3   9   4 0.64000 49.5600   1
  -3  -9   4 -1.9400 65.5300   1
   3  -9  -4 116.280 67.2200   1
   3  -9  -4 -141.78 145.410   1
  -3  -9   4 322.380 261.210   1
  -1 -10   3 4.99000 48.7300   1
  -1  10   3 147.050 48.3500   1
   1 -10  -3 -115.09 51.6200   1
   1 -10  -3 -22.350 59.9700   1
   1 -10  -3 72.2900 30.8000   1
   1 -10  -3 56.4400 121.580   1
  -1 -10   3 -74.420 210.410   1
  -7  -5  -3 15.2300 113.800   1
   7  -5   3 66.5100 37.2200   1
   7   5   3 70.9400 41.0900   1
  -7  -5  -3 90.6500 43.7100   1
  -7   5   4 -10.060 42.2400   1
  -7  -5   4 35.0700 47.8900   1
  -7   5   4 -37.470 52.8500   1
  -7  -5   4 234.110 148.350   1
   7  -5  -4 -18.100 37.5400   1
   7   5  -4 39.9000 43.0400   1
   5  -6  -6 268.210 63.9300   1
  -5   6   6 211.850 61.7000   1
  -5  -6   6 125.220 46.1200   1
  -5   6   6 57.5400 83.2300   1
   5  -6  -6 73.4700 79.3700   1
  -5   6   6 139.150 52.1300   1
  -5  -6   6 163.560 70.7900   1
  -2   3   9 -49.790 66.1400   1
  -2   3   9 -7.5300 44.9800   1
  -2  -3   9 -121.96 44.3000   1
  -2   3   9 24.8300 50.2200   1
  -2   8   6 104.990 57.3300   1
  -2  -8   6 156.780 49.6700   1
   2  -8  -6 27.8700 122.790   1
  -2   8   6 162.030 64.1900   1
  -2  -8   6 153.700 68.8900   1
  -2   8   6 127.820 51.1000   1
   2   8  -6 219.540 56.8000   1
   1   7   7 -21.080 60.4600   1
  -1  -7  -7 427.150 162.330   1
   1  -7   7 61.4100 43.1800   1
   1   7   7 -56.650 53.4800   1
   1  -7   7 31.6700 52.9700   1
  -1  -9   5 59.8500 55.8800   1
   1  -9  -5 320.760 183.090   1
   1  -9  -5 65.9000 49.4800   1
  -1  -9   5 72.9600 42.7000   1
   1   9  -5 113.120 51.7400   1
  -1   9   5 183.410 55.7300   1
  -5  -7   5 619.750 121.540   1
  -5  -7   5 104.730 295.410   1
   5  -7  -5 511.500 102.010   1
  -5   7   5 592.520 114.150   1
   1  -3   9 -9.7200 56.8300   1
   1  -3   9 37.6300 36.7900   1
   1   3   9 -20.470 61.5900   1
   1   3   9 -69.250 39.3100   1
   1   3   9 41.1400 73.3700   1
   4   2   8 8.54000 65.0000   1
   4  -2   8 179.870 70.9300   1
   4  -2   8 79.0500 37.0700   1
  -8   4   2 189.140 51.1900   1
  -8  -4   2 141.010 51.3700   1
   8   4  -2 65.2200 45.5100   1
   8  -4  -2 53.6900 40.1900   1
  -8  -2   4 -18.520 39.0800   1
   8  -2  -4 -15.960 39.9200   1
   8   2  -4 -17.940 35.8900   1
   5  -3   7 80.9600 38.9000   1
  -5  -3  -7 -209.43 87.4100   1
   5   3   7 -49.710 60.7900   1
   5  -3   7 39.2500 60.6100   1
   3   4   8 5.40000 41.0500   1
  -3  -4  -8 -97.830 102.040   1
   3   4   8 -95.380 61.9000   1
   3   4   8 15.0100 40.2500   1
  -1 -10  -3 354.220 181.300   1
   1 -10   3 -593.61 204.330   1
   1 -10   3 200.040 72.7300   1
  -1 -10  -3 44.0800 45.9600   1
   1 -10   3 223.970 69.1700   1
  -1  10  -3 73.7600 40.2500   1
   4  -7  -6 -48.800 34.9200   1
   4  -7  -6 -204.34 119.170   1
  -4   7   6 21.9400 45.9700   1
  -4  -7   6 -31.410 48.9700   1
  -4   7   6 -44.610 59.6700   1
  -4   7   6 69.7200 53.0700   1
  -4  -7   6 27.5000 61.8100   1
   3 -10   0 41.7100 38.3500   1
   3 -10   0 34.2900 115.080   1
  -3 -10   0 54.8500 48.9900   1
  -3 -10   0 14.9300 61.1000   1
   3 -10   0 7.22000 49.9800   1
   3 -10   0 39.2500 43.3500   1
  -3 -10   0 136.550 99.2900   1
   7  -4   4 1013.53 193.330   1
   7  -4   4 1142.49 278.710   1
   7   4   4 1092.90 270.030   1
  -7  -4  -4 -90.960 121.980   1
  -2  -5  -8 -179.45 90.0000   1
   2   5   8 231.650 76.8900   1
   2  -5   8 351.370 91.5800   1
   2   5   8 136.090 51.2600   1
   2  -5   8 119.560 42.4000   1
   2   5   8 -160.07 56.7800   1
   6  -3   6 121.770 43.5600   1
  -6  -3  -6 97.7600 65.8100   1
  -6  -3  -6 -210.53 83.3200   1
   6  -3   6 37.2500 56.3900   1
   6   3   6 53.7100 32.5200   1
   8   4   1 -36.270 41.4200   1
   8  -4   1 -19.360 36.9400   1
  -8  -4  -1 126.720 116.350   1
  -8  -4  -1 8.24000 38.9300   1
  -6  -6  -4 182.110 56.1500   1
  -6  -6  -4 6.64000 156.470   1
   6  -6   4 221.860 57.6200   1
   6   6   4 263.430 65.6500   1
   6  -6   4 247.580 60.5400   1
  -3   2   9 4.18000 38.4400   1
  -3   2   9 -32.320 69.4100   1
  -3  -2   9 -42.550 62.3300   1
  -2   7   7 62.2400 46.3500   1
  -2   7   7 47.3200 50.6700   1
  -2  -7   7 -35.110 39.7900   1
   2  -7  -7 43.5100 139.420   1
  -2   7   7 77.3200 82.5600   1
  -2  -7   7 146.430 65.3100   1
  -7   4   5 -133.45 39.2600   1
  -7   4   5 176.770 60.7500   1
  -7  -4   5 89.1300 48.1700   1
  -7  -4   5 67.1200 210.450   1
   7  -4  -5 204.570 66.5200   1
   7   4  -5 180.490 62.7500   1
   5   2  -8 286.410 97.9100   1
   5  -2  -8 191.780 58.4300   1
  -5  -2   8 272.230 95.1300   1
  -5   2   8 223.480 76.7200   1
  -4   4   8 29.0700 65.1400   1
  -4  -4   8 185.320 66.3700   1
  -4   4   8 99.2700 54.2300   1
  -4   4   8 66.1900 63.2500   1
  -4  -4   8 50.6500 56.5600   1
   4  -4  -8 101.410 43.3800   1
   7  -2   5 225.690 66.5800   1
   7  -2   5 190.080 69.2800   1
  -7  -2  -5 203.240 90.6500   1
   7   2   5 245.790 72.8300   1
  -3   5   8 -166.62 67.3500   1
  -3  -5   8 -135.46 53.7900   1
   3  -5  -8 8.92000 78.5500   1
  -3   5   8 -144.30 42.1400   1
  -3  -5   8 -33.360 34.9700   1
  -3   5   8 -174.55 115.800   1
  -4  -9   3 -17.760 189.410   1
   4  -9  -3 -41.330 51.4700   1
  -4  -9   3 88.7900 51.5100   1
   4  -9  -3 -67.310 137.560   1
   4  -9  -3 100.640 45.9000   1
   2   2   9 410.080 117.110   1
   2  -2   9 226.450 85.9800   1
   3  -6   7 139.820 46.9400   1
  -3  -6  -7 -12.150 116.600   1
   3  -6   7 231.580 80.7300   1
   3   6   7 140.820 60.5300   1
   7  -2  -6 124.010 45.5000   1
   7   2  -6 218.580 68.4200   1
  -7   2   6 114.960 58.6600   1
  -7  -2   6 83.5400 50.8700   1
  -3 -10   1 -126.12 77.7500   1
   3 -10  -1 73.2500 44.5400   1
  -3 -10   1 98.1400 49.9600   1
  -3 -10   1 219.080 125.250   1
   3 -10  -1 -79.840 84.7500   1
   3 -10  -1 50.4400 39.4100   1
  -8  -2  -3 119.800 95.1900   1
   8   2   3 44.2000 41.9600   1
   8  -2   3 -22.750 41.4300   1
   8  -2   3 -82.990 54.7600   1
  -1  -9  -5 26.0700 77.3800   1
  -1  -9  -5 93.0500 202.910   1
   1  -9   5 144.680 66.0000   1
   1  -9   5 156.670 59.3400   1
  -1  -9  -5 113.430 57.8100   1
  -4  -5  -7 301.270 131.310   1
   4   5   7 -39.020 41.7500   1
   4  -5   7 -36.620 57.5100   1
  -6  -5  -5 -281.23 112.290   1
   6  -5   5 -58.590 41.8100   1
  -6  -5  -5 46.7400 33.9200   1
   6  -5   5 80.0000 54.2700   1
   5  -8   3 289.050 84.5000   1
  -5  -8  -3 91.5200 206.250   1
   5  -8   3 468.120 120.440   1
  -5  -8  -3 278.980 80.3900   1
  -3 -10  -1 162.220 60.5600   1
  -3 -10  -1 133.110 107.990   1
  -3 -10  -1 47.2800 60.2300   1
   3 -10   1 63.6500 45.5900   1
   6   6  -5 51.6300 48.9600   1
   6  -6  -5 -32.360 62.7500   1
  -6  -6   5 173.010 215.270   1
  -6   6   5 39.9100 127.750   1
  -6  -6   5 18.3200 41.9600   1
  -6   6   5 15.2100 38.5000   1
   6  -6  -5 34.0200 40.1200   1
   4  -8  -5 40.7400 34.8700   1
  -4   8   5 -7.6600 48.0200   1
  -4  -8   5 85.3900 46.9400   1
  -4  -8   5 -291.42 225.550   1
   4  -8  -5 184.120 130.850   1
  -4   8   5 28.5900 48.1900   1
   0   6   8 -55.650 73.1100   1
   0  -6   8 132.190 62.5900   1
   0  -6  -8 -24.020 99.7500   1
   0   6   8 23.5000 52.3800   1
   0  -6   8 184.190 66.7000   1
   0   6   8 29.6300 40.2100   1
  -1  -6   8 134.500 73.7600   1
  -1   6   8 77.4500 78.4300   1
   1  -6  -8 68.0000 91.1700   1
  -1   6   8 24.7100 57.1300   1
  -1  -6   8 167.330 56.3000   1
  -1   6   8 26.1900 43.2500   1
  -1   6   8 42.0300 50.3300   1
  -4   6   7 142.250 56.6700   1
  -4  -6   7 1.69000 47.8200   1
  -4   6   7 32.4000 63.1700   1
   4  -6  -7 41.2200 84.7200   1
  -4   6   7 5.06000 49.7100   1
  -4  -6   7 101.490 59.6600   1
   6  -3  -7 78.5400 52.1600   1
  -6   3   7 -15.770 61.3100   1
  -6   3   7 94.0800 48.2600   1
  -6  -3   7 289.020 86.2500   1
   6   3  -7 222.330 77.1700   1
   7   6   2 318.380 86.4800   1
   7  -6   2 367.480 96.1800   1
  -7  -6  -2 382.070 103.040   1
  -7  -6  -2 74.0900 173.210   1
  -7  -6  -2 -59.190 37.3600   1
  -7   6  -2 150.940 54.1100   1
   2 -10  -3 77.0400 67.2000   1
   2 -10  -3 -14.970 30.8500   1
  -2  10   3 123.890 50.8600   1
   2 -10  -3 245.380 175.110   1
  -2 -10   3 43.7200 44.3700   1
  -2 -10   3 -46.300 196.520   1
  -7   6   3 -25.910 69.3400   1
  -7  -6   3 -74.920 123.310   1
  -7   6   3 188.660 67.0000   1
   7   6  -3 255.080 82.7100   1
   7  -6  -3 279.000 81.2000   1
  -7  -6   3 112.110 49.5600   1
  -2  -9   5 27.0200 60.7000   1
  -2   9   5 14.4500 51.6000   1
   2  -9  -5 142.810 201.340   1
  -2  -9   5 57.5900 46.5800   1
  -2   9   5 -161.89 47.1800   1
   2  -9  -5 -185.13 52.1300   1
  -3  -9  -4 33.5300 177.410   1
  -3  -9  -4 94.0900 47.5000   1
   3  -9   4 92.6700 62.4800   1
   6   7   3 67.1600 48.1100   1
   6  -7   3 150.700 52.5600   1
  -6  -7  -3 118.440 48.4500   1
  -6  -7  -3 330.800 209.330   1
  -1   4   9 237.250 72.1600   1
  -1  -4   9 323.430 90.3200   1
  -1   4   9 53.4600 82.8100   1
  -1   4   9 208.430 78.8500   1
  -1  -4   9 354.140 102.570   1
  -1   4   9 213.110 73.9600   1
   0   4   9 -12.070 95.7600   1
   0  -4   9 188.220 83.0200   1
   0   4   9 248.640 92.0500   1
   0  -4   9 93.7100 46.5700   1
   0   4   9 -31.180 43.8400   1
   0   4   9 81.0100 36.4600   1
  -6  -5   6 80.7400 64.0400   1
  -6  -5   6 157.280 58.8500   1
  -6   5   6 196.150 80.9800   1
  -6   5   6 142.890 58.5100   1
   6  -5  -6 91.1200 39.9900   1
   6   5  -6 69.8100 56.2500   1
  -2  -8  -6 264.410 83.2500   1
   2  -8   6 27.2500 40.8600   1
  -2  -8  -6 -51.080 149.760   1
   2  -8   6 -12.000 53.3800   1
  -2  -8  -6 95.2100 74.9100   1
  -5  -5   7 52.3300 43.1600   1
  -5   5   7 51.5700 79.0300   1
  -5   5   7 41.7200 50.8900   1
  -5  -5   7 -93.030 52.8200   1
   5  -5  -7 54.4700 32.7200   1
  -5   5   7 -20.160 46.5100   1
  -3 -10   2 53.5000 45.7100   1
   3 -10  -2 137.260 54.4700   1
  -3 -10   2 31.9200 163.770   1
   3 -10  -2 135.710 114.930   1
   3 -10  -2 -5.4400 30.2900   1
   6  -8   0 -69.600 79.8800   1
  -6  -8   0 43.8200 43.1300   1
  -6  -8   0 -66.580 102.830   1
   6  -8   0 122.580 49.2700   1
   6   8   0 -16.450 48.4700   1
  -6   8   0 -15.820 44.7600   1
   5  -8  -4 -48.050 34.7700   1
  -5  -8   4 -59.640 41.4200   1
  -5  -8   4 -196.75 189.150   1
  -5   8   4 -24.380 44.9500   1
  -6  -8   1 93.6400 66.3600   1
  -6  -8   1 -257.21 111.990   1
   6  -8  -1 -16.030 81.9200   1
  -6   8   1 -50.990 53.9800   1
   6   8  -1 78.4100 52.2600   1
   6  -8  -1 39.6900 43.3100   1
  -8   4   3 113.900 44.4600   1
   8  -4  -3 183.990 78.0900   1
  -8  -4   3 126.970 50.4400   1
   8   4  -3 104.090 52.3200   1
   4   3   8 613.590 166.570   1
   4  -3   8 431.060 119.310   1
   4   3   8 66.3600 62.9000   1
  -4  -9  -3 72.6300 69.3100   1
   4  -9   3 -62.960 41.5300   1
  -4  -9  -3 -388.37 154.840   1
   4  -9   3 -374.89 189.980   1
   5  -9   0 0.81000 47.0100   1
  -5  -9   0 18.7200 55.0300   1
  -5  -9   0 -116.73 100.370   1
   5  -9   0 150.340 104.050   1
  -5  -9   0 189.990 89.0200   1
   5  -9   0 5.05000 43.5500   1
   6  -7  -4 298.000 84.3400   1
  -6  -7   4 -597.77 218.980   1
  -6   7   4 0.35000 71.5300   1
  -6  -7   4 408.030 106.520   1
  -6   7   4 231.830 73.3600   1
   6   7  -4 646.870 168.660   1
  -8  -3   4 -62.280 48.8400   1
   8   3  -4 63.6600 40.4000   1
   8  -3  -4 -36.320 35.8700   1
   2 -10   3 -464.13 230.530   1
  -2 -10  -3 -392.96 171.750   1
   2 -10   3 51.6700 61.0700   1
  -2 -10  -3 80.9100 51.7200   1
   2 -10   3 10.4200 52.2400   1
  -4   0   9 68.4100 55.9400   1
   2  -7   7 69.0800 47.3200   1
  -2  -7  -7 -6.8500 179.880   1
   2   7   7 44.2700 48.0000   1
   2  -7   7 109.010 67.9000   1
  -5  -9   1 28.1600 51.1500   1
   5  -9  -1 99.8700 40.4100   1
   5  -9  -1 -111.56 101.140   1
  -5  -9   1 -27.190 93.7400   1
   5  -9  -1 320.590 96.9100   1
  -3  -3   9 433.310 123.590   1
  -3   3   9 433.440 121.720   1
  -3   3   9 418.180 111.510   1
  -3   3   9 193.170 77.1600   1
  -1  -6  -8 -96.600 120.810   1
   1   6   8 18.5800 74.7500   1
   1  -6   8 119.480 60.2400   1
   1   6   8 -41.360 39.9200   1
   1  -6   8 -24.530 42.8700   1
  -8  -4  -2 235.280 69.1300   1
  -8  -4  -2 122.940 108.730   1
   8  -4   2 123.650 51.3000   1
   8   4   2 318.890 85.1800   1
   5  -3  -8 49.8400 34.0600   1
  -5   3   8 46.8400 43.2800   1
  -5   3   8 110.340 57.2200   1
  -5   3   8 14.9300 42.5400   1
  -5  -3   8 7.39000 65.8700   1
   5   3  -8 42.5700 55.2100   1
  -2  -6   8 87.0900 66.1300   1
   2  -6  -8 98.0500 87.5900   1
  -2   6   8 11.1000 72.6900   1
  -2   6   8 -2.1500 61.4700   1
  -2  -6   8 -86.670 37.9600   1
  -2   6   8 31.4800 39.8400   1
  -2   6   8 -35.360 45.5500   1
   7   3   5 0.08000 32.3100   1
  -7  -3  -5 20.8500 78.5200   1
   7  -3   5 -26.420 54.7500   1
   7  -3   5 22.8000 41.5800   1
   3   0   9 -53.310 28.5300   1
   3   0   9 -63.530 74.3300   1
   2   3   9 374.110 109.370   1
   2   3   9 1330.19 444.630   1
   2  -3   9 700.310 178.680   1
   8   0  -5 -42.810 42.4300   1
  -3  -8   6 437.590 122.220   1
  -3   8   6 137.840 70.9600   1
  -3   8   6 239.880 76.4400   1
  -3  -8   6 157.950 62.8300   1
   3  -8  -6 -26.380 104.060   1
  -7   3   6 39.0400 37.4500   1
  -7  -3   6 -26.050 48.2000   1
  -7  -3   6 49.4200 44.6100   1
   7  -3  -6 29.4000 37.3800   1
   7   3  -6 55.1700 48.7000   1
   8   3   3 -21.540 39.2800   1
   8  -3   3 27.4800 37.1600   1
  -8  -3  -3 43.0000 77.4400   1
  -4  -1   9 577.820 155.330   1
   4  -1  -9 428.080 126.480   1
  -4   1   9 691.610 180.170   1
   3 -10   2 609.400 286.260   1
  -3 -10  -2 -426.44 129.770   1
   3 -10   2 184.220 65.8500   1
  -3 -10  -2 -45.090 52.1900   1
  -2   4   9 -50.680 39.4900   1
  -2  -4   9 -7.3700 62.8300   1
  -2  -4   9 68.0400 49.4600   1
  -2   4   9 43.9000 66.7700   1
  -2   4   9 -23.990 74.9100   1
   6  -8   1 152.080 52.3000   1
   6   8   1 132.580 58.1600   1
  -6   8  -1 72.0900 43.2600   1
  -6  -8  -1 91.4400 48.1000   1
   6  -8   1 -52.240 106.080   1
  -6  -8  -1 311.620 176.120   1
  -6  -8  -1 -32.060 43.4400   1
   9   0  -1 12.5500 37.8700   1
  -8   5   1 57.6500 55.4100   1
  -8  -5   1 165.850 62.2800   1
  -8   5   1 -8.9000 38.7600   1
  -8  -5   1 21.1800 126.700   1
   8  -5  -1 128.750 48.5300   1
   8   5  -1 213.320 65.5400   1
  -3  -7   7 388.490 110.770   1
  -3   7   7 -38.330 55.2000   1
   3  -7  -7 109.110 131.670   1
  -3   7   7 511.550 140.970   1
  -3  -7   7 607.460 160.900   1
  -3   7   7 439.670 113.840   1
   8   5   0 96.3300 43.5500   1
   8  -5   0 39.9300 45.3000   1
  -8  -5   0 -33.440 124.180   1
  -8  -5   0 -55.150 35.8600   1
  -8   5   0 19.7300 33.6900   1
  -2  -9  -5 51.9700 43.7000   1
   2  -9   5 114.030 50.2800   1
  -2  -9  -5 220.970 98.8700   1
  -2  -9  -5 373.460 232.930   1
   2  -9   5 45.0600 54.5800   1
   3   1   9 719.410 183.480   1
   3  -1   9 669.780 171.840   1
   3  -1   9 388.510 108.160   1
  -1  -4  -9 -240.21 112.850   1
   1   4   9 294.370 105.810   1
   1  -4   9 109.410 61.6000   1
   1   4   9 96.1400 54.8000   1
   1  -4   9 148.720 54.6400   1
   1   4   9 -122.26 72.3800   1
   8   1  -5 731.120 181.530   1
   8  -1  -5 787.280 263.120   1
   0 -10  -4 9.91000 43.6600   1
   0 -10   4 354.270 281.630   1
   0 -10  -4 -128.29 175.730   1
   0 -10   4 124.370 53.8100   1
   0  10  -4 50.8100 57.5400   1
   0 -10  -4 409.210 123.350   1
   9   0   0 29.1300 37.9200   1
   5   4   7 48.0800 67.6200   1
   5  -4   7 42.8300 57.8300   1
   5  -4   7 61.0200 43.6900   1
  -5  -4  -7 78.5800 75.1000   1
  -5  -4  -7 -36.890 116.210   1
   5  -9   1 68.1200 45.4400   1
  -5  -9  -1 88.4100 135.220   1
   5  -9   1 115.880 133.010   1
  -5  -9  -1 111.170 54.9300   1
   5  -9   1 105.550 48.7700   1
  -5  -9  -1 185.760 67.3000   1
  -6   8   2 47.9000 54.1500   1
   6  -8  -2 144.600 47.8000   1
   6  -8  -2 174.060 140.690   1
  -6  -8   2 208.750 68.6000   1
  -6  -8   2 -140.52 132.020   1
  -6   8   2 -63.200 63.4200   1
   8   0   4 -110.66 58.0800   1
   8   0   4 84.1900 47.0000   1
   6  -4   6 35.1200 36.7800   1
  -6  -4  -6 113.830 93.1800   1
   6  -4   6 148.850 61.4000   1
  -6  -4  -6 41.8200 81.6500   1
   9   1  -1 367.710 100.760   1
   9  -1  -1 367.950 98.8300   1
  -1 -10   4 -135.97 226.150   1
   1 -10  -4 113.520 60.6500   1
   1  10  -4 75.7500 39.9700   1
  -1 -10   4 122.850 52.9300   1
  -1  10   4 114.340 50.0000   1
   1 -10  -4 -9.8800 27.0100   1
   1 -10  -4 -285.02 162.240   1
   9  -1   0 23.4400 44.5900   1
   9   1   0 27.3700 33.3800   1
   0 -11   0 -5.8000 101.000   1
   0 -11   0 65.6500 59.1500   1
  -5  -9   2 -186.58 123.220   1
  -5  -9   2 118.740 51.5100   1
   5  -9  -2 15.5700 100.000   1
   5  -9  -2 51.5600 36.5400   1
  -5   9   2 128.830 53.7300   1
   8   1   4 235.730 75.0700   1
   8  -1   4 91.8600 55.5300   1
   8  -1   4 174.510 77.5300   1
   5  -7   5 47.9400 50.8000   1
   5  -7   5 125.530 51.6100   1
  -5  -7  -5 73.0700 49.2900   1
  -5  -7  -5 286.640 179.450   1
  -7  -7   0 62.1500 51.0800   1
  -7   7   0 -116.23 63.8300   1
   7   7   0 246.980 74.5100   1
   7  -7   0 128.150 50.6400   1
  -7   7   0 53.0100 50.8900   1
  -7  -7   0 -443.08 134.640   1
  -7  -7   1 30.3000 47.8300   1
  -7  -7   1 83.9700 110.060   1
   7  -7  -1 63.2600 36.8400   1
   7   7  -1 5.13000 53.3200   1
  -7   7   1 -12.350 54.0900   1
  -7   7   1 34.5000 35.3200   1
   6   0   7 70.5000 64.5800   1
  -4  -7  -6 -79.770 113.480   1
   4  -7   6 83.6400 85.4600   1
   4  -7   6 -32.570 51.4400   1
   4  -7   6 -56.550 40.1500   1
  -4  -7  -6 -17.550 41.0300   1
  -4  -7  -6 69.1500 93.3300   1
   9   0  -2 488.370 124.790   1
  -4  -9   4 -19.560 49.7200   1
  -4   9   4 24.6700 46.9000   1
  -4  -9   4 479.310 260.940   1
   4  -9  -4 -206.77 181.270   1
   4  -9  -4 -21.630 43.8600   1
  -8  -5   2 11.9600 88.8100   1
   8   5  -2 -2.1600 35.8500   1
  -8  -5   2 48.2500 42.2200   1
  -8   5   2 44.1900 47.1600   1
  -8   5   2 63.9800 42.0500   1
   8  -5  -2 98.2800 44.9100   1
   1 -10   4 283.980 86.5400   1
   1 -10   4 -520.14 281.080   1
  -1 -10  -4 128.480 60.1500   1
  -1 -10  -4 -81.470 78.6900   1
  -1 -10  -4 206.040 157.370   1
   3  -5   8 26.6200 103.770   1
   3   5   8 -78.210 77.5800   1
  -3  -5  -8 259.360 127.690   1
   3   5   8 -16.440 35.2700   1
   4  -2  -9 48.2000 47.6700   1
  -4  -2   9 148.950 67.5800   1
  -4   2   9 90.4700 62.3300   1
   0  11  -1 47.9100 48.0400   1
   0 -11   1 -298.10 117.910   1
   0 -11  -1 41.3300 99.1000   1
   0 -11   1 -87.350 46.7900   1
   0 -11   1 -70.300 48.7100   1
   0 -11  -1 -17.310 45.1800   1
   4  -8   5 116.560 56.0800   1
   4  -8   5 -32.730 34.5500   1
   4  -8   5 57.8300 48.6300   1
  -4  -8  -5 57.7700 193.770   1
  -4  -8  -5 45.1000 45.3300   1
   7  -5   4 219.440 64.5900   1
   7   5   4 78.0400 40.5900   1
  -7  -5  -4 76.5100 143.390   1
   8  -5   1 2.48000 41.8600   1
   8   5   1 112.030 43.2300   1
  -8   5  -1 17.8300 31.7200   1
  -8  -5  -1 0.45000 39.0100   1
  -8  -5  -1 -21.480 154.980   1
  -1  11   0 -7.7800 52.1900   1
  -1 -11   0 0.94000 59.2200   1
   1 -11   0 30.4600 56.3500   1
  -1 -11   0 187.480 67.8600   1
   1 -11   0 -72.550 118.100   1
  -1 -11   0 53.7400 102.400   1
   7  -5  -5 840.110 398.290   1
  -7   5   5 210.220 84.4500   1
   7   5  -5 1062.83 503.240   1
  -7   5   5 657.330 152.190   1
  -7  -5   5 716.890 161.960   1
   6  -1   7 122.950 78.7200   1
   6   1   7 35.6700 39.7300   1
   6   1   7 115.500 78.6100   1
   6  -1   7 146.390 48.4900   1
   4  -5  -8 68.7400 35.6800   1
  -4  -5   8 -44.410 63.8800   1
  -4  -5   8 -0.3200 35.9800   1
  -4   5   8 34.3500 65.7300   1
  -4   5   8 -9.0700 59.7800   1
  -4   5   8 4.63000 46.7800   1
   9   0   1 -76.080 40.3500   1
   9   1  -2 20.6700 35.7500   1
   9  -1  -2 158.040 50.9800   1
  -3  -9   5 103.690 52.6300   1
   3  -9  -5 79.1800 34.3700   1
  -3   9   5 106.860 52.5000   1
  -3   9   5 31.0000 59.7400   1
   3  -9  -5 0.24000 200.160   1
  -3  -9   5 707.720 267.440   1
   3  -2   9 178.600 69.8300   1
   3   2   9 67.5300 44.0500   1
   3   2   9 208.460 86.1200   1
   8   2  -5 229.150 62.9700   1
   8  -2  -5 226.760 71.8600   1
  -6  -4   7 13.7400 55.6200   1
  -6   4   7 34.3700 39.2800   1
  -6   4   7 -51.620 56.2500   1
   6   4  -7 -144.55 54.9100   1
   6  -4  -7 39.9400 37.5000   1
  -6  -4   7 -45.800 36.8800   1
  -6   4   7 82.2800 53.6500   1
   3 -10  -3 61.4000 43.1200   1
  -3 -10   3 -116.34 235.670   1
   3 -10  -3 59.9200 126.020   1
   3 -10  -3 24.2600 55.5700   1
  -3 -10   3 58.8800 45.1700   1
  -5  -6  -6 80.1900 98.3400   1
   5  -6   6 144.730 63.7100   1
  -5  -6  -6 -152.68 148.400   1
   5  -6   6 68.9700 43.9300   1
  -5  -6  -6 -7.6100 40.0500   1
   5  -6   6 30.1900 37.6800   1
  -7  -6  -3 25.0600 186.090   1
  -7  -6  -3 122.840 47.9500   1
   7   6   3 44.4700 45.1500   1
   7  -6   3 72.2700 41.4300   1
   1 -11  -1 -102.40 124.320   1
  -1 -11   1 -83.660 150.260   1
  -1 -11   1 -21.910 53.4400   1
  -1  11   1 122.770 51.8600   1
   1 -11  -1 141.140 82.2700   1
   1 -11  -1 113.400 51.8600   1
  -1 -11   1 170.730 62.0600   1
  -7   6   4 49.5700 92.6700   1
   7  -6  -4 548.340 126.620   1
   7   6  -4 453.670 110.680   1
  -7  -6   4 221.850 64.1600   1
   9   2  -1 -28.580 47.8200   1
   9  -2  -1 129.690 51.4800   1
  -9  -2   1 -9.8500 41.2700   1
   5   0   8 140.240 69.1200   1
   5   0   8 46.8700 36.3400   1
  -4 -10   0 351.920 93.5900   1
   4 -10   0 322.030 83.4700   1
  -4 -10   0 202.310 77.0200   1
  -4 -10   0 57.5100 100.890   1
   4 -10   0 -93.300 89.8100   1
   4 -10   0 293.320 78.1700   1
   9   1   1 57.8000 41.9900   1
   9  -1   1 -46.530 42.0700   1
  -1 -11  -1 -36.320 45.6000   1
   1 -11   1 155.890 160.790   1
  -1 -11  -1 19.1500 98.9800   1
   1 -11   1 -9.9300 59.5400   1
  -1  11  -1 -87.030 39.2300   1
   9  -2   0 177.930 57.0000   1
   9   2   0 -9.6000 35.3400   1
  -7   7  -1 186.430 54.2600   1
   7   7   1 290.350 85.9900   1
   7  -7   1 300.420 75.9800   1
  -7  -7  -1 -133.79 150.740   1
  -7   7  -1 -35.450 52.6100   1
  -7  -7  -1 17.3200 86.2000   1
  -7  -7  -1 136.850 53.9800   1
  -7  -7   2 58.8900 42.0300   1
   7   7  -2 17.9500 54.3800   1
   7  -7  -2 14.0200 43.7100   1
  -7   7   2 16.6300 42.3100   1
  -7   7   2 153.170 76.4900   1
  -1   0  10 93.2100 60.6400   1
  -4 -10   1 -11.230 47.4200   1
   4 -10  -1 -41.030 49.3100   1
  -4 -10   1 155.190 107.050   1
   4 -10  -1 97.2300 94.9800   1
   4 -10  -1 -2.2400 39.7400   1
   8   2   4 4.29000 36.1900   1
   8  -2   4 16.0700 37.4600   1
   8  -2   4 -21.770 50.5900   1
  -2  -6  -8 -351.59 123.530   1
   2  -6   8 -17.270 34.3400   1
   2   6   8 -28.740 36.1400   1
   2  -6   8 0.34000 56.4100   1
   2   6   8 -194.63 76.2200   1
   6  -8   2 173.000 61.2100   1
  -6  -8  -2 153.660 174.090   1
   6  -8   2 191.150 204.400   1
  -6  -8  -2 -54.100 42.4400   1
   6  -8   2 250.150 79.5300   1
  -6  -8  -2 304.700 82.2500   1
  -5  -8  -4 -84.130 39.1300   1
  -5  -8  -4 -662.75 213.790   1
   5  -8   4 99.1100 46.5600   1
   5  -8   4 15.8000 32.3300   1
  -2 -10   4 111.310 243.390   1
   2 -10  -4 0.76000 61.4100   1
  -2 -10   4 -87.630 47.2400   1
  -2  10   4 -22.450 39.0700   1
   2 -10  -4 -19.860 29.5100   1
   2 -10  -4 506.340 201.240   1
   0   0  10 570.670 138.730   1
  -6   0   8 34.3400 50.9400   1
   6   0  -8 121.200 46.8600   1
   5   1   8 259.070 98.2400   1
   5  -1   8 -19.510 60.0500   1
   5  -1   8 101.490 37.8900   1
   7   0   6 45.3300 61.6500   1
   7   0   6 93.9700 46.8100   1
   5  -9   2 373.730 95.6500   1
  -5  -9  -2 -4.9500 197.970   1
   5  -9   2 415.250 102.510   1
   5  -9   2 331.810 244.620   1
  -5  -9  -2 678.560 157.480   1
  -3   6   8 288.720 90.8700   1
  -3  -6   8 57.9300 64.0300   1
  -3   6   8 34.5800 66.4500   1
   3  -6  -8 -133.53 83.0600   1
  -3   6   8 57.1900 41.4100   1
  -3  -6   8 106.320 44.9300   1
  -4  -4  -8 112.880 107.980   1
   4  -4   8 179.830 73.7700   1
   4   4   8 96.1200 79.9000   1
  -7   0   7 61.0200 51.6600   1
   7   0  -7 -61.040 35.5900   1
   0   8   7 -50.550 49.3300   1
   0   8   7 80.1100 61.4300   1
   0  -8  -7 -125.49 138.610   1
   0  -8   7 160.260 51.1500   1
   0  -8   7 205.520 76.7600   1
   8   4  -4 8.08000 45.0800   1
   8  -4  -4 144.430 70.4700   1
  -8  -4   4 16.9200 42.4900   1
  -8   4   4 161.210 57.4400   1
  -1  -1  10 -77.570 58.5700   1
  -1   1  10 104.160 65.5500   1
  -1   8   7 -25.530 57.8900   1
   1  -8  -7 61.4900 158.080   1
  -1  -8   7 -2.4300 44.3000   1
  -1   8   7 -55.920 51.5000   1
  -1   8   7 6.50000 44.8500   1
  -1  -8   7 -165.60 58.2900   1
   3  -8   6 166.630 51.5200   1
   3  -8   6 9.96000 53.0100   1
  -3  -8  -6 -102.89 150.970   1
  -3  -8  -6 338.000 103.010   1
  -3  -8  -6 84.1100 51.2500   1
   6  -8  -3 -6.1000 40.3000   1
  -6  -8   3 -32.370 135.640   1
  -6   8   3 -59.810 46.9900   1
  -6  -8   3 136.350 51.4000   1
  -6   8   3 22.5100 50.5100   1
  -3   4   9 -14.520 38.1500   1
  -3   4   9 21.3300 47.7700   1
  -3  -4   9 36.0200 56.8800   1
  -3   4   9 102.990 68.5200   1
  -3  -4   9 12.0400 37.2200   1
   0  -1  10 113.730 85.8200   1
   0   1  10 29.8900 62.9300   1
   4   6   7 -27.450 40.4000   1
   4  -6   7 77.6100 56.5400   1
  -4  -6  -7 -114.25 134.140   1
  -4  -6  -7 140.470 97.7800   1
   6  -1  -8 61.0000 44.8100   1
   6   1  -8 32.0100 43.9100   1
  -6  -1   8 14.3100 50.2400   1
   5  -7  -6 115.300 78.5600   1
  -5   7   6 38.7300 66.2000   1
  -5  -7   6 24.3100 49.6300   1
  -5   7   6 124.650 56.8500   1
  -5  -7   6 136.130 61.8300   1
   5  -7  -6 81.9900 42.8200   1
   6  -2   7 -24.770 35.9200   1
   6   2   7 56.3800 64.3300   1
   6  -2   7 -37.450 66.2600   1
   4 -10   1 -122.02 122.970   1
  -4 -10  -1 -115.94 57.5900   1
   4 -10   1 -76.520 49.8100   1
  -4 -10  -1 96.3400 52.0800   1
   4 -10   1 26.8000 52.1100   1
  -4 -10  -1 -311.68 120.750   1
  -6  -6  -5 222.810 131.190   1
   6  -6   5 19.2200 38.5900   1
   6  -6   5 -68.240 43.3100   1
  -6  -6  -5 15.5600 39.3300   1
   5  -4  -8 10.6000 36.1500   1
  -5   4   8 23.6700 46.8000   1
  -5  -4   8 11.6400 41.0800   1
  -5   4   8 59.9900 45.9900   1
  -5   4   8 -43.060 48.8000   1
  -5  -4   8 -106.17 53.4200   1
   7  -1   6 193.880 55.9900   1
   7   1   6 92.4200 44.9800   1
   7   1   6 109.410 66.9400   1
   7  -1   6 217.620 77.6000   1
  -1  -5   9 -140.66 55.7500   1
  -1   5   9 129.300 75.2700   1
   1  -5  -9 -149.70 92.3400   1
  -1   5   9 -30.330 68.3600   1
  -1  -5   9 34.7100 39.3700   1
  -1   5   9 5.45000 41.4700   1
  -1   5   9 34.6500 38.5100   1
   9  -2  -2 183.350 55.6000   1
   9   2  -2 354.560 88.4900   1
   7   4   5 -32.660 35.2500   1
  -7  -4  -5 -94.960 115.090   1
   7  -4   5 -111.52 45.2600   1
   7  -4   5 35.1400 50.8700   1
   0  -9  -6 278.200 179.530   1
   0  -9  -6 36.7800 64.8900   1
   0  -9   6 -38.540 58.5700   1
   0  -9   6 34.6600 46.5900   1
   0   5   9 0.32000 77.1500   1
   0  -5  -9 83.8200 115.610   1
   0   5   9 227.690 79.0700   1
   0  -5   9 70.4200 64.5300   1
   0  -5   9 10.3300 35.8700   1
   2   4   9 109.050 57.7900   1
   2   4   9 -94.770 71.2200   1
   2   4   9 412.550 118.970   1
  -2  -4  -9 28.8700 107.080   1
   2  -4   9 390.610 105.170   1
  -7   1   7 241.900 72.9700   1
   7   1  -7 271.800 75.0800   1
   7  -1  -7 258.540 75.2900   1
  -7  -1   7 160.700 65.5100   1
   0 -11  -2 -330.08 98.7400   1
   0 -11   2 287.940 200.740   1
   0 -11  -2 -0.2800 55.5800   1
   0 -11   2 120.300 60.1100   1
   0  11  -2 -15.890 43.9100   1
   0 -11   2 187.860 69.6500   1
  -7  -4   6 -10.580 36.2500   1
  -7   4   6 4.86000 39.0400   1
  -7  -4   6 -75.680 52.1200   1
   7  -4  -6 -61.720 39.6900   1
   7   4  -6 -15.490 48.2300   1
  -7   4   6 41.2700 45.2900   1
  -3 -10  -3 138.530 65.9400   1
   3 -10   3 103.530 48.1000   1
   3 -10   3 -105.91 204.160   1
  -3 -10  -3 176.290 174.540   1
   3 -10   3 250.480 79.5400   1
   8  -4   3 -18.720 40.3900   1
  -8  -4  -3 131.490 111.350   1
   8   4   3 13.9800 37.3700   1
  -1  -9   6 39.4700 49.9100   1
  -1   9   6 93.9700 54.0100   1
   1   9  -6 32.4900 41.6900   1
   1  -9  -6 -450.66 196.720   1
  -1   9   6 31.8800 66.6200   1
  -1  -9   6 94.2300 57.8200   1
  -6  -7  -4 -73.250 179.740   1
  -6  -7  -4 195.990 62.8800   1
   6  -7   4 147.270 65.4100   1
   9   0  -3 -14.310 34.9800   1
  -5  -9   3 26.0900 42.5500   1
  -5  -9   3 45.2400 135.630   1
   5  -9  -3 248.770 154.500   1
   5  -9  -3 11.0000 45.0400   1
  -5   9   3 36.4300 59.0700   1
   9   2   1 -15.400 43.5900   1
   9  -2   1 6.87000 39.9700   1
  -8  -5   3 39.6400 44.4800   1
  -8   5   3 68.7100 40.5700   1
   8  -5  -3 -39.320 45.7300   1
   8   5  -3 164.710 57.6200   1
  -8  -5   3 38.5900 76.4900   1
  -8   5   3 -18.520 40.7100   1
  -2   0  10 1324.26 628.050   1
  -2 -11   0 253.240 87.4000   1
   2 -11   0 5.45000 130.420   1
  -2 -11   0 -5.1200 120.740   1
   2 -11   0 46.4500 65.4700   1
   2 -11   0 41.2800 52.3200   1
  -2  11   0 19.4700 42.6800   1
  -2 -11   0 -24.930 58.7500   1
  -3  -7  -7 -446.19 142.260   1
  -3  -7  -7 71.0400 79.5100   1
   3  -7   7 -43.370 64.1600   1
   3  -7   7 -7.9600 43.8700   1
   3   7   7 22.5200 44.1600   1
  -1  11   2 68.4400 45.6600   1
  -1 -11   2 67.5300 59.8300   1
   1 -11  -2 -101.40 98.8900   1
   1 -11  -2 109.370 59.7200   1
   1 -11  -2 131.630 75.5000   1
  -1 -11   2 -76.170 73.9900   1
  -1 -11   2 121.420 147.940   1
   4  -3  -9 4.33000 42.3000   1
  -4  -3   9 30.8200 56.7900   1
  -4   3   9 30.2900 55.8100   1
  -4   3   9 -9.2000 37.9500   1
  -4   3   9 -54.290 43.5100   1
  -2 -10  -4 174.500 167.750   1
   2 -10   4 -33.710 73.8200   1
   2 -10   4 -73.410 45.8900   1
  -2 -10  -4 -16.090 44.7200   1
  -2 -10  -4 29.5100 72.8800   1
   2 -10   4 261.340 229.520   1
   4 -10  -2 27.9000 39.7600   1
   4 -10  -2 -261.89 109.940   1
  -4 -10   2 255.990 143.070   1
   4 -10  -2 133.430 67.2400   1
  -4 -10   2 47.7800 52.8400   1
  -4  -9  -4 277.870 199.840   1
   4  -9   4 15.0800 54.3000   1
  -4  -9  -4 31.9300 48.7900   1
   4  -9   4 -61.940 38.4700   1
   9  -1  -3 245.420 65.1500   1
   9   1  -3 -0.2100 34.0000   1
   8  -5   2 -7.0000 32.6800   1
  -8  -5  -2 -38.690 101.290   1
  -8  -5  -2 29.5700 47.1800   1
   8   5   2 50.9100 39.9900   1
   5  -2   8 23.3300 65.4900   1
   5   2   8 -2.4100 84.0700   1
   5  -2   8 181.850 55.2100   1
   1   0  10 793.060 378.540   1
   1  -8   7 -51.080 49.3600   1
   1   8   7 -67.560 45.7800   1
   1  -8   7 129.840 53.7300   1
  -1  -8  -7 -0.8900 127.720   1
   5  -8  -5 -35.330 91.2500   1
  -5   8   5 -68.960 52.6400   1
  -5  -8   5 87.4300 49.5300   1
  -5   8   5 -227.14 65.0900   1
   5  -8  -5 60.4400 47.7500   1
  -1  11  -2 151.210 59.0000   1
  -1 -11  -2 325.650 127.880   1
   1 -11   2 -73.950 46.8100   1
  -1 -11  -2 104.680 56.1500   1
   1 -11   2 203.410 67.3000   1
   1 -11   2 146.510 186.700   1
  -6  -6   6 42.7600 51.6300   1
  -6   6   6 31.8400 47.4800   1
  -6  -6   6 23.8200 41.8800   1
   6   6  -6 42.4400 50.8700   1
   6  -6  -6 49.4500 43.1900   1
  -6   6   6 77.2600 76.7700   1
  -2 -11   1 126.910 54.2100   1
  -2  11   1 20.1900 48.2200   1
   2 -11  -1 27.2200 52.4000   1
   2 -11  -1 30.8400 56.3700   1
  -2 -11   1 -42.920 67.6100   1
  -2 -11   1 -43.130 114.170   1
   2 -11  -1 103.040 105.630   1
   3   3   9 -2.4100 64.8100   1
   3   3   9 -41.240 67.4000   1
   3  -3   9 3.91000 69.5200   1
   3   3   9 3.04000 22.7200   1
  -2   1  10 109.640 64.2800   1
  -2  -1  10 172.930 78.0300   1
   5  -6  -7 -36.890 32.7900   1
  -5  -6   7 116.800 69.2300   1
  -5   6   7 74.6900 58.8000   1
   5  -6  -7 -236.73 91.9200   1
  -5   6   7 -202.08 101.550   1
  -5  -6   7 24.9400 39.8900   1
  -5   6   7 -21.160 39.1400   1
  -8  -3   5 29.8700 53.0200   1
   8   3  -5 111.050 49.1100   1
   8  -3  -5 26.7200 36.2700   1
   9   0   2 108.590 51.4400   1
   3  -9   5 -20.640 44.9800   1
  -3  -9  -5 -83.360 47.1400   1
  -3  -9  -5 -48.830 88.9900   1
   3  -9   5 196.710 79.0300   1
   3  -9   5 -11.790 57.4600   1
  -3  -9  -5 323.940 217.680   1
  -6   7   5 247.550 67.9600   1
   6  -7  -5 325.160 83.3200   1
  -6  -7   5 395.040 95.6800   1
  -6   7   5 61.2300 100.930   1
  -6  -7   5 -28.620 236.900   1
  -1   2  10 87.6800 71.0200   1
  -1  -2  10 93.7700 60.8600   1
   4  -8  -6 18.7700 35.6100   1
  -4  -8   6 -159.19 59.9300   1
   4  -8  -6 31.5400 142.460   1
  -4   8   6 -82.930 53.8900   1
  -4  -8   6 -72.160 44.9400   1
  -4   8   6 -17.570 47.1600   1
  -1  -9  -6 -501.71 167.730   1
   1  -9   6 277.730 86.7600   1
   1  -9   6 93.5300 47.0200   1
   0   2  10 3.08000 77.3900   1
   0   2  10 52.5900 51.0000   1
   0  -2  10 -65.770 59.5700   1
  -2  -8   7 65.2800 42.9500   1
  -2   8   7 34.8800 73.1300   1
  -2  -8   7 -201.76 63.0200   1
   2  -8  -7 -65.090 159.140   1
  -2   8   7 86.0100 52.9100   1
  -2  11  -1 142.250 59.7800   1
  -2 -11  -1 -3.4400 120.300   1
   2 -11   1 -83.530 140.880   1
  -2 -11  -1 37.7700 49.4700   1
   2 -11   1 -29.230 56.1000   1
  -6   2   8 0.41000 66.9300   1
  -6  -2   8 -46.360 61.4700   1
   6   2  -8 69.1300 53.1100   1
  -2  -5   9 41.4600 67.4700   1
  -2   5   9 -38.880 73.2700   1
   2  -5  -9 299.930 131.860   1
  -2   5   9 -61.410 123.640   1
  -2  -5   9 -18.880 38.7300   1
  -2   5   9 -20.190 53.5900   1
   9   3  -1 440.470 105.370   1
  -9  -3   1 339.390 92.9300   1
   9  -3  -1 510.990 116.830   1
   0   7   8 -95.100 63.8700   1
   0  -7   8 40.3700 62.1200   1
   0   7   8 21.4800 45.3600   1
   0  -7   8 22.9700 41.3900   1
   0  -7  -8 277.720 131.650   1
   1  -1  10 222.960 83.2900   1
   1   1  10 -4.4200 78.7000   1
   7   2   6 370.230 111.740   1
   7   2   6 156.640 53.1700   1
   7  -2   6 142.330 73.0800   1
   7  -2   6 182.980 51.5500   1
  -7  -2  -6 182.530 89.3700   1
  -1  -7   8 -59.000 65.8400   1
  -1   7   8 179.030 73.6100   1
  -1   7   8 198.260 63.2400   1
   1  -7  -8 157.180 120.110   1
  -1  -7   8 -17.540 38.6900   1
  -1   7   8 -91.930 56.1300   1
  -1   7   8 -49.940 50.4200   1
  -4   7   7 -39.430 77.1300   1
  -4  -7   7 -13.860 39.7800   1
  -4   7   7 123.290 69.9600   1
  -4  -7   7 -20.880 69.5600   1
  -4   7   7 -29.500 53.0300   1
   4  -7  -7 36.7100 89.6700   1
   1  -5   9 -33.400 62.5200   1
   1   5   9 -13.040 73.9700   1
  -1  -5  -9 103.090 97.7500   1
   1   5   9 36.5500 48.8600   1
   1   5   9 63.9900 60.5800   1
   1  -5   9 134.510 49.5600   1
   9  -3   0 54.7500 39.2500   1
   9   3   0 16.2700 40.0000   1
  -9  -3   0 11.3500 38.4300   1
   7  -2  -7 7.22000 35.0400   1
  -7  -2   7 28.7800 52.7400   1
  -7   2   7 -7.7800 48.9300   1
   7   2  -7 107.960 47.7800   1
  -7   7  -2 21.0600 40.8400   1
  -7  -7  -2 -37.620 42.6400   1
  -7  -7  -2 442.980 216.280   1
   7   7   2 165.330 61.2100   1
   7  -7   2 60.4900 48.1700   1
   9   1   2 24.1300 38.8800   1
   9  -1   2 47.1100 41.4100   1
  -7   7   3 104.100 99.6800   1
  -7  -7   3 -193.99 125.350   1
  -7   7   3 13.1500 37.9000   1
  -7  -7   3 -50.450 47.6800   1
   7  -7  -3 73.4100 48.7700   1
   7   7  -3 -47.520 66.1000   1
  -5  -5  -7 -84.830 122.420   1
  -5  -5  -7 -311.68 72.4400   1
   5  -5   7 -40.930 54.8100   1
   5  -5   7 124.960 49.4700   1
   8  -3   4 196.420 72.4500   1
  -8  -3  -4 -177.56 90.5500   1
  -6  -5  -6 -93.260 92.9400   1
  -6  -5  -6 83.6300 83.2500   1
   6  -5   6 78.3900 62.3400   1
   6  -5   6 53.0900 46.0600   1
  -2  -9   6 35.3500 45.3000   1
  -2   9   6 21.4300 49.5100   1
  -2  -9   6 4.81000 53.3700   1
  -2   9   6 86.3400 88.7200   1
   2  -9  -6 -165.52 124.380   1
   2   9  -6 -44.760 40.4800   1
  -2   9   6 -10.930 46.9700   1
   5   0  -9 58.1500 46.4500   1
  -5   0   9 -71.240 72.2800   1
   4 -10   2 -341.07 218.560   1
  -4 -10  -2 -83.450 55.7600   1
   4 -10   2 36.5000 43.3900   1
  -4 -10  -2 228.500 164.080   1
   4 -10   2 44.8300 47.4900   1
   9   2  -3 -70.780 40.0000   1
   9  -2  -3 16.9600 41.2700   1
  -8   6   1 17.6700 43.9500   1
  -8  -6   1 118.240 125.960   1
   8  -6  -1 52.4600 44.2000   1
   8   6  -1 68.3000 51.9500   1
  -8  -6   1 40.1100 49.9100   1
   6   3   7 176.410 90.3500   1
   6  -3   7 -55.390 52.0300   1
   6  -3   7 -42.520 30.7500   1
   8   6   0 207.910 61.5600   1
   8  -6   0 272.800 72.8100   1
  -8  -6   0 -78.190 153.040   1
  -8  -6   0 285.950 80.6900   1
  -9  -3   2 71.6600 39.0000   1
   9  -3  -2 -7.5300 49.9400   1
   9   3  -2 -33.970 42.1800   1
   4   0   9 -74.800 82.4800   1
  -2  -2  10 287.350 91.5100   1
  -2   2  10 326.270 106.800   1
  -5  -1   9 535.010 142.530   1
  -5   1   9 669.640 168.260   1
   5  -1  -9 374.390 99.6500   1
   5   1  -9 697.750 173.730   1
   0 -10  -5 6.41000 176.110   1
   0 -10   5 -32.620 44.8900   1
   0  10  -5 117.520 54.5300   1
   0 -10   5 -12.680 59.4600   1
   0 -10  -5 -51.160 51.9600   1
   0 -10  -5 209.960 88.1400   1
  -3 -10   4 282.530 78.8600   1
   3 -10  -4 318.430 94.4300   1
  -3 -10   4 54.2600 209.960   1
   3 -10  -4 176.680 54.2700   1
   3 -10  -4 7.41000 140.870   1
   8   0  -6 252.360 70.9600   1
  -8   0   6 294.080 80.3100   1
   2 -11  -2 12.4400 64.0800   1
   2 -11  -2 -23.920 50.8100   1
  -2  11   2 -68.500 52.3600   1
   2 -11  -2 61.4600 45.7800   1
  -2 -11   2 -3.6500 46.4600   1
   2 -11  -2 111.900 114.540   1
  -2 -11   2 164.290 141.270   1
  -2 -11   2 255.440 110.460   1
   1   7   8 49.9700 43.9500   1
   1  -7   8 89.4500 44.4700   1
  -1  -7  -8 -74.820 137.320   1
   1  -7   8 18.6300 72.1100   1
   1   7   8 48.6800 78.7600   1
   6  -8   3 67.9300 44.3700   1
   6  -8   3 129.450 231.200   1
   6  -8   3 -9.8300 44.7000   1
  -6  -8  -3 141.710 56.2500   1
  -6  -8  -3 199.850 181.430   1
   1  -2  10 101.630 69.2400   1
   1   2  10 38.1500 61.2400   1
   1   2  10 -28.270 46.3200   1
  -1 -10   5 116.110 57.0800   1
   1 -10  -5 71.3800 66.3000   1
   1  10  -5 88.4300 51.6900   1
  -1  10   5 -14.480 46.9900   1
   1 -10  -5 461.600 223.550   1
  -1 -10   5 -266.36 208.610   1
   9   3   1 13.3800 37.6800   1
   9  -3   1 4.93000 36.5700   1
  -2   7   8 57.7200 66.2100   1
  -2  -7   8 -89.970 52.9700   1
  -2   7   8 -52.670 43.8000   1
  -2   7   8 42.3600 49.0700   1
  -2   7   8 24.3200 51.8100   1
   2  -7  -8 -10.790 99.2800   1
  -2  -7   8 -0.5500 44.4100   1
   4  -1   9 220.100 78.6400   1
   4   1   9 76.5900 66.6000   1
  -5  -9  -3 187.870 221.760   1
   5  -9   3 -520.54 236.930   1
  -5  -9  -3 246.280 79.4700   1
   5  -9   3 223.150 65.6300   1
  -6   5   7 264.070 73.6900   1
  -6  -5   7 359.400 94.4800   1
  -6   5   7 -80.880 57.7500   1
  -6  -5   7 262.360 81.7200   1
   6  -5  -7 225.920 78.2300   1
   6   5  -7 273.840 85.7700   1
   9  -2   2 363.550 92.7700   1
   9   2   2 420.440 105.450   1
   8   1  -6 -76.070 37.6600   1
   8  -1  -6 55.5500 45.5000   1
  -8   1   6 24.3800 47.2100   1
   0 -11   3 -623.73 200.350   1
   0 -11  -3 562.550 221.450   1
   0 -11  -3 98.9300 55.3100   1
   0  11  -3 -1.5600 38.6400   1
   0 -11  -3 -55.190 70.8600   1
   0 -11   3 29.1000 73.2600   1
   0 -11   3 -93.020 46.3400   1
  -4  -9   5 -231.30 268.130   1
   4  -9  -5 -170.82 141.030   1
  -4   9   5 281.620 86.1100   1
  -4  -9   5 121.660 55.4900   1
  -3   0  10 731.190 180.960   1
  -2 -11  -2 -52.620 113.190   1
   2 -11   2 781.760 269.490   1
   2 -11   2 -47.290 45.2000   1
  -2 -11  -2 -119.50 46.6700   1
   5  -3   8 687.210 164.920   1
   5  -3   8 676.590 170.570   1
   5   3   8 941.990 75.8000   1
  -4 -10   3 281.500 227.810   1
   4 -10  -3 -144.36 127.360   1
   4 -10  -3 -18.290 59.5100   1
  -4 -10   3 35.9800 51.3700   1
   4 -10  -3 46.8500 32.7500   1
   8   0   5 -47.810 38.0400   1
   8   0   5 212.370 87.5200   1
  -8   6   2 62.4400 68.5000   1
  -8  -6   2 128.360 61.7000   1
   8  -6  -2 117.430 57.7000   1
  -8  -6   2 131.860 101.350   1
   8   6  -2 81.1100 58.5800   1
  -6  -8   4 113.510 50.1900   1
  -6   8   4 82.9300 56.5400   1
  -6   8   4 1.35000 71.9300   1
  -6  -8   4 196.320 157.270   1
   1 -11  -3 144.030 77.4000   1
  -1 -11   3 181.970 243.800   1
   1 -11  -3 53.6500 188.010   1
   1 -11  -3 -53.820 32.2200   1
  -1 -11   3 50.7900 47.6700   1
  -1  11   3 -74.750 46.6000   1
   1 -11  -3 100.840 49.6700   1
   3   6   8 168.850 77.4800   1
   3   6   8 -4.9200 40.2800   1
   3  -6   8 199.090 68.1700   1
  -3  -6  -8 65.6800 102.110   1
  -1   3  10 51.8700 41.3100   1
  -1   3  10 -31.000 39.9800   1
  -1   3  10 94.7600 76.1900   1
  -1  -3  10 198.910 73.8600   1
  -2  -8  -7 -37.790 145.900   1
   2  -8   7 100.270 54.6000   1
   2  -8   7 -3.9300 51.7200   1
   7   6   4 -16.520 34.5000   1
  -7  -6  -4 -4.1200 38.3500   1
   7  -6   4 -14.470 36.8500   1
  -7  -6  -4 128.920 140.680   1
  -8  -6  -1 -2.0300 36.4300   1
  -8  -6  -1 113.940 197.100   1
   8  -6   1 32.9400 39.5100   1
   8   6   1 -3.8200 36.6600   1
   0   3  10 54.4400 48.8700   1
   0   3  10 121.700 71.5800   1
   0   3  10 44.8900 43.6900   1
   0  -3  10 -24.330 68.9600   1
   1 -10   5 -41.630 55.5600   1
  -1 -10  -5 193.400 76.8000   1
  -1 -10  -5 33.8100 91.7800   1
   1 -10   5 -71.720 59.6100   1
  -1 -10  -5 401.330 204.510   1
  -3  -1  10 -16.850 56.2500   1
  -3   1  10 -23.660 58.5600   1
  -7  -6   5 131.540 272.950   1
   7  -6  -5 15.9300 52.4900   1
   7   6  -5 150.590 69.5300   1
  -7  -6   5 80.3600 49.5600   1
  -7   6   5 -70.130 56.2000   1
   9   0  -4 301.930 85.3200   1
  -6   3   8 -40.320 40.9300   1
  -6   3   8 -35.020 48.1400   1
  -6  -3   8 -37.000 57.7700   1
   6  -3  -8 -17.880 36.4300   1
   6   3  -8 38.8200 50.7300   1
   7  -3   6 34.7000 65.7500   1
  -7  -3  -6 -121.08 101.060   1
  -7  -3  -6 15.3900 63.0300   1
   7  -3   6 63.9400 36.2100   1
  -4   6   8 -102.54 57.9700   1
  -4  -6   8 127.220 75.4700   1
  -4   6   8 112.930 48.6900   1
  -4  -6   8 55.5400 49.6200   1
  -4   6   8 256.050 152.550   1
   4  -6  -8 163.770 105.400   1
  -2  -9  -6 164.150 222.190   1
  -2  -9  -6 -35.530 72.5600   1
  -2  -9  -6 36.2800 66.2000   1
   2  -9   6 -13.610 47.1900   1
   2  -9   6 94.8500 56.5500   1
  -8  -1  -5 -12.760 61.7800   1
   8   1   5 -16.520 69.2200   1
   8  -1   5 138.930 77.1900   1
   8   1   5 97.9900 54.3400   1
   8  -1   5 -16.370 36.4300   1
   2   0  10 8.03000 62.7100   1
   4   5   8 13.6000 72.3600   1
   4  -5   8 122.310 69.8300   1
  -4  -5  -8 298.730 130.210   1
  -5  -2   9 -82.250 54.7300   1
   5  -2  -9 -129.36 45.1500   1
  -5   2   9 88.1800 68.4900   1
   7  -3  -7 127.800 64.5700   1
   7   3  -7 83.6900 63.0600   1
  -7  -3   7 210.750 78.3400   1
   8   5  -4 177.160 60.2300   1
  -8  -5   4 -4.9300 81.5000   1
  -8   5   4 60.4000 44.9600   1
  -8   5   4 -23.550 43.1300   1
   8  -5  -4 85.9800 56.0900   1
  -8  -5   4 27.3900 46.1100   1
   1 -11   3 132.310 71.3200   1
  -1 -11  -3 79.0700 52.2300   1
   1 -11   3 260.710 222.990   1
  -1  11  -3 -10.650 51.5600   1
  -1 -11  -3 -15.400 133.850   1
   1 -11   3 -39.290 49.1900   1
  -1 -11  -3 -96.190 71.2500   1
  -4   4   9 121.450 68.6200   1
  -4   4   9 86.7000 54.6500   1
  -4  -4   9 142.080 75.8500   1
  -4   4   9 -80.240 42.9300   1
  -6   9   0 69.6200 51.6200   1
  -6  -9   0 154.390 63.7300   1
  -6  -9   0 53.6200 107.070   1
   6  -9   0 59.1100 78.9000   1
  -6  -9   0 91.0000 77.0800   1
   6  -9   0 287.080 79.6500   1
   3 -11   0 100.350 57.1100   1
  -3 -11   0 130.810 57.5600   1
   3 -11   0 -78.890 91.9100   1
  -3 -11   0 -164.57 118.340   1
  -3 -11   0 6.16000 66.6700   1
   3 -11   0 97.8300 44.0000   1
  -3   5   9 273.220 78.5200   1
  -3  -5   9 299.110 81.6200   1
  -3   5   9 150.280 83.5300   1
  -3   5   9 310.140 95.1000   1
  -3  -5   9 501.220 129.070   1
   5  -9  -4 39.9500 227.110   1
  -5   9   4 149.170 62.1800   1
  -5  -9   4 119.550 51.4900   1
   5  -9  -4 68.5200 40.7000   1
  -6  -9   1 -195.49 110.710   1
   6  -9  -1 -22.140 39.9900   1
  -6  -9   1 -28.350 53.2100   1
  -6   9   1 44.7400 67.2800   1
   9  -1  -4 -75.580 35.8700   1
   9   1  -4 -88.550 36.7400   1
   3  -8  -7 -102.45 145.700   1
  -3  -8   7 220.680 76.6500   1
  -3   8   7 1.86000 52.8200   1
  -3  -8   7 210.870 71.5200   1
  -3   8   7 -87.270 53.9000   1
  -3   8   7 43.6100 54.5800   1
  -5   5   8 -50.830 50.5800   1
  -5  -5   8 84.2200 51.9900   1
  -5   5   8 18.6800 69.8800   1
  -5   5   8 47.1900 54.6400   1
   5  -5  -8 -33.110 40.9200   1
  -7  -5  -5 -164.07 160.010   1
   7  -5   5 137.520 57.0200   1
   4  -2   9 19.4400 41.6600   1
   4   2   9 254.120 100.040   1
   4  -2   9 57.5300 67.7700   1
   3  -4   9 70.4400 68.3600   1
   3   4   9 67.4700 71.8900   1
  -3  -4  -9 -49.640 117.210   1
   3   4   9 24.8700 72.9300   1
   3   4   9 18.2200 26.8400   1
   2  -1  10 51.4900 72.5300   1
   2   1  10 -8.8100 67.1400   1
  -2  -5  -9 -37.360 111.050   1
   2   5   9 48.7200 60.6900   1
   2   5   9 161.920 63.4300   1
   2   5   9 405.530 124.050   1
   2  -5   9 233.230 95.4500   1
   8   4  -5 315.360 86.1100   1
  -8   4   5 316.700 86.1200   1
   8  -4  -5 283.900 80.0700   1
  -8  -4   5 194.560 60.6300   1
  -7   5   6 36.9400 42.1800   1
  -7  -5   6 111.440 50.6600   1
  -7   5   6 52.9800 55.8000   1
  -7  -5   6 -131.92 231.940   1
   7  -5  -6 155.380 61.3500   1
   7   5  -6 250.460 77.0200   1
   3 -11  -1 137.530 60.7200   1
  -3 -11   1 80.0200 63.3300   1
  -3 -11   1 60.3000 85.4000   1
   3 -11  -1 -71.220 99.4200   1
   3 -11  -1 86.4000 49.9400   1
  -3 -11   1 -203.56 124.870   1
  -8  -5  -3 -80.240 127.780   1
   8  -5   3 206.920 64.8200   1
   8   5   3 243.280 73.1200   1
   8  -2  -6 224.090 63.1100   1
   8   2  -6 188.760 59.8600   1
   2 -10  -5 116.850 61.2000   1
  -2  10   5 46.8400 48.0900   1
   2 -10  -5 64.2200 194.720   1
  -2 -10   5 -103.49 255.100   1
  -2 -10   5 21.0000 44.3400   1
  -2  10   5 -71.580 64.6200   1
   3 -10   4 99.1300 219.510   1
   3 -10   4 67.9800 49.5000   1
  -3 -10  -4 71.3300 54.4500   1
   3 -10   4 -46.170 45.0300   1
  -3 -10  -4 -35.230 197.510   1
   9  -3  -3 169.300 61.4900   1
   9   3  -3 315.840 86.1700   1
  -9  -4   1 -2.3400 34.6600   1
   9  -4  -1 -31.390 36.7100   1
   9   4  -1 47.7500 42.0400   1
   9   0   3 70.5200 54.8900   1
  -2   3  10 191.200 69.7600   1
  -2   3  10 201.980 67.9300   1
  -2   3  10 16.6200 68.4100   1
  -2  -3  10 237.450 79.8500   1
  -9  -4   0 197.990 63.7500   1
   9  -4   0 323.640 87.9900   1
   9   4   0 201.130 60.4600   1
  -3   9   6 275.560 91.5000   1
   3  -9  -6 -129.63 99.2000   1
  -3  -9   6 273.010 91.6900   1
  -3   9   6 236.320 89.3200   1
  -3  -9   6 422.530 112.070   1
  -5  -7  -6 55.5600 140.020   1
  -5  -7  -6 69.4400 47.9100   1
  -5  -7  -6 125.860 82.0000   1
   5  -7   6 -48.530 44.5700   1
   5  -7   6 68.1600 48.1900   1
   5  -7   6 85.2600 44.1700   1
  -3 -11  -1 174.850 115.750   1
   3 -11   1 -115.15 111.320   1
  -3 -11  -1 -69.590 58.9800   1
   8  -4   4 27.2700 47.0900   1
  -8  -4  -4 -52.650 97.4500   1
   8   4   4 66.6100 37.9500   1
  -7  -7  -3 -14.120 267.050   1
   7   7   3 -48.430 39.4400   1
   7  -7   3 94.3100 44.9400   1
  -7  -7  -3 161.660 58.4200   1
  -5  -8  -5 21.5300 48.6400   1
  -5  -8  -5 -106.94 225.140   1
   5  -8   5 -45.730 37.5700   1
  -3   2  10 182.290 77.9700   1
  -3  -2  10 70.9900 57.7900   1
  -7  -8   0 5.64000 54.1500   1
   7   8   0 102.740 59.9300   1
   7  -8   0 -78.240 45.3200   1
  -7  -8   0 -180.60 147.070   1
  -7   8   0 -4.3100 52.7800   1
  -7   8   0 -93.510 38.7900   1
  -7  -7   4 -137.28 39.8400   1
   7  -7  -4 80.2600 47.0900   1
   7   7  -4 133.570 67.4400   1
  -7  -7   4 -45.200 159.840   1
  -7   7   4 40.2100 54.7700   1
  -7   7   4 70.7300 104.820   1
  -7  -8   1 41.3600 44.7800   1
   7   8  -1 -31.900 45.9900   1
  -7   8   1 39.4500 41.9400   1
   7  -8  -1 -0.2100 50.3000   1
  -7  -8   1 -53.720 117.640   1
  -7   8   1 1.43000 69.4800   1
  -6  -9  -1 -69.780 57.6400   1
  -6  -9  -1 337.070 96.4000   1
   6  -9   1 110.540 56.7800   1
  -6  -9  -1 257.970 154.180   1
   6  -9   1 210.940 61.5300   1
   1  -3  10 77.3400 68.6400   1
   1   3  10 -74.820 55.8900   1
   1   3  10 -203.90 73.2600   1
   1   3  10 43.9800 44.2500   1
  -4  -8  -6 31.0900 186.380   1
   4  -8   6 96.7100 50.0500   1
  -4  -8  -6 153.110 94.9800   1
  -4  -8  -6 -13.490 49.9100   1
   4  -8   6 46.0100 69.6600   1
  -1   6   9 -31.520 37.9000   1
  -1   6   9 52.0800 46.5300   1
  -1  -6   9 77.3800 69.9800   1
  -1   6   9 299.440 102.270   1
   1  -6  -9 -143.93 117.090   1
  -1  -6   9 32.1700 46.0500   1
  -1   6   9 29.0700 79.6600   1
   0  -6   9 99.7300 44.0700   1
   0   6   9 62.4600 47.0400   1
   0  -6   9 -68.150 77.2300   1
   0  -6  -9 -30.960 89.9700   1
   0   6   9 396.530 113.330   1
   9   1   3 245.340 69.9300   1
   9  -1   3 61.9800 54.0800   1
   9  -1   3 115.820 63.7500   1
   8  -2   5 94.4800 56.8500   1
  -8  -2  -5 46.7900 77.6900   1
   8  -2   5 19.8000 39.9900   1
   8   2   5 7.49000 42.7700   1
  -4 -10  -3 136.570 69.2600   1
   4 -10   3 -59.440 45.2600   1
   4 -10   3 -213.37 214.360   1
  -4 -10  -3 -258.76 183.530   1
  -5 -10   0 -208.89 119.200   1
   5 -10   0 -170.78 98.6400   1
  -5 -10   0 115.150 84.6900   1
  -5 -10   0 90.7400 61.8000   1
   5 -10   0 -52.710 55.1400   1
   5 -10   0 -88.010 50.5300   1
   9   3   2 21.2300 46.3000   1
   9  -3   2 -178.86 45.7600   1
  -2  11   3 202.750 64.7700   1
   2 -11  -3 102.640 53.6000   1
  -2 -11   3 -95.230 213.470   1
   2 -11  -3 -424.10 120.790   1
  -2 -11   3 274.020 82.3700   1
  -6  -9   2 9.56000 43.3700   1
  -6  -9   2 52.7900 115.380   1
   6  -9  -2 18.1700 38.1100   1
  -6   9   2 119.030 58.8400   1
  -2  -7  -8 -214.23 138.010   1
   2  -7   8 97.0800 54.2800   1
   2   7   8 -34.460 76.5900   1
   2  -7   8 7.08000 32.8800   1
   2   7   8 66.0600 53.3100   1
  -5 -10   1 44.9400 49.5900   1
   5 -10  -1 -12.230 101.040   1
  -5 -10   1 225.280 134.390   1
   5 -10  -1 -65.380 53.1400   1
   5 -10  -1 -42.900 35.6800   1
   9   2  -4 629.770 97.5200   1
   9  -2  -4 760.180 115.670   1
   6  -4   7 157.820 64.7600   1
  -6  -4  -7 287.380 109.880   1
  -6  -4  -7 89.7100 100.650   1
   6  -4   7 97.7600 48.9700   1
   9   4  -2 41.7900 44.1300   1
  -9  -4   2 105.280 53.0200   1
   9  -4  -2 -16.000 43.0400   1
   8  -6  -3 212.510 52.4300   1
   8   6  -3 136.690 57.6300   1
  -8  -6   3 -73.700 89.2500   1
  -8   6   3 130.380 52.3100   1
  -8  -6   3 -36.630 36.7800   1
  -8   6   3 -51.950 46.7400   1
  -3  -7   8 129.070 72.1100   1
  -3   7   8 18.2400 58.8900   1
   3  -7  -8 -74.090 97.3400   1
  -3   7   8 -134.52 61.9000   1
  -3  -7   8 14.4800 48.8700   1
  -3   7   8 66.5000 46.3700   1
   2   2  10 5.93000 61.5700   1
   2  -2  10 114.450 61.4700   1
   3 -11  -2 49.2200 45.3500   1
  -3 -11   2 -18.910 121.160   1
  -3 -11   2 207.280 62.4700   1
   3 -11  -2 50.4100 32.3300   1
   3 -11  -2 128.170 115.510   1
   8  -6   2 -34.790 43.9500   1
   8   6   2 65.3500 38.4700   1
  -8  -6  -2 57.7100 45.3000   1
  -8  -6  -2 -85.680 178.170   1
  -4  -7  -7 -208.33 154.270   1
  -4  -7  -7 -63.490 90.9500   1
   4  -7   7 134.890 55.6600   1
  -6  -7  -5 327.260 138.670   1
   6  -7   5 -54.460 40.5000   1
  -6  -7  -5 -40.810 38.8300   1
   9   4   1 126.940 42.1900   1
   9  -4   1 79.9200 41.7500   1
   2 -10   5 -36.130 58.4400   1
   2 -10   5 -59.440 109.660   1
  -2 -10  -5 187.510 73.5100   1
  -2 -10  -5 52.3000 54.0400   1
   2 -10   5 77.5100 62.0300   1
  -2 -10  -5 -546.84 189.270   1
   5  -3  -9 -35.440 46.0400   1
  -5   3   9 -108.36 60.6200   1
  -5   3   9 69.3400 51.0900   1
  -5  -3   9 -168.83 62.4300   1
  -7   8  -1 60.6300 50.6300   1
  -7  -8  -1 179.570 63.8000   1
  -7  -8  -1 -6.8100 55.2900   1
  -7  -8  -1 230.710 207.370   1
   7  -8   1 95.2500 48.1600   1
   7   8   1 20.8200 62.7500   1
  -7  -8   2 10.4800 109.430   1
  -7  -8   2 107.780 54.0700   1
   7   8  -2 209.730 58.2300   1
   7  -8  -2 -108.16 42.7700   1
  -7   8   2 -40.080 50.0900   1
  -7   8   2 16.9800 56.7800   1
   5 -10   1 109.650 41.8200   1
  -5 -10  -1 143.410 66.4300   1
  -5 -10  -1 210.310 169.510   1
   5 -10   1 111.320 107.070   1
  -5 -10  -1 157.920 64.8100   1
   5 -10   1 127.550 58.8500   1
   2 -11   3 119.270 54.5200   1
   2 -11   3 39.4400 54.5700   1
  -2 -11  -3 -13.240 54.7700   1
   2 -11   3 15.7100 290.290   1
  -2 -11  -3 58.3100 145.310   1
  -4  -9  -5 311.390 239.660   1
   4  -9   5 -29.570 53.4600   1
  -4  -9  -5 102.180 56.4800   1
   4  -9   5 58.2800 45.4200   1
  -2  -6   9 -72.890 52.0800   1
  -2   6   9 -30.990 72.8200   1
   2  -6  -9 -44.510 109.670   1
  -2   6   9 29.0900 77.8800   1
  -2  -6   9 228.830 68.1900   1
  -2   6   9 60.1700 43.0400   1
   5  -4   8 83.6900 34.9100   1
   5   4   8 20.3900 65.5600   1
   5  -4   8 66.1500 56.4800   1
  -5  -4  -8 -42.240 104.690   1
   4  -3   9 152.700 73.0300   1
   4   3   9 72.5600 69.9500   1
   4  -3   9 41.0800 34.9900   1
   9   2   3 41.3500 37.8800   1
   9  -2   3 -18.880 42.9400   1
   1  -6   9 104.750 77.8200   1
   1   6   9 21.5400 49.6800   1
   1  -6   9 10.4200 41.7100   1
   1   6   9 0.12000 51.7500   1
  -1  -6  -9 -160.10 115.760   1
   1   6   9 -87.150 81.2600   1
  -5  -6  -7 -38.060 131.320   1
   5  -6   7 -103.08 38.3600   1
   5  -6   7 67.8200 53.1200   1
  -5  -6  -7 -113.22 86.5400   1
   8   3  -6 92.9400 46.3600   1
   8  -3  -6 -42.260 45.3500   1
  -1   4  10 114.860 44.5200   1
  -1   4  10 103.330 78.8900   1
  -1   4  10 55.6100 75.3000   1
  -1  -4  10 243.270 77.9000   1
  -5 -10   2 84.6000 116.540   1
   5 -10  -2 18.5500 110.630   1
   5 -10  -2 -84.900 37.1500   1
  -5 -10   2 85.3800 48.4600   1
  -3 -11  -2 32.1400 55.3700   1
   3 -11   2 104.550 52.9100   1
   3 -11   2 -105.05 158.120   1
  -3 -11  -2 165.520 128.860   1
  -6  -6  -6 -86.520 79.6900   1
  -6  -6  -6 361.500 158.400   1
   6  -6   6 56.5400 39.8600   1
   0  -4  10 131.120 60.9000   1
   0   4  10 -95.000 54.2100   1
   0   4  10 107.970 56.7800   1
   0   4  10 -134.75 60.2200   1
   6   4  -8 148.640 59.9700   1
  -6   4   8 0.79000 45.7200   1
  -6   4   8 2.16000 46.6900   1
  -6  -4   8 -80.520 79.8200   1
  -6   4   8 142.130 51.1100   1
  -6  -4   8 -47.730 37.2000   1
   6  -4  -8 20.3400 50.5400   1
  -5  -8   6 -596.51 203.000   1
   5  -8  -6 -144.17 93.3200   1
  -5   8   6 63.1200 44.8000   1
   5  -8  -6 22.4900 36.2500   1
  -5   8   6 -33.810 60.0800   1
  -7  -4  -6 106.040 87.1100   1
   7  -4   6 140.860 47.1700   1
   7  -4   6 116.430 60.4000   1
  -7  -4  -6 -193.66 107.520   1
  -4  10   4 75.2800 50.0800   1
   4 -10  -4 71.0000 185.970   1
  -4 -10   4 -20.150 203.990   1
   4 -10  -4 81.4300 33.4300   1
  -4 -10   4 10.5200 44.3000   1
  -6   7   6 140.420 46.5300   1
  -6  -7   6 247.030 55.6100   1
  -6   7   6 -119.07 138.780   1
  -6  -7   6 352.660 360.260   1
   6  -7  -6 181.110 54.3400   1
  -5  -7   7 -18.560 63.1100   1
  -5   7   7 135.260 49.0500   1
  -5  -7   7 3.34000 42.1200   1
   5  -7  -7 -156.52 69.2700   1
   5  -7  -7 68.1600 44.7500   1
  -5   7   7 153.710 88.1500   1
   0 -11   4 -14.820 56.3400   1
   0  11  -4 45.9300 54.3300   1
   0 -11  -4 -505.98 184.070   1
   0 -11   4 -158.93 303.340   1
   0 -11  -4 -18.390 78.9400   1
   0 -11  -4 -13.630 50.4400   1
  -7  -4   7 168.440 59.1100   1
   7  -4  -7 175.780 46.5400   1
   7   4  -7 515.220 91.3200   1
  -7   4   7 175.780 55.0100   1
  -7  -4   7 142.030 44.0200   1
  -7   4   7 66.3800 44.8600   1
  -4   0  10 269.340 74.9700   1
   6   0   8 850.530 133.530   1
   6   0   8 1137.58 319.030   1
  -6  -9  -2 -29.130 164.550   1
  -6  -9  -2 69.8400 52.1700   1
   6  -9   2 -386.37 171.200   1
   6  -9   2 102.080 47.3700   1
   6  -9   2 32.3100 50.8800   1
  -6  -8  -4 377.400 73.3600   1
  -6  -8  -4 -106.15 210.800   1
   6  -8   4 294.780 63.4500   1
   5  -9   4 60.6200 40.6900   1
   5  -9   4 -64.650 39.6200   1
  -5  -9  -4 -111.11 245.430   1
  -5  -9  -4 5.15000 49.1400   1
  -3  -3  10 -39.210 69.8100   1
  -3   3  10 143.000 64.2600   1
  -3   3  10 -26.730 55.8300   1
  -3   3  10 -117.06 42.9500   1
  -1  11   4 -161.32 49.7500   1
   1  11  -4 230.880 55.2700   1
   1 -11  -4 60.4500 182.920   1
  -1 -11   4 -436.40 205.530   1
   1 -11  -4 76.1100 64.8200   1
  -1 -11   4 42.6200 46.4100   1
  -3 -10   5 -58.930 52.6900   1
  -3  10   5 99.2600 50.5200   1
  -3 -10   5 -187.25 212.970   1
   3 -10  -5 348.970 200.310   1
   8  -3   5 2.37000 41.7300   1
   8   3   5 13.7400 44.6500   1
  -8  -3  -5 -140.10 95.3500   1
  -3  -8  -7 -81.830 170.790   1
  -3  -8  -7 36.5700 48.5100   1
   3  -8   7 -29.800 38.2500   1
  -3  -8  -7 -29.250 90.5100   1
   3  -8   7 183.110 66.2100   1
   0  -9  -7 -194.05 129.670   1
   0   9   7 -16.440 61.7300   1
   0  -9   7 22.4100 58.4900   1
   0   9   7 70.4600 50.6000   1
   0  -9   7 -16.670 40.8900   1
   7   0   7 28.5800 37.3600   1
   7   0   7 -87.510 82.7900   1
  -4   1  10 73.9800 61.9200   1
  -4  -1  10 -67.730 67.1600   1
  -1  -9   7 21.7700 55.5300   1
  -1   9   7 -103.76 70.4100   1
  -1   9   7 44.9700 45.2300   1
  -1   9   7 130.920 57.9400   1
   1  -9  -7 47.9700 121.490   1
  -1  -9   7 -68.280 46.0500   1
  -3  -9  -6 2.50000 44.2300   1
   3  -9   6 41.6100 45.5800   1
  -3  -9  -6 562.730 231.740   1
   3  -9   6 -45.950 44.4000   1
   6  -1   8 104.110 35.1200   1
   6   1   8 82.0700 78.4200   1
   6  -1   8 198.270 65.9200   1
  -6  -9   3 -37.280 132.230   1
   6  -9  -3 29.1000 35.6300   1
  -6   9   3 940.230 218.060   1
  -6  -9   3 -1.1200 50.3800   1
  -6   9   3 90.9800 64.1300   1
   9   4  -3 44.3300 41.4300   1
   9  -4  -3 -25.520 54.8500   1
  -9  -4   3 -0.1200 42.1100   1
   7   0  -8 688.560 111.320   1
  -7   0   8 669.510 113.670   1
   9  -3  -4 107.130 44.3700   1
   9   3  -4 78.9100 47.9900   1
   2   3  10 -99.330 42.4900   1
   2  -3  10 -85.770 73.2400   1
   2   3  10 73.3300 77.3600   1
   2   3  10 53.7700 48.7000   1
  -2   4  10 101.630 78.6200   1
  -2  -4  10 107.820 69.5900   1
  -2   4  10 34.2400 50.3200   1
  -2   4  10 -21.470 59.4500   1
  -6  -6   7 81.1100 44.5200   1
  -6   6   7 -147.52 80.7400   1
   6  -6  -7 -43.070 45.9400   1
   3   0  10 -74.170 60.5300   1
  -1 -11  -4 63.5900 175.260   1
   1 -11   4 -271.07 87.1700   1
   1 -11   4 -0.2100 59.6500   1
  -1 -11  -4 46.3900 51.6200   1
  -1 -11  -4 -84.580 79.7600   1
   1 -11   4 261.430 303.020   1
   7  -1   7 27.8700 33.4400   1
   7   1   7 25.0500 45.3200   1
   7   1   7 132.390 75.8100   1
   7  -1   7 7.42000 64.0900   1
  -6  -8   5 10.6600 44.7000   1
  -6  -8   5 84.0500 212.130   1
   6  -8  -5 -33.320 37.8300   1
  -6   8   5 59.5700 64.7200   1
  -6   8   5 163.270 60.5300   1
   9   0  -5 64.7800 41.1300   1
  -4   5   9 166.530 62.5800   1
  -4   5   9 311.030 78.8200   1
  -4  -5   9 212.610 72.6700   1
  -4  -5   9 214.300 49.3000   1
  -4   5   9 256.630 59.9400   1
  -7  -1   8 39.5300 62.8700   1
   7  -1  -8 -51.600 43.6100   1
   7   1  -8 -13.430 40.1000   1
  -7   1   8 -42.270 59.9100   1
   8   7  -1 32.0000 51.8600   1
  -8   7   1 -146.18 69.5300   1
   8  -7  -1 54.5900 43.4700   1
  -8  -7   1 43.5700 42.9700   1
  -8   7   1 6.72000 37.6100   1
  -8  -7   1 41.0100 120.040   1
   0  -8  -8 9.40000 148.260   1
   0   8   8 141.750 55.8100   1
   0  -8   8 -106.95 51.6400   1
   0  -8   8 -84.620 65.9600   1
   0   8   8 -326.69 88.0500   1
   1   4  10 7.15000 74.4500   1
   1   4  10 -9.6800 82.4600   1
   1  -4  10 -131.86 54.5800   1
   1   4  10 88.8500 49.4400   1
  -1   8   8 32.7100 53.3900   1
  -1  -8   8 0.81000 53.4100   1
   1  -8  -8 119.650 154.300   1
  -1   8   8 145.040 58.0700   1
  -1   8   8 -6.7900 75.9800   1
  -1  -8   8 1.46000 58.4100   1
  -5 -10  -2 497.570 201.090   1
   5 -10   2 53.7000 49.6200   1
  -5 -10  -2 165.790 54.8900   1
   5 -10   2 114.680 47.6200   1
   5 -10   2 233.110 174.960   1
  -8   7   0 7.97000 40.7500   1
  -8  -7   0 -88.100 43.0700   1
  -8  -7   0 -107.05 157.580   1
   8  -7   0 -146.02 34.3200   1
   4  -8  -7 -9.9400 95.8300   1
  -4   8   7 -62.360 61.7600   1
  -4  -8   7 222.510 70.4500   1
  -4   8   7 63.5600 43.6600   1
  -4  -8   7 100.400 46.6700   1
  -3  -5  -9 29.6900 138.620   1
   3   5   9 62.3600 49.6800   1
   3   5   9 -8.7800 31.2700   1
   3  -5   9 5.62000 58.3200   1
   3   5   9 -77.010 84.1100   1
  -8   5   5 0.01000 54.1000   1
   8  -5  -5 64.5400 43.3900   1
  -8   5   5 -59.320 39.8400   1
   8   5  -5 -11.130 50.9800   1
  -8  -5   5 -28.450 46.4800   1
  -3 -11   3 193.340 206.740   1
   3 -11  -3 -24.650 38.8700   1
   3 -11  -3 -123.56 48.8900   1
  -3 -11   3 -35.720 43.2100   1
   3 -11  -3 571.570 170.510   1
  -7  -8  -2 205.910 66.9800   1
  -7  -8  -2 447.360 186.650   1
   7  -8   2 -33.630 37.8900   1
   7   8   2 74.4300 48.7300   1
   0  12   0 13.8900 42.2900   1
   0 -12   0 62.2700 65.9600   1
   0 -12   0 23.7900 103.600   1
   3  -1  10 -31.500 64.8000   1
   3   1  10 -165.47 63.2800   1
   9   4   2 29.3600 42.4400   1
   9  -4   2 263.390 58.9700   1
  -7   8   3 48.5700 73.2900   1
  -7  -8   3 41.3300 50.9100   1
   7   8  -3 -129.77 63.2600   1
   7  -8  -3 77.9200 40.8400   1
  -7  -8   3 -237.37 106.760   1
  -7   8   3 132.950 86.6000   1
   9   1  -5 346.140 65.5000   1
   9  -1  -5 203.370 50.1900   1
   9   5  -1 82.8800 47.8200   1
   9  -5  -1 215.240 51.4100   1
  -9  -5   1 104.140 53.5300   1
  -9   5   1 33.1200 35.9900   1
   6   0  -9 -0.5000 46.4700   1
  -6   0   9 -11.060 65.4700   1
   1  -9   7 -8.5400 60.4500   1
   1   9   7 18.8100 39.2600   1
   1  -9   7 -21.840 45.8500   1
  -1  -9  -7 127.010 128.960   1
  -4 -11   0 160.800 71.5300   1
   4 -11   0 114.230 39.4500   1
  -4 -11   0 87.2200 107.420   1
  -4 -11   0 318.700 73.4200   1
   4 -11   0 45.8400 110.490   1
   4 -11   0 240.960 60.8500   1
   5  -9  -5 88.9000 44.2600   1
  -5   9   5 95.0600 57.9200   1
  -5  -9   5 88.6100 61.4500   1
  -5  -9   5 159.520 236.170   1
   5  -9  -5 52.6400 117.230   1
   0 -10  -6 109.370 63.8200   1
   0 -10   6 -20.750 49.0700   1
   0 -10  -6 -31.480 206.000   1
   9  -3   3 -24.740 49.7100   1
   9   3   3 19.6200 39.8000   1
   4  -6   8 33.8600 64.7500   1
   4   6   8 -51.950 75.7900   1
  -4  -6  -8 155.500 134.440   1
  -9  -5   0 76.3200 45.3300   1
   9   5   0 26.9200 45.4300   1
   9  -5   0 16.7600 42.3100   1
  -8  -6   4 50.2200 41.4400   1
   8   6  -4 49.5600 51.6900   1
   8  -6  -4 21.5500 57.2600   1
  -8  -6   4 330.080 117.710   1
  -8   6   4 93.5100 47.0900   1
  -8   6   4 89.5900 60.6500   1
  -4  -2  10 124.020 62.2000   1
   1  10  -6 73.3400 43.7500   1
  -1 -10   6 29.5300 45.1000   1
   1 -10  -6 219.130 238.560   1
  -1  10   6 204.790 67.2400   1
  -1  10   6 -0.4700 44.8300   1
  -1 -10   6 6.12000 49.4500   1
   4 -11  -1 102.640 38.4700   1
   4 -11  -1 -20.880 103.390   1
  -4 -11   1 -0.2500 100.900   1
  -4 -11   1 -150.54 56.1600   1
   4 -11  -1 -23.630 54.1600   1
  -4 -11   1 -38.770 83.9800   1
   0 -12  -1 340.200 134.480   1
   0 -12   1 -119.87 135.650   1
   0 -12  -1 171.530 64.9200   1
   0  12  -1 -96.660 52.3100   1
   0 -12   1 134.890 59.8800   1
   8   5   4 73.4000 41.6000   1
   8  -5   4 6.52000 37.4100   1
  -8  -5  -4 178.870 133.510   1
   4  -9  -6 14.9100 117.030   1
  -4   9   6 -68.990 52.1500   1
  -4  -9   6 131.070 241.050   1
  -4  -9   6 19.8800 48.4100   1
   6  -2   8 91.3800 67.7200   1
   6   2   8 -18.410 73.4400   1
   6  -2   8 -4.2700 30.5400   1
  -3   6   9 -68.590 57.6500   1
  -3  -6   9 -108.70 48.2200   1
  -3   6   9 25.6200 138.850   1
   3  -6  -9 27.6000 112.170   1
  -3   6   9 37.4900 83.6500   1
  -3  -6   9 86.0700 58.9100   1
   2 -11  -4 -188.27 169.340   1
  -2 -11   4 368.690 234.980   1
  -2 -11   4 273.380 79.9700   1
  -2  11   4 177.590 69.4000   1
   2 -11  -4 232.640 69.4300   1
  -2  -9   7 47.6800 56.7800   1
  -2   9   7 -2.7500 91.8800   1
  -2   9   7 90.4300 49.0300   1
   2  -9  -7 81.9500 138.020   1
  -2  -9   7 -53.830 45.2400   1
  -2   9   7 29.2500 78.3000   1
   1 -12   0 27.8900 63.6500   1
  -1 -12   0 -10.920 55.8000   1
  -1  12   0 73.1100 42.8000   1
   1 -12   0 219.870 120.840   1
  -1 -12   0 -65.310 108.390   1
  -5 -10   3 114.140 60.7900   1
   5 -10  -3 -21.620 152.150   1
   5 -10  -3 8.38000 35.2400   1
  -5  10   3 -188.49 63.0700   1
  -5 -10   3 -554.31 123.490   1
   6  -1  -9 81.1500 40.3300   1
  -6   1   9 138.480 62.5100   1
  -6  -1   9 54.5100 56.0200   1
   6   1  -9 135.770 56.6600   1
  -5  -6   8 138.320 61.1800   1
  -5   6   8 82.9000 74.2200   1
  -5  -6   8 86.2400 44.0200   1
   5   0   9 -63.400 67.2900   1
  -7  -6  -5 53.8100 147.630   1
   7  -6   5 64.3200 41.4700   1
   2  -6   9 130.590 71.0800   1
  -2  -6  -9 -175.69 136.450   1
   2   6   9 36.2500 45.8500   1
   2   6   9 -39.960 36.3900   1
   2   6   9 -45.100 86.6800   1
  -8  -7   2 51.5300 52.8100   1
  -8   7   2 -17.320 39.1100   1
  -8  -7   2 17.1100 113.960   1
   8   7  -2 82.8300 56.8400   1
   8  -7  -2 60.5800 58.2200   1
  -8   7   2 4.65000 64.2800   1
   8   0  -7 32.0700 43.6100   1
  -8   0   7 26.2300 54.9500   1
  -5  -4   9 -244.01 66.8900   1
  -5  -4   9 -155.74 53.8300   1
  -5   4   9 -84.390 53.2800   1
  -5   4   9 -51.390 41.0400   1
  -5   4   9 161.940 57.0800   1
  -7   6   6 500.880 106.760   1
  -7  -6   6 438.360 96.4600   1
  -7   6   6 16.6500 66.9600   1
  -7  -6   6 378.310 276.690   1
   7  -6  -6 542.380 114.750   1
   7   6  -6 597.900 127.780   1
   7   2   7 -14.070 64.4100   1
   7  -2   7 9.29000 54.8600   1
   7  -2   7 158.560 51.4200   1
   9   0   4 315.700 89.5800   1
   9   0   4 322.310 81.6900   1
  -8  -6  -3 121.780 118.940   1
   8  -6   3 132.670 52.7600   1
   8   6   3 121.650 43.8100   1
   3   7   8 56.1600 46.0900   1
   3  -7   8 -59.280 62.1500   1
   3   7   8 -179.11 79.2800   1
  -3  -7  -8 507.440 170.190   1
  -7  -7  -4 127.930 130.390   1
   7  -7   4 104.100 50.6100   1
  -4 -10  -4 303.360 212.820   1
   4 -10   4 -5.1600 243.880   1
  -4 -10  -4 232.890 66.5700   1
   4 -10   4 185.200 65.2500   1
  -8  -7  -1 54.8900 53.0400   1
   8   7   1 4.81000 54.6200   1
   8  -7   1 26.9200 44.3100   1
  -8  -7  -1 -163.52 179.970   1
  -7   2   8 163.800 63.9600   1
   7  -2  -8 234.170 60.1400   1
   7   2  -8 267.170 85.4600   1
  -1  -8  -8 53.9600 149.230   1
   1  -8   8 106.420 47.5800   1
   1   8   8 5.70000 61.4700   1
   1   8   8 113.200 64.5700   1
   1  -8   8 115.770 56.0800   1
   7  -7  -5 141.250 55.7600   1
   7   7  -5 2.61000 51.6600   1
  -7   7   5 -96.940 80.6500   1
  -7  -7   5 455.330 213.530   1
  -7  -7   5 127.440 57.0300   1
   1 -12  -1 -326.78 113.460   1
   1 -12  -1 52.5400 77.4500   1
  -1 -12   1 -175.25 58.4700   1
  -1 -12   1 381.530 133.430   1
  -1 -12   1 97.4800 66.6200   1
   1 -12  -1 -3.3400 55.9400   1
  -1  12   1 -62.670 50.8400   1
  -6  -5  -7 121.500 99.6100   1
  -6  -5  -7 0.90000 88.3500   1
   6  -5   7 178.180 63.3200   1
   6  -5   7 -25.550 39.0600   1
  -4 -11  -1 -45.880 52.0100   1
   4 -11   1 -30.270 41.9000   1
  -4 -11  -1 -25.320 60.4300   1
  -4 -11  -1 145.810 140.020   1
   4 -11   1 162.650 56.2800   1
   5  -1   9 24.3700 75.8000   1
   5   1   9 -235.04 77.3200   1
  -4   7   8 -92.830 45.5700   1
  -4  -7   8 107.350 50.9200   1
   4  -7  -8 -18.180 88.6600   1
  -4   7   8 -242.00 76.8800   1
  -4   7   8 -24.180 70.0300   1
  -4  -7   8 -68.550 73.2200   1
   9   5  -2 -21.050 46.9600   1
   9  -5  -2 58.9200 48.1800   1
  -9   5   2 66.2100 43.3200   1
  -9  -5   2 26.2700 46.4200   1
  -2   8   8 -298.46 63.0200   1
  -2  -8   8 -104.42 45.0300   1
  -2   8   8 -40.750 45.8000   1
  -2   8   8 4.22000 59.6400   1
  -2  -8   8 -91.440 80.9500   1
   2  -8  -8 -248.47 115.280   1
  -2   8   8 -47.920 51.4600   1
   4   4   9 159.800 80.3800   1
   4  -4   9 104.530 48.3400   1
   4  -4   9 269.090 79.8800   1
  -1 -12  -1 228.130 69.6200   1
   1 -12   1 -49.820 56.4200   1
  -1 -12  -1 163.160 131.520   1
   1 -12   1 -60.700 139.490   1
  -1  12  -1 51.0500 47.8000   1
  -8  -1   7 143.020 66.3200   1
   8   1  -7 29.6100 48.5500   1
   8  -1  -7 28.4800 50.6800   1
  -8   1   7 144.350 57.2500   1
   3   2  10 -4.5100 69.4100   1
   3  -2  10 201.060 92.6300   1
   3 -10   5 -0.7300 65.4800   1
  -3 -10  -5 31.2300 87.1900   1
  -3 -10  -5 45.7800 52.6000   1
   3 -10   5 -28.420 40.2400   1
  -3 -10  -5 -450.31 196.950   1
   3 -10   5 44.9900 48.4100   1
   3 -11   3 6.79000 57.0700   1
  -3 -11  -3 -16.180 56.3100   1
   3 -11   3 220.350 218.520   1
  -3 -11  -3 -386.46 183.280   1
   9  -1   4 -1.4100 36.3000   1
   9   1   4 90.6800 45.8000   1
  -8  -4   6 238.870 68.0700   1
  -8   4   6 7.04000 45.2600   1
   8   4  -6 78.7500 47.4000   1
   8  -4  -6 78.3200 49.4800   1
   9  -2  -5 32.1500 44.8900   1
   9   2  -5 17.7300 43.9900   1
   1 -10   6 -62.530 41.7500   1
  -1 -10  -6 -23.920 55.0400   1
  -1 -10  -6 504.920 264.970   1
   1 -10   6 41.9800 56.4200   1
  10   0  -1 120.990 48.0500   1
   9  -5   1 -12.590 36.6000   1
   9   5   1 162.300 54.1500   1
   8   0   6 -31.330 75.2200   1
   8   0   6 116.940 49.8300   1
  10   0   0 82.8700 49.7400   1
  -2 -11  -4 -112.91 76.2400   1
   2 -11   4 64.0000 59.1600   1
   2 -11   4 -136.47 213.410   1
  -2 -11  -4 119.180 51.1100   1
   2 -11   4 65.4300 51.8400   1
  -2 -11  -4 169.270 175.100   1
  -4 -11   2 96.7700 58.1800   1
   4 -11  -2 -3.9400 51.5500   1
   4 -11  -2 17.4400 36.7700   1
   4 -11  -2 -118.81 119.480   1
  -4 -11   2 -180.22 129.080   1
  -3   4  10 120.780 76.8800   1
  -3   4  10 51.5300 58.9400   1
  -3   4  10 20.7300 52.8600   1
  -3  -4  10 173.040 84.7300   1
  10  -1  -1 564.860 117.280   1
  10   1  -1 568.620 124.630   1
  -2 -10   6 41.4500 47.9900   1
  -2 -10   6 11.6800 49.3200   1
   2 -10  -6 -235.59 196.730   1
  -2  10   6 77.6400 58.8800   1
  -2  10   6 -81.250 77.7100   1
  -2  10   6 -13.580 48.5000   1
   2  10  -6 13.9500 42.3100   1
   6  -9   3 -630.41 211.650   1
  -6  -9  -3 294.610 79.0900   1
  -6  -9  -3 95.9100 208.820   1
   6  -9   3 252.210 70.7000   1
   5  -5   8 248.930 63.4400   1
   5  -5   8 364.210 92.3500   1
   5   5   8 42.7700 78.4700   1
  -5  -5  -8 73.5100 113.100   1
  -6   2   9 45.6600 59.7800   1
  -6  -2   9 53.6800 54.6100   1
   6  -2  -9 31.9600 41.9000   1
   6   2  -9 -39.420 50.3100   1
  -8  -4  -5 59.0700 79.0600   1
   8  -4   5 47.0300 39.7600   1
   8   1   6 54.0200 81.3600   1
   8   1   6 58.1400 37.9400   1
   8  -1   6 8.85000 39.6100   1
   8  -1   6 75.1500 63.6100   1
   0 -12   2 -216.44 57.8900   1
   0 -12  -2 -45.630 150.320   1
   0 -12   2 -98.660 169.310   1
   0 -12  -2 -108.62 78.1500   1
   0 -12  -2 26.2600 45.7900   1
   0 -12   2 136.850 61.5700   1
   0  12  -2 27.6000 42.1500   1
  10   1   0 216.530 59.1600   1
  10  -1   0 -80.270 50.0700   1
  -1   5  10 85.9100 46.2900   1
  -1   5  10 204.160 101.000   1
  -1  -5  10 110.380 61.9200   1
   0  -5  10 74.8900 76.5400   1
   0   5  10 121.290 82.4000   1
   0  -5  10 28.0700 41.1500   1
   0   5  10 -49.520 77.9900   1
   0   5  10 73.1100 46.2100   1
  10   0  -2 128.030 46.8500   1
   9   4  -4 559.170 113.250   1
  -9  -4   4 358.540 87.3900   1
   9  -4  -4 652.170 130.150   1
   6  -5  -8 46.1800 44.4400   1
  -6  -5   8 253.140 84.9500   1
  -6   5   8 25.6900 47.3000   1
  -6  -5   8 120.070 45.4400   1
  -6   5   8 56.0300 42.1200   1
   5   2   9 37.4400 80.6100   1
   5  -2   9 7.11000 75.0400   1
   7  -5   6 -33.530 35.0600   1
  -7  -5  -6 33.6800 77.0100   1
  -7  -5  -6 -170.90 98.4700   1
   1  -7  -9 72.5700 107.020   1
  -1  -7   9 9.36000 36.6800   1
  -1  -7   9 97.9900 69.1600   1
  -1   7   9 -2.4600 47.1600   1
  -1   7   9 -11.440 39.5600   1
  -1   7   9 158.490 73.7500   1
  -1   7   9 -243.66 86.7800   1
   0  -7   9 -114.94 63.3200   1
   0   7   9 33.5700 67.7400   1
   0  -7  -9 151.830 135.040   1
   0   7   9 -35.600 54.7200   1
   0  -7   9 -12.130 33.4000   1
   0   7   9 -11.610 49.9600   1
   2   4  10 136.620 80.3400   1
   2   4  10 61.8600 58.4100   1
   2   4  10 -61.650 44.3600   1
   2  -4  10 38.2500 68.0300   1
  -2 -12   0 80.9800 60.8500   1
  -2 -12   0 -425.47 124.790   1
   2 -12   0 -280.55 113.030   1
   2 -12   0 -111.64 53.5800   1
  -2 -12   0 141.590 57.3800   1
  -2  12   0 6.23000 43.9600   1
  -8  -2   7 -47.570 47.4800   1
   8   2  -7 141.160 55.3800   1
   8  -2  -7 22.7400 45.2500   1
  -7  -5   7 51.5500 59.2800   1
  -7   5   7 -21.730 40.5000   1
  -7  -5   7 -63.460 46.4000   1
  -7   5   7 -87.030 42.9000   1
   7  -5  -7 31.5000 42.3200   1
   7   5  -7 250.700 75.5300   1
  -6   9   4 161.830 69.4200   1
  -6  -9   4 170.470 59.0700   1
  -6   9   4 -19.360 57.2300   1
   6  -9  -4 20.4000 42.5000   1
  -6  -9   4 -281.92 167.980   1
  -1 -12   2 14.7600 62.5900   1
   1 -12  -2 -116.67 119.500   1
  -1 -12   2 60.5200 135.520   1
  -1 -12   2 20.0000 61.9100   1
   1 -12  -2 56.6800 57.5500   1
  -1  12   2 18.1400 50.7800   1
   1 -12  -2 31.0800 67.7200   1
   9  -2   4 19.5600 43.5200   1
   9   2   4 112.920 42.5200   1
  -1   0  11 -96.540 67.6800   1
  -4  -3  10 160.060 82.9100   1
  -4   3  10 122.810 91.9600   1
   6   3   8 278.340 103.370   1
   6  -3   8 316.750 99.9100   1
   6  -3   8 61.6700 38.0900   1
   2  -9   7 -21.910 48.7400   1
  -2  -9  -7 211.690 153.250   1
   2  -9   7 -29.660 42.8100   1
  -2  -9  -7 33.0100 60.8900   1
  10  -1  -2 -55.430 41.8600   1
  10   1  -2 -2.7800 59.1100   1
   0   0  11 39.4700 63.5800   1
  -8   7   3 40.9100 63.2300   1
  -8  -7   3 219.260 115.460   1
   8  -7  -3 20.5000 44.1400   1
   8   7  -3 142.000 72.3600   1
  -8  -7   3 128.680 46.8700   1
   1 -12   2 -109.48 171.410   1
  -1  12  -2 45.1900 46.1400   1
   1 -12   2 -138.76 58.1400   1
   1 -12   2 -149.02 64.6000   1
  -1 -12  -2 -307.52 115.130   1
  -1 -12  -2 10.9800 55.7200   1
  -2 -12   1 -108.08 133.990   1
   2 -12  -1 106.290 121.860   1
   2 -12  -1 40.9300 38.9800   1
  -2  12   1 49.8600 55.2600   1
  -2 -12   1 93.7700 52.5500   1
   2 -12  -1 -25.140 66.3200   1
   2 -12  -1 64.7500 70.4500   1
  -2 -12   1 -9.5700 62.5500   1
   5 -10   3 30.1100 41.2700   1
   5 -10   3 -257.97 173.900   1
  -5 -10  -3 327.610 218.640   1
   5 -10   3 43.6200 52.4000   1
  10   0   1 4.52000 50.2800   1
  -5  -8  -6 -160.29 84.7000   1
   5  -8   6 -47.560 50.1000   1
  -5  -8  -6 -189.20 133.980   1
  -5  -8  -6 67.8700 45.4800   1
   5  -8   6 -13.140 66.4800   1
   4 -11   2 84.9900 46.1500   1
  -4 -11  -2 16.6200 59.2900   1
   4 -11   2 21.8200 41.9900   1
   4 -11   2 -146.19 164.760   1
  -4 -11  -2 365.150 161.520   1
  -7  -3  -7 25.8100 69.9100   1
   7   3   7 -146.72 81.0500   1
   7  -3   7 2.04000 45.0400   1
  -1   1  11 -25.010 76.3700   1
  -1  -1  11 101.120 76.1400   1
  -4  10   5 23.0200 55.3300   1
  -4 -10   5 -23.070 47.0200   1
  -4 -10   5 -754.01 195.240   1
   4 -10  -5 -220.71 187.670   1
   9  -5  -3 227.820 63.5700   1
  -9  -5   3 296.360 74.7300   1
  -9   5   3 246.750 64.4800   1
   9   5  -3 181.070 65.6900   1
   7  -3  -8 19.5300 42.1600   1
  -7  -3   8 226.590 80.7900   1
   7   3  -8 19.5600 53.2400   1
   7  -8   3 -10.130 41.8400   1
  -7  -8  -3 -41.690 224.670   1
  -7  -8  -3 -42.650 52.7000   1
  -2 -12  -1 415.900 99.1300   1
   2 -12   1 322.950 83.3700   1
   2 -12   1 105.980 113.950   1
  -2 -12  -1 121.730 122.970   1
   8  -7   2 10.5700 42.1900   1
  -8  -7  -2 -245.28 200.030   1
  -8  -7  -2 -31.400 47.3800   1
   8   7   2 -28.160 46.7600   1
  10  -2  -1 271.350 66.7700   1
  10   2  -1 256.250 64.4700   1
   7  -8  -4 249.200 66.0500   1
  -7   8   4 258.190 68.6400   1
  -7  -8   4 244.260 64.9900   1
  -7   8   4 39.9300 96.1900   1
   0   1  11 63.0500 69.3400   1
   0  -1  11 19.7300 61.4100   1
  -3   9   7 170.290 61.7600   1
  -3  -9   7 64.0700 69.7100   1
   3  -9  -7 -239.01 156.810   1
  -3  -9   7 -29.120 44.2600   1
   9  -4   3 94.2400 51.6900   1
   9   4   3 121.220 55.1400   1
  -2   5  10 77.8800 69.2000   1
  -2   5  10 -38.510 76.6000   1
  -2  -5  10 240.220 81.5600   1
   8   2   6 -60.690 74.8700   1
   8  -2   6 47.3600 63.8100   1
   8  -2   6 70.8900 43.4000   1
   8   2   6 73.3300 43.0300   1
  -8  -2  -6 -4.1200 74.4700   1
   3   3  10 0.51000 65.2500   1
   3  -3  10 173.430 72.9400   1
  10   1   1 622.460 127.350   1
  10  -1   1 685.190 175.230   1
  10   2   0 78.1500 46.0900   1
  10  -2   0 102.710 44.2400   1
   0 -11  -5 -358.85 233.870   1
   0 -11   5 1109.57 375.540   1
   0 -11  -5 341.460 83.9100   1
   0 -11   5 174.030 61.2100   1
  -3 -11   4 9.32000 46.4500   1
   3 -11  -4 49.8500 152.900   1
  -3 -11   4 -562.55 202.320   1
   3 -11  -4 2.88000 62.2500   1
   9   3  -5 -42.110 43.1800   1
   9  -3  -5 26.2300 57.8900   1
   2   8   8 6.46000 44.5300   1
  -2  -8  -8 -117.35 166.940   1
   2   8   8 -12.170 71.1800   1
   2  -8   8 99.6700 53.1800   1
  -2   7   9 -54.000 50.1700   1
  -2  -7   9 -136.27 67.1800   1
  -2   7   9 36.4800 77.9400   1
  -2  -7   9 -27.420 40.9000   1
   2  -7  -9 -19.460 90.4600   1
  -2   0  11 -99.170 89.1900   1
   1  -5  10 -6.4700 39.1200   1
   1   5  10 -109.22 114.630   1
   1   5  10 -65.560 66.1100   1
   1  -5  10 -151.63 63.8800   1
   1   5  10 -169.28 49.6100   1
  -1 -11   5 166.870 246.090   1
  -1  11   5 149.460 68.3800   1
   1 -11  -5 -105.42 56.1800   1
  -1 -11   5 -42.070 58.4100   1
   1  11  -5 -15.550 47.2000   1
   1 -11  -5 61.4900 193.210   1
  -5   0  10 37.3600 70.2000   1
  -3   8   8 12.1600 61.6700   1
   3  -8  -8 100.470 126.190   1
  -3   8   8 8.01000 66.7200   1
  -3  -8   8 -97.330 66.9600   1
  -3   8   8 97.9200 55.7800   1
  -3  -8   8 -60.180 44.1100   1
  -2 -10  -6 -20.760 50.0600   1
   2 -10   6 -193.49 53.5800   1
  -2 -10  -6 138.580 82.5900   1
   2 -10   6 171.460 57.1900   1
  -2 -10  -6 489.880 255.970   1
   1  -7   9 29.3300 65.1200   1
   1   7   9 -134.87 101.970   1
   1  -7   9 -47.620 33.6000   1
   1   7   9 54.9600 39.6700   1
   1   7   9 11.4800 65.2000   1
  -1  -7  -9 -265.44 100.230   1
   9   5   2 -49.830 37.8600   1
   9  -5   2 -35.290 35.0900   1
   5  -7   7 -44.170 37.2500   1
   5  -7   7 78.6400 49.1400   1
  -5  -7  -7 -264.97 157.560   1
  -5  -7  -7 -121.51 114.120   1
   6 -10   0 105.780 46.4300   1
  -6 -10   0 10.6800 126.620   1
  -6 -10   0 -5.0900 72.4900   1
  -6 -10   0 162.260 56.3200   1
  -6  -7  -6 -117.26 161.270   1
   6  -7   6 175.160 62.6700   1
  -6  -7  -6 103.910 99.6100   1
   5 -10  -4 -8.0900 183.760   1
   5 -10  -4 10.9900 33.6800   1
  -5 -10   4 -392.57 210.800   1
  -5 -10   4 28.2000 52.3300   1
  -5  10   4 -41.310 56.6400   1
   5  -9   5 -34.150 36.8000   1
  -5  -9  -5 152.170 200.300   1
  -5  -9  -5 56.8400 40.2400   1
  -6 -10   1 -1.0600 52.1500   1
  -6 -10   1 -41.460 113.860   1
   6 -10  -1 -44.290 47.9300   1
  -6  10   1 63.5000 67.0700   1
  10  -2  -2 486.360 99.7100   1
  10   2  -2 476.030 100.500   1
  -7  -9   0 187.510 90.7900   1
  -7  -9   0 -245.66 165.550   1
   7  -9   0 67.4800 48.3600   1
  -7  -9   0 220.590 62.6900   1
  -7   9   0 186.720 73.4000   1
  -4  -8  -7 -29.430 81.8300   1
   4  -8   7 -11.300 76.1500   1
  -4  -8  -7 -278.27 168.950   1
  -4  -8  -7 8.54000 55.0200   1
   4  -8   7 115.270 51.8000   1
  -7  -9   1 -85.870 119.400   1
   7  -9  -1 33.7200 50.0800   1
  -7   9   1 9.21000 50.1600   1
  -7   9   1 95.8500 61.9400   1
  -7  -9   1 24.6600 43.7700   1
   6  -8   5 -19.190 47.7000   1
  -6  -8  -5 297.820 117.350   1
  -6  -8  -5 -56.460 45.9400   1
  -2  -1  11 -33.050 70.5800   1
  -6   3   9 164.710 62.0900   1
   6  -3  -9 143.370 44.4600   1
  -6  -3   9 259.370 57.0700   1
  -4  -9  -6 -99.920 79.4900   1
   4  -9   6 32.8900 46.3400   1
  -4  -9  -6 152.030 50.8500   1
  -4  -9  -6 130.180 164.830   1
   5  -1 -10 -1.3200 47.1000   1
  -5   1  10 -23.990 67.0800   1
  -5  -1  10 21.9900 56.7800   1
   4 -11  -3 230.460 157.740   1
   4 -11  -3 40.8700 44.0700   1
  -4 -11   3 49.8000 45.7000   1
   4 -11  -3 -58.130 58.6700   1
  -4 -11   3 -44.770 147.750   1
   1   0  11 36.5100 61.3500   1
  10   0  -3 69.7700 45.5400   1
  -1   2  11 12.3100 74.5800   1
  -1  -2  11 60.4200 57.2500   1
  -2  12   2 164.890 52.4600   1
  -2 -12   2 164.860 56.5000   1
  -2 -12   2 293.860 143.440   1
   2 -12  -2 -86.850 113.260   1
   2 -12  -2 -53.810 39.7300   1
   2 -12  -2 84.7000 58.6700   1
  -2 -12   2 -69.840 60.2300   1
  -4   6   9 -64.260 66.0500   1
  -4  -6   9 -47.990 88.8000   1
  -4   6   9 -44.580 69.3900   1
  -4  -6   9 -15.550 50.0500   1
  -4   6   9 89.4300 42.9500   1
   1 -11   5 39.8700 50.3900   1
  -1 -11  -5 -14.300 52.0300   1
  -1 -11  -5 -131.65 78.0200   1
   1 -11   5 -631.60 257.190   1
  -1 -11  -5 -922.72 208.040   1
   0  -2  11 34.2600 67.3600   1
   0   2  11 -149.41 76.0800   1
   5   3   9 446.270 152.000   1
   5  -3   9 251.270 51.9400   1
   3  -6   9 -15.340 55.3800   1
   3   6   9 17.5500 25.7700   1
   3   6   9 104.980 76.0300   1
  -3  -6  -9 123.820 96.0800   1
   3   6   9 -33.500 51.1900   1
  -8  -6   5 186.310 50.7300   1
  -8   6   5 47.2100 38.9600   1
  -8   6   5 145.900 68.6300   1
   8   6  -5 86.0500 65.9800   1
   8  -6  -5 94.2200 53.3100   1
   8   3  -7 17.7100 45.0400   1
   8  -3  -7 52.5500 43.9200   1
  -8  -3   7 33.9000 53.2400   1
  -5   5   9 115.540 54.0500   1
  -5   5   9 -26.090 40.0300   1
  -5  -5   9 -14.790 58.3800   1
  -5   5   9 -104.40 61.4200   1
  -5  -5   9 29.6800 46.4400   1
  -3 -10   6 -14.030 44.1900   1
  -3  10   6 4.85000 52.5500   1
   3 -10  -6 193.180 153.030   1
  -3 -10   6 -214.73 280.020   1
   1   1  11 -43.640 110.320   1
   1  -1  11 135.700 72.2500   1
  10  -1  -3 89.8400 42.2000   1
  10   1  -3 22.8200 49.5000   1
  10   2   1 58.0300 42.9600   1
  10  -2   1 58.3700 50.0500   1
   4   0  10 -22.290 70.8000   1
   9   3   4 -27.460 50.2500   1
   9  -3   4 -39.090 39.1900   1
   0  12  -3 -69.550 42.5900   1
   0 -12   3 143.000 58.5100   1
   0 -12  -3 -27.700 52.0300   1
   0 -12  -3 158.140 73.9500   1
   0 -12   3 23.6900 71.9900   1
   0 -12   3 -569.27 253.880   1
   0 -12  -3 170.010 151.100   1
   9   0  -6 159.550 46.4000   1
   6 -10   1 -38.090 36.7700   1
  -6 -10  -1 56.1300 149.830   1
  -6 -10  -1 -154.68 51.9400   1
   6 -10   1 -88.190 45.4900   1
  -6 -10  -1 68.0900 54.8600   1
   2 -12   2 202.850 162.310   1
   2 -12   2 -5.3600 54.8700   1
  -2 -12  -2 171.980 67.0300   1
   9  -6  -1 26.8100 46.4300   1
   9   6  -1 -29.630 50.6300   1
  -9  -6   1 -5.2300 48.5200   1
   4   5   9 82.5100 78.4000   1
  -4  -5  -9 158.730 103.470   1
   4  -5   9 43.5400 67.7200   1
  -6  -8   6 172.480 237.890   1
   6  -8  -6 8.80000 44.5600   1
  -6   8   6 -75.140 96.5200   1
  -6  -8   6 -122.71 40.8700   1
  -6   8   6 143.090 67.5000   1
  -5  -8   7 184.700 56.0700   1
   5  -8  -7 -132.11 92.1800   1
  -5   8   7 117.380 92.1500   1
  -5  -8   7 -11.420 40.8000   1
  -5   8   7 315.910 52.6600   1
  -9  -6   0 -72.210 43.4600   1
   9   6   0 53.0100 50.5600   1
   9  -6   0 -3.9800 45.9900   1
  -6  -7   7 148.900 58.1600   1
  -6  -7   7 -61.190 51.9000   1
   6  -7  -7 98.1500 35.8900   1
  -6   7   7 -49.610 96.3000   1
  -7   9  -1 -36.420 46.7900   1
  -7  -9  -1 135.640 50.2100   1
   7  -9   1 -89.090 48.0900   1
  -7  -9  -1 -45.320 50.7200   1
  -7  -9  -1 -25.890 156.800   1
  -7  -9   2 149.010 146.190   1
  -7   9   2 19.5400 71.9100   1
  -7  -9   2 -9.3400 47.8600   1
  -7   9   2 44.2100 48.3400   1
   4  -1  10 -149.10 67.3500   1
   4   1  10 24.8000 70.7400   1
  -1 -12   3 350.220 64.2000   1
  -1 -12   3 389.870 138.610   1
  -1 -12   3 540.480 281.960   1
   1 -12  -3 -202.58 130.260   1
   1 -12  -3 238.320 53.2100   1
   1 -12  -3 333.780 73.9000   1
   1  12  -3 351.500 47.8200   1
  -1  12   3 369.810 120.410   1
   8  -5  -6 -7.5900 50.2000   1
  -8   5   6 60.5300 52.6700   1
  -8  -5   6 -102.39 48.0500   1
   8   5  -6 -79.040 52.8900   1
  -8   5   6 -44.290 39.4000   1
   6 -10  -2 13.2500 41.2100   1
  -6 -10   2 180.980 110.150   1
  -6 -10   2 45.1300 50.7000   1
  -6  10   2 63.2300 56.3700   1
  -8  -6  -4 235.370 146.140   1
   8  -6   4 185.050 44.6400   1
  -2  11   5 -43.860 57.3100   1
  -2 -11   5 60.4000 51.5500   1
   2 -11  -5 -84.480 58.2700   1
  -2 -11   5 -243.63 315.570   1
   2 -11  -5 91.1800 210.110   1
   2  11  -5 -20.040 40.1200   1
   9   1  -6 -20.430 49.3400   1
   9  -1  -6 -38.020 44.7200   1
   3 -11   4 238.850 84.9000   1
   3 -11   4 148.670 49.1800   1
  -3 -11  -4 340.650 54.8300   1
  -3 -11  -4 -410.69 177.210   1
   3 -11   4 -143.94 247.610   1
  10   0   2 101.190 48.4200   1
  10  -3  -1 127.560 49.3000   1
  10   3  -1 -36.980 41.5000   1
  -2   2  11 -15.410 70.2300   1
  -2  -2  11 -25.430 63.8700   1
  -5   2  10 -28.450 76.9000   1
  -5  -2  10 176.510 70.3000   1
   8  -3   6 37.7900 39.5900   1
  -8  -3  -6 14.3500 69.2100   1
  10  -3   0 36.5700 45.1800   1
  10   3   0 80.4000 48.5000   1
  -4   4  10 9.66000 44.7000   1
  -4   4  10 252.380 72.8500   1
  -4  -4  10 221.870 59.6900   1
  -4   4  10 -14.090 53.1900   1
  -1 -12  -3 112.410 91.1900   1
  -1  12  -3 -67.850 41.5700   1
   1 -12   3 14.6100 103.570   1
  -1 -12  -3 -46.550 54.6500   1
   1 -12   3 43.0500 87.1900   1
   1 -12   3 86.7000 263.690   1
  -1 -12  -3 -132.04 167.270   1
  -3 -12   0 -58.540 59.7800   1
   3 -12   0 -6.1900 51.0100   1
  -3 -12   0 180.200 60.6300   1
   3 -12   0 18.7500 39.6700   1
  -3 -12   0 566.950 206.520   1
   3 -12   0 337.360 144.350   1
   6  -4   8 16.3300 55.0300   1
   6  -4   8 61.6300 35.8400   1
   6   4   8 -183.50 79.3300   1
  -6  -4  -8 -22.730 101.390   1
  10  -1   2 38.8800 41.2000   1
  10   1   2 15.0400 40.3000   1
  -3   5  10 -114.18 41.1000   1
  -3  -5  10 -26.330 59.9800   1
  -3   5  10 -13.910 90.5500   1
  -3   5  10 78.1800 54.7100   1
  -5   9   6 -82.580 56.4400   1
  -5   9   6 20.5800 52.7100   1
  -5  -9   6 119.990 57.5100   1
   5  -9  -6 63.1300 124.480   1
  -5  -9   6 -152.85 270.900   1
  -6  -6  -7 -154.03 115.110   1
  -6  -6  -7 95.0100 81.5600   1
   6  -6   7 -23.860 52.2500   1
   9   6  -2 -4.4100 56.0200   1
  -9   6   2 56.4200 43.0700   1
   9  -6  -2 45.7800 54.2700   1
  -8  -5  -5 83.0800 100.050   1
   8  -5   5 -104.56 43.4600   1
   4   7   8 38.5200 68.5200   1
   4  -7   8 -24.230 52.5700   1
  -4  -7  -8 616.760 272.720   1
  -4 -11  -3 -976.33 259.930   1
   4 -11   3 -15.890 228.590   1
  -4 -11  -3 64.9800 58.2800   1
   1   2  11 63.6400 62.7000   1
   1  -2  11 -140.59 67.8500   1
   5 -11   0 -27.980 45.0800   1
  -5 -11   0 0.60000 110.630   1
   5 -11   0 148.530 101.640   1
  -5 -11   0 68.5500 66.9400   1
   5 -11   0 257.780 212.960   1
  -5 -11   0 -131.42 58.8900   1
  10  -2  -3 -3.1900 45.1000   1
  10   2  -3 99.6900 51.4500   1
  -3 -12   1 -343.88 118.650   1
  -3 -12   1 199.150 63.3200   1
  -3 -12   1 -40.280 59.2100   1
   3 -12  -1 29.2700 51.0000   1
   3 -12  -1 40.4100 212.430   1
   3 -12  -1 29.2700 47.3700   1
  -8  -7   4 -81.500 106.980   1
   8   7  -4 111.600 63.6700   1
   8  -7  -4 -79.360 51.2400   1
  -8   7   4 79.6200 63.3400   1
  -8  -7   4 -5.2100 47.1500   1
  -7  -4  -7 -57.680 97.8700   1
   7  -4   7 -41.360 61.3600   1
  -7  -4  -7 67.3600 126.020   1
  -3   0  11 -0.2100 66.3000   1
   4 -10   5 88.3500 41.5700   1
  -4 -10  -5 -575.75 368.700   1
  -4 -10  -5 70.3700 78.8600   1
   4 -10   5 121.570 56.7400   1
  -4 -10  -5 129.610 57.5200   1
  -5 -11   1 365.840 114.370   1
   5 -11  -1 132.290 73.6900   1
  -5 -11   1 -73.630 108.670   1
   5 -11  -1 -38.720 40.8600   1
  -5 -11   1 -56.610 48.4600   1
   5 -11  -1 354.010 96.4800   1
  -6  -9  -4 35.9200 41.1500   1
   6  -9   4 -15.640 38.3900   1
  -6  -9  -4 -26.980 283.820   1
   6  -9   4 -24.950 221.860   1
  -3   7   9 -18.580 48.0800   1
  -3  -7   9 30.2400 57.1300   1
  -3   7   9 147.960 106.360   1
   3  -7  -9 16.1600 105.710   1
  -3   7   9 -22.120 78.7600   1
  -3  -7   9 -33.880 41.9900   1
   7   4  -8 52.7500 61.7100   1
   7  -4  -8 65.5900 34.3300   1
  -7  -4   8 -87.380 53.2600   1
  -7   4   8 41.7900 40.4100   1
  10  -3  -2 84.6600 46.6200   1
  10   3  -2 -44.450 47.1800   1
   9   5  -4 -2.0500 47.7900   1
   9  -5  -4 -91.580 44.1700   1
  -9   5   4 23.7300 53.5300   1
  -9  -5   4 79.2400 50.2800   1
  -8   8   1 -31.930 77.7600   1
  -8  -8   1 117.420 136.480   1
   8  -8  -1 101.930 43.4800   1
   8   8  -1 117.480 71.5000   1
  -8   8   1 157.370 44.9800   1
  -8  -8   1 123.340 54.2600   1
  -5  -7   8 366.060 76.6500   1
   5  -7  -8 -63.300 113.350   1
  -5  -7   8 35.3000 47.0900   1
  -5   7   8 284.760 143.320   1
   9  -6   1 142.540 38.0700   1
   9   6   1 141.570 46.0200   1
  -8  -8   0 -55.280 49.1700   1
  -8  -8   0 -70.620 150.740   1
   8   8   0 -47.590 52.2600   1
   8  -8   0 -76.300 40.8600   1
  -8   8   0 65.7800 45.4800   1
  -7  -7  -5 -191.76 166.770   1
   7  -7   5 51.0200 43.5800   1
   2  -5  10 -57.080 68.3800   1
   2   5  10 33.6300 40.3600   1
   2   5  10 -98.870 115.630   1
  -2  -5 -10 -49.480 100.640   1
   2   5  10 169.180 104.030   1
   2  -7   9 12.7600 83.4600   1
   2   7   9 -74.150 76.7700   1
  -2  -7  -9 -44.770 109.020   1
   2   7   9 84.4500 50.3800   1
   2   7   9 28.2800 41.9800   1
   9   0   5 92.4800 65.8300   1
   9   0   5 -68.850 51.9600   1
   3  -9   7 13.8200 55.5200   1
  -3  -9  -7 -17.090 52.5400   1
  -3  -9  -7 34.5700 81.4800   1
  -3  -9  -7 150.060 141.910   1
  -7  -7   6 -90.220 50.5500   1
  -7   7   6 13.9000 73.1800   1
  -7  -7   6 151.020 289.640   1
   3   4  10 -98.320 86.2700   1
   3  -4  10 19.9800 66.5200   1
  -3 -12  -1 6.44000 50.7100   1
   3 -12   1 -40.340 62.7800   1
   3 -12   1 -24.490 134.440   1
  -3 -12  -1 -300.48 137.110   1
   4  -2  10 -31.530 67.8400   1
   4   2  10 -15.990 85.9900   1
  -1   3  11 -12.270 46.8500   1
  -1   3  11 -17.300 94.7900   1
  -1  -3  11 9.41000 60.8500   1
  -3   1  11 -16.900 68.1200   1
  -3  -1  11 293.600 63.7100   1
  -8  -7  -3 -86.310 119.740   1
   8  -7   3 143.790 49.7200   1
   9   4  -5 25.6400 41.4700   1
   9  -4  -5 38.8600 49.7200   1
   9   2  -6 191.960 74.5100   1
   9  -2  -6 288.420 49.3300   1
   0   3  11 -36.470 51.5200   1
   0   3  11 38.4600 83.5000   1
   0  -3  11 -28.330 65.1900   1
   5   6   8 8.19000 80.7500   1
   5  -6   8 134.940 58.6700   1
  -5  -6  -8 -84.430 99.5600   1
   5  -6   8 170.610 58.4800   1
  -2 -11  -5 -308.84 244.800   1
   2 -11   5 190.180 88.1700   1
  -2 -11  -5 56.1900 84.1500   1
  -2 -11  -5 100.830 51.7200   1
   2 -11   5 57.9300 50.7500   1
   2 -11   5 782.850 354.830   1
   9   1   5 110.090 49.9600   1
   9  -1   5 112.090 49.6800   1
   9   1   5 126.620 94.9800   1
  10  -3   1 239.960 44.6600   1
  10   3   1 260.830 49.6200   1
   2 -12  -3 -78.730 197.590   1
  -2 -12   3 -18.520 54.9500   1
  -2 -12   3 210.110 106.530   1
  -2 -12   3 288.060 154.140   1
   2 -12  -3 247.670 56.0800   1
  -2  12   3 61.2400 45.7900   1
   5 -11   1 -16.580 52.4200   1
   5 -11   1 34.1000 73.7200   1
  -5 -11  -1 58.7200 52.3500   1
  -5 -11  -1 -5.1400 65.3200   1
   5 -11   1 221.270 109.020   1
  -5 -11  -1 -210.36 134.780   1
  -6   9   5 28.2600 76.0000   1
  -6  -9   5 99.0700 66.3500   1
  -6   9   5 183.240 68.2600   1
  -6  -9   5 -276.16 265.580   1
   6  -9  -5 76.4000 41.0400   1
  -1  -6  10 0.80000 56.8400   1
  -1   6  10 -64.490 145.490   1
   1  -6 -10 -80.610 99.7900   1
  -1   6  10 -133.90 79.7100   1
   2   0  11 -60.320 63.9200   1
   6 -10   2 51.7100 59.7400   1
  -6 -10  -2 -194.58 202.520   1
  -6 -10  -2 -101.78 64.5200   1
   6 -10   2 126.800 51.4100   1
  -5 -10  -4 7.80000 62.3100   1
  -5 -10  -4 -512.27 245.760   1
   5 -10   4 97.2200 42.9100   1
   5 -10   4 334.260 227.860   1
   0  -6  10 21.7500 45.6500   1
   0  -6  10 -11.210 57.3300   1
   0   6  10 190.100 72.3800   1
   0  -6 -10 2.98000 105.590   1
   0   6  10 -96.120 99.0400   1
  10   2   2 43.3200 55.7600   1
  10  -2   2 -13.830 40.7600   1
  -6   6   8 3.27000 43.1100   1
  -6   6   8 -72.490 62.8500   1
  -6  -6   8 -184.82 69.1000   1
  -6  -6   8 -75.630 40.1600   1
   0   9   8 101.570 65.8800   1
   0  -9   8 -4.4700 68.1100   1
   0   9   8 -66.420 101.580   1
   0  -9  -8 -56.260 169.000   1
   0  -9   8 -6.3500 46.2500   1
  -6   4   9 -25.490 50.0600   1
  -6   4   9 70.8100 43.4600   1
  -6  -4   9 132.930 76.4100   1
  -7  -6  -6 47.6900 132.890   1
   7  -6   6 -43.710 39.3000   1
  -7  -6  -6 111.120 95.3300   1
  -1  -9   8 23.2200 44.5800   1
  -1   9   8 15.8900 52.4700   1
   1  -9  -8 62.7400 169.710   1
  -1  -9   8 35.0000 54.0700   1
  -1   9   8 -97.780 76.6200   1
  -1   9   8 -57.450 48.9300   1
   4  -9  -7 -63.660 151.530   1
  -4  -9   7 9.28000 62.2700   1
  -4   9   7 14.1700 44.9900   1
  -4  -9   7 -76.430 50.5300   1
  -4   9   7 102.850 55.7700   1
   9   5   3 86.7100 71.3100   1
   9  -5   3 55.1800 51.1600   1
  -8   8   2 69.2300 45.7300   1
  -8  -8   2 -38.360 49.8100   1
  -8   8   2 149.650 84.1000   1
  -8  -8   2 31.6300 132.530   1
   8  -8  -2 -21.320 41.4500   1
   8   8  -2 66.6400 53.9300   1
  -7  -6   7 -46.840 45.8800   1
  -7   6   7 -6.2700 53.5700   1
  -7  -6   7 57.5900 188.400   1
   7  -6  -7 -23.690 43.0800   1
  -7   6   7 13.4100 42.9300   1
  -7  -9  -2 242.180 55.3200   1
  -7  -9  -2 211.420 220.290   1
   7  -9   2 163.940 40.5400   1
   0 -10   7 -3.8100 69.8500   1
   0  10   7 104.410 49.6000   1
   0 -10  -7 -166.61 127.010   1
   0  10   7 102.840 70.8000   1
   0 -10   7 -68.380 45.5500   1
  10   0  -4 372.870 116.890   1
   7  -9  -3 -102.73 37.2200   1
  -7  -9   3 34.4200 95.1000   1
  -7   9   3 -63.920 74.5200   1
  -7  -9   3 56.6600 45.5100   1
  -7   9   3 -62.750 48.5500   1
   3   8   8 -18.250 50.7200   1
  -3  -8  -8 -198.92 136.640   1
   3   8   8 48.5300 69.3700   1
   3  -8   8 55.8600 65.8800   1
  -1  10   7 -49.570 57.4400   1
  -1 -10   7 26.2300 51.4300   1
   1 -10  -7 -376.30 145.990   1
  -1  10   7 120.990 78.4500   1
  -1 -10   7 -51.350 59.0100   1
  -1  10   7 -60.820 64.4200   1
  -5 -11   2 -45.530 66.4200   1
  -5 -11   2 -279.47 106.690   1
   5 -11  -2 327.170 118.740   1
   5 -11  -2 47.1900 50.6800   1
  -3 -12   2 79.8800 49.6300   1
   3 -12  -2 189.660 53.2600   1
  -3 -12   2 4.14000 88.2300   1
  -3 -12   2 -189.43 134.020   1
   3 -12  -2 -209.51 145.100   1
   3 -12  -2 84.7100 36.6300   1
  -3 -10  -6 -39.100 218.010   1
   3 -10   6 71.2100 57.4600   1
   3 -10   6 183.990 73.8700   1
   3 -10   6 -81.360 51.8800   1
  -3 -10  -6 -25.380 57.5400   1
  -3 -10  -6 1.69000 92.5700   1
   2   1  11 218.850 88.2000   1
   2  -1  11 146.110 68.6800   1
  -7  -8  -4 -353.04 217.040   1
   7  -8   4 74.7300 50.3300   1
  -6 -10   3 -49.020 49.0200   1
  -6  10   3 -54.600 51.7700   1
   6 -10  -3 -16.870 37.8100   1
  -8  -8  -1 65.2200 43.3100   1
  -8  -8  -1 71.8100 174.840   1
   8  -8   1 98.7600 44.9000   1
   8   8   1 -57.470 55.6100   1
   7  -8  -5 161.140 53.6700   1
  -7  -8   5 -177.42 164.950   1
  -7   8   5 12.1500 131.540   1
  -7  -8   5 108.230 51.8700   1
  -7   8   5 -65.090 60.8800   1
  -2  -3  11 64.1800 57.9500   1
  -2   3  11 -45.490 63.6200   1
   5  -4   9 82.1400 42.7600   1
   5  -4   9 -55.630 70.6700   1
   5   4   9 253.850 89.9700   1
  -5   3  10 10.5800 57.7200   1
  -5  -3  10 27.9200 79.7600   1
  -4  -8   8 -2.3600 67.9000   1
  -4   8   8 154.120 85.3700   1
  -4  -8   8 96.6800 42.8300   1
  -4   8   8 65.8900 46.6800   1
   4  -8  -8 122.240 113.820   1
   4 -11  -4 -159.27 209.410   1
  -4 -11   4 -20.010 189.530   1
  -4 -11   4 60.1500 56.9400   1
  -4  11   4 71.9200 94.9700   1
   8   4  -7 21.1800 81.4400   1
   8  -4  -7 69.3800 68.1900   1
   7   0   8 164.340 88.9000   1
  10  -1  -4 151.420 51.8900   1
  10   1  -4 64.6800 50.5600   1
   9   4   4 11.6300 46.3300   1
   9  -4   4 48.4700 36.7000   1
  -3  -2  11 114.150 74.3600   1
  -3   2  11 44.1200 78.1600   1
   2 -12   3 -33.480 229.790   1
  -2 -12  -3 -284.93 184.470   1
   2 -12   3 66.2800 48.9900   1
   2 -12   3 87.1500 63.7200   1
  -2 -12  -3 -43.180 51.5100   1
  -7   0   9 -0.6700 56.8600   1
   7   0  -9 -20.690 47.4600   1
   9   6  -3 245.330 66.3200   1
   9  -6  -3 103.910 65.1200   1
  -9   6   3 17.8300 43.7900   1
  -9  -6   3 73.9800 77.2800   1
  -9   6   3 43.5000 43.3100   1
  -3 -11   5 156.660 370.800   1
  -3 -11   5 100.110 76.1100   1
  -3  11   5 132.610 64.8000   1
   3 -11  -5 -595.74 213.260   1
  -2  -6  10 55.4200 54.7400   1
  -2   6  10 248.310 101.510   1
  -2   6  10 -102.50 90.3300   1
  -2  -6  10 106.310 77.2500   1
   9  -2   5 468.770 176.040   1
   9   2   5 250.620 80.6500   1
   7  -1   8 38.5500 44.9100   1
   7   1   8 144.310 91.6400   1
   7  -1   8 -12.320 79.0600   1
   1  -3  11 53.1200 58.1800   1
   1   3  11 -116.39 78.8600   1
   1   3  11 32.6900 65.1600   1
  10  -3  -3 10.2500 45.5800   1
  10   3  -3 -95.520 53.2300   1
   8   0  -8 -4.4100 40.9700   1
  -8   0   8 77.2500 81.4600   1
   7   1  -9 82.7100 55.3100   1
   7  -1  -9 3.82000 42.4800   1
  -7   1   9 28.4800 62.5300   1
  -7  -1   9 46.6700 58.2100   1
   3 -12   2 -601.61 168.670   1
   3 -12   2 -107.92 49.8200   1
  -3 -12  -2 -138.18 66.5000   1
  -3 -12  -2 222.850 159.970   1
  -1  -9  -8 55.7500 209.050   1
   1  -9   8 -186.83 72.9200   1
   1   9   8 22.3700 64.6200   1
   1  -9   8 -44.680 47.9000   1
   6   0   9 83.1400 70.4200   1
  10   4  -1 251.510 68.0300   1
  10  -4  -1 165.280 62.4800   1
   1  -6  10 -99.980 69.3600   1
  -1  -6 -10 101.730 127.840   1
   1   6  10 76.8400 72.1500   1
   1   6  10 -4.5100 80.4500   1
   1 -10   7 24.8400 49.8000   1
  -1 -10  -7 335.900 153.280   1
   1 -10   7 -65.150 54.9100   1
  -5 -10   5 305.620 249.080   1
  -5 -10   5 4.08000 46.5600   1
  -5  10   5 -46.840 64.2200   1
  -2   9   8 137.770 82.4500   1
   2  -9  -8 194.800 142.400   1
  -2   9   8 206.200 68.1200   1
  -2  -9   8 -45.800 69.8000   1
  -2  -9   8 43.1100 45.3500   1
  -2   9   8 54.7200 52.4600   1
  -2   9   8 31.9700 50.1000   1
   0 -12  -4 -539.94 158.870   1
   0  12  -4 20.2500 46.7500   1
   0 -12   4 -30.760 58.9800   1
   0 -12  -4 -1.5700 58.5800   1
   0 -12  -4 28.3900 74.3900   1
   0 -12   4 262.770 90.1800   1
   0 -12   4 -836.73 220.160   1
  -8  -4  -6 150.250 106.130   1
  -8  -4  -6 77.2700 104.450   1
   8  -4   6 116.810 48.3400   1
   9  -6   2 318.000 77.4900   1
   9   6   2 39.5400 53.0800   1
  10  -4   0 -91.670 51.4600   1
  10   4   0 46.9000 44.4700   1
   4  -3  10 203.640 84.1100   1
   4  -3  10 66.5600 41.9300   1
   4   3  10 362.720 107.380   1
   8   1  -8 -125.49 47.7100   1
  -8  -1   8 -54.170 60.2400   1
   8  -1  -8 -24.310 41.1800   1
  -4  10   6 161.880 58.6900   1
  -4 -10   6 87.5200 313.060   1
   4 -10  -6 168.530 125.680   1
  -4 -10   6 45.2300 58.8000   1
   9   3  -6 217.570 78.3800   1
   9  -3  -6 201.030 57.1700   1
   2   2  11 88.8300 83.9300   1
   2  -2  11 101.160 62.4300   1
  -2  10   7 -9.9700 49.2500   1
  -2 -10   7 104.700 56.1600   1
  -2 -10   7 29.4200 49.9300   1
   2 -10  -7 97.2600 139.950   1
  -2  10   7 135.170 61.5800   1
  10   0   3 -197.47 42.4400   1
   6  -1   9 132.720 75.5100   1
   6   1   9 -21.700 77.6600   1
   1 -12  -4 -507.67 148.160   1
  -1 -12   4 351.580 347.490   1
   1 -12  -4 25.2000 52.2600   1
  -1 -12   4 158.790 64.8300   1
   1  12  -4 -25.240 45.8700   1
  -1  12   4 -153.69 55.7900   1
  -1   8   9 -20.440 73.8700   1
  -1  -8   9 10.8500 53.8500   1
   1  -8  -9 -188.19 113.580   1
  -1   8   9 -52.510 68.5400   1
  -1  -8   9 55.0800 49.6400   1
  -1   8   9 -36.100 47.9200   1
  -1   8   9 -43.040 44.1800   1
   5 -11   2 -18.910 39.2800   1
  -5 -11  -2 -574.64 175.060   1
   5 -11   2 -261.00 173.340   1
   5 -11   2 50.2300 54.8400   1
  -5 -11  -2 -7.2300 81.3200   1
   0   8   9 39.8600 58.7200   1
   0  -8  -9 207.670 121.590   1
   0   8   9 237.060 111.290   1
   0   8   9 96.1800 46.2500   1
   0   8   9 68.5200 45.7100   1
   0  -8   9 372.120 88.8400   1
   0  -8   9 79.0300 51.5300   1
  10   2  -4 63.2700 56.3800   1
  10  -2  -4 224.360 70.4800   1
  10   1   3 142.160 64.6600   1
  10  -1   3 235.850 61.4500   1
   8   0   7 -11.980 54.2500   1
   8   0   7 44.3500 74.3600   1
  10   3   2 -13.230 51.3000   1
  10  -3   2 -4.7800 40.6400   1
  10   4  -2 290.470 68.8300   1
  10  -4  -2 471.570 173.770   1
  -8   8   3 16.5000 60.5700   1
  -8   8   3 -115.43 96.3000   1
  -8  -8   3 -14.350 53.1200   1
  -8  -8   3 -111.77 130.800   1
   8  -8  -3 -129.86 67.1000   1
   8   8  -3 26.3200 65.9300   1
   0 -11   6 41.5500 47.0600   1
   0 -11  -6 70.2400 68.1500   1
   0 -11  -6 275.620 227.260   1
   0 -11   6 -45.370 48.1800   1
  -5   6   9 40.4100 55.9200   1
  -5  -6   9 -8.3800 60.9400   1
  -5   6   9 -48.680 79.2300   1
  -5  -6   9 192.920 52.7900   1
   7   2   8 -117.01 78.6200   1
   7  -2   8 60.8000 42.1600   1
   7  -2   8 134.150 80.9100   1
   1 -12   4 -123.21 59.1400   1
  -1 -12  -4 -97.100 188.010   1
   1 -12   4 54.0700 72.1700   1
  -1 -12  -4 -10.660 69.9200   1
  -1 -12  -4 -4.9900 49.5000   1
  -1   4  11 -3.9500 46.8800   1
  -1   4  11 -166.07 75.3500   1
  -1   4  11 133.690 56.8900   1
  -1  -4  11 -33.750 83.0000   1
  -4   5  10 132.580 52.2100   1
  -4   5  10 -36.680 64.9800   1
  -4   5  10 411.160 164.280   1
  -4  -5  10 295.350 93.3300   1
   1 -11  -6 80.9300 199.950   1
  -1 -11   6 606.730 345.860   1
   1 -11  -6 -130.12 58.4800   1
  -1 -11   6 23.1000 51.1200   1
  -1  11   6 90.3000 57.1900   1
   6  -5   8 79.9200 50.4000   1
  -6  -5  -8 -58.020 93.0600   1
   6   5   8 98.1700 79.1900   1
   6  -5   8 93.5400 70.1000   1
   7  -2  -9 0.07000 44.6400   1
  -7   2   9 52.7900 56.1000   1
  -7  -2   9 62.3100 67.4800   1
   7   2  -9 134.530 80.0200   1
   8   1   7 184.810 82.4300   1
   8  -1   7 15.3300 68.1100   1
   8  -1   7 54.6600 42.4700   1
  -8  -8  -2 254.900 240.910   1
  -8  -8  -2 130.500 58.9100   1
   8  -8   2 -12.020 49.9900   1
   8   8   2 -56.810 50.5100   1
   0   4  11 83.5700 67.4200   1
   0   4  11 83.4300 59.7000   1
   0   4  11 -2.2300 54.7900   1
   0  -4  11 49.9600 66.8500   1
  -4   0  11 65.4800 59.7200   1
   5 -11  -3 55.7400 35.8500   1
  -5 -11   3 -37.080 150.490   1
  -5 -11   3 17.1100 60.8200   1
  -5  11   3 -22.520 63.7500   1
   4   6   9 -58.980 80.9200   1
  -4  -6  -9 36.4500 107.930   1
   4  -6   9 -78.160 65.7700   1
   3 -12  -3 144.950 69.3900   1
  -3 -12   3 177.780 67.7400   1
  -3 -12   3 195.730 170.610   1
   3 -12  -3 49.8500 136.420   1
  10   4   1 35.4900 43.6000   1
  10  -4   1 219.950 60.3400   1
  -7  -5  -7 95.1200 84.3000   1
   7  -5   7 33.3000 47.2900   1
  -7  -5  -7 175.540 125.120   1
  -3  -3  11 -209.62 63.4200   1
  -3   3  11 -156.69 70.6100   1
   8  -6  -6 74.2200 45.5700   1
  -8   6   6 -70.070 47.6500   1
   8   6  -6 196.700 71.7400   1
  -8  -6   6 13.4400 59.7800   1
  -4  -7   9 -196.89 80.0900   1
   4  -7  -9 114.940 94.1900   1
  -4   7   9 304.800 150.530   1
  -4  -7   9 -8.1300 54.1600   1
  -8  -2   8 35.3400 57.8400   1
   8   2  -8 -26.540 49.8400   1
   8  -2  -8 39.3300 53.7400   1
  -6   0  10 -19.160 67.2200   1
   4 -11   4 50.4400 42.8600   1
  -4 -11  -4 243.530 66.8000   1
   4 -11   4 -61.100 221.100   1
  -4 -11  -4 -147.36 212.800   1
   7  -5  -8 7.87000 43.6200   1
  -7  -5   8 199.970 69.7500   1
  -7   5   8 31.5400 56.3300   1
  -7   5   8 109.300 51.4100   1
   7   5  -8 79.9800 52.9500   1
   6  -2   9 26.6300 75.4500   1
   6   2   9 18.4900 85.6400   1
  -2   8   9 111.750 78.4000   1
   2  -8  -9 -197.64 121.200   1
  -2   8   9 -8.4900 51.5700   1
  -2   8   9 -188.45 72.9800   1
  -2  -8   9 101.550 69.7300   1
  -2  -8   9 -101.03 47.7800   1
  -4  -1  11 2.87000 59.0600   1
  -4   1  11 -9.0700 86.9900   1
   6 -10   3 -62.750 47.0600   1
  -6 -10  -3 -35.280 60.6000   1
  -6 -10  -3 407.400 240.970   1
   4 -12   0 -156.98 113.080   1
  -4 -12   0 48.6000 127.180   1
  -4 -12   0 -31.710 62.9900   1
   4 -12   0 21.8100 40.7100   1
   4 -12   0 2.73000 47.8800   1
  -4 -12   0 -16.010 61.5000   1
  -3  -7  -9 183.790 127.110   1
   3   7   9 -44.910 87.1100   1
   3  -7   9 87.2400 72.2000   1
  -1  -8  -9 210.980 153.070   1
   1  -8   9 167.030 65.4900   1
   1   8   9 70.6000 62.1600   1
   1  -8   9 86.7900 45.3800   1
   1   8   9 144.980 72.1100   1
  -8  -7   5 20.5500 42.9300   1
   8   7  -5 81.3500 67.0300   1
  -8   7   5 -41.480 64.2400   1
  -8   7   5 -212.29 68.3400   1
   8  -7  -5 9.37000 53.1600   1
   9  -3   5 52.5000 39.4600   1
   3  -5  10 156.930 73.3600   1
   3   5  10 105.300 81.3400   1
  -3 -11  -5 563.160 325.870   1
  -3 -11  -5 -49.860 80.0800   1
   3 -11   5 -186.99 258.560   1
   3 -11   5 -6.3700 57.0400   1
  -3 -11  -5 -161.56 93.8200   1
   3 -11   5 -10.980 55.5000   1
  -5  -9  -6 39.0000 62.2300   1
   5  -9   6 -41.810 56.4300   1
  -5  -9  -6 117.600 165.130   1
  -5  -9  -6 188.880 92.6500   1
  -5  -8  -7 0.46000 93.6100   1
  -5  -8  -7 -167.05 154.160   1
   5  -8   7 -8.6300 57.2900   1
   9   5  -5 68.8100 50.7800   1
   9  -5  -5 72.0600 46.7700   1
  -9  -5   5 161.050 50.9300   1
  -9   5   5 8.53000 53.4300   1
  -4 -12   1 -75.650 68.3500   1
  -4 -12   1 -24.320 109.150   1
   4 -12  -1 -103.64 105.100   1
  -4 -12   1 37.6400 64.1900   1
   4 -12  -1 -124.27 56.1600   1
   4 -12  -1 73.1700 53.5300   1
  -6   1  10 77.3900 58.1300   1
   6   1 -10 -101.01 65.2500   1
   6  -1 -10 149.370 63.4600   1
  -6  -1  10 -12.240 62.1200   1
  -1 -11  -6 24.3600 54.4700   1
  -1 -11  -6 -391.52 239.920   1
   1 -11   6 -3.1300 65.8300   1
   1 -11   6 -164.08 54.1100   1
   6  -8   6 87.8700 44.7500   1
  -6  -8  -6 70.0700 163.210   1
  -6  -8  -6 -95.050 102.170   1
  -7  -9  -3 109.010 232.290   1
   7  -9   3 75.0200 48.5800   1
  -7  -9  -3 21.6600 60.3000   1
  -2 -12   4 43.7800 61.0200   1
  -2  12   4 111.880 48.8400   1
   2 -12  -4 48.5700 68.6400   1
  -2 -12   4 -5.6900 241.110   1
   2 -12  -4 305.400 184.200   1
  10  -2   3 -42.240 47.9300   1
  10   2   3 36.8000 52.8500   1
  -3  -6  10 -83.730 45.8600   1
  -3   6  10 59.6400 73.9100   1
  -3   6  10 16.3700 96.8200   1
  -3   6  10 129.400 62.6200   1
  -3  -6  10 84.1100 67.3400   1
   7  -9  -4 -96.090 43.0100   1
  -7  -9   4 46.7200 64.9900   1
  -7  -9   4 -65.480 130.540   1
  -7   9   4 -21.430 49.5500   1
  -7   9   4 -61.600 76.9200   1
  -9  -7   1 37.5000 46.3700   1
   9   7  -1 189.690 88.7400   1
   9  -7  -1 -25.170 45.8900   1
  -2   4  11 278.210 114.130   1
  -2   4  11 -89.240 56.2700   1
  -2   4  11 56.3200 57.2700   1
  -2  -4  11 -6.2100 85.5100   1
  -5  -4  10 127.700 79.5200   1
  -5   4  10 196.620 73.6400   1
  -5   4  10 44.5200 57.0400   1
  -5   4  10 115.280 60.1600   1
   8  -6   5 166.490 55.3700   1
  -8  -6  -5 -398.51 117.730   1
  -9  -7   0 26.3200 53.4900   1
   9  -7   0 -49.800 44.7200   1
   9   7   0 139.260 55.7900   1
   0  13   0 -5.7100 45.9400   1
   0 -13   0 -130.68 58.9500   1
   0 -13   0 -53.210 121.160   1
   6 -10  -4 -13.440 49.1100   1
  -6 -10   4 -421.11 147.210   1
  -6  10   4 14.5400 53.0600   1
  -6  10   4 -137.04 67.3000   1
  -6 -10   4 108.680 75.0400   1
   8  -7   4 7.48000 38.8400   1
  -8  -7  -4 138.670 165.010   1
   2 -10   7 44.4400 55.1100   1
  -2 -10  -7 -450.59 125.890   1
   2 -10   7 -74.270 47.3400   1
  -2 -10  -7 243.270 72.0500   1
   2   3  11 -120.41 90.0200   1
   2  -3  11 -31.610 74.2800   1
   2   9   8 -122.61 62.8400   1
  -2  -9  -8 82.9900 179.760   1
   2   9   8 -47.580 50.9700   1
   2  -9   8 62.9500 59.5900   1
   8   2   7 295.120 103.510   1
   8  -2   7 115.920 45.4300   1
   8  -2   7 109.280 77.2600   1
   9  -6  -4 28.5400 49.3400   1
  -9   6   4 45.5200 57.9000   1
   9   6  -4 25.4100 51.9900   1
  -9  -6   4 -34.030 62.3600   1
  -9   6   4 20.2400 48.1100   1
  -2 -11   6 238.600 280.980   1
  -2 -11   6 67.2000 49.2800   1
  -2  11   6 29.0500 58.9400   1
  -2  11   6 152.900 60.0000   1
   2 -11  -6 36.8600 177.590   1
   4 -12   1 13.2700 46.0500   1
  -4 -12  -1 -182.36 49.7500   1
   4 -12   1 -10.490 58.8800   1
   4 -12   1 -78.450 113.830   1
  -4 -12  -1 -233.19 136.640   1
  -6  -5   9 205.220 78.9200   1
  -6   5   9 -27.960 64.0600   1
  -6  -5   9 211.850 56.2200   1
  -6   5   9 146.940 68.8300   1
   3   0  11 -89.260 66.5300   1
  -3   9   8 7.49000 45.7100   1
  -3  -9   8 -176.28 52.8100   1
  -3   9   8 80.1000 57.4600   1
   3  -9  -8 89.3800 125.450   1
  -3  -9   8 -165.29 71.7900   1
   2   6  10 35.7100 68.7700   1
  -2  -6 -10 -42.390 117.440   1
   2   6  10 85.9000 74.7800   1
   2  -6  10 -177.73 61.2500   1
   9   0  -7 -19.200 53.3100   1
  10  -3  -4 458.180 166.560   1
  10   3  -4 310.700 80.5100   1
   1  -4  11 -33.520 58.5500   1
   1   4  11 111.820 83.5600   1
   1   4  11 92.6400 72.8600   1
   1   4  11 8.85000 37.8600   1
  10   4  -3 -17.670 40.7300   1
  10  -4  -3 66.6300 50.6400   1
   3 -12   3 -308.46 251.600   1
  -3 -12  -3 -436.82 176.040   1
   3 -12   3 2.12000 59.4200   1
   5   0  10 -13.000 72.8300   1
   0 -13   1 -242.29 150.290   1
   0 -13  -1 98.5200 68.5700   1
   0 -13   1 38.1500 60.1300   1
   0  13  -1 92.5200 53.5600   1
   0  13   1 -5.6600 51.5400   1
   0 -13  -1 -67.500 140.060   1
  10   0  -5 -72.400 59.8300   1
  -1 -13   0 -38.760 114.650   1
   1 -13   0 -80.530 114.660   1
   1 -13   0 21.3900 59.8900   1
  -1 -13   0 168.440 70.5100   1
  -1  13   0 213.370 67.2100   1
  -4  -9  -7 262.790 210.590   1
   4  -9   7 87.3900 67.2300   1
  -4  -9  -7 -67.600 95.7100   1
  -4  -9  -7 -34.610 50.0000   1
  -4  -2  11 -21.220 67.7600   1
  -4   2  11 -50.830 75.8200   1
   6  -7   7 -25.410 58.0300   1
  -6  -7  -7 122.550 157.840   1
  -6  -7  -7 -15.700 100.410   1
  -3 -10   7 -141.43 58.1800   1
  -3  10   7 -65.120 62.5100   1
   3 -10  -7 -248.29 164.870   1
  -3 -10   7 13.6200 52.7800   1
  -6  -9  -5 130.770 64.5900   1
  -6  -9  -5 -21.430 178.340   1
   6  -9   5 45.4500 42.2000   1
   3   1  11 256.400 115.080   1
   3  -1  11 79.8200 75.4200   1
   5   5   9 -182.65 77.7500   1
   5  -5   9 57.0100 64.7600   1
   5  -5   9 -16.200 43.2900   1
  -5  -5  -9 -224.04 130.400   1
  -9  -7   2 33.3000 53.3800   1
   9  -7  -2 40.8400 51.7900   1
   9   7  -2 142.940 78.1800   1
   9   1  -7 533.310 112.030   1
   9  -1  -7 299.650 109.310   1
  -6  -8   7 204.040 279.070   1
  -6  -8   7 -14.090 46.6500   1
  -6   8   7 -93.620 141.330   1
  -6   8   7 -21.920 58.2500   1
   8   5  -7 -36.030 70.2200   1
  -8   5   7 -178.61 41.5500   1
   8  -5  -7 -28.080 53.0300   1
   7  -3   8 31.9300 91.5100   1
   7   3   8 -23.910 96.3400   1
   4   4  10 311.840 127.360   1
   4  -4  10 36.1500 39.5300   1
   4  -4  10 16.2700 78.6400   1
   9  -5   4 -57.250 46.1600   1
   5   1  10 29.3600 83.2500   1
   5  -1  10 -108.47 69.2400   1
   2 -12   4 -3.1500 242.490   1
  -2 -12  -4 -197.11 189.850   1
  -2 -12  -4 8.11000 54.5900   1
   2 -12   4 -6.4000 76.6200   1
  -2 -12  -4 27.0700 107.830   1
   2 -12   4 -46.790 73.4100   1
   4 -12  -2 -63.260 140.350   1
   4 -12  -2 25.3500 47.2300   1
   4 -12  -2 81.7500 68.7400   1
  -4 -12   2 39.8900 57.4800   1
  -4 -12   2 -349.22 117.970   1
  -6  -2  10 59.5800 87.4400   1
  -6   2  10 -47.300 63.6100   1
   6  -2 -10 31.4200 50.4100   1
   9   4  -6 326.500 112.010   1
   9  -4  -6 302.480 121.870   1
   7   3  -9 10.5800 63.8800   1
   7  -3  -9 -23.160 46.8200   1
  -7  -3   9 -0.5100 69.1300   1
  10   1  -5 206.490 76.5100   1
  10  -1  -5 306.340 104.960   1
   1 -13  -1 -425.99 135.660   1
  -1 -13   1 -261.79 130.390   1
   1 -13  -1 87.0000 57.0500   1
  -1 -13   1 -143.44 54.7900   1
  -1  13   1 26.6100 73.9100   1
   9  -7   1 74.7700 57.0500   1
   9   7   1 26.6700 57.3000   1
  -5 -11  -3 76.0900 191.660   1
  -5 -11  -3 86.0400 64.6400   1
   5 -11   3 47.9000 49.1700   1
   5 -11   3 -61.980 37.6500   1
   5 -11   3 -758.88 220.880   1
   9  -6   3 78.2400 50.3100   1
  -1  13  -1 -35.590 50.5900   1
  -1 -13  -1 124.000 76.9000   1
   1 -13   1 139.890 124.560   1
  -1 -13  -1 116.380 119.720   1
   1 -13   1 -93.180 54.7300   1
   8   3  -8 -64.510 49.6500   1
  -8  -3   8 72.3600 66.9100   1
   8  -3  -8 29.7800 46.5300   1
   4 -11  -5 -195.73 180.890   1
  -4  11   5 51.0700 62.2800   1
  -4 -11   5 45.0900 57.4600   1
  -4 -11   5 488.010 259.430   1
  -5 -10  -5 180.520 257.290   1
  -5 -10  -5 48.3000 59.5200   1
   5 -10   5 9.71000 41.7200   1
  10   4   2 50.2300 44.3100   1
  10  -4   2 119.740 58.0400   1
   6  -3   9 -58.060 61.8600   1
   6  -3   9 -7.9700 37.3000   1
   6   3   9 -17.980 81.8100   1
  -7 -10   0 -124.20 56.3500   1
  -7 -10   0 -92.750 84.7400   1
  -7  10   0 32.6600 53.8400   1
  -7 -10   0 336.670 186.310   1
   7 -10   0 149.040 59.9200   1
 -10  -5   1 -16.950 41.0600   1
  10   5  -1 -70.270 53.5100   1
  10  -5  -1 -161.05 47.1600   1
  -7 -10   1 27.8900 46.5100   1
  -7 -10   1 48.1600 150.050   1
   7 -10  -1 -24.290 50.7500   1
  -7  10   1 -15.660 60.2300   1
  -7  10   1 -55.860 46.7700   1
   5  -7   8 48.2200 53.0900   1
   5  -7   8 203.720 80.4800   1
  -5  -7  -8 -191.11 112.720   1
  -4 -10  -6 7.85000 53.1600   1
  -4 -10  -6 132.780 90.9400   1
   4 -10   6 23.3300 62.0900   1
  -4 -10  -6 -63.690 148.820   1
  -6   9   6 -66.240 59.0600   1
  -6  -9   6 21.2800 48.8300   1
  -6   9   6 20.5900 83.6900   1
  -6  -9   6 -408.35 222.410   1
  -5  -9   7 -620.60 256.130   1
  -5   9   7 -1.2100 96.8500   1
  -5  -9   7 -3.6600 44.7500   1
  -5   9   7 18.7600 53.7000   1
   4  -8   8 5.65000 60.6900   1
  -4  -8  -8 -78.100 161.970   1
  -8  -5  -6 -104.35 85.6600   1
  -8  -5  -6 168.300 126.610   1
   8  -5   6 48.7700 42.1800   1
  10   5   0 -47.840 48.9900   1
  10  -5   0 3.53000 48.1000   1
  -8  -8   4 87.2500 75.4600   1
  -8   8   4 -153.80 92.3900   1
  -8  -8   4 -184.74 107.300   1
   8   8  -4 50.3700 61.7800   1
  -1  -7  10 -40.100 81.1400   1
  -1   7  10 34.9300 80.0800   1
   1  -7 -10 180.610 126.640   1
  -1   7  10 2.08000 88.6800   1
  -1  -7  10 15.0000 41.7500   1
  -1   7  10 -36.350 44.3400   1
   3  -8  -9 224.830 125.350   1
  -3  -8   9 -55.180 40.5300   1
  -3   8   9 -299.17 75.4200   1
  -3   8   9 135.020 72.5000   1
  -3  -8   9 -155.35 56.5300   1
  -3   8   9 64.5600 87.4500   1
   0   7  10 67.0500 84.7500   1
   0  -7  10 106.750 70.8700   1
   0   7  10 -85.290 77.3000   1
   0  -7  10 -70.250 39.5300   1
   0   7  10 69.5500 52.5200   1
   0  -7 -10 307.240 153.040   1
  10  -3   3 186.900 80.6700   1
  10   3   3 258.180 94.3300   1
  -6   7   8 -32.570 48.7900   1
  -6  -7   8 -230.03 43.9000   1
  -6  -7   8 80.6900 72.9800   1
  -6   7   8 -33.040 81.8100   1
  -5  -8   8 -26.750 76.5400   1
  -5   8   8 58.3300 94.4500   1
  -5  -8   8 14.7800 44.3500   1
  -5   8   8 117.040 63.2100   1
   3   2  11 42.3700 76.5400   1
   3  -2  11 -139.07 65.9700   1
   7  -7   6 -44.120 50.3400   1
  -7  -7  -6 -85.210 76.6900   1
  -7  -7  -6 102.670 150.360   1
  -7  -8  -5 48.1900 137.620   1
   7  -8   5 -56.710 45.8400   1
  -2 -11  -6 -397.63 204.500   1
   2 -11   6 79.4700 58.0600   1
   2 -11   6 20.1400 90.4800   1
  -2 -11  -6 -66.560 103.160   1
  -2 -11  -6 30.1700 60.0700   1
   2 -11   6 -11.540 50.2800   1
   2   8   9 -35.050 76.9200   1
   2   8   9 -65.130 51.9900   1
  -2  -8  -9 300.680 166.690   1
   2  -8   9 -59.410 57.2500   1
   9   2  -7 76.0900 60.4200   1
   9  -2  -7 77.5400 55.5500   1
  -7  -7   7 -50.020 252.670   1
   7  -7  -7 92.9600 53.6900   1
  -7  -7   7 -69.350 46.6700   1
  -7   7   7 85.9600 72.5800   1
  -7   7   7 144.890 66.3500   1
   0 -13  -2 189.890 99.2400   1
   0 -13  -2 -149.54 135.210   1
   0 -13   2 157.700 74.6100   1
   0 -13   2 90.4300 136.770   1
   0  13   2 273.190 101.420   1
   0  13  -2 26.3300 59.6900   1
   0 -13  -2 261.710 97.7600   1
   0 -13   2 105.790 73.2300   1
  -7  -8   6 24.2800 50.2600   1
   7  -8  -6 7.08000 49.7500   1
  -7  -8   6 -69.880 240.700   1
  -7   8   6 147.920 123.630   1
   4 -12   2 -99.980 47.3100   1
  -4 -12  -2 362.270 206.570   1
  -4 -12  -2 -50.830 50.4400   1
   4 -12   2 21.4900 43.6400   1
  -3  -4  11 225.090 109.710   1
  -3   4  11 48.5300 92.2200   1
  -3   4  11 -62.200 58.0500   1
  -3   4  11 13.0000 49.1600   1
  -8  -8  -3 -236.89 187.530   1
   8  -8   3 55.7100 54.2500   1
   9   0   6 -86.280 85.1500   1
   9   0   6 -10.540 45.6800   1
   5   2  10 -258.73 78.6800   1
   5  -2  10 50.8000 80.6700   1
  -6 -11   0 159.680 153.130   1
  -6 -11   0 -74.040 53.7200   1
  -6 -11   0 -46.840 66.0000   1
   6 -11   0 100.230 55.0300   1
  -5  11   4 239.400 95.8400   1
   5 -11  -4 135.830 60.0200   1
  -5 -11   4 229.620 90.0400   1
  -5 -11   4 -201.03 162.000   1
  10  -2  -5 74.5000 49.9000   1
   6 -11  -1 37.1000 45.3400   1
  -6 -11   1 180.430 74.3500   1
  -6  11   1 27.7100 64.1800   1
  -6 -11   1 267.290 160.340   1
   8   3   7 163.780 82.7300   1
   8  -3   7 33.4500 45.2700   1
  -8  -3  -7 -53.130 79.6800   1
  10   5  -2 67.2500 53.8200   1
  10  -5  -2 98.1100 51.4800   1
 -10  -5   2 196.830 75.5500   1
   9  -4   5 112.780 56.4700   1
  -2 -13   0 105.670 134.350   1
   2 -13   0 57.1700 61.7600   1
  -2 -13   0 -165.92 67.0000   1
  -2  13   0 -43.800 45.3400   1
   2 -13   0 -212.95 114.520   1
  10   0   4 -85.310 53.2600   1
  -7 -10  -1 93.1600 67.1200   1
  -7 -10  -1 -143.99 177.990   1
   7 -10   1 -83.360 54.9300   1
  -7 -10  -1 87.5200 64.1000   1
  -7  10   2 -43.010 49.9700   1
  -7  10   2 -103.65 62.5600   1
  -7 -10   2 -84.330 120.480   1
  -7 -10   2 53.4400 53.2700   1
   7 -10  -2 29.2700 48.2000   1
  -1  13   2 -91.280 58.9000   1
  -1 -13   2 147.770 78.3800   1
   1 -13  -2 130.090 68.3800   1
   1 -13  -2 -0.2900 83.0500   1
  -1 -13   2 288.700 117.810   1
   1 -13  -2 104.810 135.480   1
  -1 -13   2 35.0000 120.870   1
   1  13  -2 66.4900 58.4500   1
   0 -12   5 108.250 62.2800   1
   0 -12  -5 62.0300 60.3500   1
   0 -12  -5 282.380 273.100   1
   0 -12   5 333.190 318.870   1
   3 -12  -4 -9.1200 155.740   1
   3 -12  -4 -79.780 59.3600   1
  -3 -12   4 17.5100 47.0300   1
  -3 -12   4 -316.01 228.740   1
  -1  -5  11 -126.32 59.6300   1
  -1   5  11 0.06000 81.9100   1
  -1   5  11 10.5000 49.9800   1
  -1   5  11 54.5700 62.2200   1
   9   1   6 101.530 80.9500   1
   9  -1   6 -16.320 46.6400   1
   9   1   6 -94.200 44.0200   1
   9  -7  -3 149.600 66.9400   1
  -9  -7   3 125.460 87.0100   1
   9   7  -3 -51.610 70.9700   1
   0   5  11 74.6000 80.3200   1
   0   5  11 -34.030 47.3500   1
   0   5  11 -281.83 82.1400   1
   0  -5  11 -45.330 57.5500   1
  -4   3  11 -3.2100 77.5600   1
  -4  -3  11 -19.910 91.1400   1
  -8  -9   1 35.0500 51.4200   1
  -8   9   1 0.99000 42.4400   1
   8  -9  -1 65.2000 44.4000   1
  -8  -9   1 129.550 137.750   1
   1 -12  -5 231.030 202.830   1
  -1 -12   5 178.140 74.5100   1
   1 -12  -5 86.0200 72.9200   1
  -1 -12   5 472.390 235.460   1
  -1  12   5 38.7500 61.9500   1
   1  12  -5 149.210 75.7900   1
   8   9   0 -114.21 51.0700   1
  -8  -9   0 17.6100 58.4000   1
   8  -9   0 86.8200 56.2500   1
  -8  -9   0 74.5500 165.440   1
   1 -13   2 161.860 76.7100   1
  -1  13  -2 175.680 76.5900   1
  -1 -13  -2 28.3000 65.2700   1
   1 -13   2 -167.40 149.520   1
  -1 -13  -2 311.360 169.800   1
  -2 -13   1 19.5900 52.8600   1
  -2 -13   1 100.400 71.4400   1
   2 -13  -1 84.9900 65.0500   1
   2 -13  -1 -231.38 129.750   1
  -2 -13   1 -11.500 124.060   1
  -2  13   1 70.2500 51.2100   1
   2 -13  -1 76.5400 51.9500   1
  -2   7  10 108.420 100.750   1
  -2  -7  10 61.3200 45.4600   1
  -2  -7  10 -30.930 70.4400   1
  -2   7  10 -85.790 78.1200   1
   2  -7 -10 -18.460 122.410   1
  10   1   4 69.6700 56.9500   1
  10  -1   4 3.82000 39.8500   1
  -3 -11   6 148.070 340.360   1
   3 -11  -6 420.910 221.460   1
  -3 -11   6 -45.290 66.7100   1
  -3  11   6 64.4600 100.620   1
  10   5   1 4.94000 49.1300   1
  10  -5   1 56.6600 57.5200   1
  -6   3  10 -18.130 62.6200   1
  -6  -3  10 -119.06 67.0000   1
   2   4  11 279.100 111.130   1
   2  -4  11 123.550 82.2800   1
   2 -13   1 50.6200 120.230   1
   2 -13   1 166.600 83.9500   1
  -2 -13  -1 -91.700 77.1700   1
  -2 -13  -1 184.160 146.530   1
  -5  10   6 39.3300 48.2000   1
  -5  10   6 -44.500 89.8100   1
  -5 -10   6 71.0900 59.9800   1
  -5 -10   6 450.550 235.290   1
  -6 -11  -1 -66.030 66.3300   1
  -6 -11  -1 118.930 185.030   1
  -6 -11  -1 112.780 73.2900   1
   6 -11   1 -23.570 44.6900   1
   6 -11   1 18.2700 58.5800   1
   1   7  10 -12.570 46.7400   1
   1  -7  10 145.050 82.4300   1
   1   7  10 -363.63 72.0700   1
  -1  -7 -10 -175.56 118.330   1
   1   7  10 65.8900 65.2900   1
   4 -12  -3 110.320 54.7100   1
   4 -12  -3 149.670 172.140   1
  -4 -12   3 100.350 60.6000   1
   4 -12  -3 171.370 83.7000   1
  -4 -12   3 -25.230 160.180   1
  10  -4  -4 46.3900 47.7100   1
  10   4  -4 -65.400 47.1000   1
   9   7   2 11.8900 47.2400   1
   9  -7   2 177.260 67.6300   1
  -4   6  10 98.9200 80.4800   1
  -4   6  10 16.8600 43.8900   1
  -4   6  10 15.1900 74.7600   1
  -4  -6  10 -108.39 68.8700   1
  -4  -6  10 72.3200 53.6300   1
  -6 -11   2 69.3800 56.3300   1
  -6  11   2 -60.810 61.6700   1
  -6 -11   2 -103.11 106.980   1
   6 -11  -2 -12.450 50.7400   1
   6  -6   8 -24.180 41.6300   1
  -6  -6  -8 160.780 108.660   1
   6   6   8 -21.050 78.2800   1
  -6 -10  -4 52.7500 49.6500   1
  -6 -10  -4 -153.35 249.530   1
   6 -10   4 0.37000 38.9500   1
  -1 -12  -5 273.410 98.1000   1
   1 -12   5 103.540 76.6400   1
   1 -12   5 278.400 110.480   1
   1 -12   5 -283.81 238.560   1
  -1 -12  -5 79.8600 82.4300   1
  -1 -12  -5 954.500 287.030   1
  -2   5  11 -57.820 62.2600   1
  -2  -5  11 247.890 106.460   1
  -2   5  11 -21.860 75.9500   1
  -2   5  11 77.5200 54.9800   1
  -5   5  10 -125.41 51.0400   1
  -5   5  10 23.9200 52.3400   1
  -5  -5  10 116.660 76.3300   1
  -8   9   2 37.9400 50.5100   1
   8  -9  -2 45.8900 52.5500   1
  -8  -9   2 21.9500 123.630   1
  -8   9   2 -173.39 83.3100   1
  -8  -9   2 10.7100 55.3700   1
  -3 -10  -7 23.1700 60.4800   1
  -3 -10  -7 93.8400 137.330   1
  -3 -10  -7 -17.570 81.8100   1
   3 -10   7 32.8900 90.1100   1
   7   4   8 180.760 93.7600   1
   7  -4   8 -64.330 66.1600   1
  -5   0  11 -160.94 84.9900   1
  -7  -6  -7 218.950 123.090   1
  -7  -6  -7 -335.49 108.960   1
   7  -6   7 41.1800 39.5900   1
   3  -9   8 58.8700 64.2400   1
   3   9   8 82.7700 59.3100   1
  -3  -9  -8 229.880 199.370   1
   9  -2   6 -37.280 41.4400   1
   9   2   6 -114.84 76.1900   1
  -7  -4   9 107.170 69.3700   1
  -7  -9  -4 -91.150 262.260   1
   7  -9   4 96.7100 55.7700   1
   8  -9   1 85.4900 54.4500   1
  -8  -9  -1 500.360 283.920   1
  -7  -6   8 135.950 75.4200   1
  -7   6   8 12.4700 61.9500   1
  -7   6   8 47.3800 54.3300   1
  11   0  -1 -82.160 52.7300   1
  -7   9   5 86.2500 65.9300   1
  -7   9   5 -97.530 94.6600   1
   7  -9  -5 10.8700 40.8100   1
  -7  -9   5 231.030 196.060   1
  -7  -9   5 58.2800 61.3900   1
  -1   0  12 151.500 80.7300   1
   3  -3  11 -51.310 69.5000   1
   3   3  11 -162.27 74.7900   1
   4  -9  -8 -131.35 111.180   1
  -4  -9   8 -118.97 67.0600   1
  -4   9   8 -33.780 71.4300   1
  -4   9   8 -34.870 45.5200   1
  -4  -9   8 -11.040 47.1100   1
   9   3  -7 230.520 85.8800   1
   9  -3  -7 141.640 70.2300   1
  -5   7   9 101.660 87.5600   1
  -5   7   9 133.020 66.8000   1
  -5  -7   9 32.7700 74.4900   1
  -5  -7   9 9.13000 55.2800   1
  10   2   4 130.200 61.0300   1
  10  -2   4 60.5700 50.2200   1
   1  -5  11 111.140 78.1800   1
   1   5  11 -17.740 79.9500   1
   1   5  11 15.0700 81.5700   1
   1   5  11 -40.830 58.8800   1
  -5   1  11 191.030 91.6400   1
  -5  -1  11 369.120 130.930   1
   3  -6  10 96.8000 73.8600   1
  -3  -6 -10 -127.12 132.950   1
   3   6  10 109.120 80.1300   1
 -10  -5   3 -62.940 47.6700   1
  10  -5  -3 0.02000 46.5900   1
  10   5  -3 142.160 69.2400   1
  11   0   0 60.5500 47.0600   1
  -6 -10   5 -831.23 196.790   1
  -6  10   5 151.960 99.9400   1
  -6 -10   5 -79.890 44.9300   1
  -6  10   5 56.2600 57.9900   1
  -9  -6   5 8.77000 48.4800   1
  -9   6   5 -124.28 54.0000   1
  -9   6   5 59.9900 53.1900   1
   9  -6  -5 -30.140 58.0800   1
   9   6  -5 -11.690 68.7000   1
  -2 -13   2 -58.850 61.8600   1
  -2  13   2 -31.490 48.3200   1
   2 -13  -2 -24.020 115.670   1
  -2 -13   2 -44.410 143.410   1
  -2 -13   2 89.0900 70.3100   1
   2 -13  -2 103.440 57.9400   1
   5  -3  10 -129.16 62.5600   1
   5   3  10 151.120 91.4000   1
   0   0  12 221.960 88.4800   1
  -8  -4   8 -0.3300 65.2500   1
   8   4  -8 353.610 130.940   1
   8  -4  -8 74.9100 53.4600   1
  -2  12   5 83.0500 54.3400   1
  -2 -12   5 15.3500 53.7100   1
   2 -12  -5 145.410 76.9100   1
   2  12  -5 59.5900 47.7200   1
  -2 -12   5 -106.26 268.120   1
   2 -12  -5 -22.250 204.930   1
  -4 -11  -5 354.020 297.330   1
   4 -11   5 -184.17 228.370   1
  -4 -11  -5 177.580 97.9400   1
  -4 -11  -5 1.46000 57.9000   1
  -3 -12  -4 56.6900 225.300   1
   3 -12   4 115.640 258.490   1
  -3 -12  -4 87.2200 49.4700   1
   3 -12   4 76.5400 54.7700   1
  10   3  -5 64.9200 46.4600   1
  10  -3  -5 35.3300 50.8800   1
  11   1  -1 249.550 71.6700   1
  11  -1  -1 5.74000 41.0700   1
   6   4   9 156.620 95.9100   1
   6  -4   9 59.7000 43.1600   1
  -1   1  12 196.510 94.2400   1
  -1  -1  12 -31.690 68.2800   1
   0 -10  -8 -336.44 176.740   1
   0  10   8 45.4300 57.0100   1
   0  10   8 -10.160 44.5700   1
   0 -10   8 -82.560 44.4700   1
   0  10   8 -61.030 81.9100   1
   0 -10   8 96.4900 73.8700   1
  -1 -10   8 76.5200 71.4900   1
  -1  10   8 138.650 57.4100   1
  -1  10   8 141.450 68.2400   1
  -1 -10   8 52.0300 45.0300   1
   1 -10  -8 -160.76 151.730   1
  -1  10   8 64.7400 69.1900   1
  -4 -10   7 98.2200 54.5300   1
  -4 -10   7 -205.05 292.370   1
   4 -10  -7 165.780 212.260   1
  -4  10   7 52.9800 67.5500   1
  -4  10   7 -37.150 47.3400   1
   4  -7   9 124.690 72.5600   1
  -4  -7  -9 -161.90 112.500   1
   4   7   9 118.330 76.2500   1
   7 -10   2 188.650 56.3000   1
  -7 -10  -2 -77.260 209.180   1
  -7 -10  -2 218.960 72.0700   1
  -7 -10   3 -31.850 115.320   1
  -7  10   3 47.1700 66.0200   1
  -7  10   3 141.780 90.7500   1
  -7 -10   3 51.3200 55.2700   1
   7 -10  -3 111.180 48.1500   1
   4  -5  10 41.1300 45.5500   1
   4   5  10 -48.190 104.170   1
   4  -5  10 270.460 84.0500   1
  11   1   0 122.700 55.0700   1
  11  -1   0 88.6300 59.8300   1
  -8  -7   6 69.3100 58.8900   1
  -8   7   6 53.5600 56.2000   1
   8  -7  -6 63.1500 47.4400   1
   8   7  -6 -7.5700 63.7100   1
  -8   7   6 173.560 60.6200   1
   0  13   3 61.4800 52.5400   1
   0 -13  -3 357.980 166.360   1
   0 -13   3 137.970 198.460   1
   0 -13   3 88.4800 62.4900   1
   0 -13  -3 1.65000 82.6400   1
   0 -13  -3 21.1900 60.9100   1
   0 -13   3 -6.5300 52.0000   1
   0  13  -3 91.1200 56.4000   1
   0   1  12 -307.98 77.3800   1
   0  -1  12 122.420 72.0300   1
  11   0  -2 54.5600 49.9400   1
  -9   5   6 125.800 49.1500   1
   9  -5  -6 49.5000 47.7000   1
   9   5  -6 187.580 63.3700   1
  10  -4   3 241.470 64.7900   1
  10   4   3 73.1100 44.1900   1
  -2 -13  -2 87.8700 60.2200   1
   2 -13   2 62.3900 58.3300   1
  -2 -13  -2 517.310 182.340   1
   2 -13   2 -98.790 130.120   1
  -6   6   9 -87.890 55.9600   1
  -6  -6   9 17.0600 53.2100   1
  -6   6   9 12.5400 44.6700   1
  -6  -6   9 238.920 98.2000   1
  -2   0  12 -31.500 85.1300   1
   4 -12   3 479.890 268.910   1
   4 -12   3 29.1000 48.5900   1
  -4 -12  -3 25.6100 52.1600   1
   4 -12   3 -96.620 82.6000   1
  -4 -12  -3 284.010 193.360   1
  -5 -12   0 53.2400 69.6100   1
   5 -12   0 110.070 97.5200   1
  -5 -12   0 -291.61 128.480   1
   5 -12   0 20.1500 44.2800   1
  -5 -12   0 97.0800 76.2500   1
   5 -12   0 51.6400 57.5200   1
  -1  13   3 103.480 54.8200   1
  -1 -13   3 -111.62 63.5600   1
  -1 -13   3 24.9300 59.7200   1
   1 -13  -3 -263.71 176.060   1
  -1 -13   3 -217.13 189.700   1
   1 -13  -3 48.4400 55.2800   1
   1  13  -3 43.0400 53.9000   1
   1 -13  -3 -48.370 88.8700   1
  11  -1  -2 -70.020 39.2300   1
  11   1  -2 18.6700 43.4700   1
   6 -11   2 -94.050 73.2700   1
  -6 -11  -2 -32.520 182.440   1
  -6 -11  -2 16.2400 67.1000   1
  -5 -12   1 -9.1600 70.8500   1
   5 -12  -1 -278.95 54.9400   1
  -5 -12   1 -108.99 69.0200   1
   5 -12  -1 -37.280 48.9500   1
  -5 -12   1 -36.200 118.560   1
   5 -11   4 -80.290 286.550   1
  -5 -11  -4 -7.0900 56.3300   1
   5 -11   4 159.610 54.6500   1
  -5 -11  -4 -94.750 202.290   1
   8   4   7 28.4900 80.7700   1
  -8  -4  -7 -41.940 86.6700   1
   8  -4   7 88.1900 50.7500   1
  10   5   2 18.2700 50.8500   1
  10  -5   2 68.6600 56.6900   1
  -3  -7  10 -30.320 45.2600   1
  -3   7  10 -96.680 72.7700   1
  -3  -7  10 -153.26 57.3500   1
  -3   7  10 -98.090 89.9700   1
   5  -6   9 50.3200 41.7900   1
   5  -6   9 -25.470 69.8600   1
   5   6   9 110.940 86.4500   1
  -5  -6  -9 -113.75 121.150   1
  -1  -9   9 -61.880 63.2400   1
   1  -9  -9 -102.68 124.150   1
  -1   9   9 107.820 67.2900   1
  -1  -9   9 -44.770 49.3800   1
  -1   9   9 86.5200 54.6800   1
  -1   9   9 81.7700 48.6900   1
  -1   9   9 -2.4800 94.8200   1
   0  -9  -9 284.070 134.050   1
   0  -9   9 -60.620 44.4500   1
   0   9   9 -41.550 58.5900   1
   0   9   9 -33.950 44.2900   1
   0   9   9 -126.08 88.1400   1
   0  -9   9 28.7600 61.2200   1
   8  -7   5 -9.1100 44.0000   1
  -8  -7  -5 114.520 167.800   1
  -2  -1  12 -11.400 60.9900   1
  -2   1  12 29.1900 66.1500   1
  -8   6   7 -25.490 56.9000   1
   8  -6  -7 54.4600 54.8900   1
   8   6  -7 267.020 79.8300   1
  -8   6   7 14.4800 48.0900   1
   4   0  11 -61.830 74.3300   1
   0  11   7 -171.80 63.3700   1
   0  11   7 97.3000 48.3400   1
   0 -11  -7 217.740 136.550   1
   0  11   7 -169.50 70.9700   1
   0 -11   7 -54.680 57.2900   1
   0 -11   7 29.0500 52.7800   1
  -5  -2  11 -86.530 64.6800   1
  -5   2  11 77.6500 77.5200   1
   9  -6   4 127.640 47.4600   1
  -1 -13  -3 190.060 89.1400   1
   1 -13   3 23.8600 66.4800   1
  -1 -13  -3 255.960 210.600   1
  -1 -13  -3 184.740 66.4200   1
   1 -13   3 -99.580 60.3500   1
   1 -13   3 -300.70 181.450   1
  -4  -8   9 -49.090 51.2700   1
  -4   8   9 150.250 98.8200   1
   4  -8  -9 -221.43 97.1800   1
  -4  -8   9 25.6500 70.1000   1
  -4   8   9 57.6600 53.2000   1
  -1 -11   7 77.2600 62.7200   1
  -1 -11   7 85.6400 68.6500   1
  -1  11   7 -204.98 73.5900   1
   1 -11  -7 -25.320 146.860   1
  -1  11   7 -28.280 51.8600   1
  -1  11   7 21.6000 58.3100   1
  -3 -11  -6 110.510 70.0300   1
  -3 -11  -6 167.570 103.970   1
   3 -11   6 -65.100 65.5700   1
  -3 -11  -6 45.7700 197.300   1
  11   0   1 -49.320 52.5400   1
   3 -13   0 -192.80 49.8800   1
  -3 -13   0 -56.820 107.770   1
   3 -13   0 34.7000 52.4700   1
  -3 -13   0 135.660 70.6800   1
   3 -13   0 4.21000 104.760   1
  -6  11   3 -8.8600 62.5600   1
  -6 -11   3 21.8800 70.3700   1
  -6 -11   3 -558.31 184.090   1
   6 -11  -3 85.5600 51.9200   1
  10   0  -6 55.3600 71.3100   1
  11  -2  -1 200.880 63.2400   1
  11   2  -1 246.490 70.8600   1
   1  10   8 -5.5700 87.0600   1
  -1 -10  -8 -200.70 181.510   1
   1 -10   8 37.6400 46.7100   1
   1  10   8 -78.680 62.4600   1
   1 -10   8 144.410 63.1600   1
   9  -7  -4 105.680 56.7800   1
   9   7  -4 -65.840 58.1300   1
  -9   7   4 66.1800 62.9700   1
  -4  -4  11 14.8100 76.0300   1
  -4   4  11 -84.360 71.5600   1
  -4   4  11 -4.6100 43.3800   1
  -1   2  12 57.0300 78.9600   1
  -1  -2  12 -79.510 65.6300   1
  -8   9   3 -36.630 48.9600   1
  -8  -9   3 -16.270 59.3600   1
  -8   9   3 244.330 147.080   1
  -8  -9   3 -131.72 110.380   1
   8  -9  -3 70.7300 51.2500   1
  -2  10   8 37.9400 54.0800   1
  -2  10   8 -98.680 48.3800   1
   2 -10  -8 259.170 174.830   1
  -2 -10   8 -35.280 57.9800   1
  -2 -10   8 -58.220 49.5400   1
   2 -12   5 59.4200 55.7300   1
  -2 -12  -5 160.050 59.3500   1
  -2 -12  -5 216.550 91.0700   1
   2 -12   5 90.1300 67.7300   1
   2 -12   5 762.990 334.780   1
   1   0  12 50.3800 73.5200   1
   3   8   9 21.9900 116.980   1
  -3  -8  -9 -85.200 124.910   1
   2   7  10 67.1800 36.5300   1
   2   7  10 -95.450 54.8700   1
  -2  -7 -10 -75.250 144.640   1
   2  -7  10 71.0000 78.1300   1
   2   7  10 -24.910 111.560   1
  -8   8   5 75.3300 72.8800   1
  -8  -8   5 -66.610 59.7300   1
   8  -8  -5 75.5800 69.4200   1
   4   1  11 -320.41 80.4900   1
   4  -1  11 -21.140 77.1200   1
  -8   0   9 -99.510 57.2800   1
   8   0  -9 -79.920 51.0900   1
  -3 -13   1 2.30000 59.4400   1
   3 -13  -1 -256.79 127.290   1
   3 -13  -1 28.0800 41.8700   1
  -3 -13   1 423.940 155.300   1
  -3 -13   1 124.180 66.8000   1
   3 -13  -1 111.210 52.9300   1
   5 -12   1 22.7400 94.3200   1
  -5 -12  -1 -329.85 159.050   1
   5 -12   1 144.220 48.4900   1
  -5 -12  -1 161.930 65.2300   1
   5 -12   1 68.0200 51.3200   1
  -3  -5  11 -53.660 61.0800   1
  -3   5  11 46.4500 53.7900   1
  -3   5  11 -43.040 80.7600   1
  -3   5  11 38.3200 67.6300   1
  11  -2   0 66.6300 55.4100   1
  11   2   0 66.7600 51.3900   1
   9  -3   6 16.2800 42.9300   1
   0  -2  12 -82.280 76.6000   1
   0   2  12 155.710 128.700   1
  -6  -4  10 99.0900 75.8200   1
  11   1   1 -37.820 52.0500   1
  11  -1   1 100.400 59.5800   1
  10   1  -6 12.0900 50.7800   1
  10  -1  -6 79.3300 76.4000   1
   8  -9   2 162.570 61.4300   1
  -8  -9  -2 -351.59 251.240   1
  -8  -9  -2 -1.3700 67.2000   1
  10   6  -1 75.2700 59.0500   1
 -10  -6   1 -27.860 55.6300   1
  10  -6  -1 38.7600 49.0300   1
   9   8  -1 -1.6100 72.6300   1
  -9  -8   1 -10.480 57.1100   1
   9  -8  -1 102.940 51.5800   1
   1   1  12 33.6300 79.5600   1
   1  -1  12 -75.460 76.3500   1
  -9  -8   0 -11.930 75.0800   1
   9  -8   0 102.190 52.4300   1
   9   8   0 -134.69 58.1900   1
  -8  -6  -6 241.880 92.3200   1
  -8  -1   9 78.5600 66.4900   1
   8   1  -9 242.330 73.1600   1
   8  -1  -9 188.550 61.8900   1
  10  -6   0 -32.900 42.5200   1
  10   6   0 -55.140 48.7300   1
  -3 -13  -1 30.5500 86.1100   1
   3 -13   1 57.4500 47.8300   1
   3 -13   1 7.35000 72.7600   1
   5 -12  -2 114.430 44.3700   1
  11  -2  -2 0.06000 56.3700   1
  11   2  -2 61.9500 43.5300   1
;
_shelx_hkl_checksum              411
#END Tags that were not found in dictionaries
loop_
_space_group_symop_operation_xyz
'x, y, z'
'-x, y+1/2, -z+1/2'
'-x, -y, -z'
'x, -y-1/2, z-1/2'
loop_
_atom_site_label
_atom_site_type_symbol
_atom_site_fract_x
_atom_site_fract_y
_atom_site_fract_z
_atom_site_U_iso_or_equiv
_atom_site_adp_type
_atom_site_occupancy
_atom_site_site_symmetry_order
_atom_site_calc_flag
_atom_site_refinement_flags_posn
_atom_site_refinement_flags_adp
C1 C 0.2730(5) 0.9008(4) 0.3211(4) 0.0439(11) Uani 1 1 d . .
C2 C 0.3875(5) 0.9477(5) 0.2379(5) 0.0578(14) Uani 1 1 d . .
H2 H 0.3598 0.9940 0.1529 0.069 Uiso 1 1 calc R U
C3 C 0.5405(5) 0.9269(6) 0.2790(5) 0.0657(15) Uani 1 1 d . .
C4 C 0.5857(6) 0.8600(5) 0.3993(6) 0.0730(16) Uani 1 1 d . .
H4 H 0.6927 0.8440 0.4242 0.088 Uiso 1 1 calc R U
C5 C 0.4731(6) 0.8168(6) 0.4825(6) 0.0838(19) Uani 1 1 d . .
H5 H 0.5020 0.7735 0.5692 0.101 Uiso 1 1 calc R U
C6 C 0.3169(6) 0.8351(5) 0.4426(5) 0.0665(15) Uani 1 1 d . .
H6 H 0.2399 0.8016 0.5003 0.080 Uiso 1 1 calc R U
C7 C 0.1032(4) 0.9188(4) 0.2756(4) 0.0423(11) Uani 1 1 d . .
H7 H 0.0395 0.8855 0.3529 0.051 Uiso 1 1 calc R U
C8 C 0.0644(4) 1.0587(5) 0.2520(5) 0.0440(11) Uani 1 1 d . .
Cl1 Cl 0.68384(16) 0.9877(2) 0.17563(18) 0.1183(9) Uani 1 1 d . .
O1 O 0.0627(3) 0.8497(3) 0.1485(3) 0.0510(9) Uani 1 1 d . .
H1 H 0.0294 0.9007 0.0845 0.076 Uiso 1 1 calc R U
O2 O 0.0341(4) 1.1054(3) 0.1361(3) 0.0566(9) Uani 1 1 d . .
O3 O 0.0664(4) 1.1235(3) 0.3726(3) 0.0621(10) Uani 1 1 d . .
H3 H 0.0438 1.2003 0.3551 0.093 Uiso 1 1 calc R U
loop_
_atom_site_aniso_label
_atom_site_aniso_U_11
_atom_site_aniso_U_22
_atom_site_aniso_U_33
_atom_site_aniso_U_23
_atom_site_aniso_U_13
_atom_site_aniso_U_12
C1 0.041(2) 0.043(3) 0.047(2) 0.001(2) 0.0009(18) 0.001(2)
C2 0.044(3) 0.080(4) 0.049(3) 0.005(2) -0.001(2) -0.001(2)
C3 0.042(3) 0.086(4) 0.069(3) -0.010(3) 0.002(2) -0.005(3)
C4 0.049(3) 0.066(4) 0.101(4) 0.001(3) -0.018(3) 0.008(3)
C5 0.075(4) 0.076(5) 0.097(4) 0.033(4) -0.022(3) -0.002(3)
C6 0.055(3) 0.068(4) 0.076(3) 0.026(3) 0.002(2) -0.003(3)
C7 0.041(2) 0.045(3) 0.041(2) 0.002(2) 0.0026(17) 0.0001(19)
C8 0.032(2) 0.057(3) 0.044(3) -0.007(2) 0.0039(17) 0.001(2)
Cl1 0.0458(8) 0.204(2) 0.1060(13) 0.0163(12) 0.0149(8) -0.0240(10)
O1 0.0549(19) 0.046(2) 0.0516(18) 0.0028(15) -0.0034(14) -0.0027(15)
O2 0.067(2) 0.054(2) 0.0481(19) 0.0023(17) 0.0022(15) 0.0043(16)
O3 0.077(2) 0.053(2) 0.055(2) -0.0020(16) -0.0023(16) 0.0205(19)
loop_
_atom_type_symbol
_atom_type_description
_atom_type_scat_dispersion_real
_atom_type_scat_dispersion_imag
_atom_type_scat_source
C C 0.0033 0.0016 'International Tables Vol C Tables 4.2.6.8 and 6.1.1.4'
H H 0.0000 0.0000 'International Tables Vol C Tables 4.2.6.8 and 6.1.1.4'
Cl Cl 0.1484 0.1585 'International Tables Vol C Tables 4.2.6.8 and 6.1.1.4'
O O 0.0106 0.0060 'International Tables Vol C Tables 4.2.6.8 and 6.1.1.4'
loop_
_geom_angle_atom_site_label_1
_geom_angle_atom_site_label_2
_geom_angle_atom_site_label_3
_geom_angle
C6 C1 C2 118.7(4)
C6 C1 C7 120.8(4)
C2 C1 C7 120.5(4)
C3 C2 C1 119.4(5)
C3 C2 H2 120.3
C1 C2 H2 120.3
C4 C3 C2 122.4(5)
C4 C3 Cl1 118.3(4)
C2 C3 Cl1 119.3(4)
C3 C4 C5 118.0(5)
C3 C4 H4 121.0
C5 C4 H4 121.0
C4 C5 C6 120.9(5)
C4 C5 H5 119.6
C6 C5 H5 119.6
C1 C6 C5 120.5(5)
C1 C6 H6 119.7
C5 C6 H6 119.7
O1 C7 C1 110.8(3)
O1 C7 C8 109.2(3)
C1 C7 C8 111.2(3)
O1 C7 H7 108.5
C1 C7 H7 108.5
C8 C7 H7 108.5
O2 C8 O3 123.8(5)
O2 C8 C7 123.8(4)
O3 C8 C7 112.3(4)
C7 O1 H1 109.5
C8 O3 H3 109.5
loop_
_geom_bond_atom_site_label_1
_geom_bond_atom_site_label_2
_geom_bond_distance
C1 C6 1.364(6)
C1 C2 1.387(5)
C1 C7 1.508(6)
C2 C3 1.366(6)
C2 H2 0.9500
C3 C4 1.363(7)
C3 Cl1 1.740(5)
C4 C5 1.361(7)
C4 H4 0.9500
C5 C6 1.386(7)
C5 H5 0.9500
C6 H6 0.9500
C7 O1 1.419(5)
C7 C8 1.513(6)
C7 H7 1.0000
C8 O2 1.207(5)
C8 O3 1.319(5)
O1 H1 0.8400
O3 H3 0.8400
loop_
_geom_torsion_atom_site_label_1
_geom_torsion_atom_site_label_2
_geom_torsion_atom_site_label_3
_geom_torsion_atom_site_label_4
_geom_torsion
C6 C1 C2 C3 0.1(8)
C7 C1 C2 C3 -178.0(5)
C1 C2 C3 C4 0.7(9)
C1 C2 C3 Cl1 -179.1(4)
C2 C3 C4 C5 -2.2(9)
Cl1 C3 C4 C5 177.6(5)
C3 C4 C5 C6 3.0(10)
C2 C1 C6 C5 0.6(8)
C7 C1 C6 C5 178.8(5)
C4 C5 C6 C1 -2.3(10)
C6 C1 C7 O1 -112.3(5)
C2 C1 C7 O1 65.8(5)
C6 C1 C7 C8 126.0(5)
C2 C1 C7 C8 -55.9(5)
O1 C7 C8 O2 -13.5(5)
C1 C7 C8 O2 109.2(4)
O1 C7 C8 O3 166.0(3)
C1 C7 C8 O3 -71.3(4)
