#------------------------------------------------------------------------------
#$Date: 2016-02-16 22:30:59 +0200 (Tue, 16 Feb 2016) $
#$Revision: 176467 $
#$URL: svn://www.crystallography.net/cod/cif/4/51/02/4510210.cif $
#------------------------------------------------------------------------------
#
# This file is available in the Crystallography Open Database (COD),
# http://www.crystallography.net/
#
# All data on this site have been placed in the public domain by the
# contributors.
#
data_4510210
loop_
_publ_author_name
'Lumpi, Daniel'
'Gl\"ocklhofer, Florian'
'Holzer, Brigitte'
'St\"oger, Berthold'
'Hametner, Christian'
'Reider, Georg A.'
'Fr\"ohlich, Johannes'
_publ_section_title
;
 Systematic Investigations on 1,2,3-Triazole-Based Compounds Capable of
 Second Harmonic Generation
;
_journal_issue                   3
_journal_name_full               'Crystal Growth &amp; Design'
_journal_page_first              1018
_journal_paper_doi               10.1021/cg4014762
_journal_volume                  14
_journal_year                    2014
_chemical_formula_sum            'C12 H13 N3 S'
_chemical_formula_weight         231.3
_chemical_name_systematic        ' ?'
_space_group_IT_number           2
_symmetry_cell_setting           triclinic
_symmetry_Int_Tables_number      2
_symmetry_space_group_name_Hall  '-P 1'
_symmetry_space_group_name_H-M   'P -1'
_cell_angle_alpha                99.4247(11)
_cell_angle_beta                 93.1907(12)
_cell_angle_gamma                92.2136(12)
_cell_formula_units_Z            2
_cell_length_a                   5.9338(2)
_cell_length_b                   7.3798(2)
_cell_length_c                   13.2891(4)
_cell_measurement_reflns_used    5635
_cell_measurement_temperature    100
_cell_measurement_theta_max      32.5
_cell_measurement_theta_min      2.8
_cell_volume                     572.51(3)
_diffrn_ambient_temperature      100
_diffrn_measured_fraction_theta_full 0.99
_diffrn_measured_fraction_theta_max 0.99
_diffrn_measurement_device       'four-cycle diffractometer'
_diffrn_measurement_device_type  'Bruker KAPPA APEX II CCD'
_diffrn_measurement_method       '\w and \f scans'
_diffrn_radiation_monochromator  graphite
_diffrn_radiation_probe          x-ray
_diffrn_radiation_source         'X-ray tube'
_diffrn_radiation_type           'Mo K\a'
_diffrn_radiation_wavelength     0.71073
_diffrn_reflns_av_R_equivalents  0.0258
_diffrn_reflns_av_sigmaI/netI    0.0269
_diffrn_reflns_limit_h_max       8
_diffrn_reflns_limit_h_min       -8
_diffrn_reflns_limit_k_max       11
_diffrn_reflns_limit_k_min       -11
_diffrn_reflns_limit_l_max       20
_diffrn_reflns_limit_l_min       -20
_diffrn_reflns_number            11475
_diffrn_reflns_theta_full        32.62
_diffrn_reflns_theta_max         32.62
_diffrn_reflns_theta_min         1.56
_exptl_absorpt_coefficient_mu    0.257
_exptl_absorpt_correction_T_max  0.99
_exptl_absorpt_correction_T_min  0.94
_exptl_absorpt_correction_type   multi-scan
_exptl_absorpt_process_details   SADABS
_exptl_crystal_colour            'clear colourless'
_exptl_crystal_density_diffrn    1.3414
_exptl_crystal_description       fragment
_exptl_crystal_F_000             244
_exptl_crystal_size_max          0.50
_exptl_crystal_size_mid          0.20
_exptl_crystal_size_min          0.06
_refine_diff_density_max         0.38
_refine_diff_density_min         -0.28
_refine_ls_extinction_method     none
_refine_ls_goodness_of_fit_gt    2.16
_refine_ls_goodness_of_fit_ref   1.99
_refine_ls_hydrogen_treatment    refall
_refine_ls_number_constraints    0
_refine_ls_number_parameters     197
_refine_ls_number_reflns         4115
_refine_ls_number_restraints     0
_refine_ls_R_factor_all          0.0433
_refine_ls_R_factor_gt           0.0329
_refine_ls_shift/su_max          0.0141
_refine_ls_shift/su_mean         0.0019
_refine_ls_structure_factor_coef F
_refine_ls_weighting_details     w=1/(\s^2^(F)+0.0001F^2^)
_refine_ls_weighting_scheme      sigma
_refine_ls_wR_factor_gt          0.0424
_refine_ls_wR_factor_ref         0.0434
_reflns_number_gt                3365
_reflns_number_total             4115
_reflns_threshold_expression     I>3\s(I)
_cod_data_source_file            5ba_EMSM-4P.cif
_cod_data_source_block           5ba
_cod_depositor_comments
;
The following automatic conversions were performed:

'_diffrn_radiation_probe' value 'X-ray' changed to 'x-ray' according
to
/usr/data/users/saulius/crontab/automatic-downloads/current/ACS/lib/dictionaries/cif_core.dic
dictionary named 'cif_core.dic' version 2.4.2 from 2011-04-26.

Automatic conversion script
Id: cif_fix_values 2281 2013-09-26 08:29:07Z andrius 
;
_cod_original_formula_sum        'C12 H13 N3 S1'
_cod_database_code               4510210
loop_
_symmetry_equiv_pos_site_id
_symmetry_equiv_pos_as_xyz
1 x,y,z
2 -x,-y,-z
loop_
_atom_site_label
_atom_site_type_symbol
_atom_site_fract_x
_atom_site_fract_y
_atom_site_fract_z
_atom_site_adp_type
_atom_site_U_iso_or_equiv
_atom_site_symmetry_multiplicity
_atom_site_occupancy
_atom_site_calc_flag
S1 S 0.33471(4) 0.25574(4) 0.368822(18) Uani 0.01890(7) 2 1 d
C1 C 0.27400(15) 0.24754(14) -0.19385(7) Uani 0.0148(2) 2 1 d
C2 C 0.06702(15) 0.32657(15) -0.20505(7) Uani 0.0175(3) 2 1 d
C3 C -0.03838(17) 0.31161(16) -0.30242(8) Uani 0.0211(3) 2 1 d
C4 C 0.06229(17) 0.22097(16) -0.38708(8) Uani 0.0221(3) 2 1 d
C5 C 0.27110(17) 0.14533(16) -0.37462(8) Uani 0.0201(3) 2 1 d
C6 C 0.37829(16) 0.15778(15) -0.27770(7) Uani 0.0172(3) 2 1 d
C7 C 0.28447(16) 0.25970(14) -0.00367(7) Uani 0.0162(3) 2 1 d
C8 C 0.46317(15) 0.27098(14) 0.06803(7) Uani 0.0158(3) 2 1 d
C9 C 0.47673(15) 0.28513(15) 0.17877(7) Uani 0.0171(3) 2 1 d
C10 C 0.31194(15) 0.23483(14) 0.23502(7) Uani 0.0153(2) 2 1 d
C11 C 0.08579(16) 0.14938(17) 0.19116(8) Uani 0.0199(3) 2 1 d
C12 C 0.61924(18) 0.34624(18) 0.40282(8) Uani 0.0238(3) 2 1 d
N1 N 0.38038(12) 0.25561(12) -0.09424(6) Uani 0.0152(2) 2 1 d
N2 N 0.60868(13) 0.26385(14) -0.08092(6) Uani 0.0199(3) 2 1 d
N3 N 0.65925(13) 0.27422(13) 0.01727(6) Uani 0.0200(3) 2 1 d
H121 H 0.644(2) 0.468(2) 0.3821(10) Uiso 0.030(4) 2 1 d
H122 H 0.730(2) 0.266(2) 0.3725(10) Uiso 0.028(3) 2 1 d
H123 H 0.637(2) 0.363(2) 0.4765(11) Uiso 0.036(4) 2 1 d
H5 H 0.343(2) 0.0824(19) -0.4294(10) Uiso 0.029(3) 2 1 d
H3 H -0.181(2) 0.374(2) -0.3082(11) Uiso 0.038(4) 2 1 d
H9 H 0.615(2) 0.3414(19) 0.2093(10) Uiso 0.029(3) 2 1 d
H111 H 0.009(2) 0.095(2) 0.2448(10) Uiso 0.031(4) 2 1 d
H112 H 0.109(2) 0.0532(19) 0.1357(10) Uiso 0.026(3) 2 1 d
H4 H -0.009(2) 0.2065(18) -0.4555(9) Uiso 0.023(3) 2 1 d
H6 H 0.520(2) 0.1011(18) -0.2665(9) Uiso 0.022(3) 2 1 d
H113 H -0.003(2) 0.242(2) 0.1675(11) Uiso 0.035(4) 2 1 d
H2 H 0.003(2) 0.3915(19) -0.1461(10) Uiso 0.028(3) 2 1 d
H1 H 0.129(2) 0.2622(18) 0.0027(9) Uiso 0.023(3) 2 1 d
loop_
_atom_site_aniso_label
_atom_site_aniso_type_symbol
_atom_site_aniso_U_11
_atom_site_aniso_U_22
_atom_site_aniso_U_33
_atom_site_aniso_U_12
_atom_site_aniso_U_13
_atom_site_aniso_U_23
S1 S 0.02024(12) 0.02283(14) 0.01360(11) 0.00366(9) 0.00236(8) 0.00183(9)
C1 C 0.0148(4) 0.0156(5) 0.0144(4) -0.0010(3) 0.0018(3) 0.0037(3)
C2 C 0.0151(4) 0.0194(5) 0.0185(4) 0.0014(3) 0.0038(3) 0.0038(4)
C3 C 0.0168(4) 0.0251(6) 0.0227(5) 0.0017(4) 0.0008(4) 0.0080(4)
C4 C 0.0228(5) 0.0263(6) 0.0179(4) -0.0005(4) -0.0020(4) 0.0068(4)
C5 C 0.0235(5) 0.0219(5) 0.0149(4) 0.0018(4) 0.0038(3) 0.0024(4)
C6 C 0.0174(4) 0.0183(5) 0.0165(4) 0.0025(3) 0.0031(3) 0.0036(4)
C7 C 0.0137(4) 0.0200(5) 0.0149(4) 0.0001(3) 0.0030(3) 0.0026(4)
C8 C 0.0134(4) 0.0181(5) 0.0158(4) -0.0006(3) 0.0025(3) 0.0022(4)
C9 C 0.0142(4) 0.0209(5) 0.0154(4) -0.0001(3) -0.0002(3) 0.0016(4)
C10 C 0.0163(4) 0.0150(5) 0.0143(4) 0.0030(3) 0.0007(3) 0.0013(3)
C11 C 0.0155(4) 0.0254(6) 0.0187(4) -0.0017(4) 0.0020(3) 0.0039(4)
C12 C 0.0233(5) 0.0277(6) 0.0184(5) 0.0024(4) -0.0031(4) -0.0013(4)
N1 N 0.0124(3) 0.0192(4) 0.0140(3) 0.0003(3) 0.0020(3) 0.0019(3)
N2 N 0.0125(4) 0.0299(5) 0.0179(4) 0.0008(3) 0.0025(3) 0.0049(4)
N3 N 0.0143(4) 0.0291(5) 0.0167(4) -0.0004(3) 0.0019(3) 0.0046(4)
loop_
_atom_type_symbol
_atom_type_scat_dispersion_real
_atom_type_scat_dispersion_imag
_atom_type_scat_source
C 0.0033 0.0016 'International Tables Vol C tables 4.2.6.8 and 6.1.1.1'
H 0.0000 0.0000 'International Tables Vol C tables 4.2.6.8 and 6.1.1.1'
N 0.0061 0.0033 'International Tables Vol C tables 4.2.6.8 and 6.1.1.1'
S 0.1246 0.1234 'International Tables Vol C tables 4.2.6.8 and 6.1.1.1'
loop_
_geom_angle_atom_site_label_1
_geom_angle_atom_site_label_2
_geom_angle_atom_site_label_3
_geom_angle
C2 C1 C6 121.40(9)
C2 C1 N1 119.56(8)
C6 C1 N1 119.03(9)
C1 C2 C3 118.82(9)
C1 C2 H2 119.1(8)
C3 C2 H2 122.0(8)
C2 C3 C4 120.62(10)
C2 C3 H3 117.0(8)
C4 C3 H3 122.3(8)
C3 C4 C5 119.77(10)
C3 C4 H4 122.4(8)
C5 C4 H4 117.8(8)
C4 C5 C6 120.40(9)
C4 C5 H5 122.3(9)
C6 C5 H5 117.3(9)
C1 C6 C5 118.98(9)
C1 C6 H6 119.0(7)
C5 C6 H6 122.0(7)
C8 C7 N1 105.04(8)
C8 C7 H1 131.7(8)
N1 C7 H1 123.1(8)
C7 C8 C9 132.92(9)
C7 C8 N3 107.55(9)
C9 C8 N3 119.50(8)
C8 C9 C10 125.79(8)
C8 C9 H9 112.6(8)
C10 C9 H9 121.6(8)
S1 C10 C9 124.32(7)
S1 C10 C11 111.48(7)
C9 C10 C11 124.19(9)
C10 C11 H111 109.1(7)
C10 C11 H112 108.8(7)
C10 C11 H113 109.2(8)
H111 C11 H112 108.4(12)
H111 C11 H113 110.9(12)
H112 C11 H113 110.3(12)
H121 C12 H122 108.2(12)
H121 C12 H123 107.8(12)
H122 C12 H123 110.6(12)
C1 N1 C7 129.04(8)
C1 N1 N2 120.07(8)
C7 N1 N2 110.88(8)
N1 N2 N3 107.05(8)
C8 N3 N2 109.48(8)
loop_
_geom_bond_atom_site_label_1
_geom_bond_atom_site_label_2
_geom_bond_distance
S1 C10 1.7566(10)
C1 C2 1.3908(14)
C1 C6 1.3892(13)
C1 N1 1.4257(12)
C2 C3 1.3911(14)
C2 H2 0.953(13)
C3 C4 1.3890(15)
C3 H3 0.981(15)
C4 C5 1.3911(16)
C4 H4 0.969(12)
C5 C6 1.3920(14)
C5 H5 0.932(14)
C6 H6 0.967(13)
C7 C8 1.3762(13)
C7 N1 1.3561(13)
C7 H1 0.934(13)
C8 C9 1.4558(14)
C8 N3 1.3783(13)
C9 C10 1.3404(14)
C9 H9 0.946(13)
C10 C11 1.5051(13)
C11 H111 1.000(15)
C11 H112 0.954(13)
C11 H113 0.961(16)
C12 H121 0.991(16)
C12 H122 0.961(14)
C12 H123 0.966(15)
N1 N2 1.3541(11)
N2 N3 1.3117(12)
loop_
_refln_index_h
_refln_index_k
_refln_index_l
_refln_F_squared_calc
_refln_F_squared_meas
_refln_F_squared_sigma
_refln_observed_status
0 0 2 327.01 334.35 3.89 o
0 0 3 965.45 1047.72 13.16 o
0 0 4 484.24 483.25 6.15 o
0 0 5 1967.35 2160.21 24.56 o
0 0 6 7.07 8.76 0.43 o
0 0 7 694.52 800.92 9.26 o
0 0 8 135.45 139.04 2.06 o
0 0 9 164.85 158.30 2.34 o
0 0 10 415.37 437.11 5.80 o
0 0 11 819.92 798.83 10.52 o
0 0 12 74.74 92.64 1.76 o
0 0 13 119.93 113.87 2.62 o
0 0 14 38.50 34.67 1.87 o
0 0 15 19.55 15.40 1.34 o
0 0 16 134.77 131.34 3.73 o
0 0 17 2.32 4.28 1.24 o
0 0 18 45.15 44.43 2.29 o
0 0 19 2.83 3.51 1.37 <
0 1 -20 20.58 22.06 1.85 o
0 1 -19 16.37 16.55 1.68 o
0 1 -18 47.34 49.05 2.37 o
0 1 -17 58.26 55.65 2.38 o
0 1 -16 84.91 85.16 2.82 o
0 1 -15 22.82 23.60 1.24 o
0 1 -14 23.77 23.18 1.04 o
0 1 -13 30.50 37.54 1.32 o
0 1 -12 0.57 1.83 0.59 o
0 1 -11 4.74 0.74 0.50 <
0 1 -10 30.20 27.44 0.85 o
0 1 -9 559.68 585.03 6.41 o
0 1 -8 86.88 106.02 1.41 o
0 1 -7 21.28 26.88 0.66 o
0 1 -6 940.23 1050.09 10.45 o
0 1 -5 180.35 164.05 1.86 o
0 1 -4 312.73 327.43 3.51 o
0 1 -3 31.00 32.97 0.46 o
0 1 -2 624.85 619.26 6.18 o
0 1 -1 31.22 30.92 1.13 o
0 1 0 5.32 11.44 0.47 o
0 1 1 10.74 10.28 0.28 o
0 1 2 51.53 50.58 0.86 o
0 1 3 59.27 62.57 1.06 o
0 1 4 341.42 356.11 5.17 o
0 1 5 111.55 98.96 1.50 o
0 1 6 1072.01 1192.35 15.07 o
0 1 7 10.72 15.07 0.56 o
0 1 8 0.31 2.14 0.41 o
0 1 9 721.73 701.60 10.23 o
0 1 10 1.90 2.92 0.61 o
0 1 11 103.76 84.67 2.10 o
0 1 12 13.14 10.03 1.11 o
0 1 13 2.25 4.85 0.88 o
0 1 14 25.72 21.13 1.45 o
0 1 15 10.78 9.56 1.24 o
0 1 16 136.69 135.82 3.83 o
0 1 17 99.10 95.86 3.15 o
0 1 18 19.31 15.19 1.59 o
0 1 19 15.72 19.36 1.77 o
0 2 -20 8.06 10.68 1.60 o
0 2 -19 52.52 54.03 2.52 o
0 2 -18 31.43 33.56 1.96 o
0 2 -17 11.92 10.99 1.11 o
0 2 -16 129.02 131.52 2.57 o
0 2 -15 36.09 35.61 1.33 o
0 2 -14 56.19 53.72 1.32 o
0 2 -13 169.00 157.02 2.44 o
0 2 -12 17.59 24.65 0.82 o
0 2 -11 690.12 670.79 8.69 o
0 2 -10 31.96 34.53 0.99 o
0 2 -9 11.15 14.16 0.50 o
0 2 -8 495.28 499.24 5.92 o
0 2 -7 1536.79 1620.85 18.76 o
0 2 -6 25.55 26.45 0.71 o
0 2 -5 910.06 958.45 12.06 o
0 2 -4 151.02 136.48 2.10 o
0 2 -3 2416.97 2489.74 41.79 o
0 2 -2 764.42 762.90 16.17 o
0 2 -1 795.22 794.22 16.80 o
0 2 1 438.26 473.06 10.14 o
0 2 2 808.22 823.84 10.66 o
0 2 3 17.35 14.99 0.64 o
0 2 4 259.71 270.54 4.69 o
0 2 5 599.35 676.69 9.95 o
0 2 6 16.99 19.37 0.83 o
0 2 7 140.61 161.36 3.72 o
0 2 8 0.75 0.40 0.49 <
0 2 9 182.75 186.88 3.56 o
0 2 10 384.41 383.43 8.29 o
0 2 11 492.29 467.37 10.02 o
0 2 12 17.56 21.66 1.35 o
0 2 13 86.42 86.84 2.74 o
0 2 14 17.76 17.18 1.17 o
0 2 15 35.65 31.44 1.84 o
0 2 16 84.22 79.08 2.81 o
0 2 17 4.56 5.79 1.32 o
0 2 18 37.71 36.99 2.16 o
0 3 -20 17.86 16.97 1.63 o
0 3 -19 43.89 48.89 1.62 o
0 3 -18 12.72 14.70 0.98 o
0 3 -17 30.83 28.11 1.02 o
0 3 -16 79.61 84.97 1.69 o
0 3 -15 7.41 6.97 0.67 o
0 3 -14 60.20 57.69 1.30 o
0 3 -13 228.70 227.01 3.23 o
0 3 -12 1.86 2.19 0.51 o
0 3 -11 3.25 5.46 0.53 o
0 3 -10 160.22 153.88 2.23 o
0 3 -9 503.99 488.18 6.30 o
0 3 -8 180.82 199.88 2.69 o
0 3 -7 0.66 0.43 0.41 <
0 3 -6 254.36 244.86 4.25 o
0 3 -5 121.82 106.76 2.02 o
0 3 -4 0.60 0.56 0.39 <
0 3 -3 4.98 7.03 1.08 o
0 3 -2 1104.12 1030.32 21.86 o
0 3 -1 3.01 4.79 0.73 o
0 3 0 164.05 153.23 3.68 o
0 3 1 402.16 393.62 8.62 o
0 3 2 235.07 217.65 3.04 o
0 3 3 0.11 1.04 0.48 <
0 3 4 4.51 4.70 0.54 o
0 3 5 59.73 56.36 1.32 o
0 3 6 424.89 433.30 7.46 o
0 3 7 0.46 -0.17 0.61 <
0 3 8 13.67 13.87 0.96 o
0 3 9 753.38 713.70 14.79 o
0 3 10 0.68 0.57 0.80 <
0 3 11 44.92 37.60 1.78 o
0 3 12 30.98 23.98 1.42 o
0 3 13 63.84 66.36 2.36 o
0 3 14 92.81 85.79 2.79 o
0 3 15 1.47 1.68 1.00 <
0 3 16 95.08 82.10 2.88 o
0 3 17 88.43 85.52 3.04 o
0 3 18 5.13 6.08 1.44 o
0 4 -19 62.70 66.70 2.60 o
0 4 -18 8.86 10.62 1.12 o
0 4 -17 0.40 -0.06 0.69 <
0 4 -16 101.69 97.77 2.00 o
0 4 -15 91.62 94.75 1.90 o
0 4 -14 28.56 26.84 0.96 o
0 4 -13 190.46 183.27 3.59 o
0 4 -12 15.99 15.34 0.87 o
0 4 -11 297.19 288.95 5.20 o
0 4 -10 45.24 45.55 1.34 o
0 4 -9 137.04 147.22 2.80 o
0 4 -8 501.64 477.19 10.08 o
0 4 -7 602.95 615.55 12.83 o
0 4 -6 48.40 54.60 1.24 o
0 4 -5 42.50 44.61 1.22 o
0 4 -4 157.72 135.60 4.62 o
0 4 -3 851.08 821.44 17.63 o
0 4 -2 29.90 27.54 1.39 o
0 4 -1 410.96 426.91 9.41 o
0 4 0 1673.47 1694.48 35.85 o
0 4 1 229.78 256.18 5.91 o
0 4 2 453.92 469.64 7.15 o
0 4 3 7.46 4.58 0.52 o
0 4 4 105.74 105.65 1.98 o
0 4 5 124.92 139.85 2.32 o
0 4 6 15.99 17.81 0.86 o
0 4 7 142.72 145.99 2.90 o
0 4 8 3.41 2.68 0.96 <
0 4 9 19.80 19.65 1.84 o
0 4 10 48.96 49.37 1.88 o
0 4 11 205.01 202.98 4.80 o
0 4 12 0.02 -0.34 0.91 <
0 4 13 64.54 63.07 2.34 o
0 4 14 16.34 17.95 2.29 o
0 4 15 39.81 36.32 2.12 o
0 4 16 42.67 44.15 3.46 o
0 4 17 2.78 4.88 2.19 <
0 5 -19 37.24 38.33 3.10 o
0 5 -18 0.32 1.46 1.75 <
0 5 -17 25.51 25.77 2.44 o
0 5 -16 122.39 123.40 5.06 o
0 5 -15 0.38 0.11 1.42 <
0 5 -14 48.24 44.85 2.77 o
0 5 -13 307.02 285.84 9.37 o
0 5 -12 0.22 0.87 1.17 <
0 5 -11 19.18 14.55 1.51 o
0 5 -10 154.30 139.99 4.90 o
0 5 -9 514.62 465.16 14.20 o
0 5 -8 63.79 63.86 2.62 o
0 5 -7 1.77 1.61 0.58 <
0 5 -6 43.39 38.49 1.22 o
0 5 -4 51.78 52.62 2.77 o
0 5 -3 76.43 78.47 2.52 o
0 5 -2 482.56 464.13 10.29 o
0 5 -1 13.35 15.20 1.17 o
0 5 0 264.98 271.17 6.35 o
0 5 1 440.07 450.24 10.05 o
0 5 2 300.69 297.40 4.69 o
0 5 3 0.10 -0.32 0.69 <
0 5 4 50.37 53.51 1.69 o
0 5 5 23.77 23.17 1.54 o
0 5 6 220.81 221.19 5.57 o
0 5 7 28.00 24.87 1.64 o
0 5 8 15.07 20.92 2.02 o
0 5 9 333.83 344.36 7.49 o
0 5 10 9.79 11.59 1.07 o
0 5 11 34.22 37.94 1.72 o
0 5 12 2.74 3.94 1.01 o
0 5 13 151.21 165.29 4.23 o
0 5 14 117.12 116.41 3.36 o
0 5 15 1.56 3.34 1.21 <
0 5 16 13.72 12.86 1.62 o
0 6 -18 2.81 1.85 1.82 <
0 6 -17 9.78 10.50 1.97 o
0 6 -16 79.48 74.26 3.75 o
0 6 -15 106.55 110.02 4.60 o
0 6 -14 4.86 6.08 1.50 o
0 6 -13 100.11 95.44 3.96 o
0 6 -12 54.04 47.58 2.58 o
0 6 -11 176.59 157.68 5.49 o
0 6 -10 57.14 54.56 2.61 o
0 6 -9 23.11 21.81 1.74 o
0 6 -8 217.73 202.96 6.49 o
0 6 -7 64.89 70.26 1.89 o
0 6 -6 62.75 62.74 2.32 o
0 6 -5 2.40 0.66 1.33 <
0 6 -4 193.78 185.37 4.75 o
0 6 -3 187.45 182.35 4.69 o
0 6 -2 150.62 158.05 4.21 o
0 6 -1 73.33 73.79 2.71 o
0 6 0 360.77 342.29 7.98 o
0 6 1 50.23 54.61 2.45 o
0 6 2 50.57 55.16 1.44 o
0 6 3 22.01 18.60 1.11 o
0 6 4 23.35 24.94 1.64 o
0 6 5 66.19 69.19 2.74 o
0 6 6 39.29 36.49 2.18 o
0 6 7 281.64 270.95 6.71 o
0 6 8 60.49 58.49 2.65 o
0 6 9 2.41 2.55 1.33 <
0 6 10 0.31 0.20 1.33 <
0 6 11 97.33 97.48 3.55 o
0 6 12 1.09 1.48 1.48 <
0 6 13 36.57 38.67 2.40 o
0 6 14 14.78 16.72 3.07 o
0 7 -17 16.66 17.91 2.27 o
0 7 -16 102.66 107.26 4.70 o
0 7 -15 1.15 1.21 1.54 <
0 7 -14 3.70 1.81 1.45 <
0 7 -13 119.99 122.58 4.74 o
0 7 -12 0.46 0.84 1.21 <
0 7 -11 91.62 89.38 3.60 o
0 7 -10 27.15 24.82 1.93 o
0 7 -9 233.54 231.92 7.44 o
0 7 -8 8.11 8.85 1.08 o
0 7 -7 0.04 -0.31 0.80 <
0 7 -5 9.09 10.23 1.71 o
0 7 -4 14.11 14.76 1.47 o
0 7 -3 59.25 57.56 2.55 o
0 7 -2 202.80 197.10 5.11 o
0 7 -1 1.58 1.67 1.22 <
0 7 0 145.05 148.29 4.23 o
0 7 1 250.31 242.22 6.08 o
0 7 2 135.38 138.32 3.13 o
0 7 3 2.59 2.94 1.28 <
0 7 4 6.73 8.02 1.41 o
0 7 5 16.63 18.82 1.71 o
0 7 6 144.43 140.85 4.19 o
0 7 7 13.07 13.95 1.65 o
0 7 8 4.94 3.88 1.44 <
0 7 9 39.98 36.93 2.32 o
0 7 10 4.73 7.08 1.58 o
0 7 11 123.68 124.16 4.15 o
0 7 12 1.90 2.63 1.63 <
0 7 13 79.36 95.25 5.77 o
0 8 -16 49.15 50.08 3.30 o
0 8 -15 45.50 54.67 3.28 o
0 8 -14 3.48 3.96 1.60 <
0 8 -13 9.03 9.82 1.68 o
0 8 -12 6.76 6.26 1.46 o
0 8 -11 195.85 206.12 6.94 o
0 8 -10 4.92 7.49 1.29 o
0 8 -9 4.26 2.73 1.07 <
0 8 -8 80.64 84.40 3.16 o
0 8 -7 10.44 11.81 1.04 o
0 8 -4 145.13 140.44 4.19 o
0 8 -3 66.91 65.50 2.77 o
0 8 -2 44.62 45.16 2.45 o
0 8 -1 10.29 9.13 1.48 o
0 8 0 277.60 271.48 6.83 o
0 8 1 0.12 0.30 1.30 <
0 8 2 0.00 0.20 1.31 <
0 8 3 17.85 19.53 1.78 o
0 8 4 13.81 14.23 1.65 o
0 8 5 94.26 96.51 3.51 o
0 8 6 53.11 46.91 2.60 o
0 8 7 231.84 229.63 6.20 o
0 8 8 66.73 73.08 3.28 o
0 8 9 0.20 -0.96 1.50 <
0 8 10 4.68 6.00 1.74 o
0 8 11 46.04 42.51 2.64 o
0 9 -14 0.24 0.45 1.55 <
0 9 -13 20.97 28.94 2.32 o
0 9 -12 30.24 25.27 2.08 o
0 9 -11 59.74 64.25 3.10 o
0 9 -10 0.89 0.01 1.21 <
0 9 -9 65.39 65.59 2.87 o
0 9 -8 0.18 -0.15 0.97 <
0 9 -4 0.39 1.69 1.81 <
0 9 -3 10.06 8.19 1.63 o
0 9 -2 152.42 164.23 4.83 o
0 9 -1 2.31 0.93 1.43 <
0 9 0 31.87 28.56 2.10 o
0 9 1 80.61 77.59 3.29 o
0 9 2 19.23 22.66 1.99 o
0 9 3 15.34 16.58 1.89 o
0 9 4 1.32 0.90 1.55 <
0 9 5 20.24 20.14 2.02 o
0 9 6 52.29 54.73 3.04 o
0 9 7 2.00 4.66 1.69 <
0 9 8 0.19 -0.48 1.61 <
0 9 9 2.99 1.95 1.72 <
0 10 -11 148.70 176.68 6.24 o
0 10 -10 0.15 -0.96 1.29 <
0 10 -9 3.32 3.58 1.24 <
0 10 -3 37.38 39.86 2.54 o
0 10 -2 6.80 5.80 1.79 o
0 10 -1 8.49 10.04 1.86 o
0 10 0 185.81 198.15 5.74 o
0 10 1 13.19 13.12 1.94 o
0 10 2 0.41 1.77 1.72 <
0 10 3 0.94 4.58 1.80 <
0 10 4 9.40 9.99 1.95 o
0 10 5 57.26 63.54 3.37 o
0 11 -2 147.24 159.65 7.86 o
0 11 -1 12.45 8.02 3.24 <
0 11 0 0.75 -1.78 2.91 <
1 -11 0 200.64 216.16 9.51 o
1 -11 1 11.61 3.70 3.09 <
1 -10 -5 6.97 8.25 2.97 <
1 -10 -4 3.10 5.60 1.82 o
1 -10 -3 0.01 -0.82 1.66 <
1 -10 -2 1.26 0.48 1.66 <
1 -10 -1 0.86 0.33 1.65 <
1 -10 0 42.94 42.95 2.64 o
1 -10 1 6.09 3.85 1.74 <
1 -10 2 5.85 5.93 1.76 o
1 -10 3 41.49 41.90 3.43 o
1 -10 4 0.26 0.54 2.04 <
1 -10 5 12.08 10.29 2.42 o
1 -10 7 2.93 3.85 1.01 o
1 -10 8 1.51 0.96 1.06 <
1 -10 9 47.62 55.88 2.75 o
1 -10 10 0.95 1.98 1.34 <
1 -10 11 29.93 27.87 2.32 o
1 -9 -9 17.71 13.60 2.94 o
1 -9 -8 23.84 21.57 2.13 o
1 -9 -7 93.81 88.68 3.60 o
1 -9 -6 6.57 7.53 1.76 o
1 -9 -5 42.84 42.18 2.61 o
1 -9 -4 6.34 8.51 1.71 o
1 -9 -3 24.81 25.39 2.07 o
1 -9 -2 47.13 43.16 2.50 o
1 -9 -1 2.27 2.70 1.08 <
1 -9 0 410.39 408.69 9.79 o
1 -9 1 13.26 7.59 1.66 o
1 -9 2 2.25 1.05 1.50 <
1 -9 3 47.93 48.01 2.58 o
1 -9 4 41.24 39.44 3.25 o
1 -9 5 16.07 13.51 2.26 o
1 -9 7 22.74 24.60 1.68 o
1 -9 8 7.28 10.49 1.26 o
1 -9 9 186.49 208.19 6.87 o
1 -9 10 0.05 1.20 1.20 <
1 -9 11 195.71 218.18 7.39 o
1 -9 12 23.05 26.34 2.12 o
1 -9 13 12.70 13.50 1.87 o
1 -9 14 1.69 1.94 1.63 <
1 -8 -11 13.93 13.09 1.89 o
1 -8 -10 15.32 17.21 1.94 o
1 -8 -9 11.13 16.56 1.94 o
1 -8 -8 4.35 5.15 1.63 o
1 -8 -7 27.05 24.93 2.02 o
1 -8 -6 48.88 51.87 2.78 o
1 -8 -5 6.44 6.73 1.52 o
1 -8 -4 3.77 4.93 1.47 o
1 -8 -3 2.36 2.66 1.00 <
1 -8 -2 14.62 15.68 1.19 o
1 -8 -1 14.80 15.96 1.17 o
1 -8 0 53.24 49.84 2.58 o
1 -8 1 17.87 18.05 1.65 o
1 -8 2 17.13 18.15 1.68 o
1 -8 3 21.31 22.49 1.78 o
1 -8 4 23.58 22.30 2.34 o
1 -8 5 30.80 31.49 2.57 o
1 -8 6 6.43 8.06 1.06 o
1 -8 7 30.17 29.51 1.72 o
1 -8 8 12.40 12.37 1.24 o
1 -8 9 194.73 199.00 6.56 o
1 -8 10 2.97 4.45 1.23 o
1 -8 11 55.78 46.68 2.59 o
1 -8 12 0.72 -0.70 1.22 <
1 -8 13 0.11 2.11 1.40 <
1 -8 14 47.47 49.55 3.03 o
1 -8 15 15.93 21.17 2.23 o
1 -7 -13 1.55 -0.57 1.58 <
1 -7 -12 0.09 1.30 1.55 <
1 -7 -11 78.42 77.82 3.30 o
1 -7 -10 1.97 2.50 1.45 <
1 -7 -9 74.44 62.63 2.92 o
1 -7 -8 98.51 92.03 3.38 o
1 -7 -7 120.19 115.81 3.78 o
1 -7 -6 15.05 15.18 1.64 o
1 -7 -5 47.87 47.19 2.53 o
1 -7 -4 28.07 30.33 1.92 o
1 -7 -3 35.76 35.14 1.47 o
1 -7 -2 21.26 20.49 1.19 o
1 -7 -1 0.01 -0.85 0.66 <
1 -7 0 450.64 467.69 10.71 o
1 -7 1 0.14 -0.80 1.16 <
1 -7 2 60.37 65.97 2.68 o
1 -7 3 93.76 97.21 3.21 o
1 -7 4 154.84 152.01 5.68 o
1 -7 5 70.20 69.51 3.60 o
1 -7 6 6.99 5.49 0.68 o
1 -7 7 44.57 45.78 2.07 o
1 -7 8 30.47 28.82 1.81 o
1 -7 9 358.92 359.98 11.20 o
1 -7 10 3.09 2.08 1.09 <
1 -7 11 169.47 165.02 5.72 o
1 -7 12 26.46 27.37 2.15 o
1 -7 13 77.62 73.37 3.42 o
1 -7 14 2.25 1.74 1.45 <
1 -7 15 17.52 17.45 2.05 o
1 -7 16 76.59 81.06 4.02 o
1 -7 17 0.68 0.53 1.64 <
1 -6 -15 6.42 7.25 2.29 o
1 -6 -14 13.02 14.47 1.92 o
1 -6 -13 134.32 145.22 4.61 o
1 -6 -12 4.58 4.67 1.54 o
1 -6 -11 18.97 18.73 1.84 o
1 -6 -10 86.98 85.11 3.26 o
1 -6 -9 10.18 9.77 1.53 o
1 -6 -8 4.74 3.25 1.34 <
1 -6 -7 25.34 24.83 1.76 o
1 -6 -6 74.22 75.48 2.87 o
1 -6 -5 29.93 30.90 1.82 o
1 -6 -4 9.72 7.20 0.95 o
1 -6 -3 12.57 12.83 0.81 o
1 -6 -2 131.85 130.57 2.42 o
1 -6 -1 0.24 -0.51 0.78 <
1 -6 0 183.04 196.86 5.04 o
1 -6 1 468.47 489.82 10.99 o
1 -6 2 155.23 150.44 4.07 o
1 -6 3 9.29 7.03 1.21 o
1 -6 4 46.80 50.83 2.94 o
1 -6 5 40.56 40.11 1.61 o
1 -6 6 78.84 76.90 1.79 o
1 -6 7 203.02 193.18 6.15 o
1 -6 8 30.31 29.54 1.81 o
1 -6 9 243.64 230.52 7.41 o
1 -6 10 40.80 35.21 2.12 o
1 -6 11 0.64 0.36 1.12 <
1 -6 12 1.17 0.91 1.16 <
1 -6 13 44.61 38.81 2.47 o
1 -6 14 86.34 80.77 3.69 o
1 -6 15 16.10 17.09 1.95 o
1 -6 16 21.03 19.36 2.16 o
1 -6 17 20.62 23.13 2.37 o
1 -6 18 53.77 62.88 3.77 o
1 -5 -16 15.52 16.75 1.37 o
1 -5 -15 32.83 33.45 2.16 o
1 -5 -14 3.77 3.23 1.41 <
1 -5 -13 3.47 2.43 1.34 <
1 -5 -12 26.91 28.73 1.85 o
1 -5 -11 84.86 89.67 3.05 o
1 -5 -10 9.23 8.41 1.29 o
1 -5 -9 56.31 54.03 3.33 o
1 -5 -8 156.75 157.63 3.36 o
1 -5 -7 74.79 69.86 2.73 o
1 -5 -6 89.74 95.31 3.13 o
1 -5 -5 141.60 149.74 4.10 o
1 -5 -4 272.18 270.33 4.40 o
1 -5 -3 2.10 1.06 0.58 <
1 -5 -2 0.70 1.27 0.54 <
1 -5 -1 20.03 25.50 1.03 o
1 -5 0 565.30 565.41 12.41 o
1 -5 1 40.22 34.98 1.85 o
1 -5 2 223.22 219.30 5.26 o
1 -5 3 74.32 69.01 2.37 o
1 -5 4 180.99 162.72 5.55 o
1 -5 5 270.27 255.66 4.57 o
1 -5 6 133.28 126.87 2.96 o
1 -5 7 181.35 181.46 4.14 o
1 -5 8 49.19 42.54 2.16 o
1 -5 9 238.02 226.59 7.31 o
1 -5 10 3.18 2.57 1.09 <
1 -5 11 63.87 57.89 2.79 o
1 -5 12 3.86 5.81 1.34 o
1 -5 13 85.69 82.87 3.65 o
1 -5 14 12.61 10.18 0.98 o
1 -5 15 1.13 1.64 0.88 <
1 -5 16 76.81 73.57 3.73 o
1 -5 17 0.38 2.03 1.66 <
1 -5 18 9.19 11.76 2.16 o
1 -4 -17 23.20 20.67 1.73 o
1 -4 -16 97.85 98.58 3.25 o
1 -4 -15 7.99 8.54 1.30 o
1 -4 -14 9.49 10.29 1.29 o
1 -4 -13 222.10 226.93 5.41 o
1 -4 -12 5.32 4.43 1.02 o
1 -4 -11 60.40 51.18 2.04 o
1 -4 -10 237.33 241.35 5.50 o
1 -4 -9 41.64 40.45 1.73 o
1 -4 -8 0.11 -0.33 0.72 <
1 -4 -7 37.79 39.45 1.60 o
1 -4 -6 223.85 223.53 4.88 o
1 -4 -5 96.92 95.41 1.48 o
1 -4 -4 33.31 33.10 0.97 o
1 -4 -3 6.37 10.53 0.53 o
1 -4 -2 359.85 355.54 4.87 o
1 -4 -1 150.63 148.13 2.46 o
1 -4 0 1112.25 1166.74 24.83 o
1 -4 1 1888.99 1965.91 41.50 o
1 -4 2 408.15 392.07 8.67 o
1 -4 3 16.43 11.43 1.27 o
1 -4 4 1.11 0.84 0.43 <
1 -4 5 12.34 11.54 0.49 o
1 -4 6 151.23 140.56 2.62 o
1 -4 7 390.30 396.85 6.91 o
1 -4 8 3.43 3.39 0.41 o
1 -4 9 18.54 18.86 0.85 o
1 -4 10 133.07 130.41 2.62 o
1 -4 11 158.83 149.67 2.97 o
1 -4 12 0.04 -0.08 0.64 <
1 -4 13 114.14 109.66 2.02 o
1 -4 14 67.83 64.16 1.48 o
1 -4 15 22.87 25.92 1.03 o
1 -4 16 12.01 10.99 0.82 o
1 -4 17 39.46 42.05 1.39 o
1 -4 18 54.58 58.94 1.66 o
1 -4 19 0.02 0.21 1.17 <
1 -3 -18 4.21 3.22 1.39 <
1 -3 -17 72.05 66.94 2.72 o
1 -3 -16 52.51 52.25 2.38 o
1 -3 -15 46.81 39.62 2.10 o
1 -3 -14 2.66 2.01 1.09 <
1 -3 -13 8.07 7.13 1.13 o
1 -3 -12 0.07 -0.32 0.92 <
1 -3 -11 227.01 212.59 5.01 o
1 -3 -10 7.49 8.27 1.01 o
1 -3 -9 1.44 0.17 0.80 <
1 -3 -8 226.95 219.78 4.95 o
1 -3 -7 133.88 129.84 3.15 o
1 -3 -6 350.54 374.33 6.52 o
1 -3 -5 605.09 695.68 11.76 o
1 -3 -4 1081.93 1125.53 16.40 o
1 -3 -3 12.65 19.31 0.62 o
1 -3 -2 1.65 0.15 0.40 <
1 -3 -1 114.07 134.16 1.97 o
1 -3 0 1358.17 1302.94 27.55 o
1 -3 1 327.03 292.02 6.50 o
1 -3 2 169.09 155.23 3.73 o
1 -3 3 18.40 17.82 0.62 o
1 -3 4 29.42 24.78 0.78 o
1 -3 5 823.18 844.70 12.32 o
1 -3 6 367.55 390.85 5.82 o
1 -3 7 759.19 802.93 10.37 o
1 -3 8 65.74 67.93 1.07 o
1 -3 9 97.72 97.75 1.54 o
1 -3 10 0.21 0.07 0.45 <
1 -3 11 73.98 63.62 1.27 o
1 -3 12 0.45 0.23 0.50 <
1 -3 13 25.80 30.92 1.02 o
1 -3 14 8.08 4.18 0.61 o
1 -3 15 0.23 -0.23 0.59 <
1 -3 16 123.57 125.04 2.16 o
1 -3 17 2.20 0.88 0.70 <
1 -3 18 46.93 48.30 1.58 o
1 -3 19 0.01 -0.30 0.85 <
1 -2 -18 3.06 3.56 1.35 <
1 -2 -17 26.79 26.24 1.84 o
1 -2 -16 103.91 105.44 3.31 o
1 -2 -15 2.65 1.72 1.12 <
1 -2 -14 3.04 4.46 1.08 o
1 -2 -13 249.03 243.84 5.72 o
1 -2 -12 26.05 21.26 1.36 o
1 -2 -11 247.63 215.04 5.06 o
1 -2 -10 178.55 173.05 4.19 o
1 -2 -9 155.24 147.89 2.97 o
1 -2 -8 123.03 122.09 2.14 o
1 -2 -7 41.22 49.27 1.69 o
1 -2 -6 498.20 468.94 9.75 o
1 -2 -5 91.51 81.14 1.72 o
1 -2 -4 155.55 161.29 2.31 o
1 -2 -3 341.28 379.15 5.63 o
1 -2 -2 666.30 681.76 9.94 o
1 -2 -1 645.72 629.45 8.32 o
1 -2 0 4110.89 4307.90 56.57 o
1 -2 1 3220.22 3347.25 43.91 o
1 -2 2 63.09 56.58 0.87 o
1 -2 3 55.05 51.39 0.85 o
1 -2 4 212.51 207.66 2.50 o
1 -2 5 20.86 19.92 0.61 o
1 -2 6 1.28 0.65 0.30 <
1 -2 7 258.35 272.83 3.33 o
1 -2 8 7.99 7.76 0.41 o
1 -2 9 30.43 31.72 0.90 o
1 -2 10 179.81 164.14 2.41 o
1 -2 11 165.56 161.13 2.43 o
1 -2 12 4.00 2.58 0.57 o
1 -2 13 87.82 83.65 1.61 o
1 -2 14 65.49 60.06 1.40 o
1 -2 15 44.16 48.38 1.51 o
1 -2 16 42.10 43.96 1.52 o
1 -2 17 76.88 74.21 2.19 o
1 -2 18 12.64 13.61 1.49 o
1 -2 19 2.88 3.04 1.32 <
1 -1 -19 42.74 43.22 2.40 o
1 -1 -18 3.21 4.12 1.32 o
1 -1 -17 31.92 31.30 1.90 o
1 -1 -16 95.70 88.92 2.96 o
1 -1 -15 98.42 98.35 3.05 o
1 -1 -14 26.12 21.90 1.47 o
1 -1 -13 0.06 1.07 0.95 <
1 -1 -12 249.80 251.97 5.82 o
1 -1 -11 647.50 652.64 11.31 o
1 -1 -10 9.48 12.30 0.77 o
1 -1 -9 0.03 0.40 0.42 <
1 -1 -8 487.46 518.87 7.62 o
1 -1 -7 320.43 344.95 4.56 o
1 -1 -6 822.85 930.03 11.80 o
1 -1 -5 597.61 721.22 9.17 o
1 -1 -4 1493.77 1576.75 19.81 o
1 -1 -3 57.69 57.47 0.86 o
1 -1 -2 1423.27 1484.89 18.96 o
1 -1 -1 384.82 391.32 4.57 o
1 -1 0 4438.42 4471.45 46.25 o
1 -1 1 1038.39 1112.50 10.55 o
1 -1 2 33.94 25.95 0.43 o
1 -1 3 62.54 59.23 0.72 o
1 -1 4 11.30 10.34 0.28 o
1 -1 5 1687.90 1841.65 19.57 o
1 -1 6 517.50 608.89 6.59 o
1 -1 7 954.81 1092.54 11.72 o
1 -1 8 106.59 102.83 1.38 o
1 -1 9 95.52 102.65 1.43 o
1 -1 10 0.03 0.49 0.41 <
1 -1 11 134.84 116.66 1.79 o
1 -1 12 3.21 6.55 0.65 o
1 -1 13 24.19 27.12 1.07 o
1 -1 14 0.85 0.92 0.81 <
1 -1 15 1.94 -0.18 1.00 <
1 -1 16 199.37 205.14 5.12 o
1 -1 17 18.35 18.58 1.58 o
1 -1 18 39.13 36.57 2.11 o
1 -1 19 14.91 13.16 1.61 o
1 0 -19 0.57 0.30 1.27 <
1 0 -18 0.06 0.92 1.21 <
1 0 -17 15.10 13.32 1.43 o
1 0 -16 110.14 108.95 3.34 o
1 0 -15 0.68 2.03 1.05 <
1 0 -14 10.46 9.95 1.21 o
1 0 -13 197.33 195.84 3.93 o
1 0 -12 162.31 144.98 2.64 o
1 0 -11 643.69 599.82 8.88 o
1 0 -10 13.17 13.47 0.62 o
1 0 -9 277.60 277.66 3.44 o
1 0 -8 479.58 459.87 5.45 o
1 0 -7 52.06 53.22 1.00 o
1 0 -6 405.53 403.15 5.25 o
1 0 -5 23.84 23.06 0.69 o
1 0 -4 495.52 487.26 6.22 o
1 0 -3 545.55 545.61 7.82 o
1 0 -2 927.28 937.79 12.01 o
1 0 -1 486.13 511.72 7.31 o
1 0 0 1901.94 1955.86 22.94 o
1 0 1 393.23 404.59 5.22 o
1 0 2 482.42 485.15 7.00 o
1 0 3 145.47 154.08 2.10 o
1 0 4 4.76 4.87 0.32 o
1 0 5 207.40 225.44 2.56 o
1 0 6 143.04 186.02 2.20 o
1 0 7 234.60 253.91 2.91 o
1 0 8 21.73 20.01 0.57 o
1 0 9 9.42 3.66 0.48 o
1 0 10 145.31 141.50 2.05 o
1 0 11 12.18 13.92 0.75 o
1 0 12 11.86 8.30 0.78 o
1 0 13 49.74 48.88 2.05 o
1 0 14 141.10 136.53 3.69 o
1 0 15 62.27 55.62 2.29 o
1 0 16 104.17 106.20 3.26 o
1 0 17 84.66 77.69 2.83 o
1 0 18 4.60 4.38 1.30 o
1 0 19 0.16 1.93 1.35 <
1 1 -20 9.33 8.95 1.56 o
1 1 -19 193.34 194.81 5.16 o
1 1 -18 0.45 1.46 1.21 <
1 1 -17 20.71 21.68 1.63 o
1 1 -16 38.55 43.72 2.18 o
1 1 -15 190.95 196.57 4.02 o
1 1 -14 254.12 256.20 4.22 o
1 1 -13 49.13 45.59 1.42 o
1 1 -12 434.68 440.11 5.91 o
1 1 -11 643.62 672.21 8.74 o
1 1 -10 44.88 38.55 1.08 o
1 1 -9 69.30 80.12 1.31 o
1 1 -8 610.71 634.75 7.40 o
1 1 -7 238.94 237.92 2.92 o
1 1 -6 630.34 696.09 8.04 o
1 1 -5 12.17 16.14 0.56 o
1 1 -4 66.15 65.37 1.03 o
1 1 -3 398.81 400.54 5.77 o
1 1 -2 5659.92 5949.36 75.93 o
1 1 -1 391.39 389.61 4.32 o
1 1 0 2981.66 3050.29 31.22 o
1 1 1 1352.79 1494.25 14.15 o
1 1 2 26.27 22.19 0.44 o
1 1 3 4.22 4.15 0.29 o
1 1 4 27.67 23.55 0.62 o
1 1 5 570.15 655.46 8.52 o
1 1 6 249.42 285.93 3.88 o
1 1 7 316.16 355.56 4.33 o
1 1 8 67.00 57.67 1.21 o
1 1 9 112.41 120.73 2.23 o
1 1 10 40.62 41.89 1.30 o
1 1 11 121.03 113.63 2.24 o
1 1 12 68.22 67.30 1.95 o
1 1 13 106.67 112.32 2.66 o
1 1 14 0.12 -0.54 0.98 <
1 1 15 6.60 5.07 1.17 o
1 1 16 162.82 156.33 4.23 o
1 1 17 43.47 46.20 2.32 o
1 1 18 2.83 1.61 1.28 <
1 1 19 10.51 8.80 1.55 o
1 2 -20 24.71 27.00 1.92 o
1 2 -19 0.02 0.51 1.24 <
1 2 -18 0.32 -0.45 1.15 <
1 2 -17 1.57 1.22 0.96 <
1 2 -16 160.93 166.85 3.06 o
1 2 -15 1.27 3.05 0.76 o
1 2 -14 40.04 42.36 1.24 o
1 2 -13 147.30 139.58 2.26 o
1 2 -12 276.99 255.28 3.60 o
1 2 -11 685.46 647.99 8.41 o
1 2 -10 0.37 0.86 0.49 <
1 2 -9 239.23 236.63 2.98 o
1 2 -8 258.70 250.16 3.10 o
1 2 -7 0.83 1.04 0.33 o
1 2 -6 82.83 77.63 1.26 o
1 2 -5 0.62 0.53 0.33 <
1 2 -4 404.24 404.94 5.15 o
1 2 -3 277.17 298.04 5.06 o
1 2 -2 1526.22 1558.62 26.67 o
1 2 -1 3760.99 3865.26 66.12 o
1 2 0 77.25 78.52 1.19 o
1 2 1 108.92 114.77 1.65 o
1 2 2 13.35 13.12 0.49 o
1 2 3 123.47 115.88 1.89 o
1 2 4 40.48 43.51 0.91 o
1 2 5 248.33 276.75 5.98 o
1 2 6 1.73 0.56 0.45 <
1 2 7 805.35 814.47 16.70 o
1 2 8 144.05 147.45 3.55 o
1 2 9 413.42 379.07 6.75 o
1 2 10 159.24 151.85 3.13 o
1 2 11 1.11 0.82 0.77 <
1 2 12 0.04 0.33 0.80 <
1 2 13 47.57 50.78 1.81 o
1 2 14 249.65 246.33 4.86 o
1 2 15 54.91 52.63 2.28 o
1 2 16 51.63 52.46 2.32 o
1 2 17 34.56 33.41 1.99 o
1 2 18 35.67 35.34 2.13 o
1 3 -19 266.60 289.98 4.69 o
1 3 -18 8.42 9.24 0.91 o
1 3 -17 52.66 53.43 1.46 o
1 3 -16 1.18 1.68 0.66 <
1 3 -15 215.22 220.05 3.23 o
1 3 -14 221.34 220.61 3.20 o
1 3 -13 89.46 85.45 1.58 o
1 3 -12 130.57 125.42 1.99 o
1 3 -11 130.40 139.25 2.12 o
1 3 -10 224.37 207.40 2.89 o
1 3 -9 308.50 311.56 4.12 o
1 3 -8 453.08 434.88 5.60 o
1 3 -7 120.28 113.19 2.20 o
1 3 -6 238.23 242.57 4.24 o
1 3 -5 75.36 80.20 2.04 o
1 3 -4 45.15 59.74 1.63 o
1 3 -3 138.46 133.49 3.25 o
1 3 -2 2516.18 2557.25 53.77 o
1 3 -1 136.55 148.45 3.62 o
1 3 0 499.93 504.99 10.93 o
1 3 1 882.92 957.52 14.16 o
1 3 2 13.14 11.34 0.57 o
1 3 3 87.19 82.59 1.39 o
1 3 4 32.19 32.32 0.88 o
1 3 5 142.08 161.39 2.60 o
1 3 6 87.68 90.54 1.94 o
1 3 7 47.89 52.64 1.48 o
1 3 8 32.91 25.87 1.86 o
1 3 9 60.92 66.62 3.17 o
1 3 10 198.86 190.40 6.52 o
1 3 11 14.96 13.87 0.98 o
1 3 12 107.95 100.77 2.45 o
1 3 13 179.29 179.07 3.74 o
1 3 14 0.63 1.08 1.23 <
1 3 15 0.41 1.92 1.82 <
1 3 16 60.42 55.67 3.67 o
1 3 17 26.84 20.81 2.67 o
1 4 -19 0.23 1.84 1.19 <
1 4 -18 0.40 2.11 0.96 <
1 4 -17 0.03 -0.39 0.85 <
1 4 -16 176.78 179.30 3.71 o
1 4 -15 6.47 7.73 0.91 o
1 4 -14 21.57 24.23 1.17 o
1 4 -13 127.61 119.22 2.58 o
1 4 -12 96.03 92.25 2.12 o
1 4 -11 411.57 395.49 6.95 o
1 4 -10 71.43 72.23 1.71 o
1 4 -9 225.28 227.38 4.09 o
1 4 -8 7.52 5.80 0.76 o
1 4 -7 36.34 36.61 1.40 o
1 4 -6 9.10 8.67 0.68 o
1 4 -5 49.93 45.11 1.36 o
1 4 -4 197.25 204.63 4.77 o
1 4 -3 418.41 404.59 13.22 o
1 4 -2 805.21 817.57 17.55 o
1 4 -1 396.13 456.38 10.02 o
1 4 0 233.64 220.58 5.17 o
1 4 1 268.17 263.81 4.85 o
1 4 2 380.07 386.91 5.92 o
1 4 3 82.43 76.61 1.58 o
1 4 4 2.67 1.77 0.54 o
1 4 5 26.65 29.19 0.79 o
1 4 6 104.12 105.57 2.22 o
1 4 7 1304.33 1372.61 22.79 o
1 4 8 86.20 95.47 2.18 o
1 4 9 452.68 439.55 7.67 o
1 4 10 84.53 87.62 2.16 o
1 4 11 22.16 23.69 1.03 o
1 4 12 29.06 30.81 1.19 o
1 4 13 46.01 45.42 1.72 o
1 4 14 172.87 170.63 3.70 o
1 4 15 26.95 27.40 1.47 o
1 4 16 0.05 0.86 1.23 <
1 4 17 0.96 0.82 2.07 <
1 5 -19 128.43 139.47 5.95 o
1 5 -18 13.99 14.95 2.28 o
1 5 -17 72.01 69.45 3.78 o
1 5 -16 0.40 -0.96 1.56 <
1 5 -15 143.32 143.02 5.53 o
1 5 -14 18.44 18.34 1.91 o
1 5 -13 42.54 38.26 2.52 o
1 5 -12 7.36 8.09 1.40 o
1 5 -11 0.41 0.80 1.14 <
1 5 -10 156.14 139.45 4.93 o
1 5 -9 258.18 252.82 8.09 o
1 5 -8 139.65 128.74 4.48 o
1 5 -7 26.56 20.99 1.69 o
1 5 -6 119.86 111.02 3.80 o
1 5 -5 12.41 17.43 1.34 o
1 5 -4 0.07 0.73 1.45 <
1 5 -3 25.90 25.10 1.38 o
1 5 -2 396.91 408.69 9.17 o
1 5 -1 0.97 0.28 0.92 <
1 5 0 68.52 61.85 2.26 o
1 5 1 217.32 222.36 4.24 o
1 5 2 8.90 9.43 0.83 o
1 5 3 10.39 7.94 0.84 o
1 5 4 9.79 9.09 0.88 o
1 5 5 138.77 139.18 3.91 o
1 5 6 40.43 41.07 2.19 o
1 5 7 22.04 21.49 1.56 o
1 5 8 14.45 12.12 1.40 o
1 5 9 1.46 2.55 0.83 o
1 5 10 178.90 185.07 4.38 o
1 5 11 0.03 0.57 0.89 <
1 5 12 37.02 43.67 1.67 o
1 5 13 84.44 90.15 2.84 o
1 5 14 1.64 2.73 1.14 <
1 5 15 0.22 1.81 1.22 <
1 6 -18 0.80 -0.11 1.80 <
1 6 -17 0.30 0.17 1.72 <
1 6 -16 81.90 89.60 4.23 o
1 6 -15 11.28 9.80 1.83 o
1 6 -14 0.54 1.95 1.40 <
1 6 -13 99.15 94.98 4.01 o
1 6 -12 0.05 0.83 1.17 <
1 6 -11 148.36 136.79 4.92 o
1 6 -10 167.62 151.22 5.25 o
1 6 -9 123.04 120.38 4.31 o
1 6 -8 0.51 0.65 0.98 <
1 6 -7 17.71 19.18 1.64 o
1 6 -6 34.25 31.38 1.79 o
1 6 -4 77.22 80.82 4.35 o
1 6 -3 18.54 15.16 1.35 o
1 6 -2 259.41 256.17 6.21 o
1 6 -1 23.39 20.46 1.50 o
1 6 0 359.39 356.83 8.28 o
1 6 1 139.21 141.25 3.03 o
1 6 2 328.44 338.53 6.32 o
1 6 3 56.22 60.63 2.52 o
1 6 4 49.03 50.84 2.34 o
1 6 5 0.08 -0.29 1.13 <
1 6 6 91.61 92.89 3.17 o
1 6 7 739.70 720.52 16.01 o
1 6 8 10.08 9.53 1.46 o
1 6 9 70.33 62.32 2.78 o
1 6 10 13.05 14.23 1.64 o
1 6 11 93.29 90.12 2.62 o
1 6 12 46.71 43.78 2.48 o
1 6 13 19.85 17.53 1.94 o
1 6 14 52.33 55.43 2.97 o
1 7 -17 35.58 32.94 2.75 o
1 7 -16 11.01 8.34 1.97 o
1 7 -15 80.10 83.61 3.96 o
1 7 -14 5.49 5.08 1.55 o
1 7 -13 13.91 12.00 1.71 o
1 7 -12 13.30 12.39 1.59 o
1 7 -11 3.87 3.38 1.24 <
1 7 -10 32.25 31.91 2.08 o
1 7 -9 93.71 93.00 3.54 o
1 7 -8 54.96 55.73 2.49 o
1 7 -7 32.91 29.01 1.83 o
1 7 -6 102.19 102.55 3.52 o
1 7 -4 44.03 37.74 3.00 o
1 7 -3 59.40 54.76 2.46 o
1 7 -2 95.62 90.62 3.09 o
1 7 -1 36.64 36.81 2.17 o
1 7 0 29.03 27.65 1.77 o
1 7 1 46.62 47.79 1.74 o
1 7 2 9.13 7.70 1.36 o
1 7 3 4.59 4.40 1.30 o
1 7 4 3.05 1.18 1.26 <
1 7 5 141.99 142.24 4.22 o
1 7 6 17.35 15.02 1.58 o
1 7 7 8.49 4.98 1.43 o
1 7 8 22.83 22.39 1.84 o
1 7 9 0.21 -0.93 1.34 <
1 7 10 43.53 39.71 2.35 o
1 7 11 4.53 5.74 1.59 o
1 7 12 2.21 2.68 1.61 <
1 7 13 19.81 20.49 3.27 o
1 8 -16 12.33 9.74 2.04 o
1 8 -15 10.03 8.22 1.86 o
1 8 -14 9.63 9.50 1.76 o
1 8 -13 68.40 69.53 3.42 o
1 8 -12 5.05 5.89 1.43 o
1 8 -11 36.88 36.06 2.32 o
1 8 -10 50.90 49.49 2.57 o
1 8 -9 55.91 56.12 2.62 o
1 8 -8 29.42 30.19 1.92 o
1 8 -7 12.90 9.90 1.17 o
1 8 -4 38.78 42.54 3.72 o
1 8 -3 45.36 43.10 2.44 o
1 8 -2 61.13 63.85 2.76 o
1 8 -1 84.29 85.16 3.13 o
1 8 0 218.65 211.79 5.61 o
1 8 1 17.42 19.44 1.74 o
1 8 2 77.14 77.85 3.09 o
1 8 3 42.80 45.21 2.40 o
1 8 4 63.95 63.35 2.86 o
1 8 5 0.42 0.18 1.40 <
1 8 6 9.00 9.37 1.65 o
1 8 7 140.06 141.96 4.52 o
1 8 8 0.18 0.23 1.55 <
1 8 9 0.01 1.11 1.54 <
1 8 10 0.54 3.03 1.64 <
1 8 11 53.11 52.15 4.70 o
1 9 -14 1.17 -0.19 1.58 <
1 9 -13 22.77 23.17 2.17 o
1 9 -12 33.46 33.00 2.55 o
1 9 -11 2.51 3.24 1.38 <
1 9 -10 14.71 17.09 1.66 o
1 9 -9 42.51 43.20 2.39 o
1 9 -8 29.58 31.64 2.02 o
1 9 -7 36.97 38.62 2.08 o
1 9 -4 20.68 18.87 2.84 o
1 9 -3 64.52 71.20 4.79 o
1 9 -2 77.87 81.63 3.26 o
1 9 -1 28.05 27.88 2.06 o
1 9 0 10.82 12.83 1.76 o
1 9 1 5.41 5.85 1.61 o
1 9 2 10.77 11.98 1.74 o
1 9 3 11.61 11.78 1.77 o
1 9 4 0.07 0.45 1.55 <
1 9 5 68.01 72.43 3.29 o
1 9 6 11.76 12.59 1.85 o
1 9 7 0.02 1.23 1.63 <
1 9 8 38.17 33.92 1.87 o
1 10 -11 10.29 11.48 1.72 o
1 10 -10 0.09 0.40 1.34 <
1 10 -9 26.55 30.07 2.19 o
1 10 -8 41.83 50.44 2.53 o
1 10 -3 56.98 54.42 4.64 o
1 10 -2 32.20 31.57 2.39 o
1 10 -1 17.81 21.63 2.14 o
1 10 0 30.46 30.08 2.34 o
1 10 1 0.49 0.45 1.68 <
1 10 2 4.42 2.69 1.76 <
1 10 3 26.03 29.33 2.38 o
1 10 4 15.55 16.52 2.09 o
1 10 5 12.36 9.00 1.42 o
1 11 -2 54.44 57.29 5.14 o
2 -11 3 12.50 12.48 1.34 o
2 -10 -5 21.35 21.57 3.28 o
2 -10 -4 9.68 11.19 3.03 o
2 -10 -3 7.09 8.94 1.89 o
2 -10 -2 18.06 16.27 1.47 o
2 -10 -1 0.01 -2.10 1.14 <
2 -10 0 94.32 93.97 2.83 o
2 -10 1 39.17 38.44 1.84 o
2 -10 2 0.50 -0.49 1.16 <
2 -10 3 7.18 6.96 1.31 o
2 -10 4 32.32 38.67 1.98 o
2 -10 5 47.93 60.39 2.45 o
2 -10 6 3.25 4.79 1.13 o
2 -10 7 10.98 16.09 1.51 o
2 -10 8 37.33 45.45 2.51 o
2 -10 9 31.82 37.77 2.42 o
2 -10 10 12.95 14.10 1.73 o
2 -9 -8 11.53 18.04 2.97 o
2 -9 -7 7.02 8.47 1.81 o
2 -9 -6 7.81 7.71 1.76 o
2 -9 -5 6.42 6.52 1.71 o
2 -9 -4 18.53 24.99 2.11 o
2 -9 -3 34.37 33.34 1.71 o
2 -9 -2 0.68 -0.22 1.06 <
2 -9 -1 16.75 11.61 1.23 o
2 -9 0 40.09 41.04 1.73 o
2 -9 1 6.22 6.65 1.13 o
2 -9 2 38.93 41.20 2.00 o
2 -9 3 36.16 40.25 1.85 o
2 -9 4 0.70 -0.28 1.06 <
2 -9 5 16.76 20.27 1.53 o
2 -9 6 2.55 1.10 1.13 <
2 -9 7 112.18 124.57 4.43 o
2 -9 8 0.05 0.05 1.08 <
2 -9 9 9.01 9.21 1.37 o
2 -9 10 48.65 53.08 2.78 o
2 -9 11 2.57 0.11 1.31 <
2 -9 12 5.39 5.53 1.56 o
2 -9 13 0.32 3.00 1.57 <
2 -8 -11 12.31 18.50 2.92 o
2 -8 -10 7.60 11.10 1.85 o
2 -8 -9 0.14 0.45 1.55 <
2 -8 -8 15.98 13.13 1.80 o
2 -8 -7 26.87 24.74 1.99 o
2 -8 -6 87.57 95.01 3.51 o
2 -8 -5 16.20 15.20 1.74 o
2 -8 -4 15.89 17.42 1.30 o
2 -8 -3 80.79 86.16 2.49 o
2 -8 -2 131.99 130.71 3.15 o
2 -8 -1 4.55 4.39 1.01 o
2 -8 0 253.76 248.89 4.99 o
2 -8 1 262.79 264.70 5.24 o
2 -8 2 1.92 1.18 0.92 <
2 -8 3 12.89 13.28 1.17 o
2 -8 4 32.52 35.01 1.64 o
2 -8 5 123.21 126.71 3.43 o
2 -8 6 44.79 44.65 1.95 o
2 -8 7 1.93 1.75 0.96 <
2 -8 8 46.79 47.66 2.41 o
2 -8 9 80.48 85.95 3.49 o
2 -8 10 179.43 176.52 6.13 o
2 -8 11 52.84 56.88 2.92 o
2 -8 12 13.41 13.26 1.75 o
2 -8 13 54.17 54.44 3.12 o
2 -8 14 6.12 8.44 1.84 o
2 -8 15 7.26 6.41 1.85 o
2 -7 -13 0.31 0.82 2.28 <
2 -7 -12 5.39 4.96 1.66 <
2 -7 -11 55.86 59.88 3.02 o
2 -7 -10 8.18 5.86 1.61 o
2 -7 -9 33.09 32.53 2.15 o
2 -7 -8 0.06 -0.04 1.34 <
2 -7 -7 8.32 10.72 1.56 o
2 -7 -6 17.21 15.85 1.64 o
2 -7 -5 93.70 93.19 2.51 o
2 -7 -4 36.25 35.16 1.53 o
2 -7 -3 209.36 203.34 4.20 o
2 -7 -2 3.01 3.96 0.95 o
2 -7 -1 16.91 16.36 1.12 o
2 -7 0 148.16 145.08 3.18 o
2 -7 1 2.64 2.78 0.69 o
2 -7 2 188.57 188.11 3.26 o
2 -7 3 25.83 25.81 1.10 o
2 -7 4 14.97 14.44 1.14 o
2 -7 5 0.62 0.80 0.91 <
2 -7 6 10.25 8.79 1.07 o
2 -7 7 410.74 403.14 12.40 o
2 -7 8 35.35 32.93 2.03 o
2 -7 9 77.26 77.02 3.20 o
2 -7 10 21.10 22.44 1.92 o
2 -7 11 6.54 4.90 1.31 o
2 -7 12 9.84 11.53 1.63 o
2 -7 13 6.05 6.65 1.55 o
2 -7 14 21.07 21.14 2.11 o
2 -7 15 16.26 14.98 2.06 o
2 -7 16 0.86 2.05 1.70 <
2 -6 -14 24.65 21.15 2.05 o
2 -6 -13 22.30 23.94 2.07 o
2 -6 -12 49.39 53.25 2.87 o
2 -6 -11 8.53 12.47 1.69 o
2 -6 -10 93.67 86.15 3.26 o
2 -6 -9 20.43 15.43 1.64 o
2 -6 -8 43.24 42.76 2.39 o
2 -6 -7 86.06 76.20 2.91 o
2 -6 -6 277.83 271.14 6.71 o
2 -6 -5 7.90 7.15 1.00 o
2 -6 -4 18.14 16.45 1.12 o
2 -6 -3 146.39 139.05 3.07 o
2 -6 -2 312.39 304.09 5.76 o
2 -6 -1 99.88 99.33 2.03 o
2 -6 0 209.93 204.84 3.45 o
2 -6 1 528.17 520.22 8.01 o
2 -6 2 44.31 39.41 1.28 o
2 -6 3 2.38 0.15 0.61 <
2 -6 4 1.02 0.54 0.62 <
2 -6 5 194.89 197.04 3.73 o
2 -6 6 74.81 72.12 2.24 o
2 -6 7 58.11 59.30 2.55 o
2 -6 8 8.51 9.70 1.21 o
2 -6 9 41.93 39.30 2.19 o
2 -6 10 489.20 448.69 13.94 o
2 -6 11 47.49 43.49 2.50 o
2 -6 12 12.38 13.56 1.66 o
2 -6 13 46.41 44.40 2.71 o
2 -6 14 1.21 -0.25 1.39 <
2 -6 15 13.51 11.80 1.90 o
2 -6 16 54.90 59.23 3.44 o
2 -6 17 5.06 6.05 1.90 o
2 -5 -16 62.16 64.70 2.66 o
2 -5 -15 11.07 15.10 1.53 o
2 -5 -14 26.40 28.35 1.82 o
2 -5 -13 35.84 36.38 1.90 o
2 -5 -12 13.49 15.06 1.29 o
2 -5 -11 15.20 17.01 1.30 o
2 -5 -10 101.02 93.73 2.70 o
2 -5 -9 76.73 74.58 2.11 o
2 -5 -8 2.51 5.13 0.85 o
2 -5 -7 39.31 42.08 1.77 o
2 -5 -6 63.01 64.97 1.71 o
2 -5 -5 264.30 259.92 5.06 o
2 -5 -4 106.13 103.83 2.51 o
2 -5 -3 159.91 163.22 2.89 o
2 -5 -2 0.01 0.40 0.59 <
2 -5 -1 52.37 45.98 1.30 o
2 -5 0 484.10 497.48 7.63 o
2 -5 1 8.55 10.19 0.66 o
2 -5 2 553.58 567.41 8.64 o
2 -5 3 0.06 -0.67 0.56 <
2 -5 4 50.32 46.37 1.35 o
2 -5 5 5.95 5.88 0.67 o
2 -5 6 72.80 71.65 2.18 o
2 -5 7 762.74 701.09 21.09 o
2 -5 8 94.69 87.72 3.38 o
2 -5 9 107.28 93.94 3.63 o
2 -5 10 37.91 38.52 2.31 o
2 -5 11 13.34 13.24 1.55 o
2 -5 12 2.58 2.83 0.80 o
2 -5 13 45.69 46.18 1.79 o
2 -5 14 32.43 39.53 1.76 o
2 -5 15 42.32 40.41 1.86 o
2 -5 16 9.59 9.08 1.86 o
2 -5 17 44.45 47.77 3.30 o
2 -5 18 123.01 129.24 5.58 o
2 -4 -17 25.81 24.00 1.84 o
2 -4 -16 6.18 8.72 1.44 o
2 -4 -15 54.65 50.20 2.35 o
2 -4 -14 11.24 10.62 1.34 o
2 -4 -13 31.71 33.15 1.83 o
2 -4 -12 42.92 44.25 2.02 o
2 -4 -11 0.18 2.72 0.97 <
2 -4 -10 212.39 204.57 4.82 o
2 -4 -9 139.16 126.57 3.27 o
2 -4 -8 36.51 37.52 1.70 o
2 -4 -7 192.37 168.83 3.96 o
2 -4 -6 573.87 580.26 8.83 o
2 -4 -5 23.83 25.08 0.93 o
2 -4 -4 10.29 9.95 0.47 o
2 -4 -3 174.92 176.55 2.65 o
2 -4 -2 333.97 322.02 4.48 o
2 -4 -1 221.27 233.41 3.31 o
2 -4 0 34.46 29.64 0.86 o
2 -4 1 341.96 333.41 4.58 o
2 -4 2 95.61 91.92 1.63 o
2 -4 3 59.71 64.85 1.52 o
2 -4 4 25.01 26.33 0.87 o
2 -4 5 249.83 257.16 3.98 o
2 -4 6 13.94 12.65 0.56 o
2 -4 7 78.25 81.19 1.77 o
2 -4 8 28.47 30.44 1.16 o
2 -4 9 1.35 1.22 0.59 <
2 -4 10 366.42 362.80 6.44 o
2 -4 11 147.87 134.49 2.78 o
2 -4 12 0.35 -0.73 0.54 <
2 -4 13 30.65 35.04 1.00 o
2 -4 14 1.13 0.57 0.54 <
2 -4 15 0.83 -0.54 0.57 <
2 -4 16 120.25 117.61 2.32 o
2 -4 17 0.06 -0.91 0.74 <
2 -4 18 44.11 53.47 2.42 o
2 -3 -18 7.42 6.45 1.75 o
2 -3 -17 0.11 -0.68 1.27 <
2 -3 -16 80.62 81.50 2.93 o
2 -3 -15 96.94 105.59 3.28 o
2 -3 -14 10.96 10.62 1.30 o
2 -3 -13 183.84 181.83 4.57 o
2 -3 -12 157.09 157.35 4.02 o
2 -3 -11 11.18 8.85 1.10 o
2 -3 -10 53.69 43.35 1.89 o
2 -3 -9 155.95 144.86 3.63 o
2 -3 -8 131.20 147.58 3.62 o
2 -3 -7 68.01 74.02 2.21 o
2 -3 -6 67.59 71.76 1.75 o
2 -3 -5 85.10 75.82 1.76 o
2 -3 -4 394.35 403.49 5.51 o
2 -3 -3 12.52 17.26 0.59 o
2 -3 -2 12.66 14.46 0.53 o
2 -3 -1 545.50 541.28 6.59 o
2 -3 0 930.89 999.40 12.01 o
2 -3 1 42.33 48.19 0.88 o
2 -3 2 1063.14 1137.97 14.76 o
2 -3 3 7.45 11.05 0.50 o
2 -3 4 165.71 160.35 2.29 o
2 -3 5 0.64 0.50 0.30 <
2 -3 6 84.37 74.92 1.13 o
2 -3 7 728.01 730.97 9.32 o
2 -3 8 9.40 11.35 0.53 o
2 -3 9 37.75 32.87 0.95 o
2 -3 10 96.03 92.27 1.60 o
2 -3 11 168.40 155.78 2.36 o
2 -3 12 10.66 10.34 0.66 o
2 -3 13 56.53 48.98 1.23 o
2 -3 14 92.37 87.59 1.68 o
2 -3 15 115.21 108.95 1.96 o
2 -3 16 34.17 40.54 1.30 o
2 -3 17 42.88 42.15 1.51 o
2 -3 18 129.90 141.89 2.73 o
2 -3 19 56.87 57.96 2.07 o
2 -2 -18 15.14 14.24 1.66 o
2 -2 -17 26.85 23.77 1.77 o
2 -2 -16 14.00 15.60 1.53 o
2 -2 -15 95.26 94.74 3.07 o
2 -2 -14 38.96 37.59 2.02 o
2 -2 -13 54.69 45.59 2.08 o
2 -2 -12 82.85 76.29 2.54 o
2 -2 -11 3.06 1.53 0.96 <
2 -2 -10 270.50 256.84 4.65 o
2 -2 -9 351.45 320.31 5.61 o
2 -2 -8 43.92 48.65 1.16 o
2 -2 -7 266.74 256.27 3.51 o
2 -2 -6 889.29 939.26 15.37 o
2 -2 -5 33.09 41.47 1.05 o
2 -2 -4 0.14 0.40 0.38 <
2 -2 -3 409.32 417.86 5.04 o
2 -2 -2 128.46 117.18 1.50 o
2 -2 -1 67.15 74.83 1.04 o
2 -2 0 23.60 28.15 0.64 o
2 -2 1 4.20 1.60 0.32 o
2 -2 2 151.71 147.90 1.77 o
2 -2 3 16.49 19.34 0.51 o
2 -2 4 5.59 7.69 0.35 o
2 -2 5 377.36 415.00 4.95 o
2 -2 6 0.44 0.77 0.33 <
2 -2 7 51.15 51.03 1.05 o
2 -2 8 513.87 496.60 6.46 o
2 -2 9 0.41 0.49 0.43 <
2 -2 10 93.71 102.60 1.76 o
2 -2 11 297.21 258.90 3.64 o
2 -2 12 9.64 4.98 0.62 o
2 -2 13 86.72 95.33 1.79 o
2 -2 14 8.63 6.85 0.80 o
2 -2 15 5.27 5.82 0.84 o
2 -2 16 164.25 161.21 3.44 o
2 -2 17 5.19 4.44 1.28 o
2 -2 18 16.34 15.69 1.62 o
2 -2 19 0.03 0.46 1.33 <
2 -1 -19 78.72 76.45 3.02 o
2 -1 -18 18.67 21.73 1.77 o
2 -1 -17 5.49 7.60 1.39 o
2 -1 -16 77.87 78.38 2.81 o
2 -1 -15 306.04 308.69 7.16 o
2 -1 -14 1.76 2.55 1.08 <
2 -1 -13 152.82 144.89 3.86 o
2 -1 -12 106.05 106.26 3.09 o
2 -1 -11 51.71 51.18 1.69 o
2 -1 -10 73.93 75.83 1.69 o
2 -1 -9 206.32 202.78 2.94 o
2 -1 -8 275.66 275.81 4.25 o
2 -1 -7 1.98 1.21 0.40 o
2 -1 -6 0.08 0.12 0.40 <
2 -1 -5 136.58 182.14 2.36 o
2 -1 -4 616.65 637.26 7.51 o
2 -1 -3 416.14 461.90 5.48 o
2 -1 -2 5.36 5.58 0.35 o
2 -1 -1 689.40 688.61 8.05 o
2 -1 0 406.98 457.93 5.40 o
2 -1 1 3.01 2.03 0.30 o
2 -1 2 1272.69 1370.21 14.70 o
2 -1 3 67.67 64.93 0.95 o
2 -1 4 44.22 39.84 0.85 o
2 -1 5 142.16 143.22 1.75 o
2 -1 6 1.26 3.16 0.36 o
2 -1 7 402.45 396.10 4.41 o
2 -1 8 43.71 37.03 0.85 o
2 -1 9 30.26 28.12 0.87 o
2 -1 10 62.95 70.84 1.34 o
2 -1 11 324.44 298.27 4.15 o
2 -1 12 78.47 72.02 1.73 o
2 -1 13 15.60 12.07 0.87 o
2 -1 14 190.66 189.31 4.72 o
2 -1 15 138.93 124.23 3.55 o
2 -1 16 22.60 21.77 1.58 o
2 -1 17 10.97 9.67 1.40 o
2 -1 18 39.50 38.84 2.23 o
2 -1 19 51.19 48.77 2.54 o
2 0 -19 58.27 57.58 2.70 o
2 0 -18 37.78 32.54 2.03 o
2 0 -17 49.26 52.96 2.41 o
2 0 -16 0.03 0.91 1.14 <
2 0 -15 103.95 101.29 3.13 o
2 0 -14 165.54 167.12 4.32 o
2 0 -13 138.95 125.32 3.46 o
2 0 -12 116.11 111.46 2.60 o
2 0 -11 0.26 0.99 0.69 <
2 0 -10 264.48 259.58 3.67 o
2 0 -9 395.58 414.45 5.51 o
2 0 -8 81.04 84.55 1.50 o
2 0 -7 193.51 197.21 2.78 o
2 0 -6 943.91 1072.22 13.61 o
2 0 -5 48.81 56.00 1.14 o
2 0 -4 2.02 2.75 0.41 o
2 0 -3 1006.12 1059.37 12.33 o
2 0 -2 0.97 2.35 0.28 o
2 0 -1 53.00 50.48 0.85 o
2 0 0 0.02 0.12 0.24 <
2 0 1 93.47 103.90 1.40 o
2 0 2 447.82 441.11 5.22 o
2 0 3 166.73 182.24 2.30 o
2 0 4 0.33 -0.50 0.36 <
2 0 5 842.33 941.13 12.04 o
2 0 6 195.82 210.45 2.68 o
2 0 7 41.27 40.85 0.92 o
2 0 8 1465.38 1454.82 15.60 o
2 0 9 17.18 16.81 0.61 o
2 0 10 64.60 73.02 1.38 o
2 0 11 178.05 155.27 2.83 o
2 0 12 3.79 1.63 0.79 <
2 0 13 223.19 219.11 5.27 o
2 0 14 17.09 17.71 1.39 o
2 0 15 0.99 0.36 1.09 <
2 0 16 68.65 65.56 2.58 o
2 0 17 49.95 50.86 2.39 o
2 0 18 6.07 5.04 1.42 o
2 0 19 5.67 4.87 1.48 o
2 1 -19 85.89 93.63 3.34 o
2 1 -18 5.42 7.10 1.40 o
2 1 -17 27.09 27.38 1.79 o
2 1 -16 75.97 75.25 2.74 o
2 1 -15 237.25 249.90 5.97 o
2 1 -14 45.01 45.82 1.51 o
2 1 -13 3.79 4.06 0.77 o
2 1 -12 4.26 3.73 0.66 o
2 1 -11 55.99 54.47 1.34 o
2 1 -10 335.90 326.90 4.47 o
2 1 -9 219.54 207.22 2.97 o
2 1 -8 219.85 202.96 2.61 o
2 1 -7 84.54 99.19 1.62 o
2 1 -6 0.17 -0.27 0.43 <
2 1 -5 222.86 269.21 3.62 o
2 1 -4 455.55 456.39 6.66 o
2 1 -3 33.72 34.39 0.83 o
2 1 -2 349.63 378.96 5.53 o
2 1 -1 105.08 89.70 1.27 o
2 1 0 64.36 74.40 1.19 o
2 1 1 124.88 119.12 1.53 o
2 1 2 2027.94 2207.42 23.61 o
2 1 3 373.12 376.42 4.51 o
2 1 4 16.71 23.17 0.61 o
2 1 5 132.52 152.43 1.85 o
2 1 6 3.38 4.40 0.41 o
2 1 7 431.23 440.22 5.83 o
2 1 8 152.39 146.02 2.26 o
2 1 9 87.58 87.35 1.85 o
2 1 10 3.70 6.19 0.72 o
2 1 11 293.52 264.78 5.00 o
2 1 12 171.97 173.40 3.59 o
2 1 13 0.14 -0.17 0.97 <
2 1 14 218.70 225.13 5.47 o
2 1 15 73.66 64.72 2.52 o
2 1 16 2.57 1.15 1.21 <
2 1 17 0.99 -0.90 1.89 <
2 1 18 6.69 9.64 2.33 o
2 2 -19 27.76 28.07 1.92 o
2 2 -18 44.56 41.48 2.28 o
2 2 -17 84.57 87.36 2.40 o
2 2 -16 26.83 28.00 1.23 o
2 2 -15 33.26 34.64 1.32 o
2 2 -14 235.82 246.95 3.61 o
2 2 -13 321.35 306.08 4.28 o
2 2 -12 57.63 52.04 1.29 o
2 2 -11 46.40 47.46 1.20 o
2 2 -10 242.30 232.94 3.29 o
2 2 -9 270.28 287.80 3.92 o
2 2 -8 152.58 150.49 2.22 o
2 2 -7 77.19 69.16 1.24 o
2 2 -6 639.72 658.45 8.41 o
2 2 -5 12.43 15.33 0.47 o
2 2 -4 59.27 70.03 1.22 o
2 2 -3 727.85 742.45 9.59 o
2 2 -2 270.40 268.48 3.32 o
2 2 -1 313.99 328.71 4.02 o
2 2 0 236.55 243.35 3.03 o
2 2 1 851.93 920.68 10.97 o
2 2 2 499.62 478.29 5.35 o
2 2 3 36.68 38.08 0.72 o
2 2 4 112.74 132.57 1.76 o
2 2 5 906.95 956.55 12.49 o
2 2 6 476.60 488.88 7.26 o
2 2 7 110.45 110.44 2.00 o
2 2 8 879.72 891.63 13.08 o
2 2 9 6.55 6.64 0.82 o
2 2 10 168.02 167.80 3.41 o
2 2 11 4.67 1.05 1.06 <
2 2 12 0.44 -0.46 1.08 <
2 2 13 204.79 197.01 5.01 o
2 2 14 4.32 4.79 1.79 <
2 2 15 10.53 12.70 1.40 o
2 2 16 1.92 3.35 1.26 <
2 2 17 73.35 71.98 2.85 o
2 2 18 19.52 21.40 1.86 o
2 3 -19 42.35 48.03 1.66 o
2 3 -18 0.36 1.60 0.82 <
2 3 -17 9.43 9.97 0.83 o
2 3 -16 85.01 79.48 1.68 o
2 3 -15 38.86 43.67 1.27 o
2 3 -14 177.36 179.53 2.73 o
2 3 -13 16.03 16.21 0.74 o
2 3 -12 30.35 30.89 1.03 o
2 3 -11 16.15 15.47 0.67 o
2 3 -10 157.13 150.38 2.24 o
2 3 -9 196.17 185.96 2.62 o
2 3 -8 127.02 120.97 1.80 o
2 3 -7 48.49 53.76 0.99 o
2 3 -6 4.68 3.87 0.54 o
2 3 -5 82.51 70.96 1.37 o
2 3 -4 381.82 397.15 5.92 o
2 3 -3 175.58 181.70 2.34 o
2 3 -2 775.97 820.07 12.27 o
2 3 -1 41.13 28.67 0.92 o
2 3 0 75.11 68.53 1.06 o
2 3 1 73.14 70.80 1.13 o
2 3 2 864.16 934.06 11.26 o
2 3 3 230.13 234.34 3.01 o
2 3 4 20.80 17.67 0.57 o
2 3 5 5.29 3.55 0.49 o
2 3 6 14.77 14.26 0.68 o
2 3 7 548.29 536.97 8.00 o
2 3 8 167.40 159.52 2.74 o
2 3 9 171.58 162.76 2.81 o
2 3 10 10.37 9.49 0.77 o
2 3 11 150.52 138.46 3.01 o
2 3 12 113.82 120.75 2.80 o
2 3 13 3.07 4.33 0.95 o
2 3 14 147.23 152.12 3.41 o
2 3 15 28.48 27.85 1.81 o
2 3 16 0.01 -0.10 1.21 <
2 3 17 0.84 3.28 1.35 <
2 4 -19 1.57 0.59 1.19 <
2 4 -18 42.97 42.63 1.85 o
2 4 -17 63.11 64.25 2.05 o
2 4 -16 26.78 23.74 1.31 o
2 4 -15 0.12 -0.32 0.79 <
2 4 -14 120.51 127.26 2.80 o
2 4 -13 332.95 323.46 5.90 o
2 4 -12 7.78 6.11 0.77 o
2 4 -11 78.90 78.13 1.89 o
2 4 -10 110.68 114.26 2.40 o
2 4 -9 196.34 198.48 3.69 o
2 4 -8 57.32 57.92 1.48 o
2 4 -7 32.34 26.53 1.45 o
2 4 -6 342.83 329.65 7.13 o
2 4 -5 25.30 26.95 1.31 o
2 4 -4 306.70 339.04 5.27 o
2 4 -3 39.14 29.48 0.88 o
2 4 -2 736.72 749.86 11.26 o
2 4 -1 706.06 715.51 10.76 o
2 4 0 189.26 184.71 2.68 o
2 4 1 272.23 283.46 3.97 o
2 4 2 239.13 231.56 3.31 o
2 4 3 0.52 1.04 0.47 <
2 4 4 111.02 118.79 1.72 o
2 4 5 381.85 391.37 5.41 o
2 4 6 92.96 90.12 1.76 o
2 4 7 76.42 77.66 1.65 o
2 4 8 87.36 88.38 1.82 o
2 4 9 13.49 13.45 0.80 o
2 4 10 207.12 200.13 3.94 o
2 4 11 6.42 6.01 0.90 o
2 4 12 0.04 0.04 0.85 <
2 4 13 62.10 57.86 1.94 o
2 4 14 0.43 2.40 0.99 <
2 4 15 8.98 10.49 1.39 o
2 4 16 0.06 2.21 1.27 <
2 5 -18 1.22 2.53 1.90 <
2 5 -17 2.19 1.66 1.77 <
2 5 -16 67.13 68.14 3.68 o
2 5 -15 3.63 4.71 1.68 <
2 5 -14 131.74 125.57 4.96 o
2 5 -13 1.78 0.36 1.34 <
2 5 -12 13.47 10.17 1.57 o
2 5 -11 2.82 2.32 1.32 <
2 5 -10 0.79 2.01 1.21 <
2 5 -9 131.12 115.36 4.30 o
2 5 -8 125.02 120.03 4.39 o
2 5 -7 0.75 0.15 1.11 <
2 5 -6 18.32 14.77 1.38 o
2 5 -5 471.47 434.30 13.21 o
2 5 -4 312.99 317.39 5.84 o
2 5 -3 21.74 22.03 1.00 o
2 5 -2 427.14 436.30 7.85 o
2 5 -1 118.29 106.17 2.00 o
2 5 0 122.92 111.17 2.09 o
2 5 1 37.03 38.76 1.16 o
2 5 2 144.44 158.83 2.81 o
2 5 3 87.71 84.17 2.13 o
2 5 4 122.29 114.84 2.65 o
2 5 5 106.83 106.29 2.53 o
2 5 6 30.66 28.74 1.34 o
2 5 7 409.89 393.07 7.33 o
2 5 8 168.29 168.74 3.04 o
2 5 9 166.79 157.10 2.92 o
2 5 10 4.93 3.78 0.95 o
2 5 11 77.05 78.68 2.50 o
2 5 12 28.66 34.39 1.73 o
2 5 13 4.07 4.80 1.16 o
2 5 14 74.52 76.97 2.71 o
2 5 15 19.00 17.55 2.60 o
2 6 -18 44.23 50.58 3.58 o
2 6 -17 25.06 32.68 2.84 o
2 6 -16 1.43 0.30 1.66 <
2 6 -15 1.87 2.88 1.65 <
2 6 -14 42.20 42.05 2.83 o
2 6 -13 134.99 126.18 4.90 o
2 6 -12 3.64 1.66 1.32 <
2 6 -11 23.45 20.58 1.79 o
2 6 -10 6.78 6.65 1.34 o
2 6 -9 253.38 234.59 7.68 o
2 6 -8 3.59 2.57 1.21 <
2 6 -7 57.95 50.37 2.52 o
2 6 -6 129.39 120.57 4.25 o
2 6 -5 37.09 38.37 2.08 o
2 6 -4 303.14 308.67 5.74 o
2 6 -3 0.16 -0.85 0.68 <
2 6 -2 429.69 442.71 8.01 o
2 6 -1 212.23 213.88 3.59 o
2 6 0 59.56 63.01 1.56 o
2 6 1 6.79 5.02 0.87 o
2 6 2 107.52 103.81 2.52 o
2 6 3 10.39 10.63 0.99 o
2 6 4 17.24 15.41 1.08 o
2 6 5 150.90 148.67 3.30 o
2 6 6 15.08 16.40 1.15 o
2 6 7 16.44 15.27 1.16 o
2 6 8 1.56 2.13 0.98 <
2 6 9 13.28 12.92 1.58 o
2 6 10 69.24 65.72 2.87 o
2 6 11 0.44 -0.41 1.42 <
2 6 12 0.01 1.53 1.49 <
2 6 13 17.97 18.89 1.99 o
2 7 -16 24.16 21.34 2.41 o
2 7 -15 16.86 16.87 2.15 o
2 7 -14 11.57 10.75 1.82 o
2 7 -13 3.51 3.23 1.50 <
2 7 -12 124.04 117.81 4.63 o
2 7 -11 11.21 10.72 1.58 o
2 7 -10 1.81 1.07 1.22 <
2 7 -9 65.46 62.43 2.91 o
2 7 -8 186.98 185.40 6.24 o
2 7 -7 13.12 14.24 1.44 o
2 7 -6 1.92 1.80 1.09 <
2 7 -5 178.68 172.93 5.65 o
2 7 -4 136.82 133.24 3.73 o
2 7 -3 79.30 77.84 2.01 o
2 7 -2 55.46 53.51 1.68 o
2 7 -1 92.82 98.29 2.49 o
2 7 0 110.16 107.42 2.63 o
2 7 1 22.65 22.73 1.26 o
2 7 2 5.58 5.60 0.96 o
2 7 3 28.68 31.67 1.43 o
2 7 4 83.06 85.07 2.37 o
2 7 5 87.30 89.38 2.49 o
2 7 6 5.02 3.89 1.04 o
2 7 7 142.62 132.60 3.21 o
2 7 8 149.79 146.46 4.39 o
2 7 9 85.66 73.95 3.04 o
2 7 10 1.55 1.92 1.48 <
2 7 11 40.31 38.63 2.44 o
2 7 12 8.92 8.46 1.75 o
2 8 -15 1.81 -1.44 1.64 <
2 8 -14 24.65 26.45 2.37 o
2 8 -13 16.32 15.43 1.90 o
2 8 -12 3.12 1.87 1.43 <
2 8 -11 0.03 2.58 1.39 <
2 8 -10 0.87 1.17 1.29 <
2 8 -9 217.06 205.70 6.91 o
2 8 -8 0.36 -0.21 1.21 <
2 8 -7 30.83 30.50 2.15 o
2 8 -6 41.56 44.01 2.36 o
2 8 -5 7.88 8.48 1.19 o
2 8 -4 120.03 120.25 3.55 o
2 8 -3 5.54 5.02 1.21 o
2 8 -2 144.54 150.20 4.11 o
2 8 -1 2.55 2.01 0.96 <
2 8 0 25.32 24.58 1.36 o
2 8 1 23.80 23.60 1.37 o
2 8 2 43.52 50.60 1.91 o
2 8 3 4.25 4.78 1.06 o
2 8 4 0.92 0.82 1.01 <
2 8 5 64.31 64.01 2.21 o
2 8 6 41.00 34.32 1.71 o
2 8 7 1.62 -0.15 1.40 <
2 8 8 0.96 1.89 1.55 <
2 8 9 1.69 3.33 1.56 <
2 8 10 2.99 3.65 1.66 <
2 9 -13 0.59 -1.32 1.52 <
2 9 -12 76.05 82.46 3.86 o
2 9 -11 26.28 26.23 2.17 o
2 9 -10 1.10 -0.29 1.35 <
2 9 -9 21.11 23.87 1.92 o
2 9 -8 116.20 125.11 4.62 o
2 9 -7 0.01 -0.72 1.23 <
2 9 -6 1.21 0.51 1.18 <
2 9 -5 6.00 2.70 1.19 <
2 9 -4 13.29 15.70 1.56 o
2 9 -3 119.30 124.07 3.78 o
2 9 -2 0.87 -0.30 1.25 <
2 9 -1 23.91 26.68 1.82 o
2 9 0 44.01 44.69 1.89 o
2 9 1 10.75 13.54 1.29 o
2 9 2 0.01 0.54 1.08 <
2 9 3 16.78 17.28 1.42 o
2 9 4 16.62 20.28 1.50 o
2 9 5 19.89 18.85 1.49 o
2 9 6 0.60 1.75 1.50 <
2 9 7 22.17 22.21 2.04 o
2 10 -10 0.19 0.09 1.48 <
2 10 -9 83.65 91.46 3.86 o
2 10 -8 0.04 -0.23 1.37 <
2 10 -7 2.11 1.27 1.37 <
2 10 -6 24.61 29.98 2.28 o
2 10 -5 1.23 -0.44 1.26 <
2 10 -4 15.72 18.07 1.51 o
2 10 -3 20.40 21.55 1.89 o
2 10 -2 42.10 44.77 2.37 o
2 10 -1 9.39 8.86 1.61 o
2 10 0 15.05 15.36 1.71 o
2 10 1 12.56 9.95 1.34 o
2 10 2 19.04 21.30 1.61 o
2 10 3 0.02 0.54 1.23 <
2 10 4 0.52 -0.69 1.70 <
3 -10 -3 5.62 6.92 1.72 o
3 -10 -2 5.13 5.29 1.57 o
3 -10 -1 1.10 2.31 1.40 <
3 -10 0 90.17 92.97 3.22 o
3 -10 1 8.00 8.45 1.50 o
3 -10 2 52.52 53.82 2.47 o
3 -10 3 11.26 14.34 1.59 o
3 -10 4 1.47 0.66 1.31 <
3 -10 5 0.21 0.33 1.31 <
3 -10 6 16.06 14.35 1.59 o
3 -10 7 24.93 29.94 2.23 o
3 -10 8 39.76 43.31 2.64 o
3 -10 9 0.45 1.94 1.43 <
3 -9 -6 156.19 151.95 6.70 o
3 -9 -5 0.22 0.60 2.20 <
3 -9 -4 14.40 13.58 1.58 o
3 -9 -3 58.84 62.81 2.34 o
3 -9 -2 9.30 9.22 1.27 o
3 -9 -1 56.94 52.56 2.15 o
3 -9 0 4.73 5.17 1.17 o
3 -9 1 72.25 69.75 2.60 o
3 -9 2 100.90 109.30 3.31 o
3 -9 3 1.07 -0.36 1.17 <
3 -9 4 12.03 10.27 1.37 o
3 -9 5 95.06 98.69 3.13 o
3 -9 6 63.16 65.56 2.55 o
3 -9 7 6.84 7.60 1.36 o
3 -9 8 59.69 62.15 3.01 o
3 -9 9 3.26 4.15 1.43 <
3 -9 10 14.12 14.13 1.78 o
3 -9 11 3.98 4.78 1.60 <
3 -9 12 3.12 3.51 1.61 <
3 -8 -9 40.96 46.41 3.73 o
3 -8 -8 17.40 17.29 2.72 o
3 -8 -7 11.97 12.51 1.77 o
3 -8 -6 7.85 8.29 1.63 o
3 -8 -5 51.43 49.12 2.11 o
3 -8 -4 51.99 54.59 2.14 o
3 -8 -3 0.01 -0.87 1.00 <
3 -8 -2 6.68 6.64 1.09 o
3 -8 -1 24.71 21.34 1.33 o
3 -8 0 155.59 148.60 3.39 o
3 -8 1 45.61 42.98 2.02 o
3 -8 2 60.67 57.88 2.25 o
3 -8 3 11.68 12.28 1.26 o
3 -8 4 0.57 0.27 1.06 <
3 -8 5 4.46 1.71 1.08 <
3 -8 6 16.80 13.43 1.34 o
3 -8 7 46.34 46.29 2.09 o
3 -8 8 37.93 39.12 2.34 o
3 -8 9 14.08 12.33 1.56 o
3 -8 10 9.27 8.06 1.52 o
3 -8 11 99.90 108.37 4.46 o
3 -8 12 0.02 0.40 1.45 <
3 -8 13 0.50 0.85 1.54 <
3 -8 14 29.03 34.62 2.89 o
3 -7 -11 100.11 114.96 5.76 o
3 -7 -10 9.80 7.04 2.43 <
3 -7 -9 91.59 93.68 3.55 o
3 -7 -8 6.91 6.20 1.54 o
3 -7 -7 7.25 9.87 1.58 o
3 -7 -6 326.64 317.84 6.26 o
3 -7 -5 8.08 9.25 1.13 o
3 -7 -4 14.71 14.89 1.19 o
3 -7 -3 41.38 43.65 1.82 o
3 -7 -2 190.37 185.74 3.94 o
3 -7 -1 305.45 284.11 5.51 o
3 -7 0 24.74 23.02 1.30 o
3 -7 1 119.93 120.19 3.30 o
3 -7 2 136.73 135.02 3.57 o
3 -7 3 0.75 1.71 1.00 <
3 -7 4 68.03 64.11 2.22 o
3 -7 5 128.41 133.34 3.53 o
3 -7 6 66.82 63.87 2.29 o
3 -7 7 20.68 19.44 1.35 o
3 -7 8 13.91 13.42 1.45 o
3 -7 9 9.06 8.49 1.39 o
3 -7 10 91.91 89.16 3.75 o
3 -7 11 1.50 2.45 1.34 <
3 -7 12 4.50 5.55 1.60 o
3 -7 13 13.58 13.99 1.91 o
3 -7 14 1.97 0.88 1.61 <
3 -7 15 41.70 44.83 3.20 o
3 -6 -13 0.36 1.09 2.24 <
3 -6 -12 6.36 7.36 1.64 o
3 -6 -11 24.34 24.84 2.00 o
3 -6 -10 25.65 28.59 2.00 o
3 -6 -9 31.46 30.67 1.98 o
3 -6 -8 55.27 56.76 2.73 o
3 -6 -7 47.72 46.21 2.46 o
3 -6 -6 6.29 7.72 1.06 o
3 -6 -5 193.37 188.76 4.02 o
3 -6 -4 38.23 39.81 1.68 o
3 -6 -3 7.48 6.19 0.95 o
3 -6 -2 36.96 35.85 1.48 o
3 -6 -1 80.16 74.42 2.07 o
3 -6 0 161.34 161.08 3.40 o
3 -6 1 31.23 29.54 1.51 o
3 -6 2 59.47 55.35 2.03 o
3 -6 3 20.46 16.62 1.17 o
3 -6 4 7.64 9.46 1.04 o
3 -6 5 10.20 10.73 1.09 o
3 -6 6 4.03 3.94 0.98 o
3 -6 7 212.13 206.93 4.92 o
3 -6 8 53.75 52.54 2.61 o
3 -6 9 194.03 176.79 6.10 o
3 -6 10 0.28 0.37 1.21 <
3 -6 11 148.28 146.02 5.42 o
3 -6 12 0.93 -0.83 1.35 <
3 -6 13 0.08 1.57 1.50 <
3 -6 14 67.21 71.06 3.67 o
3 -6 15 66.07 65.63 3.65 o
3 -6 16 1.68 2.30 1.76 <
3 -5 -15 2.54 3.98 1.37 <
3 -5 -14 218.66 234.10 5.77 o
3 -5 -13 133.31 136.71 3.86 o
3 -5 -12 0.12 0.32 0.95 <
3 -5 -11 66.62 74.23 2.23 o
3 -5 -10 3.33 4.26 0.93 o
3 -5 -9 455.85 445.08 8.11 o
3 -5 -8 0.25 0.35 0.79 <
3 -5 -7 12.50 13.53 0.85 o
3 -5 -6 269.74 274.49 4.04 o
3 -5 -5 10.06 9.67 0.85 o
3 -5 -4 310.78 309.61 5.03 o
3 -5 -3 2.02 2.23 0.70 o
3 -5 -2 493.46 479.36 7.42 o
3 -5 -1 424.29 403.30 7.34 o
3 -5 0 31.67 29.84 1.22 o
3 -5 1 34.22 35.33 1.68 o
3 -5 2 217.21 214.78 4.95 o
3 -5 3 4.31 5.61 0.93 o
3 -5 4 48.59 50.04 1.84 o
3 -5 5 126.62 124.77 3.20 o
3 -5 6 1.16 0.02 0.87 <
3 -5 7 62.49 59.39 2.74 o
3 -5 8 26.23 21.21 1.66 o
3 -5 9 55.98 49.47 2.63 o
3 -5 10 193.64 189.71 4.42 o
3 -5 11 0.31 -0.12 0.78 <
3 -5 12 10.21 10.61 1.04 o
3 -5 13 28.60 30.60 1.69 o
3 -5 14 20.61 22.36 1.40 o
3 -5 15 30.83 33.32 1.83 o
3 -5 16 45.27 41.07 3.09 o
3 -5 17 54.38 61.46 3.72 o
3 -4 -16 38.28 41.81 2.29 o
3 -4 -15 57.99 59.86 2.60 o
3 -4 -14 0.11 1.43 1.17 <
3 -4 -13 14.47 14.68 1.43 o
3 -4 -12 62.39 57.03 2.30 o
3 -4 -11 19.60 21.60 1.46 o
3 -4 -10 19.20 24.19 1.44 o
3 -4 -9 14.34 11.66 1.14 o
3 -4 -8 165.56 179.56 4.32 o
3 -4 -7 55.94 59.24 1.57 o
3 -4 -6 2.72 3.23 0.68 o
3 -4 -5 271.66 274.77 4.42 o
3 -4 -4 46.86 44.22 1.27 o
3 -4 -3 9.40 13.00 0.66 o
3 -4 -2 180.36 169.81 2.56 o
3 -4 -1 33.96 34.02 0.91 o
3 -4 0 285.77 296.83 3.77 o
3 -4 1 4.64 3.66 0.40 o
3 -4 2 100.57 104.73 1.51 o
3 -4 3 143.43 134.02 1.83 o
3 -4 4 78.64 76.85 1.51 o
3 -4 5 42.66 41.77 1.13 o
3 -4 6 54.02 56.74 1.34 o
3 -4 7 703.64 692.68 14.54 o
3 -4 8 289.57 286.98 5.20 o
3 -4 9 409.83 395.32 7.00 o
3 -4 10 7.97 8.90 0.66 o
3 -4 11 254.93 249.80 3.47 o
3 -4 12 8.03 10.76 0.65 o
3 -4 13 30.05 27.61 0.93 o
3 -4 14 81.70 84.24 1.62 o
3 -4 15 142.23 144.42 2.34 o
3 -4 16 29.41 26.94 1.00 o
3 -4 17 26.49 29.30 1.42 o
3 -4 18 99.04 112.89 3.55 o
3 -3 -17 24.54 23.17 1.86 o
3 -3 -16 33.60 28.94 1.90 o
3 -3 -15 14.21 15.16 1.56 o
3 -3 -14 217.54 215.87 5.38 o
3 -3 -13 62.25 59.90 2.42 o
3 -3 -12 12.19 11.05 1.27 o
3 -3 -11 0.84 -0.67 0.98 <
3 -3 -10 11.33 9.57 1.15 o
3 -3 -9 973.01 895.63 14.83 o
3 -3 -8 0.92 2.57 0.70 o
3 -3 -7 9.36 6.54 0.67 o
3 -3 -6 103.66 100.38 1.91 o
3 -3 -5 3.49 2.34 0.51 o
3 -3 -4 489.06 492.15 6.57 o
3 -3 -3 2.99 1.58 0.42 o
3 -3 -2 423.26 410.41 5.04 o
3 -3 -1 86.32 78.38 1.15 o
3 -3 0 15.07 12.90 0.48 o
3 -3 1 28.77 36.20 0.82 o
3 -3 2 528.45 538.19 6.44 o
3 -3 3 11.71 13.21 0.43 o
3 -3 4 0.03 0.40 0.35 <
3 -3 5 98.26 105.08 1.50 o
3 -3 6 26.36 23.60 0.74 o
3 -3 7 145.36 140.74 2.34 o
3 -3 8 45.53 41.03 1.09 o
3 -3 9 197.57 192.03 2.79 o
3 -3 10 72.83 71.02 1.43 o
3 -3 11 2.47 2.96 0.58 o
3 -3 12 0.01 -0.92 0.56 <
3 -3 13 77.98 77.51 1.59 o
3 -3 14 59.08 62.09 1.48 o
3 -3 15 1.17 1.01 0.70 <
3 -3 16 67.16 70.08 1.82 o
3 -3 17 5.12 5.68 1.08 o
3 -3 18 17.20 17.83 1.36 o
3 -2 -18 1.61 0.99 1.35 <
3 -2 -17 11.30 14.41 1.66 o
3 -2 -16 22.72 20.82 1.72 o
3 -2 -15 196.52 195.46 5.04 o
3 -2 -14 34.48 31.15 1.87 o
3 -2 -13 46.77 39.77 2.03 o
3 -2 -12 108.71 96.13 2.97 o
3 -2 -11 35.84 30.79 1.72 o
3 -2 -10 19.49 26.16 1.19 o
3 -2 -9 9.81 5.41 0.79 o
3 -2 -8 308.55 326.77 5.72 o
3 -2 -7 4.87 6.24 0.59 o
3 -2 -6 11.65 13.63 0.59 o
3 -2 -5 166.44 157.47 2.14 o
3 -2 -4 42.73 33.20 1.03 o
3 -2 -3 228.49 264.66 3.65 o
3 -2 -2 348.39 341.82 5.09 o
3 -2 -1 1.04 -0.10 0.36 <
3 -2 0 1043.74 1135.83 16.24 o
3 -2 1 19.89 17.01 0.57 o
3 -2 2 202.83 231.80 3.18 o
3 -2 3 609.63 615.92 7.99 o
3 -2 4 178.37 165.10 2.37 o
3 -2 5 181.79 176.55 2.86 o
3 -2 6 5.02 3.57 0.43 o
3 -2 7 965.01 957.96 13.63 o
3 -2 8 738.85 715.71 10.30 o
3 -2 9 230.81 217.99 3.15 o
3 -2 10 8.30 4.94 0.62 o
3 -2 11 311.64 284.25 4.00 o
3 -2 12 94.61 97.17 1.82 o
3 -2 13 110.50 113.79 2.31 o
3 -2 14 46.00 44.42 1.51 o
3 -2 15 89.13 91.44 2.41 o
3 -2 16 43.98 43.28 2.26 o
3 -2 17 157.72 174.33 4.72 o
3 -2 18 75.02 86.08 4.48 o
3 -1 -18 28.14 32.38 2.08 o
3 -1 -17 48.94 50.04 2.45 o
3 -1 -16 20.50 16.28 1.59 o
3 -1 -15 0.49 -0.87 1.13 <
3 -1 -14 139.88 142.34 3.94 o
3 -1 -13 0.70 1.16 1.02 <
3 -1 -12 23.94 23.82 1.50 o
3 -1 -11 10.91 5.42 1.07 o
3 -1 -10 27.43 19.13 1.06 o
3 -1 -9 974.59 927.37 13.48 o
3 -1 -8 32.01 33.14 1.06 o
3 -1 -7 19.96 15.62 0.68 o
3 -1 -6 208.52 222.09 3.18 o
3 -1 -5 5.23 3.94 0.49 o
3 -1 -4 64.71 65.69 1.26 o
3 -1 -3 118.61 108.26 1.60 o
3 -1 -2 304.85 323.61 3.97 o
3 -1 -1 37.45 54.94 1.08 o
3 -1 0 2.26 1.70 0.43 o
3 -1 1 19.58 26.63 0.72 o
3 -1 2 1248.62 1308.56 14.10 o
3 -1 3 91.08 102.59 1.38 o
3 -1 4 2.39 0.69 0.38 <
3 -1 5 82.98 91.56 1.42 o
3 -1 6 38.17 43.88 1.11 o
3 -1 7 197.52 199.62 2.93 o
3 -1 8 7.21 6.28 0.50 o
3 -1 9 368.85 365.17 5.00 o
3 -1 10 0.09 0.67 0.79 <
3 -1 11 24.58 33.63 1.26 o
3 -1 12 5.62 4.77 0.89 o
3 -1 13 119.02 124.07 3.51 o
3 -1 14 55.13 60.67 2.47 o
3 -1 15 3.83 5.50 1.80 o
3 -1 16 59.11 63.89 3.73 o
3 -1 17 0.31 1.34 1.87 <
3 -1 18 6.24 6.37 2.21 <
3 0 -19 28.08 27.07 2.02 o
3 0 -18 5.74 4.43 1.40 o
3 0 -17 59.18 60.33 2.61 o
3 0 -16 8.87 6.71 1.35 o
3 0 -15 192.51 186.25 4.82 o
3 0 -14 52.10 50.97 2.29 o
3 0 -13 25.20 21.84 1.49 o
3 0 -12 54.00 53.84 1.82 o
3 0 -11 94.78 83.64 2.19 o
3 0 -10 4.53 7.38 0.79 o
3 0 -9 16.32 13.17 0.85 o
3 0 -8 406.00 422.30 5.65 o
3 0 -7 26.51 33.97 1.05 o
3 0 -6 17.00 19.79 0.70 o
3 0 -5 93.00 87.99 1.42 o
3 0 -4 33.93 24.45 0.75 o
3 0 -3 793.34 839.84 9.88 o
3 0 -2 114.44 119.08 1.72 o
3 0 -1 28.75 23.10 0.65 o
3 0 0 2887.89 3195.03 34.62 o
3 0 1 175.99 174.50 2.30 o
3 0 2 102.07 127.17 1.78 o
3 0 3 541.00 566.91 6.75 o
3 0 4 142.47 128.39 1.79 o
3 0 5 375.77 376.59 4.60 o
3 0 6 34.65 36.36 0.95 o
3 0 7 437.96 456.33 5.56 o
3 0 8 589.09 590.87 7.88 o
3 0 9 25.01 27.13 0.83 o
3 0 10 159.95 138.23 2.60 o
3 0 11 201.94 170.97 4.27 o
3 0 12 139.63 128.54 5.03 o
3 0 13 109.43 102.47 4.44 o
3 0 14 18.59 11.58 1.97 o
3 0 15 22.31 22.03 1.64 o
3 0 16 9.91 12.93 1.51 o
3 0 17 159.76 166.72 4.66 o
3 0 18 47.92 48.23 2.55 o
3 1 -19 1.60 3.34 1.45 <
3 1 -18 28.01 31.36 2.03 o
3 1 -17 107.07 109.51 3.49 o
3 1 -16 2.01 1.14 1.18 <
3 1 -15 6.68 5.63 1.24 o
3 1 -14 97.35 106.12 2.65 o
3 1 -13 0.59 0.04 0.77 <
3 1 -12 45.35 44.49 1.47 o
3 1 -11 37.58 39.26 1.21 o
3 1 -10 2.82 1.72 0.70 <
3 1 -9 755.30 740.30 10.86 o
3 1 -8 1.36 1.19 0.63 <
3 1 -7 29.28 28.33 0.94 o
3 1 -6 746.76 801.55 10.29 o
3 1 -5 134.40 134.68 2.07 o
3 1 -4 33.25 37.22 0.93 o
3 1 -3 187.40 182.90 2.40 o
3 1 -2 455.74 498.87 5.96 o
3 1 -1 7.08 3.07 0.40 o
3 1 0 3.75 4.42 0.40 o
3 1 1 32.45 34.24 0.73 o
3 1 2 842.46 903.96 10.59 o
3 1 3 7.77 11.89 0.49 o
3 1 4 246.61 269.77 3.36 o
3 1 5 141.37 148.49 2.04 o
3 1 6 434.84 456.35 5.54 o
3 1 7 160.87 163.62 2.50 o
3 1 8 30.46 28.77 0.96 o
3 1 9 328.38 306.65 4.82 o
3 1 10 21.26 16.77 0.91 o
3 1 11 39.82 47.65 1.73 o
3 1 12 1.16 1.70 1.02 <
3 1 13 80.70 81.70 2.75 o
3 1 14 18.36 20.06 1.55 o
3 1 15 0.28 1.64 1.18 <
3 1 16 37.96 35.75 2.09 o
3 1 17 7.01 7.75 1.51 o
3 2 -19 9.40 9.87 1.59 o
3 2 -18 8.24 6.93 1.47 o
3 2 -17 31.79 35.24 1.68 o
3 2 -16 21.59 20.71 1.32 o
3 2 -15 44.98 45.84 1.62 o
3 2 -14 4.44 3.51 0.72 o
3 2 -13 9.24 7.80 0.75 o
3 2 -12 6.93 7.22 0.70 o
3 2 -11 144.40 137.74 2.25 o
3 2 -10 2.01 0.87 0.58 <
3 2 -9 7.10 10.45 0.67 o
3 2 -8 415.54 406.42 5.40 o
3 2 -7 27.55 37.43 1.21 o
3 2 -6 26.25 32.35 1.09 o
3 2 -5 79.07 77.82 1.56 o
3 2 -4 6.47 4.14 0.52 o
3 2 -3 841.78 849.18 12.22 o
3 2 -2 14.84 14.59 0.52 o
3 2 -1 6.75 5.06 0.41 o
3 2 0 1886.86 1983.04 23.51 o
3 2 1 63.24 56.48 1.03 o
3 2 2 1.75 0.55 0.38 <
3 2 3 222.21 241.51 3.34 o
3 2 4 50.45 47.33 1.18 o
3 2 5 93.32 87.69 1.72 o
3 2 6 21.11 19.35 0.69 o
3 2 7 48.53 49.60 1.35 o
3 2 8 165.78 165.55 3.35 o
3 2 9 0.65 1.17 0.78 <
3 2 10 174.43 155.64 3.30 o
3 2 11 98.28 87.41 2.29 o
3 2 12 61.40 61.62 1.96 o
3 2 13 46.20 42.61 2.10 o
3 2 14 21.79 19.85 1.57 o
3 2 15 31.03 32.23 1.96 o
3 2 16 0.78 1.89 1.32 <
3 2 17 31.69 31.31 2.05 o
3 3 -19 12.47 15.99 1.08 o
3 3 -18 37.99 39.99 1.51 o
3 3 -17 109.32 118.75 2.39 o
3 3 -16 0.85 0.33 0.69 <
3 3 -15 5.24 4.77 0.71 o
3 3 -14 81.31 85.40 1.69 o
3 3 -13 141.73 134.99 2.20 o
3 3 -12 90.96 93.34 1.69 o
3 3 -11 178.51 173.36 2.59 o
3 3 -10 0.05 1.33 0.53 <
3 3 -9 485.46 454.05 5.97 o
3 3 -8 66.71 73.56 1.37 o
3 3 -7 12.09 9.72 0.54 o
3 3 -6 797.13 793.95 10.11 o
3 3 -5 149.76 149.32 1.97 o
3 3 -4 3.14 3.47 0.44 o
3 3 -3 17.26 19.05 0.58 o
3 3 -2 705.29 732.75 9.81 o
3 3 -1 194.33 183.74 2.70 o
3 3 0 0.01 -0.61 0.36 <
3 3 1 0.18 -0.02 0.38 <
3 3 2 129.84 138.10 2.16 o
3 3 3 53.82 45.69 1.27 o
3 3 4 472.52 477.08 6.49 o
3 3 5 142.01 139.65 2.39 o
3 3 6 284.57 280.26 4.37 o
3 3 7 50.42 50.29 1.60 o
3 3 8 0.71 0.41 0.75 <
3 3 9 217.06 192.85 3.84 o
3 3 10 10.35 8.03 0.95 o
3 3 11 13.61 14.58 1.10 o
3 3 12 5.67 5.33 1.00 o
3 3 13 25.94 23.14 1.37 o
3 3 14 5.90 4.14 1.26 o
3 3 15 7.72 9.04 1.43 o
3 3 16 28.10 24.35 1.84 o
3 4 -18 8.97 11.72 1.44 o
3 4 -17 0.04 -1.47 0.94 <
3 4 -16 91.43 94.88 2.49 o
3 4 -15 5.89 5.71 0.96 o
3 4 -14 10.72 7.49 0.95 o
3 4 -13 24.71 22.55 1.18 o
3 4 -12 0.11 0.15 0.74 <
3 4 -11 125.04 122.01 2.65 o
3 4 -10 5.85 5.87 0.78 o
3 4 -9 7.12 4.29 0.72 o
3 4 -8 440.08 423.95 7.42 o
3 4 -7 5.53 3.80 0.69 o
3 4 -6 15.47 19.77 0.93 o
3 4 -5 118.20 116.22 3.04 o
3 4 -4 23.84 21.09 1.03 o
3 4 -3 416.33 416.36 6.47 o
3 4 -2 0.11 0.41 0.57 <
3 4 -1 15.23 14.63 0.74 o
3 4 0 478.98 494.18 7.62 o
3 4 1 8.88 8.28 0.62 o
3 4 2 27.02 27.02 1.00 o
3 4 3 201.64 219.48 3.20 o
3 4 4 47.42 44.46 1.16 o
3 4 5 6.99 5.94 0.61 o
3 4 6 0.03 0.33 0.56 <
3 4 7 12.92 11.54 0.90 o
3 4 8 80.39 84.58 2.12 o
3 4 9 0.79 1.63 0.81 <
3 4 10 17.88 16.85 1.10 o
3 4 11 56.43 55.13 1.85 o
3 4 12 21.49 24.74 1.37 o
3 4 13 41.98 42.71 1.82 o
3 4 14 37.80 39.34 1.83 o
3 4 15 101.80 105.20 3.37 o
3 5 -18 27.16 31.80 3.00 o
3 5 -17 38.07 43.66 3.38 o
3 5 -16 8.82 7.64 2.02 o
3 5 -15 87.15 83.88 4.14 o
3 5 -14 47.92 46.46 3.05 o
3 5 -13 278.93 268.66 9.10 o
3 5 -12 98.23 102.28 4.30 o
3 5 -11 92.39 88.52 3.85 o
3 5 -10 2.51 1.86 1.35 <
3 5 -9 343.95 300.88 9.74 o
3 5 -8 124.29 115.64 4.49 o
3 5 -7 22.24 18.96 1.74 o
3 5 -6 159.02 143.11 5.10 o
3 5 -5 4.43 3.83 1.30 <
3 5 -4 103.46 96.70 2.96 o
3 5 -3 356.63 340.34 7.86 o
3 5 -2 546.60 535.43 11.96 o
3 5 -1 148.29 141.08 3.78 o
3 5 0 2.34 3.02 1.04 <
3 5 1 15.60 15.88 1.27 o
3 5 2 11.39 12.34 0.95 o
3 5 3 49.06 42.60 1.60 o
3 5 4 160.17 153.54 3.28 o
3 5 5 106.78 106.71 2.53 o
3 5 6 19.97 19.29 1.53 o
3 5 7 3.02 3.96 0.86 o
3 5 8 20.71 21.41 1.24 o
3 5 9 146.57 144.54 3.27 o
3 5 10 0.33 -0.92 0.92 <
3 5 11 2.04 2.05 0.99 <
3 5 12 8.21 8.46 1.23 o
3 5 13 9.09 10.76 1.35 o
3 5 14 8.51 5.32 2.21 <
3 6 -17 2.96 0.57 1.94 <
3 6 -16 139.07 137.50 5.71 o
3 6 -15 15.41 13.13 2.06 o
3 6 -14 7.92 6.55 1.79 o
3 6 -13 32.81 28.20 2.40 o
3 6 -12 0.14 -2.52 1.39 <
3 6 -11 116.92 109.54 4.43 o
3 6 -10 0.19 -0.30 1.30 <
3 6 -9 30.66 25.18 2.02 o
3 6 -8 333.90 299.33 9.67 o
3 6 -7 32.30 30.66 2.31 o
3 6 -6 50.42 51.26 2.68 o
3 6 -5 76.42 68.90 3.13 o
3 6 -4 115.67 109.73 3.28 o
3 6 -3 172.26 171.08 4.45 o
3 6 -2 20.06 18.18 1.37 o
3 6 -1 22.36 20.02 1.42 o
3 6 0 114.84 114.51 3.38 o
3 6 1 1.10 1.27 1.08 <
3 6 2 40.45 38.06 1.51 o
3 6 3 107.15 107.90 2.62 o
3 6 4 41.76 41.62 1.71 o
3 6 5 21.72 21.50 1.23 o
3 6 6 0.45 0.59 1.17 <
3 6 7 50.65 50.00 2.41 o
3 6 8 136.07 130.33 3.99 o
3 6 9 2.27 2.38 1.37 <
3 6 10 3.24 3.35 1.47 <
3 6 11 19.49 19.81 1.95 o
3 6 12 24.36 24.86 2.11 o
3 7 -16 15.11 15.28 2.24 o
3 7 -15 80.38 76.93 4.00 o
3 7 -14 16.14 14.82 2.12 o
3 7 -13 92.82 87.51 4.09 o
3 7 -12 40.71 44.72 2.91 o
3 7 -11 0.78 0.87 1.46 <
3 7 -10 8.67 6.62 1.58 o
3 7 -9 175.65 158.97 5.76 o
3 7 -8 29.52 28.71 2.32 o
3 7 -7 28.10 23.88 1.93 o
3 7 -6 1.81 -0.94 1.27 <
3 7 -5 24.26 21.05 1.74 o
3 7 -4 82.71 78.31 2.79 o
3 7 -3 275.37 255.77 6.28 o
3 7 -2 227.41 224.35 5.61 o
3 7 -1 16.30 14.15 1.42 o
3 7 0 9.05 7.34 1.26 o
3 7 1 8.19 9.74 1.32 o
3 7 2 12.40 12.92 1.11 o
3 7 3 11.11 10.21 1.07 o
3 7 4 2.23 1.70 0.96 <
3 7 5 95.50 92.03 3.22 o
3 7 6 4.60 4.61 1.39 o
3 7 7 2.13 2.37 1.36 <
3 7 8 23.18 19.60 1.85 o
3 7 9 81.94 82.46 3.31 o
3 7 10 0.02 2.15 1.54 <
3 7 11 3.41 4.23 1.64 <
3 8 -14 0.08 0.32 1.74 <
3 8 -13 5.17 5.95 1.83 o
3 8 -12 0.66 -0.54 1.57 <
3 8 -11 138.87 136.06 5.27 o
3 8 -10 0.19 -2.80 1.40 <
3 8 -9 16.60 14.00 1.80 o
3 8 -8 120.58 115.50 4.56 o
3 8 -7 15.68 14.26 1.74 o
3 8 -6 84.87 84.35 3.62 o
3 8 -5 26.36 19.37 1.77 o
3 8 -4 113.22 106.10 3.41 o
3 8 -3 58.63 57.36 2.52 o
3 8 -2 4.68 3.11 1.30 <
3 8 -1 12.29 10.94 1.43 o
3 8 0 63.84 64.34 2.68 o
3 8 1 1.15 2.60 1.30 <
3 8 2 19.72 20.22 1.69 o
3 8 3 29.72 29.08 1.56 o
3 8 4 11.40 13.55 1.60 o
3 8 5 81.27 77.20 3.07 o
3 8 6 14.18 14.07 1.73 o
3 8 7 71.46 69.60 3.09 o
3 8 8 107.86 110.13 3.94 o
3 8 9 0.01 5.64 2.83 <
3 9 -12 6.20 7.97 1.90 o
3 9 -11 5.54 5.78 1.76 o
3 9 -10 1.04 -0.86 1.53 <
3 9 -9 41.99 42.24 2.85 o
3 9 -8 0.38 0.11 1.50 <
3 9 -7 18.82 13.23 1.79 o
3 9 -6 5.46 3.13 1.50 <
3 9 -5 7.28 4.41 1.47 o
3 9 -4 4.88 5.03 1.45 o
3 9 -3 41.47 38.25 2.23 o
3 9 -2 88.98 90.46 3.25 o
3 9 -1 0.01 0.44 1.32 <
3 9 0 6.12 4.92 1.45 o
3 9 1 0.07 -0.57 1.37 <
3 9 2 25.00 28.54 2.10 o
3 9 3 4.12 4.14 1.54 <
3 9 4 1.65 2.40 1.53 <
3 9 5 76.98 78.97 3.30 o
3 9 6 0.35 -1.48 1.50 <
3 10 -8 28.22 28.24 2.33 o
3 10 -7 1.79 1.72 1.65 <
3 10 -6 42.97 43.66 2.94 o
3 10 -5 5.31 2.32 1.65 <
3 10 -4 31.04 31.97 2.63 o
3 10 -3 10.44 10.41 1.76 o
3 10 -2 7.98 9.51 1.74 o
3 10 -1 0.95 -0.15 1.50 <
3 10 0 57.67 62.12 2.92 o
3 10 1 0.59 3.55 1.58 <
4 -10 -1 0.02 -0.32 1.55 <
4 -10 0 62.15 59.96 3.26 o
4 -10 1 2.03 -1.16 1.47 <
4 -10 2 50.77 53.42 2.63 o
4 -10 3 0.21 -0.53 1.40 <
4 -10 4 10.18 6.95 1.57 o
4 -10 5 7.36 9.02 1.62 o
4 -10 6 0.23 -2.13 2.35 <
4 -9 -5 0.50 -0.13 1.75 <
4 -9 -4 16.94 17.45 1.86 o
4 -9 -3 29.77 29.26 2.06 o
4 -9 -2 26.73 28.12 1.98 o
4 -9 -1 0.07 0.32 1.35 <
4 -9 0 102.53 105.54 3.46 o
4 -9 1 17.71 19.07 1.70 o
4 -9 2 4.64 3.65 1.35 <
4 -9 3 24.47 25.67 1.85 o
4 -9 4 0.82 -2.67 1.22 <
4 -9 5 7.23 7.72 1.42 o
4 -9 6 13.52 10.05 1.50 o
4 -9 7 23.15 28.75 2.39 o
4 -9 8 9.74 9.23 1.65 o
4 -9 9 17.29 21.98 2.12 o
4 -9 10 0.82 1.95 1.60 <
4 -8 -8 23.53 16.83 2.85 o
4 -8 -7 0.00 0.98 2.21 <
4 -8 -6 152.98 150.26 4.46 o
4 -8 -5 16.88 16.91 1.74 o
4 -8 -4 1.64 1.87 1.37 <
4 -8 -3 0.62 -1.41 1.24 <
4 -8 -2 36.40 36.77 2.06 o
4 -8 -1 0.75 -0.24 1.21 <
4 -8 0 52.75 51.07 2.35 o
4 -8 1 5.93 5.79 1.29 o
4 -8 2 48.49 49.63 2.26 o
4 -8 3 3.24 1.82 1.18 <
4 -8 4 39.19 37.51 1.92 o
4 -8 5 70.19 68.32 2.53 o
4 -8 6 21.57 23.28 1.64 o
4 -8 7 38.27 36.64 1.92 o
4 -8 8 22.50 22.74 2.00 o
4 -8 9 85.83 90.70 4.01 o
4 -8 10 3.00 2.93 1.59 <
4 -8 11 4.85 5.30 1.73 o
4 -8 12 8.22 10.41 1.98 o
4 -7 -10 3.02 0.59 2.31 <
4 -7 -9 50.79 43.75 3.73 o
4 -7 -8 89.13 85.19 4.80 o
4 -7 -7 0.16 -1.24 1.35 <
4 -7 -6 29.87 29.24 1.97 o
4 -7 -5 0.01 0.15 1.24 <
4 -7 -4 8.04 7.59 1.37 o
4 -7 -3 19.09 19.49 1.58 o
4 -7 -2 20.78 22.27 1.63 o
4 -7 -1 3.12 3.44 1.18 <
4 -7 0 74.02 78.78 2.70 o
4 -7 1 18.07 17.51 1.44 o
4 -7 2 2.24 -0.23 1.06 <
4 -7 3 128.15 119.84 3.36 o
4 -7 4 0.13 -1.46 1.00 <
4 -7 5 0.42 -0.68 1.02 <
4 -7 6 15.98 14.89 1.35 o
4 -7 7 22.56 21.96 1.50 o
4 -7 8 38.37 34.39 2.38 o
4 -7 9 56.08 65.00 3.28 o
4 -7 10 2.73 1.60 1.44 <
4 -7 11 58.07 54.37 3.14 o
4 -7 12 49.21 57.41 3.33 o
4 -7 13 18.62 17.13 2.19 o
4 -7 14 7.89 5.50 1.85 <
4 -6 -12 1.57 2.87 2.33 <
4 -6 -11 10.93 8.11 2.42 o
4 -6 -10 4.27 3.42 2.24 <
4 -6 -9 144.70 129.12 5.85 o
4 -6 -8 84.89 87.29 4.67 o
4 -6 -7 3.15 2.60 1.33 <
4 -6 -6 134.39 137.24 4.00 o
4 -6 -5 6.80 6.79 1.33 o
4 -6 -4 36.08 32.86 1.91 o
4 -6 -3 41.61 37.09 1.93 o
4 -6 -2 283.37 263.37 6.24 o
4 -6 -1 11.63 11.15 1.27 o
4 -6 0 31.38 29.13 1.68 o
4 -6 1 13.67 13.63 1.28 o
4 -6 2 84.98 88.32 2.72 o
4 -6 3 40.51 36.67 1.84 o
4 -6 4 64.36 59.15 2.16 o
4 -6 5 164.81 158.26 4.02 o
4 -6 6 30.45 29.84 1.61 o
4 -6 7 141.24 135.79 3.62 o
4 -6 8 1.50 0.91 1.25 <
4 -6 9 190.78 175.15 6.26 o
4 -6 10 1.52 -0.18 1.32 <
4 -6 11 19.03 19.52 2.01 o
4 -6 12 0.91 1.60 1.54 <
4 -6 13 0.01 -0.88 1.57 <
4 -6 14 29.16 31.07 2.66 o
4 -6 15 99.95 113.92 5.15 o
4 -5 -14 1.12 1.30 1.34 <
4 -5 -13 0.17 -1.85 1.22 <
4 -5 -12 9.42 10.70 1.42 o
4 -5 -11 28.19 31.26 1.83 o
4 -5 -10 1.36 2.23 1.08 <
4 -5 -9 95.66 86.96 2.76 o
4 -5 -8 218.23 216.31 4.30 o
4 -5 -7 0.11 -0.04 0.80 <
4 -5 -6 11.15 13.51 0.99 o
4 -5 -5 31.65 29.12 1.14 o
4 -5 -4 103.49 99.43 2.05 o
4 -5 -3 0.04 -0.23 0.65 <
4 -5 -2 5.49 3.65 0.73 o
4 -5 -1 35.45 34.07 1.43 o
4 -5 0 55.52 55.92 1.73 o
4 -5 1 64.83 62.20 1.78 o
4 -5 2 2.69 3.94 0.98 o
4 -5 3 385.35 352.62 7.81 o
4 -5 4 15.49 15.57 1.20 o
4 -5 5 7.53 9.58 1.08 o
4 -5 6 46.09 44.64 1.89 o
4 -5 7 133.12 128.36 3.20 o
4 -5 8 178.68 183.06 4.33 o
4 -5 9 52.40 58.66 2.00 o
4 -5 10 29.05 28.10 1.60 o
4 -5 11 10.94 10.32 1.08 o
4 -5 12 107.06 114.67 3.20 o
4 -5 13 101.86 98.70 2.98 o
4 -5 14 24.18 25.90 1.60 o
4 -5 15 71.78 81.37 4.22 o
4 -5 16 1.75 -0.74 1.77 <
4 -4 -15 143.75 149.12 4.29 o
4 -4 -14 63.41 66.95 2.75 o
4 -4 -13 230.62 243.09 5.95 o
4 -4 -12 1.02 1.39 1.15 <
4 -4 -11 1.13 2.33 1.13 <
4 -4 -10 7.63 9.08 1.22 o
4 -4 -9 211.24 208.23 5.04 o
4 -4 -8 82.06 87.64 2.31 o
4 -4 -7 17.20 18.07 1.09 o
4 -4 -6 19.30 20.34 0.87 o
4 -4 -5 0.03 -1.04 0.56 <
4 -4 -4 234.23 227.04 3.26 o
4 -4 -3 167.51 167.85 2.50 o
4 -4 -2 646.39 644.83 8.69 o
4 -4 -1 33.49 31.85 1.14 o
4 -4 0 80.74 80.69 1.71 o
4 -4 1 27.58 31.70 1.07 o
4 -4 2 211.79 226.36 3.64 o
4 -4 3 74.33 64.11 1.47 o
4 -4 4 44.33 39.12 1.19 o
4 -4 5 126.61 121.11 1.90 o
4 -4 6 6.94 6.03 0.55 o
4 -4 7 313.48 311.14 4.19 o
4 -4 8 51.64 49.87 1.14 o
4 -4 9 151.50 147.32 2.25 o
4 -4 10 1.70 1.55 0.55 <
4 -4 11 53.00 49.63 1.22 o
4 -4 12 7.00 7.70 0.68 o
4 -4 13 0.10 0.98 0.63 <
4 -4 14 25.30 25.42 0.96 o
4 -4 15 84.38 93.24 1.82 o
4 -4 16 30.48 30.11 1.22 o
4 -4 17 11.36 10.88 1.11 o
4 -3 -16 26.88 31.76 2.08 o
4 -3 -15 26.54 24.15 1.82 o
4 -3 -14 0.82 0.15 1.24 <
4 -3 -13 6.38 6.58 1.34 o
4 -3 -12 1.94 1.21 1.14 <
4 -3 -11 84.49 76.66 2.07 o
4 -3 -10 6.56 3.65 0.82 o
4 -3 -9 67.44 63.80 1.82 o
4 -3 -8 398.50 383.31 5.91 o
4 -3 -7 29.84 31.19 1.03 o
4 -3 -6 47.37 47.99 1.22 o
4 -3 -5 223.05 215.45 3.15 o
4 -3 -4 590.18 553.47 7.41 o
4 -3 -3 3.28 2.47 0.61 o
4 -3 -2 1.19 0.66 0.55 <
4 -3 -1 106.34 107.27 1.96 o
4 -3 0 170.69 162.81 2.44 o
4 -3 1 254.23 235.87 3.31 o
4 -3 2 42.69 50.81 1.15 o
4 -3 3 446.63 449.83 5.98 o
4 -3 4 32.25 28.67 0.98 o
4 -3 5 290.30 293.74 4.06 o
4 -3 6 210.88 208.54 3.00 o
4 -3 7 513.32 502.27 6.62 o
4 -3 8 374.82 371.21 5.03 o
4 -3 9 33.02 37.50 1.15 o
4 -3 10 31.03 32.04 1.07 o
4 -3 11 4.51 5.22 0.67 o
4 -3 12 159.11 173.79 2.73 o
4 -3 13 150.98 150.13 2.49 o
4 -3 14 22.30 23.05 1.00 o
4 -3 15 28.28 29.05 1.44 o
4 -3 16 4.97 3.99 1.08 o
4 -3 17 55.02 55.78 2.04 o
4 -2 -17 5.80 4.90 1.49 o
4 -2 -16 59.94 59.75 2.71 o
4 -2 -15 80.28 84.19 3.02 o
4 -2 -14 31.96 30.40 1.90 o
4 -2 -13 89.62 91.67 3.02 o
4 -2 -12 0.14 0.51 1.08 <
4 -2 -11 37.91 30.50 1.79 o
4 -2 -10 0.72 1.55 1.04 <
4 -2 -9 188.03 183.96 3.62 o
4 -2 -8 52.36 53.46 1.68 o
4 -2 -7 29.06 26.80 1.09 o
4 -2 -6 6.73 4.71 0.70 o
4 -2 -5 0.04 -0.04 0.48 <
4 -2 -4 240.00 232.69 3.34 o
4 -2 -3 221.88 226.41 2.97 o
4 -2 -2 723.85 744.48 8.84 o
4 -2 -1 49.40 40.65 1.02 o
4 -2 0 236.40 245.52 3.15 o
4 -2 1 37.02 38.61 0.92 o
4 -2 2 291.71 295.29 3.43 o
4 -2 3 33.06 31.51 0.85 o
4 -2 4 22.82 21.63 0.73 o
4 -2 5 65.22 62.63 1.53 o
4 -2 6 144.98 140.68 2.53 o
4 -2 7 264.79 266.63 4.27 o
4 -2 8 83.13 77.55 1.57 o
4 -2 9 55.01 53.58 1.35 o
4 -2 10 1.89 1.94 0.64 o
4 -2 11 51.54 47.85 1.49 o
4 -2 12 6.91 8.19 0.88 o
4 -2 13 6.60 6.54 1.03 o
4 -2 14 19.49 20.52 1.60 o
4 -2 15 24.56 29.40 1.85 o
4 -2 16 121.28 122.99 3.78 o
4 -2 17 23.02 27.73 1.97 o
4 -1 -17 16.25 17.62 1.76 o
4 -1 -16 46.13 44.21 2.38 o
4 -1 -15 53.10 48.58 2.38 o
4 -1 -14 6.64 6.94 1.35 o
4 -1 -13 0.07 0.22 1.12 <
4 -1 -12 35.06 30.81 1.82 o
4 -1 -11 338.16 289.75 6.70 o
4 -1 -10 28.76 18.32 1.40 o
4 -1 -9 75.89 69.15 2.45 o
4 -1 -8 451.03 436.81 7.81 o
4 -1 -7 197.62 205.76 3.12 o
4 -1 -6 193.41 199.23 2.74 o
4 -1 -5 215.36 214.90 2.88 o
4 -1 -4 808.76 788.90 10.37 o
4 -1 -3 5.09 5.57 0.53 o
4 -1 -2 388.81 412.31 5.59 o
4 -1 -1 81.56 81.67 1.55 o
4 -1 0 526.62 549.17 7.31 o
4 -1 1 419.83 413.90 5.61 o
4 -1 2 107.23 117.34 1.75 o
4 -1 3 79.51 103.10 1.60 o
4 -1 4 5.41 3.15 0.50 o
4 -1 5 1031.58 1028.55 13.42 o
4 -1 6 333.40 331.70 4.64 o
4 -1 7 535.73 539.28 7.27 o
4 -1 8 203.82 196.71 3.91 o
4 -1 9 70.95 73.65 1.78 o
4 -1 10 4.54 4.79 0.88 o
4 -1 11 12.22 14.51 1.08 o
4 -1 12 116.69 124.80 3.55 o
4 -1 13 81.03 75.13 2.71 o
4 -1 14 4.25 2.52 1.24 <
4 -1 15 0.03 1.09 1.23 <
4 -1 16 26.78 27.46 1.92 o
4 -1 17 94.58 101.58 3.49 o
4 0 -18 0.01 0.22 1.38 <
4 0 -17 52.51 57.92 2.71 o
4 0 -16 16.07 17.18 1.65 o
4 0 -15 0.21 -0.04 1.19 <
4 0 -14 14.62 15.23 1.48 o
4 0 -13 32.88 36.38 2.09 o
4 0 -12 1.31 3.34 1.11 <
4 0 -11 48.97 39.83 2.02 o
4 0 -10 29.22 30.42 1.45 o
4 0 -9 107.62 110.31 2.29 o
4 0 -8 153.67 146.31 2.71 o
4 0 -7 8.92 7.26 0.80 o
4 0 -6 97.99 95.70 1.83 o
4 0 -5 20.39 21.21 0.75 o
4 0 -4 117.28 113.81 1.78 o
4 0 -3 160.40 168.63 2.34 o
4 0 -2 436.93 468.90 5.71 o
4 0 -1 29.93 20.02 0.68 o
4 0 0 188.04 196.46 2.62 o
4 0 1 17.88 17.36 0.59 o
4 0 2 75.12 71.38 1.30 o
4 0 3 7.32 8.24 0.56 o
4 0 4 35.02 29.02 0.87 o
4 0 5 143.11 143.03 2.10 o
4 0 6 148.56 148.14 2.39 o
4 0 7 113.12 111.49 1.98 o
4 0 8 10.62 9.48 0.83 o
4 0 9 59.16 54.83 1.83 o
4 0 10 0.19 -1.58 0.97 <
4 0 11 13.31 12.82 1.29 o
4 0 12 0.07 0.00 1.05 <
4 0 13 38.49 38.18 2.08 o
4 0 14 51.42 48.90 2.36 o
4 0 15 18.31 19.62 1.69 o
4 0 16 272.83 276.52 6.80 o
4 0 17 4.28 5.50 1.52 o
4 1 -18 17.44 20.20 1.87 o
4 1 -17 24.57 23.06 1.84 o
4 1 -16 16.83 18.84 1.66 o
4 1 -15 52.55 50.13 2.37 o
4 1 -14 81.64 76.50 2.78 o
4 1 -13 25.72 21.71 1.55 o
4 1 -12 96.08 91.24 2.10 o
4 1 -11 465.28 447.36 6.89 o
4 1 -10 18.64 11.90 0.91 o
4 1 -9 158.63 142.29 2.67 o
4 1 -8 310.97 298.36 4.73 o
4 1 -7 205.83 205.28 3.44 o
4 1 -6 185.39 195.71 3.30 o
4 1 -5 17.02 15.62 0.75 o
4 1 -4 200.67 205.53 2.76 o
4 1 -3 5.93 6.71 0.56 o
4 1 -2 1609.97 1678.41 19.56 o
4 1 -1 42.14 38.53 0.90 o
4 1 0 425.42 454.02 5.16 o
4 1 1 84.94 80.34 1.27 o
4 1 2 182.28 193.89 2.42 o
4 1 3 2.38 0.04 0.52 <
4 1 4 1.42 0.99 0.55 <
4 1 5 681.33 663.69 8.80 o
4 1 6 78.76 77.89 1.58 o
4 1 7 130.14 133.39 2.49 o
4 1 8 14.14 15.25 0.91 o
4 1 9 140.44 142.25 2.66 o
4 1 10 1.94 4.25 0.95 o
4 1 11 0.21 1.09 1.06 <
4 1 12 49.89 43.38 2.16 o
4 1 13 31.07 25.76 1.75 o
4 1 14 0.01 1.05 1.23 <
4 1 15 2.40 2.71 1.32 <
4 1 16 51.44 53.94 2.65 o
4 2 -18 11.78 12.19 1.64 o
4 2 -17 149.28 159.21 4.49 o
4 2 -16 7.32 8.72 1.17 o
4 2 -15 3.11 3.47 1.02 o
4 2 -14 12.81 13.76 1.02 o
4 2 -13 73.15 69.35 1.82 o
4 2 -12 6.01 11.06 0.79 o
4 2 -11 44.33 40.17 1.27 o
4 2 -10 20.19 19.54 0.85 o
4 2 -9 43.86 44.27 1.44 o
4 2 -8 468.24 456.07 6.89 o
4 2 -7 1.49 1.82 0.70 <
4 2 -6 278.24 269.41 4.26 o
4 2 -5 39.11 45.27 1.35 o
4 2 -4 46.56 45.27 1.34 o
4 2 -3 57.16 53.42 1.24 o
4 2 -2 268.86 285.12 3.65 o
4 2 -1 13.45 5.90 0.51 o
4 2 0 5.55 6.04 0.50 o
4 2 1 10.59 9.43 0.54 o
4 2 2 8.69 9.97 0.62 o
4 2 3 32.37 35.90 1.11 o
4 2 4 62.15 44.32 1.31 o
4 2 5 265.14 260.15 4.13 o
4 2 6 17.11 17.89 0.87 o
4 2 7 122.68 119.02 2.28 o
4 2 8 0.91 1.65 0.70 <
4 2 9 150.08 137.27 2.58 o
4 2 10 28.30 30.97 1.45 o
4 2 11 1.61 3.10 0.98 o
4 2 12 0.37 -0.30 1.13 <
4 2 13 41.11 44.89 2.24 o
4 2 14 115.92 113.33 3.54 o
4 2 15 58.99 60.80 2.69 o
4 2 16 231.85 240.42 6.13 o
4 3 -18 6.44 8.76 0.97 o
4 3 -17 23.60 25.70 1.16 o
4 3 -16 1.33 1.97 0.82 <
4 3 -15 44.89 46.20 1.37 o
4 3 -14 79.32 76.10 1.64 o
4 3 -13 32.74 33.16 1.10 o
4 3 -12 34.13 31.50 1.08 o
4 3 -11 270.58 275.03 3.88 o
4 3 -10 0.51 0.29 0.57 <
4 3 -9 145.00 129.41 2.08 o
4 3 -8 249.95 233.99 3.31 o
4 3 -7 60.00 54.79 1.23 o
4 3 -6 15.58 15.84 0.80 o
4 3 -5 19.33 19.47 0.84 o
4 3 -4 0.07 0.96 0.61 <
4 3 -3 2.88 2.29 0.56 o
4 3 -2 1299.75 1266.28 16.53 o
4 3 -1 83.14 76.71 1.48 o
4 3 0 125.46 126.76 2.03 o
4 3 1 6.72 6.26 0.60 o
4 3 2 147.69 149.16 2.33 o
4 3 3 31.77 43.58 1.17 o
4 3 4 11.22 12.00 0.70 o
4 3 5 156.37 149.31 2.39 o
4 3 6 1.23 1.03 0.79 <
4 3 7 9.85 10.71 0.98 o
4 3 8 0.37 0.97 0.84 <
4 3 9 173.56 175.50 3.67 o
4 3 10 6.11 8.56 1.04 o
4 3 11 1.47 -0.23 0.96 <
4 3 12 23.48 20.74 1.35 o
4 3 13 50.84 45.03 2.31 o
4 3 14 0.10 0.69 1.29 <
4 3 15 1.54 1.85 1.39 <
4 4 -17 103.13 115.30 2.96 o
4 4 -16 21.59 22.87 1.40 o
4 4 -15 19.66 18.75 1.26 o
4 4 -14 4.49 3.38 0.95 o
4 4 -13 115.51 112.03 2.68 o
4 4 -12 9.70 13.29 1.05 o
4 4 -11 69.94 68.51 1.94 o
4 4 -10 0.56 0.53 0.76 <
4 4 -9 14.84 15.99 1.01 o
4 4 -8 529.05 522.56 9.16 o
4 4 -7 7.17 8.60 0.86 o
4 4 -6 169.75 165.84 3.31 o
4 4 -5 13.90 14.92 0.92 o
4 4 -4 77.73 76.98 1.94 o
4 4 -3 12.62 11.48 0.78 o
4 4 -2 170.56 175.83 3.04 o
4 4 -1 27.07 21.63 0.94 o
4 4 0 4.86 3.26 0.67 o
4 4 1 2.61 3.27 0.67 o
4 4 2 0.03 -0.09 0.65 <
4 4 3 54.79 57.56 1.54 o
4 4 4 136.48 130.40 2.50 o
4 4 5 147.95 144.71 2.71 o
4 4 6 5.02 6.63 0.82 o
4 4 7 209.40 215.30 3.77 o
4 4 8 0.01 -1.03 0.77 <
4 4 9 151.50 146.10 2.89 o
4 4 10 60.74 61.43 2.00 o
4 4 11 2.24 1.53 0.98 <
4 4 12 5.83 6.95 1.13 o
4 4 13 10.88 12.95 1.48 o
4 4 14 83.59 76.58 2.91 o
4 5 -17 26.70 27.31 2.86 o
4 5 -16 10.26 9.94 2.23 o
4 5 -15 60.00 59.90 3.71 o
4 5 -14 3.32 3.70 1.84 <
4 5 -13 4.20 4.19 1.80 <
4 5 -12 0.57 -0.15 1.61 <
4 5 -11 108.60 105.74 4.56 o
4 5 -10 10.25 9.64 1.79 o
4 5 -9 44.69 41.19 2.80 o
4 5 -8 203.37 183.96 6.58 o
4 5 -7 0.97 2.69 1.53 <
4 5 -6 0.18 -0.17 1.45 <
4 5 -5 31.34 27.73 2.13 o
4 5 -4 10.25 9.62 1.25 o
4 5 -3 0.95 1.14 1.08 <
4 5 -2 369.23 361.59 8.40 o
4 5 -1 69.65 63.72 2.44 o
4 5 0 59.13 58.36 2.40 o
4 5 1 33.81 31.36 1.77 o
4 5 2 78.47 79.76 2.78 o
4 5 3 158.06 162.75 4.42 o
4 5 4 17.04 17.93 1.49 o
4 5 5 65.91 68.07 2.68 o
4 5 6 5.56 4.07 0.90 o
4 5 7 3.27 4.04 0.94 o
4 5 8 6.90 9.66 1.09 o
4 5 9 107.07 110.85 2.82 o
4 5 10 2.14 1.51 1.02 <
4 5 11 1.75 1.00 1.48 <
4 5 12 21.87 23.10 2.05 o
4 5 13 94.91 95.54 3.75 o
4 6 -16 19.61 19.47 2.52 o
4 6 -15 82.50 74.20 4.13 o
4 6 -14 0.48 -1.60 1.78 <
4 6 -13 52.25 49.13 3.31 o
4 6 -12 6.37 8.69 1.90 o
4 6 -11 85.10 84.91 4.03 o
4 6 -10 1.72 3.64 1.66 <
4 6 -9 1.51 0.56 1.56 <
4 6 -8 175.99 161.33 5.94 o
4 6 -7 0.64 0.81 1.47 <
4 6 -6 25.95 24.56 2.06 o
4 6 -5 1.49 1.37 1.46 <
4 6 -4 67.47 67.31 2.59 o
4 6 -3 6.39 5.95 1.24 o
4 6 -2 50.44 49.95 2.26 o
4 6 -1 50.59 51.77 2.34 o
4 6 0 4.61 3.27 1.18 <
4 6 1 3.60 3.12 1.18 <
4 6 2 1.03 1.74 1.16 <
4 6 3 27.96 27.22 1.82 o
4 6 4 118.10 118.15 3.67 o
4 6 5 39.16 37.81 2.13 o
4 6 6 11.55 14.16 1.60 o
4 6 7 154.56 158.12 4.61 o
4 6 8 0.94 2.00 1.39 <
4 6 9 36.34 35.49 2.23 o
4 6 10 31.07 34.06 2.29 o
4 6 11 5.64 7.59 1.71 o
4 7 -14 13.63 9.64 2.18 o
4 7 -13 0.00 -2.81 1.72 <
4 7 -12 11.35 12.01 2.03 o
4 7 -11 75.27 77.11 3.88 o
4 7 -10 14.97 18.78 2.11 o
4 7 -9 2.29 4.28 1.68 <
4 7 -8 73.71 71.10 3.57 o
4 7 -7 1.05 -0.73 1.51 <
4 7 -6 52.69 51.21 3.00 o
4 7 -5 3.57 3.18 1.55 <
4 7 -4 153.60 150.99 4.30 o
4 7 -3 1.83 1.01 1.26 <
4 7 -2 88.80 88.71 3.05 o
4 7 -1 14.05 11.15 1.44 o
4 7 0 56.60 56.52 2.57 o
4 7 1 70.64 70.91 2.83 o
4 7 2 48.24 50.83 2.49 o
4 7 3 84.32 85.46 3.11 o
4 7 4 0.39 0.67 1.33 <
4 7 5 125.86 130.52 4.06 o
4 7 6 4.08 5.49 1.51 o
4 7 7 9.30 12.58 1.77 o
4 7 8 9.77 10.77 1.76 o
4 7 9 34.56 35.11 2.35 o
4 8 -13 5.65 4.66 2.01 <
4 8 -12 2.17 5.31 1.89 <
4 8 -11 51.73 55.35 3.47 o
4 8 -10 18.53 19.64 2.23 o
4 8 -9 0.05 0.53 1.71 <
4 8 -8 22.26 18.78 2.13 o
4 8 -7 7.37 7.89 1.79 o
4 8 -6 5.98 6.96 1.75 o
4 8 -5 21.34 16.75 2.03 o
4 8 -4 26.54 27.38 1.92 o
4 8 -3 5.55 5.76 1.45 o
4 8 -2 4.16 4.93 1.43 o
4 8 -1 65.46 68.88 2.86 o
4 8 0 0.01 0.58 1.36 <
4 8 1 7.69 8.13 1.51 o
4 8 2 0.02 0.83 1.37 <
4 8 3 11.78 14.50 1.72 o
4 8 4 52.41 61.60 2.88 o
4 8 5 17.57 18.32 1.89 o
4 8 6 3.80 5.46 1.64 o
4 8 7 26.64 33.31 2.31 o
4 9 -10 5.68 4.45 1.89 <
4 9 -9 1.04 -1.06 1.72 <
4 9 -8 3.03 3.61 1.84 <
4 9 -7 9.03 7.07 1.91 o
4 9 -6 141.35 139.15 5.51 o
4 9 -5 0.83 2.12 1.79 <
4 9 -4 131.41 130.25 5.26 o
4 9 -3 1.06 -0.46 1.50 <
4 9 -2 57.25 56.91 2.85 o
4 9 -1 0.64 0.87 1.49 <
4 9 0 39.73 39.62 2.36 o
4 9 1 22.74 21.56 1.97 o
4 9 2 19.35 20.25 1.97 o
4 9 3 1.21 2.62 1.60 <
5 -9 -3 4.11 3.86 1.94 <
5 -9 -2 0.06 -2.15 1.46 <
5 -9 -1 5.36 7.43 1.61 o
5 -9 0 1.98 1.05 1.47 <
5 -9 1 4.36 6.13 1.55 o
5 -9 2 36.83 36.40 2.21 o
5 -9 3 7.33 7.93 1.58 o
5 -9 4 1.42 1.09 1.42 <
5 -9 5 16.16 14.76 1.72 o
5 -9 6 25.80 22.34 2.23 o
5 -9 7 75.45 80.12 3.89 o
5 -8 -7 7.43 6.49 2.23 <
5 -8 -6 16.70 17.58 1.95 o
5 -8 -5 0.05 1.76 1.55 <
5 -8 -4 0.22 -0.71 1.45 <
5 -8 -3 9.71 8.76 1.63 o
5 -8 -2 156.99 154.26 4.49 o
5 -8 -1 38.51 37.99 2.18 o
5 -8 0 19.32 21.76 1.78 o
5 -8 1 59.75 62.54 2.68 o
5 -8 2 18.64 20.72 1.70 o
5 -8 3 26.56 21.48 1.71 o
5 -8 4 5.20 6.69 1.42 o
5 -8 5 102.16 113.27 3.52 o
5 -8 6 1.07 4.39 1.54 <
5 -8 7 2.69 1.16 1.55 <
5 -8 8 49.81 48.19 3.05 o
5 -8 9 86.52 96.43 4.46 o
5 -8 10 0.13 1.24 1.68 <
5 -7 -8 145.46 141.86 6.53 o
5 -7 -7 2.29 0.92 1.51 <
5 -7 -6 84.56 81.00 3.21 o
5 -7 -5 2.86 2.75 1.44 <
5 -7 -4 36.07 33.60 2.06 o
5 -7 -3 41.17 35.99 2.13 o
5 -7 -2 2.22 1.43 1.29 <
5 -7 -1 32.78 29.39 1.85 o
5 -7 0 1.05 1.59 1.26 <
5 -7 1 19.11 19.25 1.57 o
5 -7 2 65.78 65.34 2.56 o
5 -7 3 73.79 70.12 2.61 o
5 -7 4 12.66 11.36 1.40 o
5 -7 5 20.46 17.85 1.51 o
5 -7 6 0.99 1.54 1.42 <
5 -7 7 243.41 241.21 8.28 o
5 -7 8 0.01 -0.72 1.50 <
5 -7 9 36.39 39.01 2.91 o
5 -7 10 28.61 25.61 2.38 o
5 -7 11 2.12 3.98 1.74 <
5 -7 12 25.51 29.08 2.61 o
5 -6 -10 4.69 4.36 2.39 <
5 -6 -9 20.95 13.09 2.63 o
5 -6 -8 50.20 47.51 2.67 o
5 -6 -7 0.82 1.40 1.42 <
5 -6 -6 14.25 14.18 1.68 o
5 -6 -5 1.87 0.70 1.34 <
5 -6 -4 1.82 2.34 1.33 <
5 -6 -3 37.66 39.94 2.23 o
5 -6 -2 234.89 226.97 5.64 o
5 -6 -1 36.18 29.93 1.84 o
5 -6 0 26.74 29.90 1.75 o
5 -6 1 191.66 189.95 4.82 o
5 -6 2 57.79 56.76 2.32 o
5 -6 3 114.92 103.07 3.09 o
5 -6 4 0.03 0.33 1.06 <
5 -6 5 71.49 71.99 2.52 o
5 -6 6 4.82 4.64 1.45 o
5 -6 7 77.05 78.55 3.70 o
5 -6 8 59.79 50.14 3.04 o
5 -6 9 121.51 127.98 5.15 o
5 -6 10 2.28 3.51 1.62 <
5 -6 11 10.64 7.86 1.83 o
5 -6 12 16.39 16.53 2.21 o
5 -6 13 53.74 54.25 3.58 o
5 -6 14 3.34 5.12 1.98 <
5 -5 -13 26.84 25.93 1.92 o
5 -5 -12 16.60 19.38 1.66 o
5 -5 -11 3.98 5.62 1.32 o
5 -5 -10 0.03 -3.04 1.11 <
5 -5 -9 13.49 16.99 1.43 o
5 -5 -8 288.03 305.30 5.84 o
5 -5 -7 0.12 -0.74 0.89 <
5 -5 -6 128.59 126.81 2.60 o
5 -5 -5 18.52 19.70 1.06 o
5 -5 -4 172.39 171.68 3.11 o
5 -5 -3 31.11 31.39 1.22 o
5 -5 -2 0.02 -0.43 0.70 <
5 -5 -1 187.82 186.41 3.23 o
5 -5 0 13.14 12.85 0.83 o
5 -5 1 58.71 56.87 1.51 o
5 -5 2 35.43 39.39 1.30 o
5 -5 3 131.30 128.32 2.39 o
5 -5 4 117.04 106.57 2.10 o
5 -5 5 0.00 -0.87 0.72 <
5 -5 6 2.41 3.39 0.89 o
5 -5 7 415.42 435.20 9.51 o
5 -5 8 0.29 -0.23 0.91 <
5 -5 9 29.17 28.27 1.57 o
5 -5 10 25.12 26.15 1.50 o
5 -5 11 7.43 6.15 1.15 o
5 -5 12 37.26 40.35 2.06 o
5 -5 13 0.12 0.29 1.14 <
5 -5 14 21.27 20.50 2.50 o
5 -4 -14 2.62 1.34 1.43 <
5 -4 -13 5.73 7.63 1.50 o
5 -4 -12 4.85 4.68 1.35 o
5 -4 -11 19.15 24.16 1.73 o
5 -4 -10 28.40 28.58 1.84 o
5 -4 -9 3.83 2.81 0.84 o
5 -4 -8 75.29 73.63 1.78 o
5 -4 -7 17.59 16.32 0.93 o
5 -4 -6 131.74 134.80 2.50 o
5 -4 -5 8.47 7.46 0.74 o
5 -4 -4 78.39 73.65 1.64 o
5 -4 -3 31.01 33.13 1.07 o
5 -4 -2 249.76 254.79 3.65 o
5 -4 -1 1.00 1.03 0.59 <
5 -4 0 44.00 39.94 1.13 o
5 -4 1 370.10 353.68 4.85 o
5 -4 2 78.97 84.77 1.58 o
5 -4 3 177.11 158.41 2.43 o
5 -4 4 21.36 17.96 0.66 o
5 -4 5 134.00 129.26 2.03 o
5 -4 6 6.08 6.21 0.60 o
5 -4 7 75.14 73.45 1.44 o
5 -4 8 82.59 75.68 1.48 o
5 -4 9 61.26 62.81 1.37 o
5 -4 10 4.61 4.77 0.66 o
5 -4 11 20.02 19.35 0.87 o
5 -4 12 43.35 46.07 1.31 o
5 -4 13 93.15 93.64 1.84 o
5 -4 14 4.99 3.70 0.82 o
5 -4 15 5.39 5.51 0.85 o
5 -3 -15 190.45 200.57 5.37 o
5 -3 -14 27.36 25.51 1.92 o
5 -3 -13 38.99 40.90 2.21 o
5 -3 -12 89.55 86.81 3.04 o
5 -3 -11 16.39 18.13 1.56 o
5 -3 -10 5.96 5.42 1.24 o
5 -3 -9 8.95 7.29 0.93 o
5 -3 -8 354.48 355.03 5.59 o
5 -3 -7 12.23 13.02 0.89 o
5 -3 -6 55.50 57.55 1.59 o
5 -3 -5 1.16 0.39 0.67 <
5 -3 -4 390.53 381.18 5.85 o
5 -3 -3 9.58 9.07 0.77 o
5 -3 -2 55.74 52.28 1.43 o
5 -3 -1 520.02 526.43 7.05 o
5 -3 0 21.11 26.03 0.88 o
5 -3 1 56.99 48.59 1.25 o
5 -3 2 0.49 0.88 0.57 <
5 -3 3 72.29 72.33 1.47 o
5 -3 4 147.12 134.47 2.18 o
5 -3 5 4.22 3.89 0.70 o
5 -3 6 0.02 -0.72 0.66 <
5 -3 7 231.30 229.88 3.36 o
5 -3 8 0.11 0.19 0.62 <
5 -3 9 0.90 0.57 0.64 <
5 -3 10 51.79 55.40 1.44 o
5 -3 11 10.57 13.18 0.85 o
5 -3 12 6.72 7.72 0.81 o
5 -3 13 0.57 2.35 1.01 <
5 -3 14 7.76 3.24 1.07 o
5 -3 15 39.08 45.48 1.91 o
5 -2 -16 125.05 127.92 4.01 o
5 -2 -15 36.96 35.99 2.24 o
5 -2 -14 3.81 5.33 1.43 o
5 -2 -13 26.54 24.97 1.81 o
5 -2 -12 12.80 11.63 1.47 o
5 -2 -11 98.47 99.46 3.18 o
5 -2 -10 57.25 59.65 2.43 o
5 -2 -9 23.64 21.25 1.53 o
5 -2 -8 14.29 17.46 1.21 o
5 -2 -7 180.85 172.40 3.65 o
5 -2 -6 646.67 654.60 9.74 o
5 -2 -5 70.00 65.89 1.69 o
5 -2 -4 175.14 170.89 2.99 o
5 -2 -3 20.98 19.78 0.95 o
5 -2 -2 320.43 308.02 4.83 o
5 -2 -1 19.46 16.89 0.89 o
5 -2 0 72.11 67.01 1.65 o
5 -2 1 245.16 221.71 3.26 o
5 -2 2 73.44 73.19 1.50 o
5 -2 3 38.98 33.60 1.03 o
5 -2 4 78.08 68.79 1.71 o
5 -2 5 561.50 523.84 7.88 o
5 -2 6 6.49 7.11 0.80 o
5 -2 7 8.59 6.76 0.79 o
5 -2 8 133.68 130.81 2.97 o
5 -2 9 42.75 46.18 1.50 o
5 -2 10 10.95 11.59 0.95 o
5 -2 11 3.40 3.97 1.01 o
5 -2 12 69.01 75.97 2.79 o
5 -2 13 114.98 115.48 3.57 o
5 -2 14 1.66 2.16 1.34 <
5 -2 15 3.59 5.77 1.47 o
5 -2 16 100.99 111.93 3.71 o
5 -1 -16 8.53 10.38 1.64 o
5 -1 -15 233.69 238.29 6.06 o
5 -1 -14 12.63 11.81 1.53 o
5 -1 -13 12.67 11.52 1.49 o
5 -1 -12 135.44 138.94 3.94 o
5 -1 -11 37.56 35.97 1.98 o
5 -1 -10 1.71 0.70 1.11 <
5 -1 -9 0.18 -0.52 1.05 <
5 -1 -8 284.88 273.02 6.37 o
5 -1 -7 3.04 4.43 0.92 o
5 -1 -6 7.19 5.63 0.95 o
5 -1 -5 154.31 147.67 2.79 o
5 -1 -4 376.73 374.21 5.94 o
5 -1 -3 64.83 70.54 1.59 o
5 -1 -2 207.44 201.29 3.07 o
5 -1 -1 669.52 678.13 9.04 o
5 -1 0 0.83 -1.84 0.64 <
5 -1 1 9.45 6.30 0.72 o
5 -1 2 4.30 2.21 0.58 o
5 -1 3 63.13 68.56 1.74 o
5 -1 4 15.29 11.56 0.97 o
5 -1 5 38.92 41.43 1.59 o
5 -1 6 9.01 7.89 0.92 o
5 -1 7 17.69 20.41 1.16 o
5 -1 8 2.00 1.85 0.86 <
5 -1 9 1.01 0.74 1.07 <
5 -1 10 158.71 165.88 4.40 o
5 -1 11 5.13 6.57 1.30 o
5 -1 12 0.03 1.13 1.20 <
5 -1 13 0.17 0.61 1.25 <
5 -1 14 37.63 31.77 2.02 o
5 -1 15 71.69 78.60 3.07 o
5 -1 16 9.05 11.28 2.49 o
5 0 -17 64.30 69.64 2.99 o
5 0 -16 104.06 104.78 3.57 o
5 0 -15 25.81 29.34 1.97 o
5 0 -14 27.34 21.64 1.72 o
5 0 -13 107.88 94.63 3.17 o
5 0 -12 23.64 17.63 1.56 o
5 0 -11 103.57 101.18 3.18 o
5 0 -10 63.35 63.58 2.50 o
5 0 -9 143.05 137.55 3.80 o
5 0 -8 9.06 7.89 1.01 o
5 0 -7 294.79 274.25 5.25 o
5 0 -6 918.69 949.20 12.53 o
5 0 -5 81.94 82.08 1.76 o
5 0 -4 33.00 32.58 1.11 o
5 0 -3 17.50 17.16 0.85 o
5 0 -2 385.09 384.78 5.35 o
5 0 -1 27.64 26.23 0.95 o
5 0 0 135.22 138.71 2.32 o
5 0 1 32.95 32.58 1.08 o
5 0 2 76.26 79.05 1.47 o
5 0 3 13.02 10.90 0.66 o
5 0 4 81.31 67.04 1.53 o
5 0 5 1065.98 1029.51 15.34 o
5 0 6 10.90 11.65 1.06 o
5 0 7 3.54 3.18 1.07 <
5 0 8 163.79 150.06 4.00 o
5 0 9 87.66 95.36 3.02 o
5 0 10 22.51 22.97 1.61 o
5 0 11 0.73 -1.03 1.13 <
5 0 12 31.67 32.53 1.98 o
5 0 13 88.96 84.34 3.06 o
5 0 14 10.96 11.38 1.59 o
5 0 15 7.29 10.81 1.63 o
5 1 -17 9.06 10.05 1.66 o
5 1 -16 4.19 5.98 1.49 o
5 1 -15 168.34 175.07 4.80 o
5 1 -14 30.46 29.47 1.90 o
5 1 -13 0.87 2.29 1.23 <
5 1 -12 52.51 64.88 2.60 o
5 1 -11 47.33 50.02 1.90 o
5 1 -10 0.63 1.58 0.82 <
5 1 -9 0.26 0.25 0.80 <
5 1 -8 191.35 179.74 3.21 o
5 1 -7 10.75 9.60 0.88 o
5 1 -6 11.77 9.58 0.87 o
5 1 -5 218.14 208.84 3.54 o
5 1 -4 245.14 236.45 3.91 o
5 1 -3 1.45 1.98 0.76 <
5 1 -2 93.60 80.66 1.89 o
5 1 -1 526.87 514.02 6.96 o
5 1 0 41.15 35.57 1.02 o
5 1 1 0.04 -0.20 0.60 <
5 1 2 13.83 18.11 0.80 o
5 1 3 227.62 246.05 3.62 o
5 1 4 20.98 22.89 0.94 o
5 1 5 155.00 164.27 2.95 o
5 1 6 0.16 0.67 0.75 <
5 1 7 13.71 15.96 0.98 o
5 1 8 19.66 20.01 1.26 o
5 1 9 1.27 3.05 1.15 <
5 1 10 229.74 237.31 5.79 o
5 1 11 0.26 0.57 1.20 <
5 1 12 15.98 17.97 1.61 o
5 1 13 1.82 3.04 1.33 <
5 1 14 140.05 137.46 4.12 o
5 1 15 96.54 103.44 3.57 o
5 2 -17 99.49 107.22 3.60 o
5 2 -16 4.95 5.14 1.47 o
5 2 -15 1.83 4.36 1.11 o
5 2 -14 115.04 110.44 2.79 o
5 2 -13 119.80 116.66 2.82 o
5 2 -12 4.46 4.07 0.87 o
5 2 -11 28.97 31.49 1.28 o
5 2 -10 71.97 75.11 1.87 o
5 2 -9 160.73 163.96 2.99 o
5 2 -8 6.33 6.53 0.83 o
5 2 -7 119.04 105.67 2.19 o
5 2 -6 452.46 457.11 6.95 o
5 2 -5 36.60 33.40 1.25 o
5 2 -4 29.42 25.70 1.04 o
5 2 -3 42.04 45.16 1.45 o
5 2 -2 330.59 325.80 5.09 o
5 2 -1 30.64 28.09 0.96 o
5 2 0 144.20 145.88 2.37 o
5 2 1 3.02 3.88 0.64 o
5 2 2 106.20 107.59 1.94 o
5 2 3 38.89 34.48 1.14 o
5 2 4 77.91 67.12 1.53 o
5 2 5 838.20 822.73 11.00 o
5 2 6 19.39 23.35 1.06 o
5 2 7 28.98 26.57 1.12 o
5 2 8 94.95 98.60 2.15 o
5 2 9 91.81 94.30 2.14 o
5 2 10 32.95 31.64 1.42 o
5 2 11 0.01 -0.46 1.18 <
5 2 12 0.98 0.56 1.27 <
5 2 13 37.53 35.65 2.15 o
5 2 14 20.00 19.95 1.82 o
5 3 -17 20.88 23.84 1.19 o
5 3 -16 14.40 14.64 1.03 o
5 3 -15 84.36 91.58 2.08 o
5 3 -14 86.20 89.10 1.85 o
5 3 -13 17.72 20.40 0.95 o
5 3 -12 7.57 8.48 0.78 o
5 3 -11 57.77 61.08 1.46 o
5 3 -10 1.59 2.02 0.64 o
5 3 -9 5.46 7.27 0.70 o
5 3 -8 143.62 135.74 2.53 o
5 3 -7 10.17 11.07 0.83 o
5 3 -6 14.95 12.88 0.85 o
5 3 -5 23.34 21.13 0.96 o
5 3 -4 272.85 274.12 4.36 o
5 3 -3 71.49 67.91 1.64 o
5 3 -2 3.97 2.23 0.62 o
5 3 -1 323.69 315.68 4.46 o
5 3 0 1.23 -0.51 0.60 <
5 3 1 0.06 -0.70 0.60 <
5 3 2 66.82 77.67 1.59 o
5 3 3 301.02 307.09 4.39 o
5 3 4 5.27 5.53 0.69 o
5 3 5 17.59 18.01 0.85 o
5 3 6 20.24 19.39 0.91 o
5 3 7 103.40 113.32 2.42 o
5 3 8 36.39 35.04 1.43 o
5 3 9 2.31 1.35 1.01 <
5 3 10 106.61 110.70 2.84 o
5 3 11 5.35 4.72 1.34 o
5 3 12 80.65 93.10 3.20 o
5 3 13 7.00 5.89 1.48 o
5 4 -16 2.11 1.82 1.29 <
5 4 -15 0.56 1.36 1.05 <
5 4 -14 71.22 68.26 2.20 o
5 4 -13 37.34 36.95 1.65 o
5 4 -12 5.31 4.92 1.01 o
5 4 -11 11.44 12.04 1.09 o
5 4 -10 103.35 111.46 2.67 o
5 4 -9 23.42 23.21 1.28 o
5 4 -8 13.45 14.83 1.09 o
5 4 -7 2.60 1.70 0.87 <
5 4 -6 119.34 122.57 2.79 o
5 4 -5 8.89 5.82 0.93 o
5 4 -4 69.97 62.78 1.89 o
5 4 -3 50.83 51.14 1.53 o
5 4 -2 133.80 133.84 2.58 o
5 4 -1 76.30 75.55 1.82 o
5 4 0 91.60 91.03 2.02 o
5 4 1 13.94 15.13 0.94 o
5 4 2 79.59 79.46 1.88 o
5 4 3 4.81 4.89 0.82 o
5 4 4 63.30 60.98 1.71 o
5 4 5 372.61 376.85 6.10 o
5 4 6 8.44 11.27 0.98 o
5 4 7 30.85 29.08 1.29 o
5 4 8 18.13 20.29 1.18 o
5 4 9 20.05 19.70 1.22 o
5 4 10 31.04 31.92 1.45 o
5 4 11 2.49 4.56 1.05 o
5 4 12 0.18 2.40 1.16 <
5 5 -15 43.90 47.20 3.60 o
5 5 -14 79.60 81.99 4.41 o
5 5 -13 23.48 26.91 2.69 o
5 5 -12 3.69 3.21 1.87 <
5 5 -11 51.16 48.62 3.36 o
5 5 -10 0.03 0.07 1.76 <
5 5 -9 2.08 2.52 1.78 <
5 5 -8 93.26 89.05 4.22 o
5 5 -7 6.73 6.32 1.88 o
5 5 -6 4.01 4.11 1.78 <
5 5 -5 38.46 36.81 2.87 o
5 5 -4 258.90 251.76 8.67 o
5 5 -3 99.63 96.98 3.17 o
5 5 -2 3.15 3.07 1.23 <
5 5 -1 200.51 194.15 5.08 o
5 5 0 25.78 28.10 1.74 o
5 5 1 0.07 -1.97 1.13 <
5 5 2 9.97 12.65 1.45 o
5 5 3 117.38 110.54 3.51 o
5 5 4 13.48 16.11 1.14 o
5 5 5 52.68 55.17 1.94 o
5 5 6 39.66 38.81 1.66 o
5 5 7 134.04 148.28 3.43 o
5 5 8 15.46 14.24 1.73 o
5 5 9 0.51 3.38 1.51 <
5 5 10 14.80 16.85 1.89 o
5 5 11 7.39 7.30 1.72 o
5 6 -14 14.69 10.66 2.32 o
5 6 -13 3.13 1.69 1.98 <
5 6 -12 19.94 20.80 2.50 o
5 6 -11 29.95 27.76 2.63 o
5 6 -10 127.79 128.89 5.43 o
5 6 -9 2.33 2.97 1.90 <
5 6 -8 39.20 32.99 2.68 o
5 6 -7 1.65 0.12 1.74 <
5 6 -6 77.53 77.16 3.93 o
5 6 -5 5.80 5.62 1.86 o
5 6 -4 27.28 20.34 2.23 o
5 6 -3 33.13 35.93 2.06 o
5 6 -2 40.22 39.51 2.24 o
5 6 -1 145.13 139.85 4.08 o
5 6 0 53.25 52.96 2.56 o
5 6 1 47.12 49.90 2.47 o
5 6 2 46.75 49.57 2.53 o
5 6 3 1.03 -0.11 1.32 <
5 6 4 35.00 38.29 2.34 o
5 6 5 151.43 158.22 4.66 o
5 6 6 0.31 2.05 1.45 <
5 6 7 3.88 4.56 1.60 <
5 6 8 0.01 -2.03 1.47 <
5 6 9 0.11 1.62 1.58 <
5 7 -13 10.10 11.03 2.32 o
5 7 -12 8.77 12.75 2.31 o
5 7 -11 24.43 28.06 2.75 o
5 7 -10 0.20 -1.62 1.84 <
5 7 -9 1.00 1.33 1.92 <
5 7 -8 60.02 51.26 3.42 o
5 7 -7 26.02 21.71 2.37 o
5 7 -6 0.23 -2.05 1.70 <
5 7 -5 31.32 29.03 2.58 o
5 7 -4 122.95 121.68 5.13 o
5 7 -3 13.63 12.77 1.63 o
5 7 -2 16.81 14.76 1.68 o
5 7 -1 106.40 109.82 3.67 o
5 7 0 18.25 21.68 1.84 o
5 7 1 2.86 2.19 1.43 <
5 7 2 15.93 14.44 1.71 o
5 7 3 9.55 7.22 1.60 o
5 7 4 25.27 30.30 2.13 o
5 7 5 99.15 99.72 3.62 o
5 7 6 28.66 30.97 2.21 o
5 7 7 41.76 41.80 2.58 o
5 8 -10 85.53 95.00 4.71 o
5 8 -9 0.58 3.41 2.02 <
5 8 -8 6.41 4.04 1.98 <
5 8 -7 0.11 2.09 1.97 <
5 8 -6 103.08 100.35 4.72 o
5 8 -5 1.38 0.35 1.91 <
5 8 -4 9.67 11.42 2.14 o
5 8 -3 18.57 18.00 1.89 o
5 8 -2 10.51 10.83 1.76 o
5 8 -1 130.03 129.89 4.22 o
5 8 0 20.64 20.01 1.92 o
5 8 1 27.58 27.53 2.11 o
5 8 2 18.76 20.56 1.99 o
5 8 3 0.08 1.18 1.58 <
5 8 4 17.04 17.34 1.99 o
5 9 -4 28.71 35.01 2.99 o
5 9 -3 0.77 3.02 2.05 <
5 9 -2 8.25 12.59 3.03 o
6 -8 -4 44.40 52.58 3.89 o
6 -8 -3 0.30 -1.36 1.55 <
6 -8 -2 4.78 3.52 1.61 <
6 -8 -1 43.74 42.32 2.43 o
6 -8 0 3.75 3.14 1.56 <
6 -8 1 32.20 35.46 2.27 o
6 -8 2 27.41 25.29 1.97 o
6 -8 3 53.59 55.16 3.36 o
6 -8 4 24.22 25.20 2.50 o
6 -8 5 1.53 0.38 1.72 <
6 -8 6 19.89 17.94 2.24 o
6 -8 7 5.03 5.79 1.85 o
6 -7 -7 36.18 40.32 3.43 o
6 -7 -6 100.00 117.84 4.07 o
6 -7 -5 1.06 1.55 1.54 <
6 -7 -4 15.61 11.72 1.74 o
6 -7 -3 46.07 44.67 2.46 o
6 -7 -2 54.05 59.72 2.79 o
6 -7 -1 94.71 89.37 3.25 o
6 -7 0 22.24 22.48 1.85 o
6 -7 1 8.79 10.55 1.55 o
6 -7 2 88.93 92.89 3.21 o
6 -7 3 24.92 28.74 2.50 o
6 -7 4 11.10 9.08 1.84 o
6 -7 5 98.23 109.63 4.80 o
6 -7 6 30.32 31.54 2.62 o
6 -7 7 30.04 27.35 2.47 o
6 -7 8 8.56 7.07 1.90 o
6 -7 9 24.99 27.77 2.62 o
6 -7 10 5.41 7.40 2.02 o
6 -6 -9 5.97 8.02 2.51 o
6 -6 -8 87.35 87.92 3.55 o
6 -6 -7 19.50 17.60 1.92 o
6 -6 -6 0.97 -0.59 1.47 <
6 -6 -5 60.29 60.62 2.87 o
6 -6 -4 53.94 53.65 2.70 o
6 -6 -3 8.30 8.35 1.49 o
6 -6 -2 28.91 24.27 1.81 o
6 -6 -1 49.55 47.93 2.45 o
6 -6 0 31.62 32.58 1.94 o
6 -6 1 33.28 31.44 1.87 o
6 -6 2 17.41 17.89 1.56 o
6 -6 3 48.17 46.52 3.06 o
6 -6 4 6.38 6.21 1.74 o
6 -6 5 31.45 27.95 2.42 o
6 -6 6 0.44 0.98 1.55 <
6 -6 7 29.76 32.93 2.76 o
6 -6 8 33.58 31.08 2.60 o
6 -6 9 12.59 12.79 2.09 o
6 -6 10 17.61 20.57 2.36 o
6 -6 11 0.11 1.00 1.78 <
6 -5 -11 53.02 59.88 2.74 o
6 -5 -10 25.68 30.75 1.96 o
6 -5 -9 8.29 7.34 1.39 o
6 -5 -8 7.07 7.70 1.17 o
6 -5 -7 6.31 5.08 1.00 o
6 -5 -6 111.74 115.26 2.53 o
6 -5 -5 0.29 0.10 0.88 <
6 -5 -4 90.36 94.07 2.20 o
6 -5 -3 26.56 28.25 1.24 o
6 -5 -2 63.79 70.76 1.85 o
6 -5 -1 281.35 287.62 4.74 o
6 -5 0 50.84 48.55 1.55 o
6 -5 1 15.84 14.49 0.95 o
6 -5 2 46.85 46.84 1.67 o
6 -5 3 5.18 6.35 0.89 o
6 -5 4 18.36 17.93 1.09 o
6 -5 5 50.60 54.45 1.80 o
6 -5 6 7.31 6.05 0.93 o
6 -5 7 23.86 21.87 1.44 o
6 -5 8 0.17 1.74 1.05 <
6 -5 9 24.20 24.88 1.58 o
6 -5 10 16.79 17.06 1.45 o
6 -5 11 0.36 0.12 1.14 <
6 -5 12 0.04 1.11 1.21 <
6 -4 -12 73.73 72.27 2.96 o
6 -4 -11 20.64 21.75 1.82 o
6 -4 -10 19.81 25.30 1.35 o
6 -4 -9 1.32 1.01 0.90 <
6 -4 -8 188.30 193.64 3.44 o
6 -4 -7 139.41 136.20 2.67 o
6 -4 -6 0.20 -1.06 0.72 <
6 -4 -5 124.68 130.02 2.51 o
6 -4 -4 30.82 31.42 1.20 o
6 -4 -3 0.05 -0.14 0.66 <
6 -4 -2 76.23 72.90 1.59 o
6 -4 -1 73.97 70.89 1.55 o
6 -4 0 29.00 32.56 1.09 o
6 -4 1 5.95 5.00 0.67 o
6 -4 2 7.65 3.76 0.71 o
6 -4 3 22.27 21.45 0.95 o
6 -4 4 20.46 18.62 0.93 o
6 -4 5 104.53 100.56 1.81 o
6 -4 6 69.27 69.35 1.48 o
6 -4 7 66.95 75.08 1.56 o
6 -4 8 28.72 27.20 0.98 o
6 -4 9 7.82 7.51 0.75 o
6 -4 10 46.78 50.19 1.37 o
6 -4 11 10.65 11.28 0.85 o
6 -4 12 22.17 25.81 1.13 o
6 -4 13 0.05 -2.83 0.79 <
6 -3 -13 2.12 2.26 1.47 <
6 -3 -12 52.96 54.35 2.63 o
6 -3 -11 79.85 80.79 3.02 o
6 -3 -10 38.24 39.51 2.15 o
6 -3 -9 5.19 3.75 1.30 <
6 -3 -8 16.78 15.94 1.27 o
6 -3 -7 4.70 3.30 0.84 o
6 -3 -6 141.70 142.64 2.74 o
6 -3 -5 5.35 3.52 0.79 o
6 -3 -4 110.51 112.86 2.29 o
6 -3 -3 14.39 12.41 0.89 o
6 -3 -2 37.69 38.88 1.38 o
6 -3 -1 415.67 421.90 5.82 o
6 -3 0 136.88 134.76 2.29 o
6 -3 1 47.23 40.49 1.25 o
6 -3 2 26.49 26.53 1.08 o
6 -3 3 0.67 -0.19 0.70 <
6 -3 4 0.00 0.12 0.71 <
6 -3 5 59.01 57.81 1.63 o
6 -3 6 0.13 0.90 0.75 <
6 -3 7 6.19 6.18 0.76 o
6 -3 8 5.75 5.97 0.78 o
6 -3 9 51.09 50.79 1.43 o
6 -3 10 56.55 55.07 1.98 o
6 -3 11 0.68 -0.97 1.00 <
6 -3 12 3.81 3.18 1.09 <
6 -3 13 24.29 23.55 1.48 o
6 -3 14 32.22 28.37 2.50 o
6 -2 -14 11.21 9.92 1.70 o
6 -2 -13 0.03 -1.92 1.30 <
6 -2 -12 63.74 55.78 2.62 o
6 -2 -11 17.24 17.93 1.71 o
6 -2 -10 66.52 73.58 2.79 o
6 -2 -9 24.19 25.83 1.76 o
6 -2 -8 188.87 195.90 5.01 o
6 -2 -7 86.02 83.70 2.44 o
6 -2 -6 1.85 1.63 0.95 <
6 -2 -5 17.78 21.74 1.28 o
6 -2 -4 3.48 3.25 0.93 o
6 -2 -3 31.26 30.84 1.49 o
6 -2 -2 51.65 51.23 1.85 o
6 -2 -1 106.62 103.39 2.57 o
6 -2 0 4.19 8.47 0.85 o
6 -2 1 4.15 3.25 0.90 o
6 -2 2 71.10 59.81 1.92 o
6 -2 3 32.37 36.41 1.64 o
6 -2 4 77.24 78.60 2.19 o
6 -2 5 98.95 95.44 2.47 o
6 -2 6 111.91 102.30 2.60 o
6 -2 7 54.34 67.28 2.11 o
6 -2 8 74.33 71.59 2.70 o
6 -2 9 0.00 -3.00 1.13 <
6 -2 10 102.77 105.15 3.39 o
6 -2 11 11.49 10.32 1.50 o
6 -2 12 5.42 6.32 1.49 o
6 -2 13 17.45 13.60 1.70 o
6 -2 14 0.35 1.68 1.45 <
6 -1 -15 7.80 7.86 1.64 o
6 -1 -14 100.97 107.14 3.64 o
6 -1 -13 0.22 -0.58 1.30 <
6 -1 -12 74.09 75.43 2.95 o
6 -1 -11 48.94 48.18 2.40 o
6 -1 -10 35.34 43.46 2.31 o
6 -1 -9 28.65 28.73 1.83 o
6 -1 -8 40.60 38.81 2.13 o
6 -1 -7 31.38 26.73 1.68 o
6 -1 -6 279.58 264.40 6.27 o
6 -1 -5 11.41 7.54 1.24 o
6 -1 -4 37.71 36.30 1.71 o
6 -1 -3 60.31 54.76 1.92 o
6 -1 -2 18.19 21.09 1.25 o
6 -1 -1 397.61 372.05 6.86 o
6 -1 0 180.20 183.00 3.82 o
6 -1 1 83.67 72.87 2.13 o
6 -1 2 61.62 63.82 1.99 o
6 -1 3 4.05 3.10 0.92 o
6 -1 4 5.12 5.95 0.98 o
6 -1 5 108.97 99.74 3.10 o
6 -1 6 35.88 37.65 2.05 o
6 -1 7 8.68 8.77 1.31 o
6 -1 8 1.86 2.83 1.22 <
6 -1 9 77.58 68.27 2.71 o
6 -1 10 92.76 92.02 3.15 o
6 -1 11 8.95 8.29 1.45 o
6 -1 12 0.46 -1.82 1.29 <
6 -1 13 67.86 73.33 3.00 o
6 -1 14 58.18 57.13 2.78 o
6 0 -15 121.64 129.19 4.11 o
6 0 -14 18.43 15.98 1.76 o
6 0 -13 0.24 -2.81 1.26 <
6 0 -12 4.04 5.94 1.37 o
6 0 -11 15.68 17.85 1.63 o
6 0 -10 63.41 67.67 2.70 o
6 0 -9 0.01 -2.04 1.13 <
6 0 -8 92.97 99.83 3.18 o
6 0 -7 14.16 14.04 1.43 o
6 0 -6 4.28 6.03 1.24 o
6 0 -5 9.62 8.46 1.28 o
6 0 -4 1.33 0.77 0.93 <
6 0 -3 77.23 77.96 2.28 o
6 0 -2 1.91 1.77 0.97 <
6 0 -1 111.55 105.96 2.68 o
6 0 0 17.35 24.93 1.35 o
6 0 1 1.17 -0.50 0.93 <
6 0 2 27.48 21.29 1.50 o
6 0 3 139.43 135.91 3.75 o
6 0 4 27.62 35.69 2.00 o
6 0 5 37.12 31.75 1.81 o
6 0 6 34.35 26.91 1.69 o
6 0 7 33.08 38.65 2.11 o
6 0 8 118.01 110.37 3.43 o
6 0 9 3.45 3.57 1.31 <
6 0 10 87.73 90.08 3.14 o
6 0 11 1.80 0.66 1.31 <
6 0 12 4.90 2.58 1.43 <
6 0 13 35.29 35.39 2.21 o
6 1 -15 7.79 5.97 1.56 o
6 1 -14 136.53 134.75 4.10 o
6 1 -13 5.28 5.25 1.43 o
6 1 -12 83.77 88.22 3.15 o
6 1 -11 12.22 9.43 1.46 o
6 1 -10 39.72 43.78 2.32 o
6 1 -9 75.44 72.53 2.73 o
6 1 -8 86.77 82.16 2.39 o
6 1 -7 36.02 35.14 1.38 o
6 1 -6 430.93 425.76 6.64 o
6 1 -5 3.24 4.47 0.88 o
6 1 -4 11.67 9.95 0.94 o
6 1 -3 152.42 154.13 2.91 o
6 1 -2 11.78 12.61 0.96 o
6 1 -1 379.46 369.23 5.81 o
6 1 0 70.05 66.89 1.80 o
6 1 1 65.37 63.09 1.77 o
6 1 2 65.90 71.31 1.86 o
6 1 3 73.57 68.61 1.82 o
6 1 4 34.95 32.55 1.55 o
6 1 5 86.01 81.06 2.37 o
6 1 6 243.56 233.72 5.69 o
6 1 7 19.83 20.59 1.61 o
6 1 8 0.39 0.53 1.21 <
6 1 9 24.17 21.55 1.70 o
6 1 10 62.91 64.53 2.71 o
6 1 11 41.78 40.91 2.29 o
6 1 12 3.50 3.37 1.47 <
6 1 13 39.48 41.81 2.40 o
6 2 -15 42.14 47.65 2.60 o
6 2 -14 0.18 -0.22 1.06 <
6 2 -13 0.43 0.32 1.05 <
6 2 -12 5.65 5.12 1.09 o
6 2 -11 48.38 50.68 1.98 o
6 2 -10 12.53 15.31 1.07 o
6 2 -9 82.97 81.95 2.03 o
6 2 -8 40.18 43.93 1.58 o
6 2 -7 119.22 127.14 2.56 o
6 2 -6 12.07 14.55 1.01 o
6 2 -5 1.22 0.93 0.80 <
6 2 -4 29.21 33.88 1.32 o
6 2 -3 52.40 54.44 1.64 o
6 2 -2 3.25 3.02 0.80 o
6 2 -1 34.07 33.01 1.30 o
6 2 0 133.98 152.18 2.84 o
6 2 1 15.64 14.91 0.99 o
6 2 2 4.47 4.65 0.85 o
6 2 3 224.38 222.72 3.80 o
6 2 4 0.03 0.48 0.80 <
6 2 5 19.82 21.57 1.12 o
6 2 6 3.32 3.15 0.86 o
6 2 7 34.77 42.34 1.77 o
6 2 8 54.86 57.56 2.00 o
6 2 9 4.84 6.30 1.40 o
6 2 10 19.18 19.43 1.72 o
6 2 11 0.29 0.03 1.35 <
6 2 12 24.06 22.63 1.90 o
6 3 -15 16.45 13.41 1.01 o
6 3 -14 116.91 125.16 2.52 o
6 3 -13 3.49 5.62 0.90 o
6 3 -12 91.48 96.98 1.96 o
6 3 -11 2.54 1.79 0.74 <
6 3 -10 40.92 49.56 1.42 o
6 3 -9 56.52 56.41 1.68 o
6 3 -8 99.77 96.90 2.16 o
6 3 -7 3.65 5.16 0.85 o
6 3 -6 331.57 331.80 5.28 o
6 3 -5 36.04 42.43 1.43 o
6 3 -4 18.60 18.05 1.01 o
6 3 -3 84.20 83.21 1.92 o
6 3 -2 2.84 2.44 0.80 o
6 3 -1 368.05 365.57 5.72 o
6 3 0 9.96 8.28 0.88 o
6 3 1 16.47 18.57 1.01 o
6 3 2 0.66 1.62 0.79 <
6 3 3 120.26 115.12 2.36 o
6 3 4 195.66 193.31 3.40 o
6 3 5 23.34 20.72 1.10 o
6 3 6 264.89 271.69 4.10 o
6 3 7 3.42 4.77 0.83 o
6 3 8 1.39 1.81 0.98 <
6 3 9 0.65 2.71 1.13 <
6 3 10 22.58 23.07 1.84 o
6 3 11 19.78 18.89 1.82 o
6 4 -14 9.22 10.63 1.51 o
6 4 -13 1.19 -0.90 1.08 <
6 4 -12 2.76 2.08 1.08 <
6 4 -11 93.33 94.28 2.60 o
6 4 -10 0.60 0.86 1.01 <
6 4 -9 114.70 121.76 2.96 o
6 4 -8 31.34 36.12 1.64 o
6 4 -7 25.19 24.17 1.35 o
6 4 -6 34.63 39.17 1.72 o
6 4 -5 32.01 31.67 1.53 o
6 4 -4 68.06 67.75 2.13 o
6 4 -3 22.32 23.59 1.33 o
6 4 -2 0.00 -1.13 0.93 <
6 4 -1 1.77 2.46 1.00 <
6 4 0 255.78 269.90 5.25 o
6 4 1 32.28 31.03 1.53 o
6 4 2 17.00 16.22 1.24 o
6 4 3 129.79 127.02 2.65 o
6 4 4 0.02 -1.46 0.85 <
6 4 5 34.73 39.20 1.53 o
6 4 6 1.47 1.80 0.95 <
6 4 7 47.86 53.03 1.83 o
6 4 8 4.31 4.14 1.04 o
6 4 9 6.06 8.89 1.25 o
6 4 10 0.02 2.37 1.16 <
6 5 -13 0.09 -3.51 2.03 <
6 5 -12 73.01 74.70 4.40 o
6 5 -11 2.86 1.85 2.07 <
6 5 -10 38.38 42.32 3.42 o
6 5 -9 19.02 18.76 2.49 o
6 5 -8 53.30 54.60 3.70 o
6 5 -7 0.01 -0.57 1.94 <
6 5 -6 113.78 102.07 4.82 o
6 5 -5 10.47 8.80 2.18 o
6 5 -4 47.70 50.52 3.55 o
6 5 -3 4.04 3.26 2.01 <
6 5 -2 0.83 1.53 2.00 <
6 5 -1 223.30 226.38 8.25 o
6 5 0 5.36 3.14 1.38 <
6 5 1 0.83 0.92 1.34 <
6 5 2 24.61 24.04 1.84 o
6 5 3 62.71 64.90 2.88 o
6 5 4 129.30 133.13 4.15 o
6 5 5 6.14 6.12 1.56 o
6 5 6 85.72 89.99 3.47 o
6 5 7 5.70 7.52 1.71 o
6 5 8 1.66 0.45 1.56 <
6 5 9 4.85 5.84 2.35 <
6 6 -12 0.13 0.49 2.07 <
6 6 -11 55.78 52.65 3.86 o
6 6 -10 5.35 7.20 2.27 o
6 6 -9 13.39 14.26 2.45 o
6 6 -8 29.94 28.62 2.86 o
6 6 -7 9.71 8.28 2.23 o
6 6 -6 45.13 47.38 3.59 o
6 6 -5 41.37 41.01 3.41 o
6 6 -4 41.80 34.71 3.04 o
6 6 -3 24.93 30.87 2.89 o
6 6 -2 2.09 4.76 2.11 <
6 6 -1 0.03 -0.71 1.40 <
6 6 0 140.07 141.32 4.29 o
6 6 1 8.32 5.40 1.56 o
6 6 2 0.13 -0.33 1.43 <
6 6 3 21.55 18.15 1.85 o
6 6 4 2.66 5.05 1.60 o
6 6 5 43.33 50.21 2.84 o
6 6 6 1.05 1.19 1.58 <
6 6 7 43.94 58.73 4.44 o
6 7 -9 10.18 11.14 2.46 o
6 7 -8 7.57 6.97 2.30 o
6 7 -7 1.62 -2.14 2.06 <
6 7 -6 7.97 7.81 2.32 o
6 7 -5 1.21 1.48 2.10 <
6 7 -4 59.11 59.62 3.95 o
6 7 -3 0.25 -1.47 2.08 <
6 7 -2 0.74 0.21 2.15 <
6 7 -1 70.43 77.68 3.27 o
6 7 0 4.44 4.60 1.61 <
6 7 1 0.97 1.51 1.58 <
6 7 2 11.29 13.06 1.82 o
6 7 3 17.85 20.38 2.05 o
6 7 4 9.08 9.30 1.82 o
7 -7 -2 20.37 18.10 2.53 o
7 -7 -1 0.13 -0.48 1.88 <
7 -7 0 52.51 49.30 3.52 o
7 -7 1 4.54 5.57 2.05 <
7 -7 2 14.55 18.71 2.47 o
7 -7 3 22.49 27.08 2.67 o
7 -7 4 7.99 9.23 2.07 o
7 -7 5 1.93 4.72 1.97 <
7 -6 -6 107.86 118.46 4.14 o
7 -6 -5 6.01 4.54 1.69 <
7 -6 -4 3.82 4.66 1.64 <
7 -6 -3 9.29 9.30 1.66 o
7 -6 -2 6.77 8.88 2.18 o
7 -6 -1 117.11 125.32 5.50 o
7 -6 0 0.14 1.92 1.84 <
7 -6 1 0.68 3.14 1.89 <
7 -6 2 1.91 4.76 1.90 <
7 -6 3 80.49 92.59 4.50 o
7 -6 4 58.98 65.30 3.88 o
7 -6 5 39.09 42.47 3.38 o
7 -6 6 67.54 72.01 4.06 o
7 -6 7 0.51 2.10 1.89 <
7 -6 8 3.88 10.10 2.20 o
7 -5 -8 1.13 1.38 1.19 <
7 -5 -7 35.29 33.23 1.55 o
7 -5 -6 6.00 6.63 1.09 o
7 -5 -5 11.21 9.41 1.10 o
7 -5 -4 11.07 13.96 1.13 o
7 -5 -3 0.18 -0.19 0.88 <
7 -5 -2 25.95 23.25 1.36 o
7 -5 -1 2.00 2.71 0.99 <
7 -5 0 133.35 140.49 3.22 o
7 -5 1 2.43 2.65 0.97 <
7 -5 2 29.63 31.96 1.53 o
7 -5 3 37.16 40.80 1.74 o
7 -5 4 2.79 1.82 0.95 <
7 -5 5 0.45 0.50 0.93 <
7 -5 6 3.91 5.04 1.03 o
7 -5 7 80.21 90.97 3.04 o
7 -5 8 2.50 2.04 1.25 <
7 -5 9 56.71 59.50 2.56 o
7 -4 -10 1.89 2.58 1.06 <
7 -4 -9 12.46 13.55 1.21 o
7 -4 -8 70.89 76.46 2.23 o
7 -4 -7 0.90 1.10 0.94 <
7 -4 -6 26.91 28.13 1.30 o
7 -4 -5 0.04 -0.02 0.77 <
7 -4 -4 35.87 35.83 1.26 o
7 -4 -3 17.13 20.67 1.01 o
7 -4 -2 26.10 27.80 1.21 o
7 -4 -1 109.31 113.68 2.34 o
7 -4 0 3.10 0.69 0.78 <
7 -4 1 4.40 2.77 0.82 o
7 -4 2 0.73 -0.77 0.76 <
7 -4 3 87.69 97.31 2.13 o
7 -4 4 32.89 33.21 1.33 o
7 -4 5 46.73 45.00 1.34 o
7 -4 6 32.06 29.32 1.08 o
7 -4 7 7.16 7.43 0.80 o
7 -4 8 16.29 16.51 1.01 o
7 -4 9 18.73 16.26 1.02 o
7 -4 10 41.97 41.25 1.50 o
7 -3 -11 21.52 23.00 1.94 o
7 -3 -10 32.15 35.71 2.19 o
7 -3 -9 7.47 4.32 1.42 o
7 -3 -8 18.57 18.36 1.70 o
7 -3 -7 109.28 101.69 3.34 o
7 -3 -6 1.36 3.05 1.28 <
7 -3 -5 30.05 28.67 1.84 o
7 -3 -4 43.03 49.59 1.97 o
7 -3 -3 1.54 0.86 0.99 <
7 -3 -2 11.99 11.41 1.19 o
7 -3 -1 10.80 10.65 1.15 o
7 -3 0 137.07 150.58 3.41 o
7 -3 1 11.22 12.50 1.19 o
7 -3 2 0.43 2.00 0.98 <
7 -3 3 20.80 23.10 1.36 o
7 -3 4 59.80 59.34 2.08 o
7 -3 5 39.79 37.54 2.10 o
7 -3 6 22.06 28.02 1.83 o
7 -3 7 157.92 176.94 3.77 o
7 -3 8 10.22 9.41 1.21 o
7 -3 9 110.92 115.49 2.90 o
7 -3 10 12.81 10.94 1.29 o
7 -3 11 3.19 1.64 1.16 <
7 -2 -12 12.11 16.66 1.82 o
7 -2 -11 1.01 2.70 1.47 <
7 -2 -10 29.15 30.07 2.05 o
7 -2 -9 14.68 13.60 1.63 o
7 -2 -8 2.61 2.08 1.31 <
7 -2 -7 6.78 7.56 1.41 o
7 -2 -6 3.13 4.44 1.29 o
7 -2 -5 0.51 0.17 1.22 <
7 -2 -4 60.93 64.87 2.59 o
7 -2 -3 1.23 1.08 1.17 <
7 -2 -2 48.28 49.35 2.34 o
7 -2 -1 144.01 134.40 3.85 o
7 -2 0 3.51 2.02 1.20 <
7 -2 1 49.52 48.14 2.33 o
7 -2 2 31.53 30.10 1.82 o
7 -2 3 45.06 45.55 2.27 o
7 -2 4 3.40 2.58 1.26 <
7 -2 5 17.47 12.66 1.50 o
7 -2 6 6.77 4.15 1.33 o
7 -2 7 40.38 41.21 2.24 o
7 -2 8 13.05 9.71 1.54 o
7 -2 9 6.46 5.48 1.51 o
7 -2 10 30.90 26.27 2.02 o
7 -2 11 0.02 -1.16 1.42 <
7 -1 -13 21.15 20.78 1.96 o
7 -1 -12 29.42 35.94 2.24 o
7 -1 -11 8.27 4.75 1.50 o
7 -1 -10 87.78 92.53 3.30 o
7 -1 -9 4.17 6.56 1.45 o
7 -1 -8 33.43 35.06 2.05 o
7 -1 -7 92.96 85.29 3.05 o
7 -1 -6 6.29 4.96 1.32 o
7 -1 -5 4.76 4.50 1.29 o
7 -1 -4 114.64 120.81 3.63 o
7 -1 -3 19.31 17.27 1.55 o
7 -1 -2 2.51 3.41 1.23 <
7 -1 -1 4.41 4.83 1.28 o
7 -1 0 64.59 67.55 2.63 o
7 -1 1 32.76 35.88 2.02 o
7 -1 2 20.24 16.80 1.58 o
7 -1 3 0.01 -1.33 1.14 <
7 -1 4 56.11 49.22 2.39 o
7 -1 5 117.67 113.22 3.55 o
7 -1 6 101.04 110.43 3.53 o
7 -1 7 188.56 185.31 4.96 o
7 -1 8 7.07 6.39 1.48 o
7 -1 9 78.69 77.80 3.09 o
7 -1 10 5.83 6.34 1.55 o
7 -1 11 2.22 0.48 1.47 <
7 0 -13 6.63 6.30 1.58 o
7 0 -12 19.63 22.07 1.92 o
7 0 -11 4.91 7.20 1.55 o
7 0 -10 103.07 103.24 3.49 o
7 0 -9 36.74 36.03 2.10 o
7 0 -8 0.62 0.09 1.28 <
7 0 -7 0.72 0.94 1.25 <
7 0 -6 29.38 21.50 1.70 o
7 0 -5 38.82 35.97 2.06 o
7 0 -4 57.18 57.92 2.51 o
7 0 -3 1.21 0.58 1.18 <
7 0 -2 21.63 21.27 1.66 o
7 0 -1 229.64 208.51 5.29 o
7 0 0 89.64 89.58 3.04 o
7 0 1 101.03 94.24 3.14 o
7 0 2 82.60 75.51 2.83 o
7 0 3 9.52 5.90 1.34 o
7 0 4 12.69 11.73 1.49 o
7 0 5 0.59 0.23 1.23 <
7 0 6 8.41 6.83 1.45 o
7 0 7 53.49 53.81 2.58 o
7 0 8 0.02 0.36 1.33 <
7 0 9 8.74 7.91 1.57 o
7 0 10 14.12 13.00 1.74 o
7 0 11 15.90 14.28 1.84 o
7 1 -13 21.78 26.49 2.06 o
7 1 -12 31.84 34.71 2.19 o
7 1 -11 18.93 17.58 1.82 o
7 1 -10 88.24 100.65 3.44 o
7 1 -9 11.58 10.45 1.55 o
7 1 -8 20.41 18.45 1.69 o
7 1 -7 15.99 16.24 1.60 o
7 1 -6 12.51 12.96 1.53 o
7 1 -5 8.21 9.27 1.43 o
7 1 -4 116.61 120.50 3.65 o
7 1 -3 24.67 22.87 1.71 o
7 1 -2 3.52 3.10 1.26 <
7 1 -1 0.89 0.03 1.22 <
7 1 0 29.85 33.76 1.95 o
7 1 1 35.88 36.07 2.06 o
7 1 2 10.43 8.87 1.42 o
7 1 3 6.57 5.34 1.38 o
7 1 4 8.32 7.58 1.44 o
7 1 5 85.44 82.80 3.00 o
7 1 6 107.80 111.89 3.57 o
7 1 7 163.74 163.91 4.59 o
7 1 8 0.02 -0.96 1.40 <
7 1 9 26.83 27.36 2.04 o
7 1 10 8.76 10.28 1.68 o
7 2 -13 17.99 17.00 1.84 o
7 2 -12 33.51 39.67 1.78 o
7 2 -11 13.74 15.69 1.32 o
7 2 -10 55.78 61.93 2.18 o
7 2 -9 42.57 50.05 1.98 o
7 2 -8 60.93 62.15 2.13 o
7 2 -7 23.97 19.88 1.32 o
7 2 -6 105.62 97.72 2.56 o
7 2 -5 80.53 81.81 2.09 o
7 2 -4 42.86 46.57 1.64 o
7 2 -3 0.47 2.21 0.90 <
7 2 -2 0.02 -0.43 0.87 <
7 2 -1 216.79 210.49 3.75 o
7 2 0 115.03 116.68 2.52 o
7 2 1 64.20 66.00 1.92 o
7 2 2 8.14 7.65 1.11 o
7 2 3 1.47 0.50 0.97 <
7 2 4 92.81 97.26 2.55 o
7 2 5 0.39 0.41 1.00 <
7 2 6 17.86 20.70 1.76 o
7 2 7 24.81 27.11 1.95 o
7 2 8 14.73 17.65 1.79 o
7 2 9 51.11 54.28 2.73 o
7 2 10 13.23 14.18 1.81 o
7 3 -12 6.67 10.54 0.99 o
7 3 -11 45.19 46.32 1.61 o
7 3 -10 59.52 73.57 1.89 o
7 3 -9 61.69 61.71 2.04 o
7 3 -8 16.80 18.02 1.16 o
7 3 -7 0.09 1.81 0.92 <
7 3 -6 3.45 2.73 0.90 o
7 3 -5 19.68 21.77 1.19 o
7 3 -4 46.23 47.26 1.62 o
7 3 -3 15.71 14.41 1.06 o
7 3 -2 12.91 14.19 1.06 o
7 3 -1 2.13 1.80 0.90 <
7 3 0 33.48 34.76 1.42 o
7 3 1 35.78 34.45 1.42 o
7 3 2 0.13 -0.15 0.90 <
7 3 3 1.22 0.32 0.90 <
7 3 4 3.53 5.18 0.98 o
7 3 5 18.45 18.68 1.27 o
7 3 6 37.56 41.88 1.75 o
7 3 7 114.03 119.64 2.94 o
7 3 8 0.12 -2.93 1.38 <
7 3 9 16.24 17.03 1.79 o
7 4 -11 21.09 24.73 1.86 o
7 4 -10 0.48 1.20 1.19 <
7 4 -9 21.14 25.73 1.58 o
7 4 -8 150.56 149.12 3.54 o
7 4 -7 53.21 47.57 2.06 o
7 4 -6 89.11 81.06 2.50 o
7 4 -5 14.56 14.83 1.36 o
7 4 -4 45.02 45.65 1.97 o
7 4 -3 10.50 8.98 1.27 o
7 4 -2 0.12 -1.19 1.11 <
7 4 -1 83.57 78.80 2.47 o
7 4 0 13.60 11.18 1.30 o
7 4 1 9.63 10.70 1.32 o
7 4 2 28.65 28.09 1.61 o
7 4 3 1.58 1.18 1.17 <
7 4 4 134.86 136.02 3.39 o
7 4 5 7.03 7.07 1.34 o
7 4 6 9.47 8.19 1.56 o
7 4 7 12.38 14.24 1.71 o
7 5 -10 54.93 60.49 4.15 o
7 5 -9 44.42 38.33 3.41 o
7 5 -8 23.32 25.87 3.02 o
7 5 -7 0.05 -0.85 2.17 <
7 5 -6 0.01 -3.28 2.14 <
7 5 -5 15.74 16.51 2.78 o
7 5 -4 12.69 14.58 2.68 o
7 5 -3 19.20 18.13 2.75 o
7 5 -2 11.76 12.97 2.67 o
7 5 -1 0.17 -3.23 2.22 <
7 5 0 27.75 26.71 3.05 o
7 5 1 57.82 53.14 4.06 o
7 5 2 0.10 0.52 2.42 <
7 5 3 29.00 21.25 3.02 o
7 5 4 12.81 12.91 2.84 o
7 5 5 3.40 4.79 2.58 <
7 6 -7 12.29 6.36 2.51 <
7 6 -6 18.42 11.82 2.70 o
7 6 -5 8.27 4.20 2.45 <
7 6 -4 54.06 50.73 4.02 o
7 6 -3 3.01 5.98 2.52 <
7 6 -2 5.51 3.23 2.52 <
7 6 -1 6.47 7.38 2.59 <
7 6 0 6.01 4.01 2.50 <
7 6 1 0.04 2.99 2.50 <
7 6 2 36.54 35.30 3.49 o
8 -5 -3 2.12 1.69 1.30 <
8 -5 -2 2.01 0.84 1.26 <
8 -5 -1 77.79 86.44 3.06 o
8 -5 0 4.68 4.30 1.35 o
8 -5 1 0.30 -2.91 1.17 <
8 -5 2 8.44 8.93 1.43 o
8 -5 3 51.27 53.84 2.52 o
8 -5 4 101.30 111.29 3.46 o
8 -4 -6 10.07 8.70 1.14 o
8 -4 -5 0.30 -0.79 0.98 <
8 -4 -4 24.22 25.40 1.39 o
8 -4 -3 14.59 14.84 1.21 o
8 -4 -2 31.97 28.20 1.42 o
8 -4 -1 0.58 -0.19 0.96 <
8 -4 0 41.38 38.37 1.70 o
8 -4 1 196.68 208.04 4.17 o
8 -4 2 2.07 0.20 1.00 <
8 -4 3 50.37 52.58 1.94 o
8 -4 4 0.01 -0.34 0.81 <
8 -4 5 23.45 18.23 1.06 o
8 -4 6 29.41 29.58 1.26 o
8 -3 -7 9.96 13.12 1.68 o
8 -3 -6 37.20 39.58 2.25 o
8 -3 -5 6.64 7.64 1.57 o
8 -3 -4 172.10 185.66 5.00 o
8 -3 -3 9.99 8.03 1.47 o
8 -3 -2 3.19 1.00 1.34 <
8 -3 -1 44.62 42.18 2.29 o
8 -3 0 10.33 8.40 1.51 o
8 -3 1 13.74 15.58 1.67 o
8 -3 2 9.74 7.93 1.50 o
8 -3 3 34.36 31.50 2.03 o
8 -3 4 81.32 82.90 3.12 o
8 -3 5 0.36 0.01 1.36 <
8 -3 6 4.24 5.47 1.50 o
8 -3 7 125.24 133.97 3.25 o
8 -2 -9 4.62 2.97 1.53 <
8 -2 -8 11.41 11.89 1.74 o
8 -2 -7 14.94 11.98 1.66 o
8 -2 -6 85.19 83.02 3.15 o
8 -2 -5 0.08 -1.11 1.32 <
8 -2 -4 37.86 42.17 2.39 o
8 -2 -3 30.60 30.17 2.00 o
8 -2 -2 43.42 42.97 2.42 o
8 -2 -1 24.79 22.89 1.85 o
8 -2 0 21.57 20.93 1.80 o
8 -2 1 263.15 268.10 6.60 o
8 -2 2 0.01 -2.00 1.34 <
8 -2 3 16.98 14.00 1.69 o
8 -2 4 14.32 10.58 1.63 o
8 -2 5 69.96 67.25 2.87 o
8 -2 6 52.28 56.39 2.75 o
8 -2 7 2.35 3.15 1.54 <
8 -2 8 20.86 19.83 1.95 o
8 -1 -9 74.02 80.40 3.22 o
8 -1 -8 0.32 -0.10 1.41 <
8 -1 -7 14.61 12.70 1.69 o
8 -1 -6 7.72 8.80 1.55 o
8 -1 -5 12.39 16.24 1.73 o
8 -1 -4 220.57 226.31 5.83 o
8 -1 -3 10.43 6.32 1.48 o
8 -1 -2 23.62 20.35 1.77 o
8 -1 -1 46.94 42.83 2.43 o
8 -1 0 31.56 26.90 1.97 o
8 -1 1 2.77 1.34 1.36 <
8 -1 2 0.00 0.82 1.35 <
8 -1 3 3.70 2.30 1.43 <
8 -1 4 19.82 19.00 1.86 o
8 -1 5 1.15 2.54 1.43 <
8 -1 6 7.71 8.93 1.63 o
8 -1 7 112.27 116.19 3.85 o
8 -1 8 56.60 58.57 2.91 o
8 0 -10 129.19 138.64 4.33 o
8 0 -9 10.72 10.38 1.68 o
8 0 -8 0.30 2.67 1.45 <
8 0 -7 22.07 21.03 1.87 o
8 0 -6 168.05 159.29 4.58 o
8 0 -5 0.05 -1.16 1.36 <
8 0 -4 9.52 9.87 1.59 o
8 0 -3 25.68 21.34 1.79 o
8 0 -2 23.73 24.36 1.87 o
8 0 -1 25.71 22.99 1.86 o
8 0 0 1.12 3.26 1.42 <
8 0 1 102.99 104.72 3.53 o
8 0 2 0.16 -0.38 1.35 <
8 0 3 2.91 2.11 1.41 <
8 0 4 37.54 36.43 2.29 o
8 0 5 133.76 128.50 4.04 o
8 0 6 29.69 27.57 2.10 o
8 0 7 4.70 6.30 1.61 o
8 1 -10 2.23 1.15 1.51 <
8 1 -9 59.65 67.52 3.00 o
8 1 -8 0.21 -0.25 1.43 <
8 1 -7 23.95 22.76 1.93 o
8 1 -6 11.70 12.07 1.68 o
8 1 -5 24.73 26.76 1.99 o
8 1 -4 144.46 142.94 4.23 o
8 1 -3 0.40 -1.67 1.32 <
8 1 -2 52.25 46.89 2.51 o
8 1 -1 88.91 84.40 3.11 o
8 1 0 42.76 36.32 2.23 o
8 1 1 3.46 4.38 1.49 <
8 1 2 8.63 7.60 1.58 o
8 1 3 2.16 -0.22 1.42 <
8 1 4 2.60 3.88 1.50 <
8 1 5 2.62 3.46 1.53 <
8 1 6 1.42 4.22 1.60 <
8 1 7 75.07 79.98 3.30 o
8 2 -9 26.60 34.07 2.21 o
8 2 -8 0.49 -0.12 1.45 <
8 2 -7 3.98 3.47 1.51 <
8 2 -6 91.60 86.23 2.51 o
8 2 -5 1.94 1.19 1.08 <
8 2 -4 2.98 4.17 1.12 o
8 2 -3 41.00 40.88 1.79 o
8 2 -2 4.94 8.92 1.19 o
8 2 -1 0.18 -0.28 1.03 <
8 2 0 0.25 -3.18 1.34 <
8 2 1 11.01 5.75 1.55 o
8 2 2 0.01 -0.11 1.42 <
8 2 3 12.36 12.49 1.71 o
8 2 4 15.46 11.90 1.75 o
8 2 5 124.54 120.16 3.93 o
8 2 6 7.17 6.08 1.65 o
8 3 -8 18.27 16.62 1.32 o
8 3 -7 24.75 23.41 1.42 o
8 3 -6 24.00 22.45 1.39 o
8 3 -5 39.66 44.19 1.82 o
8 3 -4 80.58 90.59 2.50 o
8 3 -3 3.44 3.49 1.08 o
8 3 -2 29.33 27.77 1.48 o
8 3 -1 93.68 97.14 2.58 o
8 3 0 16.91 12.70 1.25 o
8 3 1 1.77 0.56 1.04 <
8 3 2 4.72 3.96 1.12 o
8 3 3 16.57 16.20 1.32 o
8 3 4 4.06 7.79 1.22 o
8 4 -6 17.30 17.22 1.72 o
8 4 -5 2.36 2.34 1.47 <
8 4 -4 16.64 17.91 1.79 o
8 4 -3 93.27 93.65 3.33 o
8 4 -2 0.37 0.67 1.45 <
8 4 -1 13.77 12.69 1.71 o
8 4 0 1.03 -0.34 1.43 <
8 4 1 12.61 12.67 1.71 o
8 4 2 6.32 6.11 1.60 o
