#------------------------------------------------------------------------------
#$Date: 2016-03-24 14:04:12 +0200 (Thu, 24 Mar 2016) $
#$Revision: 179650 $
#$URL: svn://www.crystallography.net/cod/cif/4/51/03/4510367.cif $
#------------------------------------------------------------------------------
#
# This file is available in the Crystallography Open Database (COD),
# http://www.crystallography.net/
#
# All data on this site have been placed in the public domain by the
# contributors.
#
data_4510367
loop_
_publ_author_name
'Coles, Simon J.'
'Threlfall, Terence L.'
'Tizzard, Graham J.'
_publ_section_title
;
 The Same but Different: Isostructural Polymorphs and the Case of
 3-Chloromandelic Acid
;
_journal_issue                   4
_journal_name_full               'Crystal Growth &amp; Design'
_journal_page_first              1623
_journal_paper_doi               10.1021/cg401655h
_journal_volume                  14
_journal_year                    2014
_chemical_formula_moiety         'C8 H7 Cl O3'
_chemical_formula_sum            'C8 H7 Cl O3'
_chemical_formula_weight         186.59
_chemical_name_systematic
;
 ?
;
_space_group_crystal_system      triclinic
_space_group_IT_number           2
_space_group_name_Hall           '-P 1'
_space_group_name_H-M_alt        'P -1'
_symmetry_space_group_name_Hall  '-P 1'
_symmetry_space_group_name_H-M   'P -1'
_atom_sites_solution_hydrogens   geom
_audit_creation_method           SHELXL-2013
_cell_angle_alpha                91.818(9)
_cell_angle_beta                 90.226(9)
_cell_angle_gamma                93.118(9)
_cell_formula_units_Z            4
_cell_length_a                   8.5710(5)
_cell_length_b                   9.2373(5)
_cell_length_c                   10.3612(7)
_cell_measurement_reflns_used    10807
_cell_measurement_temperature    100(2)
_cell_measurement_theta_max      27.5
_cell_measurement_theta_min      2.4
_cell_volume                     818.69(9)
_computing_cell_refinement
;
CrystalClear-SM Expert 3.1 b27 (Rigaku, 2013)
;
_computing_data_collection
;
CrystalClear-SM Expert 3.1 b27 (Rigaku, 2013)
;
_computing_data_reduction
;
CrystalClear-SM Expert 3.1 b27 (Rigaku, 2013)
;
_computing_molecular_graphics
'OLEX2 (Dolomanov, Bourhis, Gildea, Howard & Puschmann, 2009)'
_computing_publication_material  'WINGX (Farrugia, 1998)'
_computing_structure_refinement  'SHELXL-2012 (Sheldrick, 2012)'
_computing_structure_solution    'SUPERFLIP (Palatinus & Chapuis, 2007)'
_diffrn_ambient_temperature      100(2)
_diffrn_detector                 'CCD plate'
_diffrn_detector_area_resol_mean 28.5714
_diffrn_detector_type            'Rigaku HG Saturn724+ (2x2 bin mode)'
_diffrn_measured_fraction_theta_full 0.997
_diffrn_measured_fraction_theta_max 0.996
_diffrn_measurement_device       'four-circle \k diffractometer'
_diffrn_measurement_device_type  'Rigaku AFC12 (Right)'
_diffrn_measurement_method       'profile data from \w-scans'
_diffrn_measurement_specimen_support 'MiTeGen MicroMesh'
_diffrn_radiation_collimation    'Confocal mirrors, VHF Varimax'
_diffrn_radiation_type           MoK\a
_diffrn_radiation_wavelength     0.71075
_diffrn_reflns_av_R_equivalents  0.0329
_diffrn_reflns_av_unetI/netI     0.0345
_diffrn_reflns_Laue_measured_fraction_full 0.997
_diffrn_reflns_Laue_measured_fraction_max 0.996
_diffrn_reflns_limit_h_max       10
_diffrn_reflns_limit_h_min       -11
_diffrn_reflns_limit_k_max       11
_diffrn_reflns_limit_k_min       -11
_diffrn_reflns_limit_l_max       13
_diffrn_reflns_limit_l_min       -13
_diffrn_reflns_number            10803
_diffrn_reflns_point_group_measured_fraction_full 0.997
_diffrn_reflns_point_group_measured_fraction_max 0.996
_diffrn_reflns_theta_full        25.242
_diffrn_reflns_theta_max         27.485
_diffrn_reflns_theta_min         3.005
_diffrn_source                   'Rotating Anode'
_diffrn_source_current           55.0
_diffrn_source_power             2.475
_diffrn_source_voltage           45.0
_exptl_absorpt_coefficient_mu    0.426
_exptl_absorpt_correction_T_max  1.000
_exptl_absorpt_correction_T_min  0.879
_exptl_absorpt_correction_type   multi-scan
_exptl_absorpt_process_details
;
CrystalClear-SM Expert 3.1 b27 (Rigaku, 2013)
;
_exptl_crystal_colour            Colorless
_exptl_crystal_density_diffrn    1.514
_exptl_crystal_description       Chip
_exptl_crystal_F_000             384
_exptl_crystal_size_max          0.050
_exptl_crystal_size_mid          0.040
_exptl_crystal_size_min          0.020
_refine_diff_density_max         0.461
_refine_diff_density_min         -0.375
_refine_diff_density_rms         0.053
_refine_ls_extinction_method     none
_refine_ls_goodness_of_fit_ref   1.010
_refine_ls_hydrogen_treatment    constr
_refine_ls_matrix_type           full
_refine_ls_number_parameters     221
_refine_ls_number_reflns         3723
_refine_ls_number_restraints     0
_refine_ls_restrained_S_all      1.010
_refine_ls_R_factor_all          0.0554
_refine_ls_R_factor_gt           0.0381
_refine_ls_shift/su_max          0.000
_refine_ls_shift/su_mean         0.000
_refine_ls_structure_factor_coef Fsqd
_refine_ls_weighting_details
'w=1/[\s^2^(Fo^2^)+(0.0390P)^2^+0.4669P] where P=(Fo^2^+2Fc^2^)/3'
_refine_ls_weighting_scheme      calc
_refine_ls_wR_factor_gt          0.0870
_refine_ls_wR_factor_ref         0.0938
_reflns_Friedel_coverage         0.000
_reflns_number_gt                2926
_reflns_number_total             3723
_reflns_threshold_expression     'I > 2\s(I)'
_cod_data_source_file            cg401655h_si_002.cif
_cod_data_source_block           shelx
_cod_depositor_comments
;
The following automatic conversions were performed:

'_exptl_absorpt_correction_type' value 'Multi-scan' changed to
'multi-scan' according to
/usr/data/users/saulius/automatic-downloads/current/ACS/lib/dictionaries/cif_core.dic
dictionary named 'cif_core.dic' version 2.4.2 from 2011-04-26.

Automatic conversion script
Id: cif_fix_values 2281 2013-09-26 08:29:07Z andrius 
;
_cod_database_code               4510367
#BEGIN Tags that were not found in dictionaries:
_shelx_space_group_comment
;
The symmetry employed for this shelxl refinement is uniquely defined
by the following loop, which should always be used as a source of
symmetry information in preference to the above space-group names.
They are only intended as comments.
;
_shelx_estimated_absorpt_t_min   0.979
_shelx_estimated_absorpt_t_max   0.992
_shelxl_version_number           2013-4
_shelx_res_file
;
TITL 2013ncs0004la
CELL  0.71075   8.5710   9.2373  10.3612   91.818   90.226   93.118
ZERR     4.00   0.0005   0.0005   0.0007    0.009    0.009    0.009
LATT   1
SFAC  C    H    CL   O
UNIT  32   28   4    12
MERG   2
SHEL   7 0.77
FMAP   2
PLAN   20
SIZE     0.020   0.040   0.050
ACTA
BOND   $H
CONF
L.S.   7
TEMP  -173.00
WGHT    0.039000    0.466900
FVAR       2.63066
MOLE    1
C1    1   -0.221962    0.329032    0.103697    11.00000    0.01547    0.01875 =
         0.01386    0.00409   -0.00179   -0.00202
C2    1   -0.105145    0.238470    0.066124    11.00000    0.01751    0.01817 =
         0.02443    0.00298   -0.00032   -0.00189
AFIX  43
H2    2   -0.130521    0.145954    0.026565    11.00000   -1.20000
AFIX   0
C3    1    0.048599    0.285647    0.087441    11.00000    0.01609    0.02608 =
         0.02666    0.00781    0.00100    0.00022
C4    1    0.089503    0.419357    0.144859    11.00000    0.01891    0.03465 =
         0.02247    0.00648   -0.00388   -0.01081
AFIX  43
H4    2    0.196071    0.448932    0.159988    11.00000   -1.20000
AFIX   0
C5    1   -0.027416    0.508682    0.179625    11.00000    0.03073    0.02750 =
         0.02269   -0.00404    0.00065   -0.01236
AFIX  43
H5    2   -0.001473    0.601799    0.217779    11.00000   -1.20000
AFIX   0
C6    1   -0.183273    0.463945    0.159441    11.00000    0.02361    0.02284 =
         0.01910   -0.00224    0.00253   -0.00255
AFIX  43
H6    2   -0.263296    0.526323    0.184050    11.00000   -1.20000
AFIX   0
C7    1   -0.391581    0.277246    0.084911    11.00000    0.01442    0.01449 =
         0.01750    0.00150    0.00101    0.00028
AFIX  13
H7    2   -0.459184    0.352894    0.121937    11.00000   -1.20000
AFIX   0
C8    1   -0.432106    0.252155   -0.056595    11.00000    0.01095    0.01835 =
         0.01880    0.00231   -0.00039   -0.00045
CL1   3    0.196129    0.173690    0.038875    11.00000    0.01481    0.03583 =
         0.06862    0.00487    0.00639    0.00317
O1    4   -0.422713    0.146476    0.150656    11.00000    0.01889    0.01468 =
         0.01698    0.00200   -0.00025   -0.00249
AFIX 147
H1    2   -0.452453    0.080220    0.097301    11.00000   -1.50000
AFIX   0
O2    4   -0.462775    0.132506   -0.104380    11.00000    0.02596    0.01775 =
         0.02023   -0.00095   -0.00135   -0.00333
O3    4   -0.429507    0.373217   -0.119711    11.00000    0.02743    0.01864 =
         0.01902    0.00472   -0.00768   -0.00376
AFIX 147
H3    2   -0.458380    0.355216   -0.196385    11.00000   -1.50000
AFIX   0
MOLE    2
C101  1    0.227457    0.183907    0.595497    11.00000    0.01705    0.02086 =
         0.01590   -0.00187   -0.00006   -0.00009
C102  1    0.116026    0.262326    0.534218    11.00000    0.01899    0.01933 =
         0.02355    0.00403   -0.00070   -0.00028
AFIX  43
H102  2    0.146777    0.340051    0.480347    11.00000   -1.20000
AFIX   0
C103  1   -0.040280    0.224674    0.553440    11.00000    0.01779    0.02400 =
         0.02601   -0.00033   -0.00472    0.00208
C104  1   -0.088817    0.114051    0.631369    11.00000    0.01709    0.02966 =
         0.02649   -0.00008    0.00201   -0.00507
AFIX  43
H104  2   -0.196927    0.090649    0.643677    11.00000   -1.20000
AFIX   0
C105  1    0.023064    0.037334    0.691627    11.00000    0.02622    0.03506 =
         0.02912    0.01279    0.00253   -0.00427
AFIX  43
H105  2   -0.008388   -0.040012    0.745686    11.00000   -1.20000
AFIX   0
C106  1    0.180780    0.072098    0.673990    11.00000    0.02114    0.03183 =
         0.02313    0.00951   -0.00158    0.00004
AFIX  43
H106  2    0.256738    0.018793    0.716053    11.00000   -1.20000
AFIX   0
C107  1    0.400157    0.223966    0.579272    11.00000    0.01671    0.01775 =
         0.01911   -0.00044   -0.00110    0.00045
AFIX  13
H107  2    0.461230    0.143115    0.611465    11.00000   -1.20000
AFIX   0
C108  1    0.439276    0.244894    0.438394    11.00000    0.01233    0.02155 =
         0.01966   -0.00079   -0.00040   -0.00007
CL11  3   -0.179794    0.321055    0.476044    11.00000    0.01927    0.04049 =
         0.06387    0.01773   -0.00989    0.00348
O101  4    0.444330    0.352386    0.652133    11.00000    0.02384    0.01910 =
         0.01789    0.00222   -0.00206   -0.00298
AFIX 147
H101  2    0.464144    0.420428    0.601812    11.00000   -1.50000
AFIX   0
O102  4    0.467054    0.362541    0.393968    11.00000    0.02423    0.01740 =
         0.02329    0.00402    0.00204   -0.00057
O103  4    0.439252    0.121190    0.372514    11.00000    0.03197    0.01909 =
         0.01811   -0.00013    0.00720   -0.00198
AFIX 147
H103  2    0.471579    0.136014    0.297397    11.00000   -1.50000
AFIX   0
HKLF    4

REM  2013ncs0004la
REM R1 =  0.0381 for    2926 Fo > 4sig(Fo)  and  0.0554 for all    3723 data
REM    221 parameters refined using      0 restraints

END

WGHT      0.0359      0.4869

REM Highest difference peak  0.461,  deepest hole -0.375,  1-sigma level  0.053
Q1    1  -0.1843  0.3118  0.5628  11.00000  0.05    0.46
Q2    1   0.1916  0.2297  0.1014  11.00000  0.05    0.39
Q3    1   0.4989  0.2177  0.6387  11.00000  0.05    0.34
Q4    1   0.3097  0.2030  0.5904  11.00000  0.05    0.30
Q5    1  -0.3029  0.2975  0.0875  11.00000  0.05    0.29
Q6    1  -0.1653  0.2923  0.0950  11.00000  0.05    0.28
Q7    1   0.2059  0.2002 -0.0354  11.00000  0.05    0.28
Q8    1   0.0325  0.2183  0.5239  11.00000  0.05    0.27
Q9    1   0.1759  0.2240  0.5743  11.00000  0.05    0.27
Q10   1  -0.4198  0.2592  0.0158  11.00000  0.05    0.26
Q11   1   0.4265  0.3645  0.3273  11.00000  0.05    0.25
Q12   1   0.4090  0.2425  0.5086  11.00000  0.05    0.24
Q13   1  -0.0260  0.2545  0.0880  11.00000  0.05    0.24
Q14   1  -0.1032  0.4836  0.1679  11.00000  0.05    0.23
Q15   1  -0.0296  0.0661  0.6310  11.00000  0.05    0.22
Q16   1   0.1850  0.1430  0.6439  11.00000  0.05    0.21
Q17   1   0.0589  0.3664  0.0968  11.00000  0.05    0.21
Q18   1   0.0568  0.3390  0.1407  11.00000  0.05    0.20
Q19   1  -0.1359  0.4237  0.5249  11.00000  0.05    0.20
Q20   1   0.1066  0.0562  0.6843  11.00000  0.05    0.20
;
_shelx_res_checksum              95640
_shelx_hkl_file
;
  -1   0   0 712.590 47.4600   1
   1   0   0 712.150 54.9100   1
  -1   0   0 703.870 50.2900   1
   0   1   1 1483.48 62.3700   1
   0   1   1 1380.19 91.3900   1
   0   1   1 1404.42 74.9400   1
  -1   0   1 4686.53 112.200   1
   1   0  -1 4540.20 124.080   1
  -1   0   1 4533.69 116.430   1
  -1   0   1 4592.80 120.820   1
  -1   0  -1 2836.53 100.410   1
  -1   0  -1 2870.54 85.2600   1
  -1   1   0 76.2500 27.3300   1
  -1  -1   0 135.580 31.3400   1
   1   1   0 153.340 37.8900   1
  -1   1  -1 6339.74 126.620   1
   1  -1   1 6550.45 139.920   1
  -1   1  -1 6723.10 145.740   1
   1  -1   1 6388.76 140.980   1
  -1   1   1 5526.28 131.150   1
   1  -1  -1 5427.85 132.920   1
  -1   1   1 5421.09 118.270   1
  -1   1   1 5424.09 121.570   1
   1   1  -1 500.400 50.8200   1
  -1  -1   1 512.360 51.6300   1
  -1  -1   1 479.410 57.6700   1
  -1  -1   1 501.100 46.4400   1
  -1  -1  -1 2671.00 82.8700   1
   1   1   1 2670.00 132.860   1
  -1  -1  -1 2700.17 114.180   1
  -1  -1  -1 2740.42 122.310   1
  -1  -1  -1 2656.14 91.2400   1
   1   1   1 2691.42 86.5400   1
   1   1   1 2693.29 88.6800   1
   0   0   2 44258.5 456.500   1
   0   0   2 43249.6 407.470   1
   0   0   2 42736.0 370.480   1
   0   0  -2 42096.0 614.440   1
   0  -2   0 52300.0 416.640   1
   0  -2   0 52465.7 546.440   1
   0   2   0 53916.3 429.180   1
   0  -2   0 54735.2 427.210   1
   0   2   0 52072.2 494.370   1
   0  -1   2 18411.2 347.640   1
   0   1  -2 18236.7 279.510   1
   0  -1   2 18601.6 291.070   1
   0   1  -2 17934.9 295.230   1
   0  -1  -2 18445.6 224.210   1
   0   1   2 19154.9 229.240   1
   0  -1  -2 19115.6 265.390   1
   0  -1  -2 18938.1 297.010   1
   0   1   2 19056.7 274.720   1
   1   0  -2 2438.33 95.1600   1
  -1   0   2 2454.82 96.8400   1
  -1   0   2 2594.41 94.9200   1
   1   0  -2 2447.82 87.2500   1
  -1   0   2 2590.02 80.2700   1
  -1   0   2 2586.16 83.9300   1
   1   0  -2 2517.15 87.9000   1
  -1   0  -2 736.230 62.7700   1
   1   0   2 663.070 61.9500   1
   1   0   2 746.610 45.7600   1
  -1   0  -2 751.060 52.7200   1
   1   0   2 776.180 52.7900   1
  -1   0  -2 724.700 49.2500   1
  -2   0   0 21260.0 256.070   1
   0   2   1 3365.70 103.370   1
   0  -2  -1 3111.57 104.480   1
   0  -2  -1 3454.82 132.720   1
   0   2   1 3215.71 114.010   1
   0  -2  -1 3651.79 138.510   1
   0   2   1 3403.67 94.2300   1
   0  -2  -1 3358.77 103.780   1
   1  -2   0 38558.6 426.060   1
   1  -2   0 38398.9 330.650   1
  -1   2   0 37694.4 323.850   1
   1  -2   0 38475.6 356.190   1
  -1   2   0 36960.8 319.860   1
   1  -2   0 36996.3 324.850   1
   1  -1   2 12202.1 201.710   1
   1  -1   2 11688.2 186.930   1
  -1   1  -2 11574.2 177.960   1
  -1   1  -2 12109.5 186.180   1
   1  -1  -2 14648.5 203.840   1
  -1   1   2 15115.8 252.850   1
  -1   1   2 14597.8 223.340   1
  -1   1   2 14513.7 196.020   1
   1  -1  -2 14560.0 197.510   1
   1  -1  -2 14257.2 238.340   1
  -1  -1   2 24602.3 274.650   1
   1   1  -2 23785.3 281.820   1
  -1  -1   2 24521.8 291.760   1
  -1  -1   2 22879.5 305.110   1
   1   1  -2 25074.0 295.150   1
   1   1  -2 23023.9 279.760   1
  -1  -2   0 3680.05 105.780   1
   1   2   0 3760.91 97.9900   1
   1   2   0 3461.65 111.080   1
  -1  -2   0 3572.45 123.980   1
  -1  -2   0 3690.16 95.3100   1
   1   2   0 3671.39 95.2800   1
   1   2   0 3773.20 154.680   1
  -1  -2   0 3683.93 133.210   1
  -2   0   1 1308.85 62.5800   1
  -2   0   1 1340.59 58.5000   1
   2   0  -1 1275.42 56.0100   1
  -2   0   1 1315.61 62.6200   1
   2   0  -1 1326.80 65.7300   1
   2   0  -1 1281.62 61.3800   1
  -1  -1  -2 22770.1 335.400   1
   1   1   2 22917.4 362.300   1
   1   1   2 23999.5 322.760   1
  -1  -1  -2 23027.4 328.160   1
   1   1   2 23981.6 264.030   1
   1   1   2 22821.0 267.100   1
  -1  -1  -2 23338.3 284.090   1
  -1  -1  -2 23397.4 276.490   1
  -1  -1  -2 22895.8 247.240   1
   1   1   2 22811.9 258.440   1
   1  -2   1 6875.89 148.700   1
  -1   2  -1 6740.64 128.270   1
  -1   2  -1 7035.32 191.210   1
  -1   2  -1 6790.22 127.970   1
  -1   2  -1 7109.10 132.900   1
   1  -2   1 6798.81 143.480   1
   1  -2  -1 14065.3 193.610   1
  -1   2   1 14265.9 195.360   1
   1  -2  -1 13918.1 185.590   1
  -1   2   1 14109.7 197.850   1
   1  -2  -1 14066.9 225.340   1
   2   1   0 113.400 29.1600   1
   2   1   0 155.900 41.9400   1
  -2  -1   0 128.760 43.2000   1
  -2  -1   0 99.8200 31.9200   1
   2   1   0 141.440 39.6000   1
  -1  -2   1 7976.34 160.300   1
   1   2  -1 7839.38 139.100   1
   1   2  -1 8269.42 147.620   1
   1   2  -1 7970.79 196.270   1
   1   2  -1 7676.20 159.880   1
  -1  -2   1 7393.74 194.620   1
  -1  -2   1 8150.42 172.120   1
  -2   1  -1 23575.0 242.800   1
   2  -1   1 24051.3 311.200   1
   2  -1   1 24085.8 280.960   1
  -2   1  -1 24138.9 276.230   1
   2  -1   1 23585.4 268.890   1
   2  -1  -1 42195.9 340.760   1
   2  -1  -1 42257.8 372.490   1
   1   2   1 13018.6 199.840   1
  -1  -2  -1 13282.7 223.060   1
   1   2   1 14296.7 268.160   1
  -1  -2  -1 14164.8 199.660   1
   1   2   1 13487.8 191.060   1
  -1  -2  -1 13343.7 229.630   1
   1   2   1 13953.9 208.200   1
  -1  -2  -1 13888.3 280.940   1
   1   2   1 14579.7 318.970   1
  -2  -1   1 53985.3 441.360   1
  -2  -1   1 52507.5 392.880   1
   2   1  -1 52031.5 442.100   1
   2   1  -1 52028.2 390.140   1
   2   1  -1 51490.7 400.370   1
  -2  -1   1 54388.9 447.050   1
   2   1   1 44493.9 450.040   1
  -2  -1  -1 43283.2 390.970   1
   2   1   1 42280.0 366.750   1
  -2  -1  -1 43129.8 406.420   1
   2   1   1 42866.8 354.560   1
  -2  -1  -1 41895.5 354.220   1
   0  -2   2 42307.4 394.730   1
   0  -2   2 41008.1 362.370   1
   0   2  -2 40865.7 418.940   1
   0  -2   2 41702.2 510.500   1
   0   2  -2 41348.7 455.240   1
   0  -2   2 43016.8 417.980   1
   0  -2   2 40995.5 494.610   1
   0   0  -3 1938.41 92.1400   1
   0   0   3 1937.26 94.0000   1
   0   0  -3 1912.59 87.1100   1
   0   0   3 1941.74 80.0700   1
   0   0   3 1906.92 72.2400   1
   0   0  -3 1881.09 73.0900   1
   0  -2  -2 91572.1 864.900   1
   0  -2  -2 91372.1 855.410   1
   0   2   2 93655.5 810.190   1
   0  -2  -2 90516.2 577.340   1
   0   2   2 90389.0 606.930   1
   0   2   2 91083.0 623.060   1
   2   0  -2 1129.44 56.6900   1
   2   0  -2 984.640 55.8600   1
  -2   0   2 986.580 56.1800   1
  -2   0   2 1009.17 62.1800   1
   2   0  -2 1058.28 53.8800   1
  -2   0   2 1138.53 56.6800   1
  -2   0  -2 8176.33 141.100   1
  -2   0  -2 8606.35 167.190   1
   2   0   2 8255.97 144.830   1
   2   0   2 8422.48 181.960   1
  -1   2  -2 4359.38 112.150   1
   1  -2   2 4242.31 105.410   1
  -1   2  -2 4284.03 101.560   1
   1  -2   2 4196.23 117.860   1
   0   1  -3 55919.1 495.200   1
   0  -1   3 55687.5 510.320   1
   0   1  -3 57014.7 535.280   1
   0   1  -3 58416.2 776.990   1
  -2   2   0 3343.27 91.1000   1
   2  -2   0 3363.97 91.1400   1
  -2   2   0 3313.44 92.4000   1
   2  -2   0 3440.59 106.740   1
   1   0  -3 2144.59 74.9300   1
  -1   0   3 2072.03 71.2800   1
   1   0  -3 2160.77 79.5400   1
  -1   0   3 2153.04 99.9800   1
  -1   0   3 2304.92 98.9900   1
   1   0  -3 2199.68 86.5000   1
   1  -2  -2 2610.62 91.7800   1
   1  -2  -2 2559.77 88.6800   1
  -1   2   2 2853.34 96.3200   1
  -1   2   2 2667.44 79.4200   1
   0  -1  -3 7276.32 140.250   1
   0   1   3 7535.32 155.640   1
   0   1   3 7428.07 169.400   1
  -1  -2   2 31644.4 334.340   1
   1   2  -2 30033.3 360.710   1
  -1  -2   2 28910.1 380.530   1
   1   2  -2 30274.7 346.590   1
   1   2  -2 30463.6 325.750   1
  -1  -2   2 30430.0 393.460   1
   1   0   3 1008.27 96.0700   1
  -1   0  -3 1062.94 68.2100   1
  -1   0  -3 1091.01 61.1600   1
  -1   0  -3 1098.13 77.9500   1
   1   0   3 1000.54 69.7500   1
  -1   0  -3 1135.66 59.7200   1
   2  -1   2 12709.4 202.630   1
  -2   1  -2 12816.3 180.140   1
  -2   1  -2 13426.4 205.760   1
  -2   1  -2 13837.6 253.020   1
   2  -1   2 12873.4 200.030   1
   2  -1  -2 7668.57 146.740   1
  -2   1   2 7424.94 154.410   1
  -2   1   2 7806.00 148.720   1
   2  -1  -2 7405.73 137.770   1
  -2   1   2 7568.67 141.420   1
   1   2   2 27276.2 338.620   1
   1   2   2 27272.7 300.760   1
  -1  -2  -2 27248.7 285.320   1
   1   2   2 26142.6 268.190   1
  -1  -2  -2 27704.1 347.880   1
   1   2   2 26979.1 487.690   1
  -1  -2  -2 26700.4 366.980   1
  -1  -2  -2 26793.4 273.750   1
  -1  -2  -2 27105.9 393.590   1
  -2   2  -1 4528.96 101.600   1
   2  -2   1 4602.56 147.980   1
   2  -2   1 4451.51 110.750   1
  -2   2  -1 4555.76 105.430   1
   2  -2   1 4610.84 116.810   1
  -2  -1   2 83.9600 35.9600   1
  -2  -1   2 59.9000 28.9700   1
   0  -3   0 429.490 36.1500   1
   0  -3   0 478.220 40.0100   1
   0  -3   0 569.030 110.420   1
   0   3   0 444.610 64.8300   1
   0   3   0 428.890 44.4900   1
   0   3   0 445.320 60.9200   1
   0  -3   0 437.390 62.1300   1
  -1   1  -3 53628.7 502.750   1
  -1   1  -3 55366.8 452.700   1
  -1   1  -3 57270.2 453.800   1
   1  -1   3 56590.5 413.010   1
   1  -1   3 56536.2 524.590   1
  -1   1  -3 55071.2 410.460   1
   1  -1   3 54025.5 477.700   1
  -2   2   1 3819.05 103.420   1
   2  -2  -1 3945.29 103.660   1
  -2   2   1 3590.21 94.5000   1
   2  -2  -1 3721.05 101.810   1
  -2   2   1 3918.55 96.2300   1
  -2  -2   0 2830.17 98.8000   1
  -2  -2   0 3051.40 84.2200   1
   2   2   0 3079.67 90.0900   1
   2   2   0 2956.87 94.6600   1
  -2  -2   0 3042.47 98.3800   1
   2   2   0 3052.13 120.060   1
   2   2   0 2856.15 89.8700   1
  -2  -1  -2 714.740 53.5000   1
   2   1   2 755.550 43.2400   1
  -2  -1  -2 722.050 50.3700   1
  -2  -1  -2 693.160 48.0000   1
   2   1   2 784.250 54.6200   1
   2   1   2 766.030 52.7900   1
   2   1   2 778.460 66.6400   1
   1   1  -3 6580.77 141.900   1
  -1  -1   3 6991.37 165.200   1
  -1  -1   3 6631.04 140.490   1
  -1  -1   3 6651.34 153.940   1
  -1  -1   3 6571.99 183.650   1
   1   1  -3 6641.83 157.000   1
   1   1  -3 6774.33 150.600   1
   1  -1  -3 49236.0 435.020   1
   1   1   3 2839.53 89.6300   1
   1   1   3 3006.58 113.520   1
  -1  -1  -3 2824.72 93.6800   1
   1   1   3 2498.77 145.540   1
  -1  -1  -3 2782.23 99.8700   1
  -1  -1  -3 2606.56 111.430   1
  -1  -1  -3 2912.45 125.380   1
  -1  -1  -3 2809.92 86.5400   1
   0   3  -1 22375.3 253.670   1
   0  -3   1 22241.2 450.310   1
   0  -3   1 22355.5 363.610   1
   0  -3   1 21998.1 250.350   1
   0  -3   1 22284.5 289.870   1
   0   3  -1 22264.3 319.470   1
  -2  -2   1 361.200 46.1200   1
   2   2  -1 454.590 42.2900   1
  -2  -2   1 446.060 34.2400   1
  -2  -2   1 450.520 38.4200   1
   2   2  -1 497.770 37.3400   1
  -2  -2   1 500.770 52.1400   1
   2   2  -1 399.250 48.6100   1
  -1   3   0 19.1900 21.2200   1
   0  -3  -1 7966.66 160.830   1
   0  -3  -1 8046.36 279.420   1
   0   3   1 8640.15 188.200   1
   0  -3  -1 8344.48 162.920   1
   0   3   1 8451.46 192.320   1
   0  -3  -1 8271.29 214.750   1
   0  -3  -1 7747.89 151.780   1
   0   3   1 8207.59 162.740   1
  -2  -2  -1 18.9200 22.3000   1
   2   2   1 28.8700 27.1100   1
  -1   3  -1 722.210 72.2400   1
  -1   3  -1 551.190 57.6600   1
  -1   3  -1 650.030 52.3700   1
   1  -3   1 622.620 42.2100   1
   1  -3   1 694.520 44.0400   1
  -1   3  -1 647.970 43.4600   1
   3   0   0 59149.2 436.560   1
   3   0   0 57995.9 473.980   1
  -3   0   0 57734.6 479.890   1
  -1  -3   0 392.570 35.3200   1
   1   3   0 405.830 39.4500   1
  -1  -3   0 345.580 54.0500   1
   1   3   0 326.150 40.7400   1
   1   3   0 331.200 86.6200   1
  -1  -3   0 313.200 67.2200   1
  -1  -3   0 400.880 40.6900   1
  -1  -3   0 362.860 46.9800   1
   1   3   0 396.200 50.0300   1
   1   3   0 390.540 34.1700   1
   1  -3  -1 -5.9900 26.4100   1
   1  -3  -1 11.2500 25.5100   1
  -1   3   1 54.8700 31.4000   1
   0   2  -3 1852.27 87.9800   1
   0  -2   3 1704.33 101.430   1
   0   2  -3 1878.02 94.1700   1
  -3   1   0 439.930 36.9000   1
  -3   1   0 484.610 48.9600   1
  -3   1   0 572.600 42.8300   1
   3  -1   0 491.130 37.9300   1
   3  -1   0 481.920 38.5600   1
   1   3  -1 4567.23 181.650   1
  -1  -3   1 4570.19 153.250   1
   1   3  -1 4621.03 137.930   1
  -1  -3   1 4205.88 134.680   1
  -1  -3   1 4521.32 113.940   1
   1   3  -1 4634.88 111.910   1
   1   3  -1 4505.49 114.260   1
  -2   2  -2 312.500 33.2500   1
   2  -2   2 361.000 35.9500   1
  -2   2  -2 390.780 58.6600   1
   2  -2   2 319.790 36.2800   1
  -2   2  -2 367.230 36.1900   1
  -3   0   1 5731.13 133.820   1
   3   0  -1 5686.95 143.100   1
  -3   0   1 5544.36 128.870   1
   3   0  -1 5512.46 120.120   1
  -3   0   1 5797.91 123.410   1
  -3   0   1 5678.14 117.130   1
   3   0  -1 5474.08 120.550   1
  -3   0  -1 730.310 51.2500   1
   3   0   1 840.150 55.8100   1
  -3   0  -1 867.690 56.6100   1
   3   0   1 836.940 51.3400   1
  -3   0  -1 814.250 48.2100   1
   0  -2  -3 4071.91 120.540   1
   0   2   3 4088.88 101.630   1
   0  -2  -3 4096.34 109.330   1
   0   2   3 4136.74 140.280   1
   0  -2  -3 3917.41 115.320   1
   0   2   3 4399.56 125.400   1
   0  -2  -3 4104.51 204.100   1
   1   3   1 -58.890 86.2400   1
  -1  -3  -1 32.3400 66.7300   1
  -1  -3  -1 20.8800 30.8800   1
  -2   2   2 1521.16 61.8700   1
   2  -2  -2 1601.70 64.2000   1
  -2   2   2 1632.81 70.9600   1
   2  -2  -2 1565.45 64.1000   1
  -2   2   2 1656.26 69.2500   1
  -2   0   3 328.510 44.3400   1
   2   0  -3 309.040 35.5000   1
  -2   0   3 282.680 35.7200   1
   2   0  -3 285.370 36.5700   1
  -2   0   3 288.760 38.0200   1
   2   0  -3 325.850 38.3200   1
  -1   2  -3 1753.06 69.9700   1
  -1   2  -3 1736.88 65.1800   1
   1  -2   3 1625.49 74.5900   1
  -3  -1   0 1178.30 73.9500   1
   3   1   0 1201.52 70.0100   1
   3   1   0 1233.23 54.3500   1
  -3  -1   0 1288.20 53.1900   1
   3   1   0 1321.46 64.5500   1
  -3  -1   0 1237.36 61.2400   1
   0   3  -2 983.210 76.6500   1
   0  -3   2 965.900 93.9100   1
   0  -3   2 973.730 51.7700   1
   0  -3   2 952.810 51.4000   1
   0  -3   2 967.470 78.2200   1
   2   0   3 549.450 55.7900   1
   2   0   3 461.130 37.8400   1
  -2   0  -3 497.890 45.2400   1
   2   0   3 503.710 39.5000   1
  -2   0  -3 486.870 47.9200   1
  -3   1  -1 53486.3 370.110   1
  -3   1  -1 53191.8 390.410   1
   3  -1   1 52875.3 443.690   1
  -3   1   1 42707.1 400.580   1
   2   2  -2 5868.71 139.440   1
  -2  -2   2 5839.97 132.290   1
  -2  -2   2 5910.92 159.970   1
   2   2  -2 6066.61 120.290   1
  -2  -2   2 6162.31 133.390   1
   2   2  -2 5736.47 152.180   1
  -1  -2   3 938.190 57.6300   1
   1   2  -3 995.010 66.1600   1
   1   2  -3 974.820 59.3500   1
  -1  -2   3 946.270 83.0500   1
  -1  -2   3 1030.56 76.4400   1
   1   2  -3 1077.65 70.6400   1
  -1   2   3 5235.71 125.580   1
  -1   2   3 5444.54 137.970   1
  -1   2   3 5310.35 114.960   1
   1  -2  -3 5215.80 132.510   1
   1  -2  -3 5173.08 124.130   1
  -2   1  -3 13017.4 183.500   1
   2  -1   3 13216.7 219.080   1
   2  -1   3 13058.8 213.360   1
  -2   1  -3 13578.2 211.750   1
   3   1  -1 3415.48 91.8700   1
  -3  -1   1 3389.28 93.9200   1
  -3  -1   1 3504.21 99.7000   1
  -3  -1   1 3413.79 109.570   1
   3   1  -1 3431.91 97.6700   1
   3   1  -1 3630.37 115.950   1
   0  -3  -2 1739.20 97.6200   1
   0  -3  -2 1713.37 79.9000   1
   0  -3  -2 1679.14 76.5100   1
   0  -3  -2 1598.00 153.660   1
   0   3   2 1699.19 80.5800   1
   0  -3  -2 1772.78 88.2600   1
   0   3   2 1708.64 86.1000   1
   0  -3  -2 1690.93 75.4300   1
   0  -3  -2 1664.11 72.4800   1
  -2  -2  -2 88.0000 41.9800   1
  -2  -2  -2 64.6300 32.7700   1
   2   2   2 75.8100 29.2800   1
  -2  -2  -2 58.1800 34.2700   1
   2   2   2 49.1200 39.2300   1
   2   2   2 85.3900 28.2000   1
   2   2   2 74.9900 28.7900   1
  -2  -2  -2 78.8700 30.2900   1
  -2  -2  -2 82.8600 31.5600   1
   2  -1  -3 95.2900 30.7700   1
  -2   1   3 62.0600 25.2800   1
   2  -1  -3 55.4900 30.5900   1
   2  -1  -3 29.7600 27.7300   1
  -2   1   3 63.8600 28.9200   1
  -1   3  -2 2014.38 100.770   1
   1  -3   2 1923.60 74.0900   1
   1  -3   2 1883.38 80.3400   1
  -1   3  -2 2003.54 69.5400   1
  -1   3  -2 1928.24 67.5600   1
   3   1   1 12044.5 186.090   1
  -3  -1  -1 12184.6 205.360   1
  -3  -1  -1 12286.9 178.590   1
   3   1   1 12560.9 195.420   1
  -3  -1  -1 12561.6 194.430   1
   3   1   1 12202.3 210.950   1
   0   0   4 32164.2 361.950   1
   0   0  -4 32251.0 373.640   1
   0   0   4 32602.3 321.090   1
   0   0  -4 32229.1 321.500   1
   0   0  -4 30624.6 607.020   1
   0   0  -4 31986.3 369.650   1
  -2  -1   3 896.460 61.9400   1
   2   1  -3 902.780 57.6700   1
  -2  -1   3 846.110 52.0800   1
   2   1  -3 836.020 52.1500   1
  -2  -1   3 852.360 62.0000   1
   2   1  -3 847.130 56.9300   1
   1   2   3 479.090 85.6800   1
  -1  -2  -3 510.380 46.7800   1
   1   2   3 503.670 41.7400   1
  -1  -2  -3 535.670 47.4500   1
  -1  -2  -3 499.880 77.4000   1
  -1  -2  -3 533.060 44.8400   1
  -1  -2  -3 492.650 61.7800   1
   1   2   3 578.890 52.2400   1
   1   2   3 613.820 56.3200   1
  -2   3   0 1259.52 57.6600   1
  -2   3   0 1274.88 57.4300   1
  -2   3   0 1196.98 55.7900   1
   2  -3   0 1187.33 56.1600   1
   2  -3   0 1123.27 72.5600   1
   2  -3   0 1172.71 58.9700   1
  -1   3   2 2697.52 89.9900   1
   1  -3  -2 2593.16 86.6300   1
  -1   3   2 2843.30 94.1700   1
   1  -3  -2 2532.03 81.2600   1
  -1   3   2 2720.17 117.190   1
   1   3  -2 5269.99 142.800   1
  -1  -3   2 4947.99 150.810   1
   1   3  -2 5394.14 183.610   1
  -1  -3   2 5288.21 148.520   1
   1   3  -2 5142.60 118.400   1
   0   1  -4 1673.05 89.4400   1
   0   1  -4 1777.94 174.360   1
   0   1  -4 1426.49 79.2700   1
   0  -1   4 1491.05 86.1100   1
   0   1  -4 1481.75 83.9100   1
   3   0  -2 20560.1 281.940   1
  -3   0   2 20625.3 266.760   1
   3   0  -2 20685.0 278.500   1
  -3   0   2 20200.8 274.710   1
   3   0  -2 20219.2 278.280   1
  -3   0   2 20606.9 264.100   1
  -2   3  -1 3385.21 95.0400   1
  -2   3  -1 3399.07 93.1700   1
   2  -3   1 3183.78 93.9900   1
  -2   3  -1 3126.40 88.6500   1
   2  -3   1 3169.82 96.9600   1
  -3   0  -2 10206.1 161.460   1
   3   0   2 10147.5 210.750   1
  -3   0  -2 10790.0 202.530   1
   3   0   2 9866.23 187.370   1
  -3   0  -2 9878.84 207.920   1
  -3   2   0 1977.61 68.1900   1
   3  -2   0 1918.46 74.6900   1
  -3   2   0 2153.90 75.1400   1
   3  -2   0 2113.35 76.4000   1
   1   0  -4 48229.0 489.240   1
   1   0  -4 47065.3 509.190   1
  -1   0   4 48384.1 577.450   1
  -1   0   4 48893.3 534.100   1
   1   0  -4 46962.4 475.330   1
  -1   0   4 48474.3 483.210   1
  -2   3   1 1290.69 61.9000   1
   2  -3  -1 1175.21 55.2800   1
  -2   3   1 1243.96 53.9300   1
  -2   3   1 1192.00 53.7900   1
   2  -3  -1 1201.40 61.3400   1
  -1   0  -4 7475.37 153.500   1
   1   0   4 7523.77 313.960   1
  -1   0  -4 7838.56 200.920   1
  -1   0  -4 7874.49 178.790   1
  -1   0  -4 7662.31 166.990   1
  -1   0  -4 7402.19 196.340   1
   0   1   4 218.350 40.6300   1
   0   1   4 293.380 47.0000   1
   0  -1  -4 277.490 33.7800   1
   0  -1  -4 354.830 50.9300   1
  -1  -3  -2 1394.11 61.8900   1
  -1  -3  -2 1382.10 67.1000   1
  -1  -3  -2 1375.75 79.3500   1
   1   3   2 1352.24 68.3300   1
   1   3   2 1331.76 79.2300   1
  -1  -3  -2 1283.09 76.7100   1
   1   3   2 1272.20 66.3700   1
  -1  -3  -2 1333.00 101.160   1
   1   3   2 1219.41 136.910   1
  -3   1  -2 9966.63 158.890   1
   3  -1   2 9843.36 222.570   1
  -3   1  -2 9744.17 178.400   1
   3  -1   2 9542.41 173.460   1
   3  -1   2 9376.18 178.080   1
  -3   1   2 16780.4 242.560   1
  -3   1   2 16620.2 261.390   1
  -3   1   2 17429.7 239.170   1
   3  -1  -2 16401.4 252.380   1
   3  -1  -2 16462.8 256.870   1
  -2  -3   0 7.37000 37.8100   1
  -3   2  -1 609.250 42.2400   1
   3  -2   1 620.370 62.1700   1
   3  -2   1 586.050 44.3200   1
  -3   2  -1 608.950 46.2000   1
   3  -2   1 598.020 43.0500   1
  -1   1  -4 9975.28 205.910   1
   1  -1   4 10520.7 321.620   1
  -1   1  -4 10116.4 181.760   1
  -1   1  -4 10230.0 224.490   1
  -3   2   1 1836.87 71.2700   1
  -3   2   1 1742.46 66.0700   1
   3  -2  -1 1844.61 70.9900   1
   3  -2  -1 1962.11 76.9000   1
   1   1  -4 9579.64 209.880   1
  -1  -1   4 9067.44 161.550   1
   1   1  -4 9443.99 187.550   1
   1   1  -4 9141.40 178.310   1
  -1  -1   4 9511.28 201.560   1
  -1  -1   4 9186.22 228.390   1
   3   1  -2 2457.17 89.9300   1
  -3  -1   2 2475.89 82.3900   1
  -3  -1   2 2389.14 77.5100   1
   3   1  -2 2333.24 82.5700   1
  -3  -1   2 2369.46 98.6500   1
   3   1  -2 2424.82 84.5800   1
  -1   1   4 5403.30 141.940   1
   1  -1  -4 5744.55 130.330   1
  -1   1   4 5736.31 124.020   1
   1  -1  -4 5458.67 135.580   1
   1  -1  -4 5698.22 136.270   1
  -1   1   4 4939.65 215.700   1
   2   3  -1 51.1400 28.9200   1
  -2  -3   1 56.5200 22.8300   1
   2   3  -1 32.5400 21.6000   1
   2   3  -1 51.5100 35.3900   1
  -2   2  -3 816.720 48.6000   1
   2  -2   3 768.200 53.2500   1
  -2   2  -3 780.950 46.2600   1
   2  -2   3 781.000 50.5800   1
   3   1   2 6943.75 152.960   1
  -3  -1  -2 7042.86 159.280   1
  -3  -1  -2 6707.17 160.160   1
   3   1   2 6794.32 169.070   1
  -3  -1  -2 7318.14 168.230   1
   3   1   2 7081.26 151.320   1
   3   1   2 7505.29 158.620   1
   3   2   0 42198.9 520.640   1
  -3  -2   0 44328.7 497.700   1
   3   2   0 43520.4 450.900   1
  -1  -1  -4 7574.98 163.380   1
  -1  -1  -4 7477.05 145.140   1
  -1  -1  -4 7175.28 181.990   1
  -1  -1  -4 7144.83 149.900   1
   1   1   4 7296.02 179.310   1
  -1  -1  -4 7547.40 217.810   1
  -1  -1  -4 7445.30 176.620   1
  -1  -1  -4 7366.38 157.410   1
  -2  -3  -1 2531.35 86.4300   1
   2   3   1 2591.47 123.840   1
   2   3   1 2726.03 90.2300   1
  -2  -3  -1 2725.88 115.120   1
   2   3   1 2828.16 94.9500   1
  -2  -3  -1 2769.74 111.180   1
  -2  -3  -1 2722.10 86.7000   1
   2   3   1 2832.88 95.4100   1
  -2  -3  -1 2546.57 127.200   1
   2  -2  -3 731.580 43.0400   1
  -2   2   3 691.740 56.0800   1
  -2   2   3 847.280 52.2400   1
   2  -2  -3 748.750 52.4800   1
  -2   2   3 811.680 50.1300   1
   0  -3   3 935.080 55.9600   1
   0  -3   3 959.270 72.2200   1
   0   3  -3 926.270 68.7200   1
   0   3  -3 793.740 62.1700   1
   0  -3   3 949.960 76.3300   1
  -3  -2   1 737.300 46.6300   1
  -3  -2   1 812.210 56.7300   1
   3   2  -1 812.970 59.7500   1
   3   2  -1 775.190 47.2100   1
   3   2  -1 746.960 53.3600   1
  -3  -2   1 682.540 47.5300   1
  -2   3  -2 2266.70 75.6400   1
  -2   3  -2 2100.19 71.3800   1
   2  -3   2 2195.98 86.0200   1
  -2   3  -2 2237.14 105.580   1
   2  -3   2 2146.61 81.0100   1
  -2  -2   3 66.2800 39.3800   1
   0  -4   0 5327.95 122.590   1
   0  -4   0 5546.75 220.500   1
   0   4   0 5502.74 169.100   1
   0  -4   0 5378.98 118.710   1
   0   4   0 5530.39 159.460   1
   0  -4   0 5437.49 176.550   1
   0  -4   0 5140.57 149.850   1
   0   4   0 5684.82 137.230   1
   3   2   1 610.670 43.4700   1
  -3  -2  -1 580.440 42.8900   1
  -3  -2  -1 595.150 38.9900   1
   3   2   1 582.370 43.3500   1
   3   2   1 576.000 38.9600   1
  -3  -2  -1 609.890 56.3700   1
   3   2   1 430.620 54.7300   1
   0   2  -4 506.880 55.2600   1
   0   2  -4 562.950 63.4700   1
   2  -3  -2 971.890 54.1100   1
   2  -3  -2 840.320 49.3600   1
  -2   3   2 961.880 59.2800   1
   2  -3  -2 976.500 62.1600   1
  -2   3   2 859.790 51.1300   1
   1  -3   3 911.370 55.6600   1
  -1   3  -3 947.470 54.2500   1
  -1   3  -3 908.780 47.1600   1
  -1   3  -3 987.220 52.6500   1
  -1   3  -3 913.780 78.6500   1
   0  -4   1 735.040 46.0800   1
   0   4  -1 813.090 69.7400   1
   0  -4   1 843.040 73.7300   1
   0   4  -1 780.630 48.6800   1
   0  -4   1 777.330 44.4100   1
   0  -4   1 774.370 96.6000   1
   0   3   3 111.130 49.6400   1
   0  -3  -3 138.070 31.2700   1
   0  -3  -3 132.740 30.8200   1
   0  -3  -3 101.910 39.0900   1
   2   2   3 76.6400 60.2300   1
   2   2   3 165.850 32.8000   1
  -2  -2  -3 149.050 30.7500   1
  -2  -2  -3 126.360 35.6500   1
  -2  -2  -3 139.190 51.2200   1
  -2  -2  -3 105.990 25.5500   1
   2   2   3 127.600 31.6600   1
  -2  -2  -3 109.980 38.7100   1
  -1   4   0 1395.25 88.1500   1
   1  -4   0 1310.95 59.2800   1
  -1   4   0 1443.53 65.5300   1
   1  -4   0 1411.92 67.7400   1
  -1   4   0 1430.01 57.2900   1
   1  -4   0 1559.03 68.8800   1
  -1   4   0 1499.17 82.3300   1
   3  -2   2 339.880 33.3400   1
  -3   2  -2 398.210 37.9700   1
   3  -2   2 346.370 33.3400   1
  -3   2  -2 354.720 38.2400   1
   0   4   1 742.230 55.6300   1
   0  -4  -1 712.960 54.5900   1
   0  -4  -1 566.280 105.820   1
   0  -4  -1 734.480 71.4900   1
   0   4   1 756.250 65.9700   1
   0  -4  -1 681.900 46.6900   1
   0   4   1 703.470 64.7700   1
   0  -4  -1 733.290 72.5500   1
   0  -4  -1 724.230 50.9100   1
  -3   2   2 2736.14 81.4900   1
   3  -2  -2 2726.48 97.5100   1
  -3   2   2 2832.51 89.2800   1
  -3   2   2 2834.11 89.3800   1
  -3   2   2 2824.49 102.070   1
   1   3  -3 13318.3 254.370   1
  -1  -3   3 12768.1 265.710   1
   1   3  -3 13276.3 241.060   1
   1   3  -3 13487.6 221.140   1
  -1  -3   3 14004.7 244.460   1
   1   3  -3 13560.3 307.840   1
  -2  -3   2 1878.30 81.4600   1
   2   3  -2 1843.46 88.4300   1
  -2  -3   2 1823.17 82.8300   1
   2   3  -2 1886.05 70.1600   1
   2   3  -2 1815.75 80.0000   1
   2   3  -2 1813.73 78.1000   1
  -2  -3   2 1640.59 85.8700   1
   0  -2  -4 3964.72 122.650   1
   0  -2  -4 4241.29 119.760   1
   0   2   4 4341.51 131.550   1
   0  -2  -4 4302.70 212.200   1
  -1   2  -4 1032.79 78.1200   1
  -1   2  -4 1099.40 72.0900   1
  -1   2  -4 990.240 50.7800   1
  -2   0   4 11690.8 190.310   1
   2   0  -4 11337.4 204.090   1
  -2   0   4 11705.6 208.650   1
  -2   0   4 11204.4 217.410   1
  -2   0   4 11906.8 183.940   1
   2   0  -4 11633.0 199.250   1
   2   0  -4 11558.2 199.090   1
   1  -4   1 238.500 31.5200   1
  -1   4  -1 258.420 31.7700   1
   1  -4   1 240.610 31.7600   1
  -1   4  -1 260.750 34.9600   1
  -1   4  -1 215.160 52.2800   1
  -1   4  -1 282.070 49.6100   1
  -2   0  -4 23841.8 333.280   1
  -2   0  -4 23607.0 347.760   1
   2   0   4 24047.7 388.830   1
   2   0   4 24727.8 325.790   1
   2   0   4 23865.2 347.500   1
  -2   0  -4 24366.1 306.140   1
   1  -3  -3 2893.49 99.5000   1
  -1   3   3 3101.32 102.940   1
  -1   3   3 3101.78 124.640   1
  -1   3   3 3000.44 101.510   1
   1  -3  -3 2740.61 89.1100   1
  -1   3   3 2967.16 90.3000   1
   3   0  -3 4022.85 108.550   1
  -3   0   3 3921.72 123.550   1
  -3   0   3 4073.67 105.850   1
   3   0  -3 3994.74 109.500   1
  -3   0   3 4201.81 104.990   1
   3   0  -3 3948.34 108.970   1
   1   2  -4 14341.6 237.330   1
  -1  -2   4 14299.8 243.480   1
  -1  -2   4 14494.8 312.540   1
   1   2  -4 15469.3 268.760   1
   1   2  -4 14748.4 267.570   1
  -1  -2   4 14781.3 224.760   1
  -1  -4   0 53095.2 834.900   1
  -1  -4   0 51740.7 511.450   1
   1   4   0 53138.0 840.050   1
   1   4   0 51819.8 545.640   1
  -1  -4   0 53031.7 799.130   1
   1   4   0 52452.8 762.880   1
  -3   0  -3 5273.46 140.600   1
   3   0   3 5367.01 153.230   1
  -3   0  -3 5493.30 137.040   1
   3   0   3 5527.68 122.540   1
   3   0   3 5095.85 144.270   1
  -3   0  -3 5388.70 120.480   1
   1  -4  -1 169.640 46.1400   1
   1  -4  -1 154.950 31.3700   1
  -1   4   1 181.180 27.5100   1
   1  -4  -1 192.650 29.2000   1
  -1   4   1 179.180 37.2800   1
  -1   4   1 162.750 41.3600   1
   2   3   2 2719.83 86.1200   1
  -2  -3  -2 2812.48 111.090   1
  -2  -3  -2 2929.34 96.9200   1
   2   3   2 2847.02 101.530   1
  -2  -3  -2 2691.84 122.200   1
   2   3   2 2991.88 130.190   1
   2   3   2 2658.41 148.510   1
  -2  -3  -2 2790.10 88.5400   1
   2   3   2 2767.66 89.0500   1
  -2  -3  -2 2903.39 119.410   1
   2  -1   4 77.1800 24.4700   1
   1  -2  -4 3114.53 98.3800   1
  -1   2   4 3328.30 103.010   1
  -1   2   4 3505.90 94.6400   1
   1  -2  -4 3052.84 112.140   1
  -1   2   4 3299.16 114.560   1
   3   2  -2 6518.74 175.510   1
  -3  -2   2 6833.18 148.250   1
  -3  -2   2 6509.08 138.640   1
   3   2  -2 6664.99 149.180   1
  -3  -2   2 6232.66 165.980   1
   3   2  -2 6580.57 142.100   1
  -3   1  -3 5662.53 125.550   1
   3  -1   3 5486.15 133.980   1
  -3   1  -3 5810.36 136.740   1
   3  -1   3 5596.34 140.220   1
   1   4  -1 1284.23 77.2500   1
  -1  -4   1 1334.26 81.5100   1
  -1  -4   1 1319.93 59.6000   1
   1   4  -1 1410.02 64.0000   1
  -1  -4   1 1299.48 79.3100   1
   1   4  -1 1440.91 129.750   1
  -1  -3  -3 638.630 86.7700   1
  -1  -3  -3 654.090 67.5300   1
  -1  -3  -3 590.510 49.6900   1
  -1  -3  -3 556.860 73.5700   1
   1   3   3 453.650 60.1000   1
  -1  -3  -3 450.490 51.5600   1
   1   3   3 511.930 41.4000   1
  -1  -3  -3 483.110 48.9300   1
  -1  -3  -3 522.990 44.2800   1
   2  -1  -4 27.3800 30.7400   1
  -2   1   4 48.5500 40.2400   1
   2  -1  -4 48.9200 26.1900   1
  -2   1   4 67.7300 22.3300   1
  -2  -1   4 5530.69 144.070   1
   2   1  -4 5429.69 130.670   1
   2   1  -4 5403.61 139.170   1
   2   1  -4 5664.30 137.770   1
  -2  -1   4 5714.27 146.290   1
  -2  -1   4 5153.07 163.880   1
  -3   1   3 212.930 32.8400   1
   3  -1  -3 213.360 28.0400   1
  -3   1   3 228.040 40.8200   1
   3  -1  -3 182.580 26.2100   1
  -3   1   3 268.320 37.6800   1
  -3   3   0 46.5600 30.0500   1
  -3   3   0 46.6800 30.9800   1
   3  -3   0 41.2900 27.6000   1
  -4   0   0 365.120 33.2000   1
   4   0   0 284.870 28.4000   1
  -4   0   0 234.200 40.9400   1
  -4   0   0 359.450 41.9400   1
   4   0   0 255.330 32.7400   1
   1   2   4 3081.00 107.980   1
  -1  -2  -4 2810.32 122.530   1
  -1  -2  -4 3256.60 111.740   1
  -1  -2  -4 3095.86 99.3700   1
  -1  -2  -4 3134.34 111.390   1
  -1  -2  -4 3186.61 112.350   1
  -1  -2  -4 3172.23 140.890   1
  -1  -2  -4 2912.77 89.6700   1
  -3  -2  -2 4798.15 125.890   1
   3   2   2 5017.62 123.260   1
  -3  -2  -2 5258.88 138.170   1
  -3  -2  -2 5227.77 120.950   1
   3   2   2 4918.00 120.060   1
   3   2   2 4746.42 158.210   1
   3   2   2 5014.45 123.670   1
  -3  -1   3 7669.37 163.220   1
   3   1  -3 7489.31 153.400   1
   3   1  -3 7748.54 158.100   1
  -3  -1   3 7164.02 162.780   1
  -3  -1   3 7797.89 155.780   1
   3   1  -3 7618.17 171.100   1
  -1  -4  -1 3469.32 144.090   1
   1   4   1 3578.10 142.400   1
   1   4   1 3659.20 119.840   1
  -1  -4  -1 3616.90 104.570   1
   1   4   1 3661.82 119.320   1
  -1  -4  -1 3533.62 141.510   1
  -1  -4  -1 3574.89 102.510   1
   1   4   1 3631.95 116.610   1
  -1  -4  -1 3461.14 116.760   1
  -1  -4  -1 3570.54 115.550   1
   0  -4   2 8.72000 34.9400   1
   0   4  -2 -22.330 49.6300   1
  -2  -1  -4 9305.53 193.600   1
   2   1   4 8847.44 168.400   1
  -2  -1  -4 9186.33 160.970   1
  -2  -1  -4 8878.90 229.020   1
   2   1   4 8834.00 180.340   1
   2   1   4 8663.36 250.710   1
  -2  -1  -4 9105.74 201.230   1
  -2  -1  -4 9103.94 167.850   1
  -3   3  -1 18208.7 231.130   1
   3  -3   1 18095.6 259.580   1
  -3   3  -1 18345.8 245.310   1
   3  -3   1 17969.2 263.400   1
   4  -1   0 11.5000 29.2900   1
  -4   1   0 3.28000 23.1200   1
   4  -1   0 6.64000 17.2500   1
   3   1   3 768.480 54.7900   1
  -3  -1  -3 774.700 59.1200   1
   3   1   3 805.180 48.0000   1
  -3  -1  -3 832.810 51.7300   1
  -3  -1  -3 841.600 53.7100   1
   3   1   3 707.930 64.4100   1
  -4   0   1 412.360 42.6600   1
   4   0  -1 405.390 42.6900   1
  -4   0   1 455.410 42.4800   1
  -4   0   1 423.780 40.7900   1
   4   0  -1 343.260 36.5300   1
   4   0  -1 392.910 40.5300   1
  -3   3   1 26155.4 309.360   1
  -3   3   1 25511.6 292.490   1
  -3   3   1 26412.4 313.530   1
   3  -3  -1 25580.6 321.990   1
   3  -3  -1 25156.3 322.850   1
  -4   0  -1 298.140 35.4100   1
  -4   0  -1 273.130 36.3800   1
   4   0   1 290.410 29.7600   1
  -4   0  -1 265.720 34.1400   1
   4   0   1 236.990 34.0300   1
  -1   4  -2 13438.8 204.160   1
   1  -4   2 13537.6 215.820   1
  -1   4  -2 13910.5 201.320   1
  -1   4  -2 13928.2 263.100   1
  -2   3  -3 8338.60 154.420   1
   2  -3   3 8224.71 180.350   1
  -2   3  -3 7945.55 150.680   1
   2  -3   3 8176.38 169.390   1
   0  -4  -2 3932.72 133.560   1
   0  -4  -2 4048.24 114.480   1
   0   4   2 3977.01 118.390   1
   0  -4  -2 4123.04 127.200   1
   0  -4  -2 3928.88 141.630   1
   0  -4  -2 4034.15 155.820   1
   0  -4  -2 3922.68 107.270   1
   0   4   2 4100.58 127.060   1
   0  -4  -2 3813.21 193.350   1
  -2   4   0 6077.12 129.710   1
   2  -4   0 5613.78 159.160   1
  -2   4   0 5825.69 141.080   1
   2  -4   0 5231.99 132.610   1
  -2   4   0 5586.22 129.780   1
   2  -4   0 5589.67 127.520   1
   0   0   5 2358.33 85.4200   1
   0   0   5 2249.67 98.5800   1
   0   0  -5 2402.97 103.380   1
   0   0  -5 2139.54 76.3300   1
   0   0  -5 2118.13 138.090   1
   0   0  -5 2216.17 102.680   1
   4  -1   1 4351.50 124.850   1
  -4   1  -1 4434.90 117.700   1
   4  -1   1 4086.65 105.220   1
  -4   1  -1 4421.16 103.030   1
  -4   1  -1 4054.55 136.040   1
   4  -1  -1 3663.40 113.320   1
  -4   1   1 3743.82 115.990   1
   4  -1  -1 3796.74 111.790   1
  -4   1   1 3991.51 103.080   1
  -4   1   1 3889.08 104.030   1
  -4  -1   0 125.550 31.0800   1
   4   1   0 123.330 37.8000   1
   4   1   0 130.600 26.9600   1
  -4  -1   0 159.840 35.5200   1
   4   1   0 166.950 40.4400   1
  -4  -1   0 158.940 26.4700   1
  -2   4  -1 464.290 40.9900   1
   2  -4   1 366.830 36.2100   1
  -2   4  -1 420.180 42.3200   1
   2  -4   1 431.850 37.1900   1
  -2   4  -1 366.520 54.8700   1
  -1   4   2 16422.3 291.280   1
   1  -4  -2 15216.7 228.860   1
   1  -4  -2 16146.3 274.590   1
  -1   4   2 16356.6 220.870   1
  -1   4   2 16745.9 253.670   1
   1  -4  -2 16006.5 238.310   1
   1   4  -2 3651.18 188.340   1
  -1  -4   2 3777.64 109.360   1
   1   4  -2 3614.25 119.550   1
  -1  -4   2 3416.96 173.650   1
   1   4  -2 3544.16 101.800   1
  -1  -4   2 3573.94 125.980   1
   2  -2   4 4083.11 133.830   1
  -2   2  -4 4103.90 126.310   1
  -2   2  -4 4079.47 102.970   1
   2  -2   4 4045.46 123.360   1
   2  -2   4 4138.75 106.620   1
  -2   2  -4 4109.43 117.090   1
   3   3   0 148.450 36.9600   1
  -3  -3   0 95.5400 38.2800   1
  -3  -3   0 134.250 28.8900   1
   3   3   0 86.3500 25.8000   1
  -3  -3   0 84.1800 43.0900   1
   3   3   0 111.820 28.7300   1
   3   3   0 77.9800 46.9600   1
   2  -3  -3 90.8200 29.6400   1
  -2   3   3 90.6700 40.6500   1
   2  -3  -3 115.080 31.8900   1
   2  -3  -3 95.1400 29.1300   1
  -2   3   3 128.400 32.4800   1
   0   1  -5 2441.98 102.220   1
   0   1  -5 2305.06 94.8500   1
   0  -1   5 2481.30 92.3600   1
   0   1  -5 2385.60 105.520   1
   0   1  -5 2401.32 145.840   1
   0  -1   5 2397.06 104.470   1
  -3   2  -3 160.620 25.8600   1
   3  -2   3 172.590 32.4100   1
   3  -2   3 157.200 32.4900   1
  -3   2  -3 224.770 32.5300   1
  -3   2  -3 202.920 43.5600   1
  -2   4   1 -10.630 30.1500   1
   2  -4  -1 -18.180 26.6700   1
  -2   4   1 8.06000 23.3000   1
  -2   4   1 24.3800 21.9600   1
   2  -4  -1 48.5400 54.0700   1
   2  -4  -1 2.16000 25.6000   1
   4   1  -1 5891.42 141.750   1
  -4  -1   1 6507.10 149.990   1
   4   1  -1 5921.50 170.390   1
   4   1  -1 6551.02 155.990   1
  -4  -1   1 6436.33 160.370   1
  -4  -1   1 6147.11 162.960   1
   2   3  -3 11540.5 227.190   1
  -2  -3   3 12083.5 269.700   1
   2   3  -3 11715.6 287.170   1
  -2  -3   3 11182.0 285.050   1
   2   3  -3 12008.5 253.980   1
  -2  -3   3 11833.2 271.200   1
  -1   0   5 186.300 31.6700   1
   1   0  -5 188.380 28.4800   1
   1   0  -5 135.030 28.0900   1
  -1   0   5 186.860 41.0800   1
  -1   0   5 135.250 49.8000   1
   1   0  -5 174.360 28.6300   1
   1   0  -5 186.370 40.0200   1
  -4  -1  -1 1320.95 57.8800   1
   4   1   1 1314.68 66.8900   1
  -4  -1  -1 1290.54 63.8000   1
   4   1   1 1251.81 77.5200   1
  -4  -1  -1 1322.38 78.1800   1
   4   1   1 1474.95 72.6400   1
   0  -3   4 6508.66 205.040   1
   0   3  -4 5876.94 171.390   1
   0   3  -4 5905.64 172.640   1
   1   0   5 1302.56 78.4300   1
  -1   0  -5 1440.66 86.6600   1
  -1   0  -5 1413.83 68.6100   1
  -1   0  -5 1347.87 62.9000   1
  -1   0  -5 1289.95 84.5600   1
  -1   0  -5 1339.40 66.4200   1
   3   3  -1 8062.45 205.090   1
   3   3  -1 8244.18 177.320   1
   3   3  -1 8553.36 194.490   1
  -3  -3   1 8671.93 176.980   1
  -3  -3   1 8257.69 220.750   1
   3   3  -1 8213.38 199.070   1
  -3  -3   1 8767.21 204.530   1
   0  -1  -5 1986.09 118.730   1
   0   1   5 2175.14 94.7300   1
   0  -1  -5 1969.32 93.9800   1
   0   1   5 2146.07 90.2000   1
   0  -1  -5 1864.31 71.9800   1
   0  -1  -5 1880.03 135.100   1
   3  -2  -3 108.880 24.9600   1
  -3   2   3 71.1100 39.3200   1
  -3   2   3 116.710 29.1900   1
  -3   2   3 110.260 31.0000   1
  -3   2   3 91.4900 32.8400   1
   3  -2  -3 72.7000 22.3400   1
   2  -2  -4 6191.54 162.220   1
   2  -2  -4 6417.08 154.440   1
   2  -2  -4 6020.16 154.760   1
  -2   2   4 6307.01 165.220   1
  -2   2   4 6371.86 167.030   1
  -2   2   4 6700.29 159.510   1
   2   2  -4 4067.91 119.210   1
  -2  -2   4 4124.60 141.970   1
   2   2  -4 4236.61 139.730   1
   2   2  -4 4223.50 144.020   1
  -2  -2   4 4271.49 123.910   1
  -2  -2   4 4341.70 136.260   1
  -1  -4  -2 5880.18 149.510   1
  -1  -4  -2 6340.54 160.490   1
  -1  -4  -2 6137.76 147.240   1
  -1  -4  -2 5928.23 177.000   1
  -1  -4  -2 6207.45 196.230   1
   1   4   2 6507.93 175.760   1
   1   4   2 6248.50 162.870   1
  -3   3  -2 15460.7 279.550   1
   3  -3   2 15133.1 291.940   1
  -3   3  -2 15573.7 272.890   1
   3  -3   2 15501.3 297.260   1
  -3  -3  -1 5714.51 173.000   1
  -3  -3  -1 5830.75 142.030   1
   3   3   1 6084.66 150.410   1
   3   3   1 5956.93 164.320   1
   3   3   1 6291.54 148.630   1
   3   3   1 5611.87 182.110   1
  -3  -3  -1 6196.76 164.470   1
  -2  -4   0 356.140 46.5400   1
  -2  -4   0 387.700 34.1500   1
   2   4   0 343.420 32.2800   1
   2   4   0 292.940 45.6500   1
  -2  -4   0 355.340 34.4400   1
  -2  -4   0 401.040 59.8000   1
   2   4   0 344.590 37.4400   1
  -2  -4   0 332.100 50.9200   1
   2   4   0 361.400 75.2200   1
  -1   1  -5 5883.58 172.260   1
  -1   1  -5 6085.37 154.600   1
  -1   1  -5 5828.47 145.750   1
  -1   1  -5 5913.60 177.730   1
  -1   1  -5 5821.44 148.220   1
  -1   1  -5 5763.79 172.990   1
  -4   2   0 5173.72 129.810   1
   4  -2   0 4870.91 129.930   1
  -4   2   0 5498.33 135.860   1
   4  -2   0 4842.13 134.330   1
   4   0  -2 4490.54 131.010   1
  -4   0   2 4761.46 141.330   1
   4   0  -2 4665.91 125.300   1
   4   0  -2 4629.28 135.310   1
  -4   0   2 4800.96 126.570   1
  -4   0   2 4753.87 126.470   1
   1   1  -5 1931.97 96.0500   1
  -1  -1   5 1794.47 103.010   1
   1   1  -5 1748.65 80.4400   1
  -1  -1   5 1902.50 72.3200   1
   1   1  -5 1727.00 74.3800   1
  -1  -1   5 1799.66 87.9800   1
   4   0   2 59.3500 26.1400   1
   4   0   2 3.14000 25.9700   1
  -4   0  -2 43.6500 34.3400   1
  -4   0  -2 51.6500 29.6200   1
   3  -3  -2 8267.17 179.870   1
  -3   3   2 8292.37 179.070   1
   3  -3  -2 8141.79 191.250   1
  -3   3   2 8268.27 171.420   1
  -3   3   2 8706.69 184.770   1
  -3  -2   3 44.2200 36.7700   1
   3   2  -3 66.9400 26.3800   1
   3   2  -3 49.2600 23.1200   1
  -3  -2   3 114.600 33.4200   1
   3   2  -3 53.1500 23.0300   1
  -3  -2   3 64.7700 28.7200   1
   3   2  -3 66.0500 20.2800   1
  -1   3  -4 1448.04 65.5500   1
  -1   3  -4 1410.79 65.7300   1
  -1   3  -4 1437.84 88.4400   1
  -1   3  -4 1454.52 83.4000   1
  -2  -3  -3 28857.0 266.970   1
  -2  -3  -3 28582.2 513.940   1
   2   3   3 29477.0 275.180   1
  -2  -3  -3 28869.8 315.100   1
  -2  -3  -3 29068.4 282.510   1
   2   3   3 27477.9 475.160   1
  -2  -3  -3 27851.7 523.910   1
   2   3   3 28303.3 589.390   1
  -1   1   5 5227.00 147.420   1
   1  -1  -5 5081.18 139.840   1
   1  -1  -5 4754.77 156.880   1
   1  -1  -5 5115.32 139.890   1
  -1   1   5 5519.16 139.700   1
   2   4  -1 91.1700 58.1600   1
   2   4  -1 89.0300 23.1200   1
  -2  -4   1 124.160 44.6700   1
   2   4  -1 92.6000 21.6600   1
  -2  -4   1 76.0000 23.5200   1
  -2  -4   1 78.6000 44.9500   1
   2   4  -1 122.560 31.4900   1
   4  -1   2 102.990 40.1400   1
   4  -1   2 128.980 24.8400   1
  -4   1  -2 74.8000 22.6600   1
  -4   1  -2 112.150 26.5900   1
  -4   1   2 487.360 45.3200   1
   4  -1  -2 384.680 39.0000   1
   4  -1  -2 375.930 39.8100   1
  -4   1   2 430.550 36.6100   1
  -4   1   2 355.580 35.3200   1
  -2  -2  -4 1804.36 74.3700   1
  -2  -2  -4 1850.67 111.700   1
  -2  -2  -4 1637.57 76.6100   1
   2   2   4 1678.20 127.510   1
  -2  -2  -4 1866.07 95.9500   1
  -2  -2  -4 1772.53 107.490   1
   2   2   4 1865.65 91.2100   1
  -2  -2  -4 1763.20 73.1200   1
  -4   2  -1 262.050 34.2900   1
   4  -2   1 258.940 38.2000   1
   4  -2   1 286.560 37.4700   1
  -4   2  -1 231.120 36.3300   1
   0   3   4 13532.7 281.390   1
   0   3   4 13129.5 266.900   1
   0  -3  -4 13513.3 274.020   1
   0  -3  -4 12964.7 368.970   1
   0  -3  -4 12712.8 266.080   1
   0  -3  -4 13034.8 277.100   1
   0  -3  -4 12862.1 272.280   1
   1   1   5 16511.5 338.210   1
  -1  -1  -5 16998.5 363.680   1
  -1  -1  -5 15895.8 332.530   1
  -1  -1  -5 16370.1 313.720   1
  -1  -1  -5 15426.5 325.200   1
  -1  -1  -5 16873.8 298.860   1
  -1  -1  -5 16312.4 310.250   1
  -1  -1  -5 16206.4 292.810   1
   0  -4   3 141.270 24.7500   1
   0  -4   3 178.190 49.4900   1
   0  -4   3 194.660 27.6700   1
   0   4  -3 161.060 51.1900   1
   0  -4   3 130.500 39.2200   1
   0   4  -3 167.490 31.3100   1
   0   4  -3 160.730 37.4800   1
   0  -4   3 175.220 28.4000   1
  -2   4  -2 1801.32 70.9300   1
  -2   4  -2 1786.69 111.390   1
   2  -4   2 1720.67 73.3300   1
  -2   4  -2 1788.56 69.0200   1
   2  -4   2 1800.59 83.2400   1
  -2   4  -2 1771.85 66.8600   1
  -1  -3   4 8124.43 248.120   1
  -1  -3   4 9028.64 235.080   1
   1   3  -4 9192.66 206.750   1
   1   3  -4 8694.91 203.790   1
  -1  -3   4 8410.36 218.500   1
   1   3  -4 9384.84 265.250   1
   1   3  -4 8539.49 201.680   1
   4  -2  -1 9.35000 17.2900   1
  -4   2   1 20.1400 32.9300   1
  -4   2   1 -10.570 21.5200   1
  -2  -4  -1 378.410 47.8700   1
   2   4   1 394.280 37.1600   1
  -2  -4  -1 341.430 30.4900   1
  -2  -4  -1 364.290 43.0400   1
   2   4   1 363.230 43.9400   1
  -2  -4  -1 387.600 35.5100   1
   2   4   1 314.520 38.4600   1
   2   4   1 330.130 85.6300   1
  -2  -4  -1 382.520 61.5600   1
   3   2   3 284.870 33.9900   1
  -3  -2  -3 266.160 50.0100   1
   3   2   3 370.420 40.2800   1
  -3  -2  -3 321.500 33.6500   1
  -3  -2  -3 296.160 35.7800   1
   3   2   3 299.780 58.2400   1
  -3  -2  -3 308.320 49.7200   1
   3   2   3 294.070 35.7500   1
  -3   0   4 46.6600 27.5100   1
   3   0  -4 75.8700 28.2900   1
   3   0  -4 60.5000 30.5400   1
  -3   0   4 53.5500 22.3200   1
  -3   0   4 38.2000 36.8200   1
   3   0  -4 70.2100 25.7600   1
   4   1  -2 586.050 49.9600   1
   4   1  -2 601.390 44.0600   1
  -4  -1   2 635.210 49.2900   1
  -4  -1   2 680.850 46.1400   1
   4   1  -2 539.550 39.6900   1
  -4  -1   2 627.930 49.4700   1
  -1   3   4 91.5000 45.2000   1
   1  -3  -4 43.1800 33.7500   1
  -1   3   4 55.1600 30.2800   1
  -1   3   4 94.1100 31.8200   1
   1  -3  -4 74.1200 27.8800   1
   1  -4   3 357.050 33.8300   1
  -1   4  -3 356.780 33.7800   1
  -1   4  -3 321.420 62.5700   1
  -1   4  -3 341.420 32.6000   1
   0   2  -5 99.8200 38.0200   1
   0   2  -5 56.0000 28.5000   1
  -3   0  -4 1834.80 78.1300   1
   3   0   4 1954.87 82.3600   1
   3   0   4 1919.60 96.6500   1
  -3   0  -4 2031.29 75.9500   1
   3   0   4 1689.55 76.3600   1
  -3  -3   2 4378.69 122.490   1
  -3  -3   2 4251.01 131.260   1
   3   3  -2 4516.08 123.560   1
   3   3  -2 4218.32 156.390   1
  -3  -3   2 3898.32 150.260   1
   3   3  -2 4227.26 118.300   1
   2  -4  -2 982.560 60.0300   1
  -2   4   2 1096.99 53.2500   1
  -2   4   2 1146.02 63.4500   1
  -2   4   2 1139.21 72.3800   1
   2  -4  -2 982.350 52.5600   1
   2  -4  -2 1045.52 55.0700   1
  -4  -1  -2 2017.20 86.4900   1
  -4  -1  -2 2045.27 79.6800   1
   4   1   2 1908.61 85.7200   1
  -4  -1  -2 1953.84 91.1800   1
   4   1   2 2045.76 99.0100   1
   4   2   0 20943.4 350.460   1
  -4  -2   0 22578.1 400.350   1
   4   2   0 20575.4 392.540   1
   4   2   0 22158.5 362.900   1
  -4  -2   0 20822.5 371.730   1
  -4  -2   0 22590.5 363.800   1
  -3   1  -4 1445.89 68.6600   1
   3  -1   4 1353.89 73.0500   1
   3  -1   4 1562.53 67.4200   1
  -3   1  -4 1588.30 69.6400   1
  -3   1  -4 1535.35 95.6900   1
   3  -1   4 1408.32 76.7600   1
   0  -4  -3 7104.91 189.290   1
   0  -4  -3 7069.99 187.170   1
   0  -4  -3 6892.20 177.280   1
   0  -4  -3 7180.73 256.080   1
   0  -4  -3 7311.79 203.210   1
   0   4   3 7224.37 191.360   1
   0  -4  -3 7332.68 231.930   1
   0   4   3 7398.10 187.870   1
   0  -4  -3 7483.84 179.590   1
  -3   1   4 319.470 37.2200   1
  -3   1   4 275.640 35.2800   1
  -3   1   4 274.300 44.8700   1
   3  -1  -4 334.000 36.0800   1
   3  -1  -4 341.860 32.8300   1
   3  -1  -4 300.330 39.2500   1
  -1  -3  -4 13728.6 308.310   1
  -1  -3  -4 13067.4 249.480   1
   1   3   4 13402.2 264.790   1
  -1  -3  -4 12812.5 294.830   1
  -1  -3  -4 13023.0 249.860   1
  -1  -3  -4 13677.5 287.670   1
   1   3   4 13035.7 276.420   1
  -1  -3  -4 13667.1 334.440   1
   1   4  -3 5888.35 176.270   1
   1   4  -3 6372.60 176.660   1
   1   4  -3 6493.29 162.260   1
  -1  -4   3 6375.85 174.440   1
   1   4  -3 6391.24 259.910   1
   3   3   2 5697.25 144.500   1
   3   3   2 5889.25 142.500   1
  -3  -3  -2 6202.95 147.290   1
  -3  -3  -2 5686.17 164.470   1
  -3  -3  -2 5528.35 172.410   1
  -3  -3  -2 5934.21 170.680   1
  -3  -1   4 2179.10 92.9800   1
   3   1  -4 2132.13 79.9200   1
  -3  -1   4 2213.69 83.2000   1
   3   1  -4 2012.47 78.2000   1
  -3  -1   4 2007.76 83.8300   1
   3   1  -4 1893.92 78.3300   1
  -4  -2   1 517.190 42.2200   1
   4   2  -1 400.290 35.1700   1
   4   2  -1 428.570 45.6200   1
   4   2  -1 320.140 45.4300   1
  -4  -2   1 424.340 47.6400   1
  -1   2  -5 4946.00 163.280   1
  -1   2  -5 5271.96 134.720   1
  -1   2  -5 5277.76 167.180   1
   2   4  -2 9059.37 190.610   1
   2   4  -2 9155.00 218.540   1
   2   4  -2 9106.05 195.320   1
  -2  -4   2 9516.55 219.720   1
   2   4  -2 9074.12 263.240   1
   2   0  -5 504.850 46.1900   1
  -2   0   5 490.530 56.8300   1
  -2   0   5 496.590 57.9400   1
   2   0  -5 538.190 42.5600   1
   2   0  -5 417.460 34.3300   1
  -2   0   5 516.920 39.8800   1
   0  -2  -5 2277.84 144.870   1
   0  -2  -5 2213.65 84.4600   1
   0  -2  -5 2080.74 84.1800   1
   0   2   5 2408.48 99.2600   1
  -4  -2  -1 433.610 38.7500   1
  -4  -2  -1 411.770 39.1000   1
  -4  -2  -1 367.330 40.0500   1
   4   2   1 428.320 38.9100   1
   4   2   1 394.690 35.3700   1
  -1   4   3 982.120 65.2500   1
  -1   4   3 796.530 62.7500   1
   1  -4  -3 906.670 55.2000   1
  -1   4   3 982.450 54.9600   1
  -2   0  -5 974.420 56.4200   1
   2   0   5 890.510 82.5700   1
  -2   0  -5 990.310 65.9200   1
  -2   0  -5 912.520 61.6800   1
   1   2  -5 19899.1 362.190   1
  -1  -2   5 19192.6 426.140   1
   1   2  -5 20668.3 391.120   1
  -1  -2   5 21074.0 393.640   1
  -1  -2   5 19967.3 342.700   1
   1   2  -5 19459.4 378.390   1
   4  -2   2 12574.5 288.390   1
  -4   2  -2 11828.6 222.720   1
   4  -2   2 11196.0 236.670   1
  -4   2  -2 12092.3 233.610   1
   4  -2   2 11108.7 237.430   1
  -3  -1  -4 1913.26 110.700   1
   3   1   4 2173.97 110.310   1
  -3  -1  -4 2142.59 91.1100   1
   3   1   4 2116.77 87.6300   1
  -3  -1  -4 2137.34 95.3200   1
  -3  -1  -4 2294.80 85.4400   1
   4  -2  -2 769.230 44.8500   1
  -4   2   2 839.230 47.9000   1
  -4   2   2 778.530 60.7400   1
  -4   2   2 909.080 55.4900   1
   0  -5   0 1002.77 52.3300   1
   0   5   0 1010.07 58.7200   1
   0  -5   0 893.600 52.7800   1
   0  -5   0 1014.29 109.420   1
   0   5   0 915.220 77.2100   1
   0   5   0 1049.25 74.7300   1
   0  -5   0 952.300 81.7300   1
   0  -5   0 956.140 57.6400   1
   2  -3   4 3113.28 112.790   1
  -2   3  -4 3086.75 100.080   1
   2  -3   4 3016.68 117.490   1
  -2   3  -4 3073.05 93.7300   1
   3  -4   0 31001.4 358.670   1
  -3   4   0 30557.2 281.120   1
  -3   4   0 29746.5 284.270   1
  -2   1  -5 18213.8 381.080   1
  -2   1  -5 19171.7 351.300   1
  -2   1  -5 18053.4 334.800   1
   2  -1   5 18781.7 415.970   1
   2  -1   5 17706.4 358.670   1
  -2   1  -5 19060.9 336.520   1
  -3   3  -3 10972.8 208.560   1
  -3   3  -3 10970.1 298.880   1
   3  -3   3 11141.8 241.620   1
  -3   3  -3 10887.5 215.740   1
   3  -3   3 10621.4 239.160   1
  -2  -4  -2 2842.64 124.330   1
   2   4   2 2976.57 113.750   1
  -2  -4  -2 3109.17 97.3100   1
  -2  -4  -2 2882.99 128.960   1
   2   4   2 2971.84 97.8600   1
   2   4   2 3167.18 144.690   1
  -2  -4  -2 2731.92 118.030   1
  -2  -4  -2 2931.78 95.2300   1
  -1   2   5 4095.33 133.370   1
  -1   2   5 4213.93 125.440   1
  -1   2   5 4331.16 115.820   1
   1  -2  -5 3791.11 109.610   1
   2   1  -5 728.590 52.7100   1
  -2  -1   5 695.180 53.6200   1
  -2  -1   5 756.360 57.1600   1
   2   1  -5 825.060 54.9300   1
  -2  -1   5 806.490 47.9600   1
   2   1  -5 722.050 48.6200   1
  -2   1   5 500.550 37.1800   1
   2  -1  -5 481.030 36.9900   1
  -2   1   5 503.130 55.0300   1
   2  -1  -5 465.690 39.6000   1
  -2   1   5 447.310 49.0100   1
  -1  -4  -3 77.9200 34.3500   1
  -1  -4  -3 63.8900 27.6600   1
   1   4   3 119.980 30.5800   1
  -1  -4  -3 49.7200 25.6000   1
   1   4   3 82.0000 32.8100   1
  -1  -4  -3 59.7200 23.2100   1
  -1  -4  -3 59.1000 64.5900   1
   0  -5   1 199.900 32.7300   1
   0  -5   1 166.790 28.5400   1
   0  -5   1 175.570 59.2500   1
   0   5  -1 189.090 28.7500   1
   0   5  -1 195.310 49.8800   1
  -4   0   3 93.8400 25.5500   1
  -4   0   3 89.8800 30.8200   1
   4   0  -3 107.840 27.1100   1
   4   0  -3 48.2700 29.6600   1
  -4   0   3 129.480 32.3300   1
   1  -5   0 34.6200 25.9500   1
  -1   5   0 -10.400 47.3100   1
  -1   5   0 1.90000 28.1000   1
  -3   4  -1 3142.11 94.8600   1
  -3   4  -1 3003.10 93.4200   1
   3  -4   1 3113.50 104.250   1
   3  -4   1 3207.21 130.460   1
  -3   4  -1 3154.36 96.2800   1
   3  -4   1 2899.90 104.680   1
  -4   0  -3 2163.61 78.7100   1
   4   0   3 1867.06 95.0300   1
  -4   0  -3 2112.51 86.3300   1
  -4   0  -3 2146.40 97.2000   1
  -1  -2  -5 2627.39 141.520   1
  -1  -2  -5 2436.98 100.060   1
  -1  -2  -5 2541.66 87.2300   1
  -1  -2  -5 2379.57 85.6600   1
  -1  -2  -5 2627.27 110.670   1
   1   2   5 2400.30 99.2400   1
  -3   3   3 13659.0 257.710   1
  -3   3   3 13957.7 250.900   1
  -3   4   1 2854.22 87.1800   1
  -3   4   1 2733.63 88.3700   1
  -3   4   1 2922.02 95.9900   1
   3  -4  -1 2655.10 96.6600   1
   0  -5  -1 1348.49 74.1000   1
   0  -5  -1 1338.28 64.5700   1
   0   5   1 1531.94 76.6100   1
   0   5   1 1335.33 79.4300   1
   0  -5  -1 1350.66 66.1300   1
   0  -5  -1 1357.05 96.9700   1
   0  -5  -1 1313.58 123.230   1
   0   5   1 1389.94 79.5000   1
  -2  -1  -5 617.630 43.1200   1
  -2  -1  -5 708.200 49.7800   1
  -2  -1  -5 652.090 59.5800   1
   2   1   5 645.740 98.2800   1
  -2  -1  -5 644.890 45.1600   1
   1  -5   1 1768.85 83.4000   1
  -1   5  -1 1990.57 78.1700   1
  -1   5  -1 1890.69 97.7200   1
   1  -5   1 1756.02 78.2700   1
  -1   5  -1 1792.84 67.1600   1
  -3   2  -4 68.1700 22.5200   1
   3  -2   4 79.1800 31.0500   1
  -3   2  -4 117.290 26.0700   1
  -3   2  -4 138.050 42.4300   1
   4  -3   0 -8.6600 21.8300   1
  -4   3   0 -4.9500 20.8000   1
   4  -1   3 11384.6 250.900   1
  -4   1  -3 11257.7 217.400   1
  -4   1  -3 12262.3 240.900   1
  -2   3   4 731.310 54.6500   1
   2  -3  -4 663.210 46.3200   1
  -2   3   4 721.400 51.8600   1
  -2   3   4 773.520 51.0900   1
  -2   4  -3 111.920 27.4500   1
   2  -4   3 94.1600 23.1800   1
   2  -4   3 74.8500 27.9100   1
  -2   4  -3 92.6100 26.0100   1
  -2   4  -3 86.0900 22.4200   1
  -2  -3   4 15.8100 41.1000   1
   2   3  -4 0.00000 37.1400   1
  -4   1   3 23393.7 384.830   1
  -4   1   3 22591.6 378.890   1
  -4  -2   2 9065.35 201.790   1
   4   2  -2 8947.61 192.170   1
   4   2  -2 7871.55 238.370   1
   4   2  -2 8210.87 180.020   1
  -4  -2   2 8997.86 182.860   1
  -1   5   1 113.200 36.8000   1
  -1   5   1 59.9100 30.4400   1
   1  -5  -1 61.9100 23.8700   1
  -3   2   4 18480.5 333.900   1
   3  -2  -4 17608.4 332.530   1
  -3   2   4 19018.4 319.530   1
  -3   2   4 18313.0 336.980   1
  -1  -5   0 661.760 69.4300   1
  -1  -5   0 683.880 79.4800   1
  -1  -5   0 548.700 43.4000   1
   1   5   0 624.970 52.0700   1
  -1  -5   0 587.120 42.9400   1
   1   5   0 680.630 50.2300   1
   1   5   0 612.110 53.3200   1
  -1  -5   0 593.860 45.9400   1
  -1  -5   0 546.260 44.1500   1
  -4   3  -1 119.420 31.4200   1
  -4   3  -1 159.660 25.5200   1
   4  -3   1 142.360 27.7700   1
   4  -3   1 132.580 24.8800   1
   4  -3   1 144.030 50.4600   1
  -4  -1   3 10477.2 258.180   1
  -4  -1   3 11694.0 239.970   1
   4   1  -3 10940.9 253.530   1
   4   1  -3 11487.8 241.850   1
  -4  -1   3 11960.2 239.970   1
  -4  -2  -2 3324.07 117.650   1
   4   2   2 3666.13 113.360   1
  -4  -2  -2 3626.64 124.450   1
  -4  -2  -2 3685.63 104.890   1
   3   3  -3 2655.57 97.0200   1
   3   3  -3 2491.71 87.1100   1
  -3  -3   3 2792.58 109.280   1
  -3  -3   3 2722.50 110.490   1
   3   3  -3 2491.42 106.390   1
   4  -3  -1 2091.14 81.9400   1
  -4   3   1 2396.71 83.7200   1
  -4   3   1 2468.18 86.1100   1
  -3  -2   4 474.740 41.3300   1
   3   2  -4 456.080 40.6200   1
  -3  -2   4 515.920 53.7800   1
   3   2  -4 451.800 50.7800   1
  -3  -2   4 512.430 40.9100   1
   3   2  -4 463.880 38.4000   1
  -1  -5   1 7743.93 188.630   1
  -1  -5   1 8259.38 238.320   1
   1   5  -1 8452.60 216.740   1
   1   5  -1 8688.23 197.320   1
  -1  -5   1 8399.34 182.320   1
  -2   4   3 0.68000 25.5600   1
  -2   4   3 11.4900 36.3300   1
  -2   4   3 35.6900 30.9200   1
  -4  -1  -3 24619.0 429.950   1
  -4  -1  -3 22383.3 429.400   1
   4   1   3 21849.3 419.740   1
   4   1   3 23035.9 431.600   1
  -4  -1  -3 23520.1 434.290   1
  -2   2  -5 9406.49 205.630   1
   2  -2   5 9303.42 250.770   1
  -2   2  -5 9215.10 217.710   1
  -2   2  -5 9123.03 217.960   1
  -2   2  -5 8368.51 233.450   1
   0  -5   2 3017.07 153.890   1
   0  -5   2 2856.38 100.050   1
   0   5  -2 2797.87 114.520   1
   0   5  -2 2855.42 99.6700   1
   0  -5   2 3060.17 98.8500   1
   0  -4   4 1349.11 78.5300   1
   0  -4   4 1304.66 66.6600   1
   0   4  -4 1190.44 75.1800   1
   0   4  -4 1273.24 61.7600   1
   0   4  -4 1118.63 69.5700   1
  -2  -3  -4 133.650 31.1500   1
   2   3   4 172.050 29.5800   1
  -2  -3  -4 122.950 56.1500   1
  -2  -3  -4 141.080 33.9800   1
  -2  -3  -4 193.140 47.1900   1
   2   3   4 163.890 30.6200   1
  -2  -3  -4 191.650 29.0500   1
  -3   4  -2 7567.05 171.050   1
   3  -4   2 6920.84 187.320   1
  -3   4  -2 6961.11 160.830   1
  -3   4  -2 7335.98 167.720   1
   3  -4   2 6947.77 176.830   1
   1   5   1 4031.83 159.300   1
  -1  -5  -1 3897.80 167.110   1
  -1  -5  -1 3758.43 108.460   1
  -1  -5  -1 3677.99 125.910   1
   1   5   1 3986.78 132.570   1
  -1  -5  -1 3676.59 111.940   1
  -1  -5  -1 3782.69 164.980   1
   1   5   1 4030.36 131.650   1
   3   4   0 1230.75 62.7300   1
  -3  -4   0 1235.76 67.6800   1
  -3  -4   0 1192.59 94.7200   1
  -3  -4   0 1372.34 61.5500   1
   3   4   0 1191.51 58.6700   1
   0   3  -5 11452.6 265.250   1
   0   3  -5 11909.1 279.590   1
   2   4  -3 -1.2100 28.4100   1
   2   4  -3 39.3200 22.9700   1
   2   4  -3 3.81000 46.6500   1
  -1   5  -2 2016.04 101.520   1
  -1   5  -2 2033.89 82.6400   1
   1  -5   2 2017.32 76.6400   1
  -1   5  -2 2147.40 79.5500   1
   1  -5   2 1946.45 83.7400   1
  -3  -3  -3 100.630 24.2900   1
  -3  -3  -3 118.780 32.1500   1
   3   3   3 40.4500 30.4700   1
  -3  -3  -3 60.6600 31.7300   1
  -3  -3  -3 52.3600 33.7500   1
  -3  -3  -3 70.7500 39.1800   1
   3   3   3 102.330 30.6200   1
  -2  -2   5 3.24000 36.7100   1
  -2  -2   5 20.9700 37.5100   1
   2   2  -5 -5.0600 23.8500   1
   3   4  -1 455.480 61.0600   1
  -3  -4   1 359.510 41.3900   1
   3   4  -1 410.770 47.3900   1
  -3  -4   1 418.630 36.8000   1
   3   4  -1 423.540 36.7800   1
   3   4  -1 416.710 38.1600   1
  -3  -2  -4 1677.85 85.7100   1
   3   2   4 1347.56 94.0300   1
   3   2   4 1607.43 80.4100   1
  -3  -2  -4 1720.88 86.2900   1
  -3  -2  -4 1771.13 69.1200   1
  -2   2   5 4949.26 168.820   1
  -2   2   5 4907.35 145.150   1
   2  -2  -5 4632.12 145.760   1
  -2   2   5 5073.72 130.160   1
   2  -2  -5 4812.42 135.150   1
  -2   5   0 23.7100 37.0900   1
  -2   5   0 13.2800 25.6900   1
  -2   5   0 -16.400 28.7000   1
  -1   4  -4 19992.8 372.530   1
   1  -4   4 20194.5 372.890   1
  -1   4  -4 20048.9 411.520   1
   1  -4   4 20195.6 385.840   1
   1  -4   4 19450.6 484.060   1
   0   0   6 32.9800 35.8800   1
   0   0   6 -9.8200 47.4100   1
   4  -2   3 877.030 52.4600   1
   4  -2   3 928.960 58.3100   1
  -4   2  -3 1041.37 55.5200   1
  -4   2  -3 962.270 49.2600   1
  -3   4   2 321.560 38.9300   1
  -3   4   2 273.020 32.4000   1
   0  -5  -2 1493.72 69.6100   1
   0  -5  -2 1501.79 90.0600   1
   0  -5  -2 1528.55 127.700   1
   0   5   2 1466.26 76.9300   1
   0   5   2 1600.24 80.0900   1
   0  -5  -2 1516.16 69.5200   1
   0  -5  -2 1524.17 90.0000   1
  -1   3  -5 199.610 53.6200   1
  -1   3  -5 171.660 24.7200   1
  -1   3  -5 185.060 34.0300   1
  -1   3  -5 180.090 35.0700   1
  -3  -4  -1 29.9900 32.5900   1
  -3  -4  -1 58.0000 33.9100   1
   3   4   1 57.6600 26.4900   1
  -3  -4  -1 63.5300 19.7400   1
   3   4   1 69.7200 33.4000   1
  -4   2   3 380.020 38.4000   1
  -4   2   3 467.090 45.5200   1
  -4   2   3 400.770 39.8200   1
  -4   2   3 384.360 38.8000   1
  -4  -3   0 194.770 41.8800   1
   4   3   0 275.380 41.2500   1
  -4  -3   0 284.690 33.1200   1
   4   3   0 258.680 30.2800   1
   2  -5   1 14025.4 285.330   1
  -2   5  -1 15478.0 290.990   1
  -2   5  -1 15821.0 293.630   1
  -2   5  -1 14934.3 325.180   1
   2  -5   1 14799.6 310.290   1
  -5   0   0 23332.7 413.170   1
  -5   0   0 23208.2 401.900   1
   4  -3   2 1351.21 75.8300   1
  -4   3  -2 1618.40 66.1000   1
  -4   3  -2 1535.09 64.0300   1
   4  -3   2 1379.35 67.8300   1
   4  -3   2 1454.83 88.8900   1
   0  -1   6 12.3500 23.9700   1
   0   1  -6 70.6000 38.3800   1
   0  -1   6 18.3100 48.2700   1
   1  -5  -2 794.870 49.9100   1
  -1   5   2 758.970 64.7300   1
  -1   5   2 791.250 55.3000   1
   1  -5  -2 807.780 77.0500   1
  -1   5   2 922.290 50.6200   1
   1   5  -2 3795.86 130.740   1
  -1  -5   2 3445.76 114.890   1
  -1  -5   2 3543.78 117.100   1
  -1  -5   2 3692.33 138.250   1
   1   5  -2 3881.33 137.390   1
   1   4  -4 7784.95 202.260   1
   1   4  -4 7817.21 301.270   1
  -1  -4   4 7735.26 191.870   1
   1   4  -4 8144.76 195.820   1
   1   4  -4 7885.25 200.800   1
   1   3  -5 5984.96 170.970   1
   1   3  -5 6141.42 210.950   1
  -1  -3   5 6180.04 171.440   1
   1   3  -5 5738.36 164.920   1
  -1  -3   5 6360.14 188.140   1
  -1  -3   5 5431.25 206.900   1
  -5   1   0 1421.73 55.7900   1
  -5   1   0 1277.75 60.2200   1
  -2  -4  -3 1566.17 66.2400   1
  -2  -4  -3 1579.98 97.2100   1
  -2  -4  -3 1736.86 74.5900   1
  -2  -4  -3 1654.80 92.9000   1
   2   4   3 1777.88 75.9700   1
   2   4   3 1649.71 81.3800   1
  -2  -4  -3 1609.76 95.3200   1
  -2   5   1 10499.5 225.170   1
   2  -5  -1 10641.8 273.690   1
  -2   5   1 10249.0 221.150   1
   2  -5  -1 9920.88 231.630   1
  -2   5   1 10306.7 273.250   1
  -2   5   1 10499.1 223.440   1
   4   3  -1 913.910 53.8200   1
  -4  -3   1 1032.40 61.2500   1
  -4  -3   1 1071.64 52.2600   1
   4   3  -1 1029.83 58.0300   1
  -4   3   2 24.6300 22.7400   1
   4  -3  -2 -0.0800 23.6500   1
  -4   3   2 1.60000 28.9600   1
  -4   3   2 -0.6800 28.9600   1
   0   4   4 25038.0 299.460   1
   0  -4  -4 24235.4 556.500   1
   0  -4  -4 25546.1 275.170   1
   0   4   4 25137.5 300.180   1
  -2  -2  -5 1131.01 77.4800   1
   2   2   5 916.490 108.220   1
  -2  -2  -5 1043.39 50.6700   1
  -2  -2  -5 1015.73 53.2900   1
  -2  -2  -5 1104.07 64.5800   1
  -1   0   6 14778.7 285.900   1
   1   0  -6 14241.9 293.530   1
  -1   0   6 15057.9 310.390   1
   1   0  -6 14632.9 312.720   1
   1   0  -6 13992.7 280.500   1
   0  -3  -5 7452.30 203.010   1
   0  -3  -5 8284.87 291.370   1
   0  -3  -5 8589.76 194.770   1
   0   3   5 8187.83 208.690   1
   5   0  -1 2893.92 104.170   1
  -5   0   1 3062.50 92.0100   1
  -5   0   1 3029.30 101.900   1
  -1   0  -6 193.800 28.8800   1
   1   0   6 236.270 45.1500   1
  -1   0  -6 148.410 41.3600   1
  -1   0  -6 231.780 44.9500   1
  -1   0  -6 216.100 28.9900   1
  -1   0  -6 265.850 40.6900   1
  -5   0  -1 118.890 31.6700   1
  -5   0  -1 139.760 36.0300   1
   0  -1  -6 1184.95 110.960   1
   0  -1  -6 1252.50 73.6300   1
   0   1   6 1130.09 59.1700   1
   0  -1  -6 1172.84 65.6900   1
   0   1   6 1265.26 78.4500   1
  -4  -3  -1 1901.72 69.6600   1
  -4  -3  -1 1880.89 85.6600   1
   4   3   1 1926.97 73.7900   1
  -3   0   5 90.1700 33.0700   1
  -3   0   5 81.4500 39.7200   1
   3   0  -5 123.610 26.7900   1
  -3   0   5 70.0400 27.7900   1
  -3   0   5 90.3000 20.5900   1
   3   0  -5 88.3200 22.3700   1
  -4  -2   3 1288.61 63.2100   1
   4   2  -3 1309.00 62.0700   1
  -4  -2   3 1437.51 61.9000   1
   4   2  -3 1071.60 64.5800   1
  -5   1  -1 3381.92 104.980   1
  -5   1  -1 3484.57 100.190   1
  -5   1   1 5660.15 145.860   1
  -5   1   1 5730.05 138.350   1
  -1   4   4 7491.74 177.120   1
  -1   4   4 7445.68 193.810   1
  -1   4   4 7044.15 215.340   1
  -1   1  -6 1458.58 88.4300   1
  -1   1  -6 1480.71 71.4300   1
  -1   1  -6 1449.38 67.5500   1
  -1   1  -6 1552.43 88.4800   1
  -1   1  -6 1560.29 73.8200   1
   1   1  -6 336.630 35.8700   1
  -1  -1   6 344.490 58.0800   1
   1   1  -6 448.380 56.9500   1
  -1  -1   6 430.380 57.0400   1
   1   1  -6 311.440 44.6800   1
  -1  -1   6 352.280 31.6700   1
   3   0   5 1299.73 77.2600   1
  -3   0  -5 1312.00 57.5200   1
  -3   0  -5 1325.18 67.0100   1
   3   0   5 1275.07 62.8200   1
  -1   3   5 16081.2 300.200   1
  -1   3   5 15723.4 316.690   1
  -1   3   5 15603.6 316.700   1
  -3  -4   2 304.010 34.6500   1
   3   4  -2 282.490 43.4600   1
  -3  -4   2 326.920 38.0300   1
   3   4  -2 284.540 32.3400   1
   3   4  -2 301.170 43.8200   1
   3   4  -2 264.620 34.5800   1
  -1  -5  -2 2207.89 84.8500   1
   1   5   2 2253.23 94.6400   1
  -1  -5  -2 2171.33 82.3200   1
  -1  -5  -2 2213.80 125.010   1
  -1  -5  -2 2184.72 106.100   1
   1   5   2 2225.59 96.3300   1
  -1  -5  -2 2187.12 120.020   1
   3  -3   4 115.290 31.6600   1
  -3   3  -4 116.420 25.3500   1
  -3   3  -4 117.030 22.5000   1
   3  -3   4 99.1900 27.4900   1
  -3   3  -4 85.8700 48.0500   1
   5   1   0 224.170 33.7100   1
  -5  -1   0 245.130 29.2200   1
  -5  -1   0 194.400 41.0100   1
  -3   1  -5 3164.93 109.960   1
   3  -1   5 2900.35 114.840   1
   3  -1   5 2943.07 103.420   1
  -3   1  -5 3002.49 96.5900   1
  -2  -5   0 216.780 27.4700   1
  -2  -5   0 115.390 40.0000   1
  -2  -5   0 181.250 29.5200   1
   2   5   0 174.670 29.7200   1
   2   5   0 166.710 32.9500   1
  -2  -5   0 168.630 34.7600   1
  -1   1   6 -25.620 45.8100   1
  -1   1   6 25.0800 37.5400   1
  -3   1   5 2062.91 87.6100   1
   3  -1  -5 1906.02 87.7300   1
   3  -1  -5 2355.07 90.5800   1
  -3   1   5 1938.06 91.8900   1
  -3   1   5 2170.50 81.0200   1
  -4   0   4 5742.77 186.400   1
  -4   0   4 6532.20 167.250   1
   4   0  -4 6363.70 157.060   1
  -4   0   4 6385.57 160.070   1
  -2   5  -2 2986.55 106.450   1
   2  -5   2 3026.81 116.680   1
  -2   5  -2 3259.56 101.250   1
   2  -5   2 3090.05 104.730   1
  -2   5  -2 3252.43 127.110   1
  -4  -2  -3 21.4200 30.4700   1
  -4  -2  -3 1.07000 37.9200   1
   4   2   3 34.5200 34.4100   1
   3   1  -5 8057.85 190.940   1
  -3  -1   5 7292.54 213.320   1
  -3  -1   5 8043.31 202.800   1
   3   1  -5 7614.32 199.970   1
  -3  -1   5 8176.83 204.350   1
   3   1  -5 7659.92 178.310   1
  -3  -1   5 8377.51 186.390   1
  -1  -1  -6 856.380 50.3500   1
  -1  -1  -6 885.650 51.6400   1
  -1  -1  -6 996.360 80.5000   1
  -1  -1  -6 808.100 56.7100   1
  -1  -1  -6 891.810 50.3900   1
   1   1   6 872.270 63.8800   1
  -1  -3  -5 318.000 57.6300   1
   1   3   5 413.930 59.1100   1
  -1  -3  -5 410.950 42.9200   1
  -1  -3  -5 393.760 43.9600   1
  -1  -3  -5 318.320 38.0700   1
   1   4   4 543.950 51.0400   1
  -1  -4  -4 585.450 52.5100   1
  -1  -4  -4 576.760 40.1000   1
  -1  -4  -4 616.540 58.3900   1
   1   4   4 562.160 41.7400   1
  -1  -4  -4 553.050 47.9400   1
  -1  -4  -4 551.400 58.9800   1
  -1  -4  -4 566.270 79.7900   1
  -5  -1   1 9311.66 200.690   1
  -5  -1   1 8947.67 210.100   1
   5   1  -1 9014.32 205.340   1
   0   5  -3 503.910 59.0900   1
   0  -5   3 506.390 40.1900   1
   0   5  -3 486.270 47.4500   1
   0   5  -3 528.280 52.1900   1
   0  -5   3 499.260 39.8200   1
   0  -5   3 498.270 41.1000   1
   0  -5   3 485.170 61.1400   1
   2   5  -1 1316.97 64.9000   1
  -2  -5   1 1315.35 72.5000   1
   2   5  -1 1288.55 64.2000   1
   2   5  -1 1140.37 66.3100   1
  -2  -5   1 1308.27 56.8000   1
   2   5  -1 1261.05 102.840   1
  -4   0  -4 1915.55 83.8900   1
   4   0   4 1808.87 75.0400   1
  -4   0  -4 1718.51 87.8100   1
  -4   0  -4 1956.87 73.4700   1
   4   0   4 1795.35 101.850   1
  -5  -1  -1 4401.69 117.390   1
   5   1   1 4579.53 130.640   1
  -5  -1  -1 4621.66 138.770   1
  -3  -4  -2 3388.60 127.130   1
  -3  -4  -2 2967.31 99.3800   1
  -3  -4  -2 3287.01 154.510   1
   3   4   2 3279.06 142.020   1
   3   4   2 3424.08 120.260   1
  -3  -4  -2 3641.09 110.430   1
  -3  -4  -2 3343.75 122.410   1
   3   4   2 3488.03 109.350   1
   2  -4   4 8321.99 210.500   1
  -2   4  -4 8617.01 194.940   1
  -2   4  -4 8857.38 189.190   1
  -2   4  -4 8631.54 190.570   1
  -2   4  -4 8680.46 245.560   1
  -3   4  -3 5823.52 142.320   1
   3  -4   3 5378.06 164.760   1
  -3   4  -3 6055.36 145.610   1
   3  -4   3 5501.46 145.160   1
  -3   4  -3 5186.96 177.670   1
  -3   3   4 438.140 41.4800   1
  -3   3   4 373.010 39.3800   1
  -3   3   4 393.340 34.9300   1
  -4  -3   2 519.050 48.5100   1
   4   3  -2 611.940 49.7700   1
   4   3  -2 514.180 38.6500   1
  -4  -3   2 579.190 41.0600   1
   4  -1   4 1318.48 69.7900   1
  -4   1  -4 1287.87 62.1000   1
  -4   1  -4 1308.91 59.8200   1
  -4   1   4 41.1000 27.0500   1
  -4   1   4 66.0400 30.7300   1
  -4   1   4 34.5800 25.8200   1
  -5   2   0 11531.1 234.180   1
  -5   2   0 12057.2 246.270   1
   0   2  -6 20145.5 395.050   1
   0  -2   6 20721.2 379.790   1
   0   2  -6 20988.2 417.400   1
  -1   5  -3 4135.46 135.120   1
   1  -5   3 4302.14 129.720   1
   1  -5   3 4117.04 129.410   1
   1  -5   3 3985.17 212.600   1
  -1   5  -3 4574.09 156.430   1
  -2  -5  -1 33.6900 28.9900   1
  -2  -5  -1 20.5400 37.3100   1
  -2   3  -5 4333.98 125.020   1
  -2   3  -5 4179.79 143.070   1
   2  -3   5 4441.79 145.670   1
  -3  -1  -5 911.940 61.8200   1
   3   1   5 978.740 75.5000   1
   3   1   5 884.280 53.0000   1
  -3  -1  -5 732.350 44.6200   1
  -3  -1  -5 842.230 58.9000   1
   5   0  -2 2408.36 94.8800   1
  -5   0   2 2491.81 86.9800   1
  -5   0   2 2429.54 87.0100   1
   2  -5  -2 3000.84 100.670   1
  -2   5   2 3287.79 104.090   1
  -2   5   2 3450.82 119.250   1
  -2   5   2 3232.52 105.000   1
  -2   5   2 3328.79 140.900   1
   2  -5  -2 3406.31 130.630   1
  -5   0  -2 3020.33 102.210   1
  -5   0  -2 2949.66 89.5900   1
   4   1  -4 684.630 45.2500   1
  -4  -1   4 782.740 48.8200   1
   4   1  -4 716.360 57.2600   1
  -4  -1   4 783.010 51.7400   1
  -4  -1   4 763.920 52.8700   1
   4   1  -4 794.340 46.9600   1
   3   3  -4 112.090 38.6600   1
  -3  -3   4 102.220 31.3400   1
   3   3  -4 70.2800 36.4300   1
   3   3  -4 104.520 22.9700   1
  -3  -3   4 100.100 29.9300   1
  -5   2  -1 2849.51 94.0500   1
  -5   2  -1 2849.62 88.1400   1
  -4  -3  -2 456.150 44.7400   1
  -4  -3  -2 523.950 41.7200   1
   4   3   2 516.780 45.9100   1
  -5   1  -2 3118.87 93.0300   1
  -5   1  -2 2963.69 94.9100   1
  -5   1   2 1937.03 77.7900   1
  -5   1   2 1831.03 74.3900   1
  -4   4   0 1845.26 71.4100   1
   4  -4   0 1805.75 88.7400   1
   4  -4   0 1600.75 68.7900   1
  -4   4   0 1761.37 69.0700   1
  -4   4   0 1856.58 72.0800   1
  -5   2   1 1343.90 56.6000   1
  -5   2   1 1414.92 62.7100   1
  -3   4   3 473.810 42.4600   1
  -3   4   3 518.020 48.3800   1
  -1   2  -6 5232.11 171.250   1
  -1   2  -6 4950.31 140.960   1
   4  -3   3 4539.99 133.210   1
  -4   3  -3 4876.89 124.880   1
  -4   3  -3 4895.49 132.420   1
   4  -3   3 4768.31 149.280   1
   0  -5  -3 2187.28 148.070   1
   0  -5  -3 2057.01 95.5600   1
   0  -5  -3 2143.82 110.650   1
   0   5   3 2255.83 93.5800   1
   0   5   3 2207.25 99.1300   1
   0  -5  -3 2286.45 92.8000   1
   1   5  -3 10814.1 239.350   1
  -1  -5   3 11208.3 242.720   1
  -1  -5   3 11906.5 282.620   1
   1   5  -3 11698.4 254.680   1
  -2   0   6 111.160 27.6000   1
   2   0  -6 137.400 31.7500   1
  -2   0   6 92.8700 34.3200   1
   2   0  -6 104.030 28.9400   1
  -2   0   6 123.940 42.5900   1
  -4  -1  -4 1683.50 76.1200   1
  -4  -1  -4 1769.23 67.5600   1
  -4  -1  -4 1530.64 76.8600   1
  -3   2  -5 65.0800 30.4200   1
   3  -2   5 59.3100 20.4100   1
  -3   2  -5 77.7600 24.5800   1
   3  -2   5 55.5200 29.9100   1
   1   2  -6 182.270 46.3100   1
  -1  -2   6 134.660 41.0800   1
  -1  -2   6 154.510 36.9100   1
   1   2  -6 198.950 35.6400   1
  -1  -2   6 190.550 26.6900   1
   1   2  -6 191.100 31.0500   1
   2   3  -5 1344.30 70.2500   1
  -2  -3   5 1186.86 82.5800   1
   2   3  -5 1161.78 62.9700   1
   2   3  -5 1220.34 78.3800   1
  -2  -3   5 1252.52 63.8500   1
  -2   4   4 1473.81 63.2000   1
  -2   4   4 1406.79 66.7100   1
  -2   4   4 1320.87 85.7000   1
  -2   4   4 1379.67 64.9500   1
   0   2   6 676.950 57.0300   1
   0  -2  -6 776.600 104.100   1
   0  -2  -6 719.320 53.9500   1
   0  -2  -6 647.840 49.6500   1
  -2  -4   4 16419.9 477.780   1
   2   4  -4 14997.2 292.170   1
   2   4  -4 15147.1 300.910   1
  -2  -4   4 15862.7 447.770   1
   2   4  -4 14877.6 456.730   1
   2   4  -4 15982.1 441.400   1
   4  -4   1 116.830 50.8400   1
  -4   4  -1 98.3700 23.4200   1
   4  -4   1 61.2600 20.3000   1
  -4   4  -1 78.5500 20.7500   1
   2   0   6 4254.00 236.200   1
  -2   0  -6 4906.66 164.150   1
  -2   0  -6 4680.96 158.400   1
  -2   0  -6 4219.83 161.960   1
  -2   0  -6 4731.26 174.810   1
   2   5  -2 548.960 43.7500   1
   2   5  -2 546.080 47.4500   1
   2   5  -2 568.600 42.4600   1
   2   5  -2 587.600 84.3700   1
  -2  -5   2 616.840 57.4600   1
  -2   3   5 470.400 41.5900   1
  -2   3   5 410.150 40.0200   1
  -2   3   5 386.510 48.8200   1
  -2   3   5 473.460 54.1900   1
   1  -5  -3 193.280 27.0500   1
  -1   5   3 137.800 40.7300   1
   1  -5  -3 230.870 57.9400   1
  -1   5   3 128.230 40.9900   1
  -1   5   3 247.030 34.8000   1
   5   1  -2 79.1300 33.4600   1
  -5  -1   2 31.0900 23.0400   1
  -5  -1   2 18.6600 27.1700   1
  -4   4   1 282.990 36.7000   1
   4  -4  -1 272.600 30.9600   1
  -4   4   1 330.050 36.9100   1
  -4   4   1 315.640 39.3500   1
  -4   3   3 166.320 32.4200   1
  -4   3   3 190.120 28.2800   1
  -4   3   3 157.090 38.4900   1
  -4   3   3 140.650 26.8000   1
   3  -5   0 1475.73 90.5000   1
  -3   5   0 1562.10 72.3300   1
  -3   5   0 1638.78 76.2900   1
   3  -5   0 1519.27 77.3800   1
   2  -1   6 533.270 86.7000   1
  -2   1  -6 695.090 47.9300   1
  -2   1  -6 560.270 56.7500   1
  -2   1  -6 611.330 48.9400   1
  -2  -1   6 271.750 29.5300   1
   2   1  -6 242.770 30.6400   1
   2   1  -6 297.370 37.7900   1
  -2  -1   6 244.270 46.7200   1
  -2  -1   6 312.180 46.3800   1
  -3   2   5 -22.320 20.1300   1
  -3   2   5 31.8900 29.1000   1
  -5  -1  -2 609.660 44.6800   1
  -5  -1  -2 671.450 40.4000   1
   3   3   4 47.8100 29.7500   1
  -3  -3  -4 46.5900 23.3800   1
  -3  -3  -4 42.6300 22.5600   1
  -3  -3  -4 -7.0200 42.7200   1
   4  -2   4 1781.93 90.5100   1
  -4   2  -4 1714.27 73.4100   1
  -4   2  -4 1840.12 86.1200   1
  -1   2   6 1687.46 82.6300   1
  -1   2   6 1637.16 72.2600   1
   1  -2  -6 1398.24 70.4000   1
  -1   2   6 1479.17 88.7200   1
   2  -1  -6 346.230 35.2400   1
  -2   1   6 414.800 53.1000   1
   2  -1  -6 346.610 34.9400   1
  -2   1   6 349.550 35.9900   1
  -2   1   6 358.730 51.9200   1
   5   2   0 33.0800 25.4700   1
  -5  -2   0 43.8900 21.3500   1
  -5  -2   0 32.5800 26.1000   1
  -3  -4   3 914.950 62.6700   1
   3   4  -3 884.290 54.6500   1
   3   4  -3 1014.94 78.6300   1
  -3  -4   3 1021.64 63.6300   1
   3   4  -3 903.290 61.4600   1
   3   4  -3 1024.80 64.6200   1
   3  -5   1 1805.07 91.0200   1
  -3   5  -1 1759.99 78.9400   1
  -3   5  -1 1717.07 76.8000   1
  -3   5  -1 1845.11 88.4800   1
  -3   5  -1 1746.61 77.6000   1
  -3  -2   5 728.780 43.6800   1
   3   2  -5 739.320 48.1000   1
  -3  -2   5 790.150 122.800   1
   3   2  -5 842.100 54.1200   1
   3   2  -5 801.870 57.4200   1
  -4   2   4 757.350 54.1300   1
  -4   2   4 787.120 48.2800   1
  -4   2   4 748.450 54.3000   1
  -4   2   4 739.670 46.7400   1
  -2  -5  -2 450.730 59.2800   1
  -2  -5  -2 487.460 38.2100   1
   2   5   2 538.130 45.9000   1
  -2  -5  -2 425.550 47.2800   1
  -2  -5  -2 501.130 43.4600   1
   2   5   2 551.650 47.4400   1
   2   5   2 513.830 67.2200   1
  -2  -5  -2 466.320 55.8300   1
   0   4  -5 2251.45 116.680   1
   0   4  -5 2315.17 97.8600   1
   0   4  -5 2295.82 113.020   1
  -1  -2  -6 486.950 64.9700   1
  -1  -2  -6 675.580 46.1000   1
  -1  -2  -6 614.830 47.3100   1
  -1  -2  -6 667.450 50.9700   1
   1   2   6 604.820 56.2600   1
  -1  -2  -6 564.340 46.7500   1
  -3   5   1 2027.86 87.4200   1
  -3   5   1 2071.15 83.6700   1
   3  -5  -1 2018.41 92.1400   1
   3  -5  -1 2222.82 122.790   1
  -1  -5  -3 4062.66 143.740   1
  -1  -5  -3 4005.63 186.460   1
  -1  -5  -3 3772.54 168.180   1
  -1  -5  -3 3993.03 135.560   1
  -1  -5  -3 3757.90 145.050   1
   1   5   3 4003.48 152.370   1
   1   5   3 3902.42 151.030   1
  -5  -2   1 77.6600 31.5800   1
  -5  -2   1 48.2300 36.0100   1
   5   2  -1 83.9600 35.8900   1
  -2   5  -3 3.30000 38.9200   1
   2   1   6 175.490 81.4500   1
  -2  -1  -6 153.570 46.8200   1
  -2  -1  -6 155.660 28.7600   1
  -2  -1  -6 125.570 30.6800   1
  -2  -1  -6 126.550 27.7700   1
  -5   2  -2 1855.72 84.4400   1
   5  -2   2 1960.53 103.760   1
  -5   2  -2 1891.17 77.2600   1
  -2  -3  -5 5521.72 179.740   1
  -2  -3  -5 5377.53 191.160   1
  -2  -3  -5 5264.54 173.920   1
  -2  -3  -5 5575.55 205.700   1
  -2  -3  -5 5762.67 228.980   1
  -5   2   2 12084.9 337.190   1
  -5   2   2 12290.5 341.860   1
  -5  -2  -1 629.120 46.0200   1
   5   2   1 735.050 51.9300   1
  -5  -2  -1 647.260 44.2500   1
  -2  -4  -4 3803.13 158.260   1
  -2  -4  -4 3885.77 138.450   1
   2   4   4 3953.52 147.530   1
  -2  -4  -4 3749.66 132.900   1
  -2  -4  -4 3806.28 161.160   1
  -1   4  -5 71.8700 50.3700   1
  -1   4  -5 23.6300 40.9700   1
   4   3  -3 16887.3 461.710   1
  -4  -3   3 16818.7 451.160   1
  -4  -3   3 17236.4 471.340   1
  -4   4  -2 3770.20 132.430   1
   4  -4   2 3223.38 129.860   1
   4  -4   2 3442.02 142.930   1
  -4   4  -2 3830.36 134.700   1
   4   2  -4 4637.31 189.890   1
   4   2  -4 5230.39 171.400   1
  -4  -2   4 5166.41 170.690   1
  -4  -2   4 4773.55 159.790   1
  -3  -2  -5 346.180 51.5100   1
  -3  -2  -5 330.370 32.2200   1
  -3  -2  -5 399.780 42.6900   1
  -3  -2  -5 289.450 32.3700   1
  -3  -4  -3 1261.62 64.0100   1
  -3  -4  -3 1018.16 76.7500   1
  -3  -4  -3 1281.91 66.2900   1
  -3  -4  -3 1280.32 84.1400   1
  -3  -4  -3 1141.50 80.9900   1
   3   4   3 1321.65 69.1300   1
   5   0  -3 5275.29 171.080   1
  -5   0   3 5109.09 162.050   1
  -5   0   3 5400.68 175.320   1
   0   6   0 2886.45 122.630   1
   0   6   0 3182.66 139.570   1
   0  -6   0 3083.03 170.170   1
   0  -6   0 2838.51 126.670   1
   0  -6   0 2806.73 106.160   1
   2  -2   6 2042.55 149.840   1
  -2   2  -6 1952.18 88.1600   1
  -2   2  -6 2078.30 99.0000   1
  -4   4   2 3867.18 132.730   1
   4  -4  -2 3123.26 126.210   1
  -4   4   2 3668.96 126.740   1
  -4   4   2 3608.77 127.340   1
  -5   3   0 192.420 28.3900   1
  -5   3   0 177.150 31.7800   1
  -5   3   0 232.480 29.8400   1
   1   4  -5 232.360 35.4000   1
   1   4  -5 193.130 37.2600   1
   1   4  -5 231.100 30.4900   1
  -1  -4   5 189.810 28.2200   1
  -5   0  -3 9494.03 276.150   1
  -5   0  -3 9256.97 259.340   1
   5   0   3 8964.62 314.870   1
  -3   5  -2 323.470 33.5500   1
   3  -5   2 299.460 35.0200   1
  -3   5  -2 317.540 49.5300   1
  -3   5  -2 295.820 34.5900   1
  -3   5  -2 281.890 36.2200   1
   3  -5   2 254.580 34.4300   1
  -2   5   3 326.260 47.0500   1
  -2   5   3 336.860 37.5600   1
  -2   5   3 325.380 33.3400   1
  -2   5   3 292.570 50.4900   1
   4   4   0 6991.06 225.710   1
   4   4   0 7671.64 225.830   1
  -4  -4   0 8012.42 244.970   1
  -4  -4   0 8383.70 247.010   1
   0   6  -1 1644.07 90.8600   1
   0  -6   1 1662.82 78.2100   1
   0  -6   1 1623.15 118.660   1
   0   6  -1 1650.21 95.7400   1
  -1   6   0 2261.28 90.0100   1
  -1   6   0 2331.69 97.5600   1
  -1   6   0 2413.13 114.340   1
   0  -3   6 192.240 34.9700   1
   0   3  -6 162.560 40.3500   1
   0   3  -6 174.670 46.4400   1
   0   3  -6 94.5100 36.1900   1
   0   5  -4 695.010 64.4300   1
   0   5  -4 587.330 49.0300   1
   0   5  -4 573.760 51.7300   1
   0  -5   4 598.430 56.3700   1
   0  -5   4 552.030 44.2400   1
  -5   1  -3 9597.66 276.980   1
  -5   1  -3 9596.64 270.660   1
  -5   1   3 1060.13 57.6200   1
  -5   1   3 1243.95 65.9100   1
  -4  -3  -3 1236.31 61.5600   1
   4   3   3 1132.43 102.440   1
  -4  -3  -3 1435.15 82.9800   1
   4   3   3 1217.62 63.7700   1
  -4  -2  -4 61.8500 32.1600   1
  -4  -2  -4 8.55000 27.3800   1
  -4  -2  -4 27.0400 40.1000   1
   2   2  -6 2737.32 116.900   1
  -2  -2   6 2189.65 124.740   1
   2   2  -6 2188.01 102.160   1
  -2  -2   6 2667.43 124.740   1
  -2  -2   6 2444.91 98.3100   1
   2   2  -6 2472.48 122.810   1
   1  -6   1 441.910 87.0400   1
  -1   6  -1 513.270 55.1700   1
  -1   6  -1 499.390 40.3100   1
  -5   3  -1 6193.97 190.170   1
  -5   3  -1 6319.11 195.840   1
   5  -3   1 6332.22 216.130   1
  -3   4  -4 95.9100 26.1700   1
   3  -4   4 105.850 29.6700   1
  -3   4  -4 49.5100 17.6800   1
   3  -4   4 99.7600 24.7200   1
   0   4   5 2224.78 107.640   1
   0  -4  -5 2173.52 154.000   1
   0  -4  -5 2341.49 104.850   1
   0   4   5 2233.75 103.680   1
   4   4  -1 140.280 22.5900   1
  -4  -4   1 156.360 41.2000   1
  -4  -4   1 170.370 31.9000   1
   4   4  -1 169.820 38.4900   1
   5   2  -2 87.2200 37.2100   1
  -5  -2   2 89.8600 29.4400   1
  -5  -2   2 135.240 29.5700   1
   2   5  -3 628.640 46.6400   1
   2   5  -3 678.310 59.9400   1
   2   5  -3 668.560 91.8800   1
  -2  -5   3 680.940 50.4300   1
   2   5  -3 582.150 50.1900   1
   0   6   1 5034.06 178.070   1
   0  -6  -1 4521.23 157.010   1
   0  -6  -1 4535.50 156.790   1
   0  -6  -1 4449.14 165.300   1
   0  -6  -1 4675.60 224.140   1
   0  -6  -1 4424.66 156.380   1
   0   6   1 4770.61 176.390   1
  -5   3   1 3969.96 135.520   1
  -5   3   1 4019.73 138.010   1
  -1   5  -4 614.820 58.6000   1
  -1   5  -4 600.710 43.0700   1
   1  -5   4 633.700 81.3400   1
   1  -5   4 543.440 43.4400   1
   1  -5   4 592.110 43.3900   1
  -3  -5   0 106.770 24.2400   1
   3   5   0 104.780 39.4500   1
  -3  -5   0 171.740 47.1200   1
   3   5   0 82.2600 25.6400   1
  -2   2   6 3886.44 178.230   1
   2  -2  -6 3308.91 138.310   1
  -2   2   6 3884.87 147.480   1
  -2   2   6 3993.28 137.450   1
  -3   5   2 932.880 60.5300   1
   3  -5  -2 854.550 64.1000   1
  -3   5   2 882.360 61.9700   1
  -3   5   2 947.780 55.6900   1
  -1   3  -6 3035.32 140.960   1
  -1   3  -6 3209.04 131.410   1
  -1   3  -6 3137.12 121.050   1
  -1   3  -6 3606.55 158.460   1
   5   1  -3 2045.74 88.5000   1
  -5  -1   3 1894.27 85.2200   1
  -5  -1   3 2142.87 94.8900   1
  -3   3  -5 566.220 51.9300   1
   3  -3   5 596.230 49.0700   1
  -3   3  -5 496.590 39.9600   1
  -3   3  -5 526.080 46.6200   1
  -4  -4  -1 224.640 26.9100   1
  -4  -4  -1 183.170 40.9900   1
   4   4   1 236.970 37.5900   1
  -4  -4  -1 300.710 51.5100   1
  -1   6   1 870.290 57.7400   1
   1  -6  -1 890.660 62.2800   1
  -1   6   1 890.390 72.6300   1
   1  -6  -1 875.320 48.0000   1
  -1   6   1 945.190 52.5500   1
  -1   4   5 460.430 41.1600   1
  -1   4   5 443.060 47.8900   1
  -1   4   5 440.450 56.7400   1
  -3  -5   1 9040.12 288.730   1
   3   5  -1 8535.51 260.370   1
  -3  -5   1 9071.85 266.850   1
   3   5  -1 8737.49 262.410   1
  -5  -2  -2 5642.30 188.560   1
  -5  -2  -2 6221.91 189.710   1
   5   2   2 6249.76 195.520   1
   1   6   0 3573.09 145.930   1
  -1  -6   0 3427.62 156.250   1
  -1  -6   0 3797.80 144.050   1
  -1  -6   0 3427.75 128.850   1
   1   6   0 3335.18 143.190   1
  -1  -6   0 3567.07 125.010   1
   1   3  -6 6523.99 343.500   1
   1   3  -6 6058.37 210.740   1
  -1  -3   6 6683.20 247.190   1
   1   3  -6 6522.47 215.860   1
  -5  -1  -3 70.3000 33.7900   1
  -5  -1  -3 40.2600 22.0700   1
  -4   0   5 1018.83 84.3700   1
  -4   0   5 1123.08 65.5800   1
  -4   0   5 1218.40 62.4900   1
   4   0  -5 1094.83 64.4700   1
  -4   0   5 1123.74 61.6600   1
  -1  -5   4 51.3700 23.0500   1
   1   5  -4 62.9400 45.2300   1
  -1  -6   1 176.780 58.8500   1
  -1  -6   1 185.760 31.9900   1
   1   6  -1 180.350 38.6000   1
  -3  -5  -1 4800.61 173.550   1
  -3  -5  -1 4748.05 199.040   1
  -3  -5  -1 4988.62 157.780   1
   3   5   1 5024.01 167.660   1
   3   5   1 4452.65 154.530   1
   4  -3   4 3062.38 139.670   1
  -4   3  -4 3218.34 115.420   1
  -4   3  -4 3129.63 112.920   1
  -2  -2  -6 1006.74 74.6300   1
  -2  -2  -6 999.560 58.7700   1
  -2  -2  -6 1133.89 60.1200   1
  -2  -2  -6 1041.10 69.7600   1
  -2   4  -5 71.6300 25.7400   1
  -2   4  -5 6.74000 51.0800   1
  -2   4  -5 90.1600 24.5500   1
   0   6  -2 392.080 57.9800   1
   0   6  -2 374.470 36.4500   1
   0  -6   2 332.950 36.4100   1
   0  -6   2 346.990 55.9100   1
   0  -6   2 368.630 36.8100   1
  -3   4   4 4891.00 159.950   1
  -3   4   4 5239.56 183.390   1
   0  -3  -6 251.590 86.4800   1
   0  -3  -6 258.620 34.3500   1
   0   3   6 235.860 53.9900   1
   4   0   5 3712.82 144.880   1
  -4   0  -5 4110.84 146.840   1
  -4   0  -5 4061.84 135.560   1
   4   0   5 3472.33 154.500   1
  -1  -4  -5 376.140 34.9900   1
  -1  -4  -5 403.320 77.7600   1
  -1  -4  -5 381.700 51.7000   1
  -1  -4  -5 383.530 40.3800   1
   1   4   5 359.540 57.7600   1
   1   4   5 311.520 31.9200   1
  -3   0   6 2003.29 98.8700   1
   3   0  -6 1911.27 93.4600   1
  -3   0   6 1701.47 111.960   1
   3   0  -6 1696.30 82.4300   1
  -3   0   6 1882.89 84.5800   1
  -5   2  -3 5520.75 171.920   1
  -5   2  -3 5737.47 183.120   1
   0  -5  -4 61.1300 46.8900   1
   0  -5  -4 16.4900 67.3100   1
   0   5   4 48.2400 44.0700   1
   0  -5  -4 9.31000 28.7600   1
   0   0   7 284.270 56.7200   1
   0   0  -7 211.610 29.2900   1
   0   0  -7 260.980 65.2700   1
   0   0   7 274.570 43.3800   1
   0   0  -7 282.270 39.8400   1
   0   0  -7 268.010 44.6100   1
   4  -1   5 11180.0 339.890   1
  -4   1  -5 11908.0 334.650   1
   4  -1   5 11208.5 324.220   1
  -4   1  -5 11595.6 318.640   1
   2   5   3 7943.01 261.320   1
  -2  -5  -3 8442.00 245.930   1
  -2  -5  -3 7574.10 272.630   1
  -2  -5  -3 8141.49 240.980   1
  -2  -5  -3 8242.72 276.340   1
   2   5   3 8470.80 253.750   1
  -2  -5  -3 8670.39 299.450   1
  -3   3   5 784.660 52.8900   1
  -3   3   5 859.800 55.1000   1
  -3   3   5 888.690 58.3300   1
   1  -6   2 1450.55 139.820   1
   1  -6   2 1293.08 74.1200   1
   1  -6   2 1275.46 68.3900   1
  -1   6  -2 1455.25 73.9600   1
  -1   6  -2 1616.98 98.2400   1
  -4   1   5 21093.8 228.300   1
  -4   1   5 20456.0 242.200   1
  -4   1   5 18757.2 516.170   1
   4  -1  -5 19665.8 520.840   1
  -4   1   5 20698.8 223.370   1
   1   6   1 169.220 40.5500   1
   1   6   1 166.740 44.8100   1
  -1  -6  -1 154.900 26.1900   1
  -1  -6  -1 174.430 50.8900   1
  -1  -6  -1 218.470 29.1800   1
  -1  -6  -1 166.570 29.4800   1
  -4  -4   2 10717.3 314.130   1
   4   4  -2 10357.8 295.040   1
  -4  -4   2 10823.2 315.970   1
  -5   2   3 2115.54 91.1000   1
  -5   2   3 2160.99 91.2300   1
   3   0   6 15.5800 48.4300   1
  -3   0  -6 29.5000 31.1900   1
  -3   0  -6 31.1000 25.3400   1
   5  -3   2 508.830 63.3900   1
  -5   3  -2 575.030 44.8300   1
  -5   3  -2 599.870 41.1400   1
  -2   6   0 3597.81 156.430   1
  -2   6   0 3321.84 123.090   1
  -2   6   0 3287.36 114.970   1
   2  -6   0 3250.43 128.770   1
   4  -4   3 834.140 60.8100   1
  -4   4  -3 921.090 52.9500   1
  -4   4  -3 927.080 52.1600   1
   4  -4   3 828.480 58.1000   1
   3   3  -5 1029.98 64.4700   1
   3   3  -5 1026.52 64.3700   1
  -3  -3   5 1057.58 67.1500   1
  -3  -3   5 1148.25 62.1600   1
   3   3  -5 921.700 79.9500   1
  -1   3   6 3824.08 134.830   1
  -1   3   6 3478.95 135.550   1
  -1   3   6 3495.91 144.320   1
  -4   3   4 371.610 45.3000   1
  -4   3   4 368.630 47.9100   1
  -4   3   4 379.090 40.2300   1
  -4   3   4 379.030 40.7900   1
  -4  -1   5 3007.48 122.410   1
   4   1  -5 2984.70 115.800   1
   4   1  -5 2841.53 127.480   1
  -4  -1   5 3241.46 120.540   1
  -1   5   4 578.100 56.6300   1
  -1   5   4 598.750 40.9600   1
   1  -5  -4 508.520 52.7500   1
  -1   5   4 505.000 51.1800   1
   0   1  -7 258.500 45.8000   1
   0   1  -7 254.950 44.2300   1
   0  -1   7 250.630 44.8000   1
   0  -1   7 263.820 40.0300   1
   0   1  -7 256.890 38.7800   1
  -3   1  -6 220.060 40.7900   1
   3  -1   6 187.290 47.9700   1
  -3   1  -6 214.530 30.6400   1
   3  -1   6 204.800 28.7400   1
   3   4  -4 27.4600 20.5600   1
   3   4  -4 9.16000 38.4700   1
   3   4  -4 24.1100 42.3600   1
   3   4  -4 12.3100 16.7600   1
  -5   3   2 -9.5300 21.7200   1
  -5   3   2 43.5600 32.5400   1
  -2   6  -1 1370.53 86.8000   1
  -2   6  -1 1215.88 63.0800   1
  -2   6  -1 1278.24 66.9500   1
   3   5  -2 113.690 30.0900   1
  -3  -5   2 143.180 32.5500   1
   3   5  -2 104.530 23.7700   1
  -3   1   6 3646.89 124.910   1
  -3   1   6 4008.53 152.740   1
   3  -1  -6 3736.11 139.310   1
  -3   1   6 3700.17 163.020   1
   5   3   0 191.370 39.3300   1
  -5  -3   0 193.090 41.3100   1
  -5  -3   0 250.250 33.8000   1
   3   1  -6 661.120 47.7500   1
  -3  -1   6 475.170 58.8800   1
   3   1  -6 576.740 47.1800   1
  -3  -1   6 623.120 44.8700   1
  -3  -1   6 646.810 58.0000   1
   0  -6  -2 90.2900 26.4400   1
   0   6   2 126.920 39.4900   1
   0  -6  -2 357.660 94.8900   1
   0   6   2 124.220 38.8800   1
   0  -6  -2 118.220 27.8400   1
   1   0  -7 297.240 33.2300   1
  -1   0   7 333.990 33.1500   1
  -1   0   7 370.720 40.3800   1
   1   0  -7 301.980 31.2000   1
  -1   0   7 399.060 58.3900   1
   1   0  -7 308.490 38.3400   1
  -3   5  -3 1896.84 82.9900   1
   3  -5   3 1763.54 85.3600   1
  -3   5  -3 1997.05 82.4000   1
  -3   5  -3 1906.08 83.3400   1
   3  -5   3 1622.91 93.6100   1
  -1   0  -7 127.740 24.6500   1
  -1   0  -7 123.040 40.7500   1
  -1   0  -7 138.570 26.6200   1
  -1   0  -7 186.640 39.3100   1
  -1   0  -7 118.060 45.3100   1
  -2   5  -4 8160.23 170.520   1
   2  -5   4 7702.83 175.610   1
  -2   5  -4 8442.34 175.130   1
  -2   5  -4 8341.42 218.430   1
  -1  -3  -6 3183.29 150.720   1
  -1  -3  -6 2926.16 103.090   1
  -1  -3  -6 2984.68 131.920   1
  -1  -3  -6 2954.58 91.7300   1
   1   3   6 3031.27 115.010   1
   2   4  -5 177.400 28.5700   1
   2   4  -5 171.810 27.1600   1
  -2  -4   5 211.210 33.3200   1
   2   4  -5 189.690 53.5000   1
   2   4  -5 208.660 36.5900   1
  -2  -4   5 160.870 40.2000   1
  -4  -4  -2 20048.0 658.660   1
   4   4   2 20426.5 640.690   1
   0  -1  -7 462.640 83.9000   1
   0  -1  -7 436.520 39.3100   1
   0   1   7 666.770 57.9300   1
   0  -1  -7 527.880 50.4500   1
   0  -1  -7 578.090 52.0400   1
  -1   6   2 3072.35 100.510   1
   1  -6  -2 2496.95 88.1200   1
  -1   6   2 2889.32 85.9200   1
  -1   6   2 2830.01 109.800   1
   1  -6  -2 2950.42 105.600   1
  -1  -6   2 386.630 61.7900   1
  -1  -6   2 439.480 34.6900   1
   1   6  -2 512.560 60.4300   1
  -5  -3   1 821.810 51.9300   1
  -5  -3   1 761.620 49.2000   1
   5   3  -1 596.620 47.9000   1
  -2   6   1 41.6300 22.8100   1
  -2   6   1 3.98000 28.1000   1
  -2   6   1 14.9700 50.3100   1
  -4  -1  -5 6355.76 143.340   1
  -4  -1  -5 6887.83 174.780   1
  -4  -1  -5 5717.46 176.980   1
  -4   4   3 26.4400 31.0700   1
  -4   4   3 19.7000 24.9900   1
  -2   4   5 1037.58 67.1800   1
  -2   4   5 1109.90 63.3000   1
  -2   4   5 1089.89 52.5400   1
  -2   4   5 1184.06 68.8000   1
  -2   4   5 1100.76 86.1600   1
  -1   1  -7 74.2700 46.6800   1
  -1   1  -7 40.2900 33.2100   1
  -2   3  -6 442.680 41.9000   1
  -2   3  -6 441.160 52.5700   1
   1   5   4 157.120 29.8300   1
  -1  -5  -4 202.870 43.5900   1
  -1  -5  -4 154.000 54.8100   1
  -1  -5  -4 143.670 27.4000   1
   1   5   4 198.180 45.0000   1
  -1  -5  -4 188.650 36.1700   1
  -1  -1   7 148.650 24.3600   1
   1   1  -7 180.780 27.7900   1
   1   1  -7 172.470 34.2000   1
  -1  -1   7 204.170 56.5900   1
  -5  -3  -1 218.670 33.7600   1
  -5  -3  -1 222.750 35.6400   1
   5   3   1 211.430 39.4100   1
  -4  -3   4 3214.72 114.630   1
  -4  -3   4 3273.63 113.620   1
   4   3  -4 3168.69 100.730   1
   5   2  -3 193.520 39.0400   1
  -5  -2   3 134.850 31.8000   1
  -5  -2   3 174.960 35.0800   1
  -3  -1  -6 1140.91 64.2300   1
  -3  -1  -6 1424.73 63.2300   1
  -3  -1  -6 1505.44 74.9800   1
   3   1   6 1303.41 105.520   1
  -3  -5  -2 19.1800 23.5100   1
   3   5   2 -5.5100 30.2900   1
   3   5   2 -1.4100 24.7200   1
  -3  -5  -2 -14.370 44.5200   1
   3   5   2 42.9800 47.0000   1
  -3  -5  -2 51.3300 23.6300   1
  -4   2  -5 -42.860 27.2200   1
   4  -2   5 -6.3100 27.3400   1
  -1   1   7 741.150 59.5300   1
   1  -1  -7 574.800 46.1500   1
   1  -1  -7 631.190 53.3400   1
  -1   1   7 646.660 64.1900   1
   1  -1  -7 536.770 44.3800   1
   4  -5   0 494.950 60.3200   1
  -4   5   0 509.350 43.8800   1
  -4   5   0 550.340 38.9000   1
   4  -5   0 479.190 38.4900   1
  -4   5   0 531.320 38.6900   1
  -3  -3  -5 1314.91 76.6800   1
  -3  -3  -5 1131.23 58.7100   1
  -3  -3  -5 1157.93 58.3500   1
  -3  -3  -5 1104.18 64.6000   1
  -5   0   4 -5.4900 35.2600   1
   5   0  -4 20.3400 23.7300   1
  -5   0   4 19.3200 21.5300   1
  -3   5   3 12123.2 212.350   1
  -3   5   3 12205.3 237.860   1
  -3   5   3 12275.8 229.320   1
  -3  -4  -4 4073.53 142.100   1
  -3  -4  -4 4273.27 114.710   1
   3   4   4 4454.95 119.810   1
  -3  -4  -4 3948.40 134.130   1
  -3  -4  -4 4517.79 116.820   1
  -1  -1  -7 1886.22 92.3800   1
  -1  -1  -7 1848.57 88.2300   1
  -1  -1  -7 2210.28 124.580   1
  -1  -1  -7 2142.01 89.0200   1
   1   1   7 2124.96 99.2100   1
  -1  -1  -7 2067.13 80.6000   1
  -1  -1  -7 2079.28 117.060   1
  -2  -3   6 656.750 43.8000   1
   2   3  -6 614.740 47.2900   1
   2   3  -6 608.760 54.9100   1
   2   3  -6 681.620 50.1400   1
  -1  -6  -2 50.2200 67.5100   1
  -1  -6  -2 16.7500 30.1800   1
  -1  -6  -2 41.4500 25.9000   1
   1   6   2 37.4700 25.7200   1
  -2   6  -2 7876.10 154.230   1
  -2   6  -2 8097.00 220.000   1
  -2   6  -2 8005.84 164.240   1
  -4   5  -1 7.07000 20.2700   1
   4  -5   1 15.3200 15.6800   1
  -4   5  -1 7.02000 30.1800   1
  -4   5  -1 36.3600 28.9300   1
  -6   0   0 812.640 48.0800   1
  -6   0   0 751.390 43.8700   1
  -3   2  -6 2559.80 90.8600   1
   3  -2   6 2710.66 100.740   1
  -3   2  -6 2512.27 107.030   1
  -3   2  -6 2738.05 90.5100   1
   3  -2   6 2649.36 120.340   1
  -4   2   5 -13.120 20.4600   1
  -4   2   5 12.9200 35.4700   1
  -4   2   5 17.7500 17.5900   1
  -4   2   5 13.3300 21.0700   1
  -5  -2  -3 42.3300 28.3700   1
  -5  -2  -3 -0.0900 29.4300   1
  -5   0  -4 746.550 53.3700   1
  -5   0  -4 787.070 44.7800   1
   0   2  -7 3637.16 125.460   1
   0   2  -7 3831.42 113.030   1
   0   2  -7 4097.07 144.480   1
   0  -2   7 3450.11 115.450   1
   2   6   0 2515.52 97.2500   1
  -2  -6   0 2728.08 92.0000   1
  -2  -6   0 2497.42 117.770   1
  -2  -6   0 2623.78 93.0100   1
  -2  -6   0 2481.75 114.890   1
   2   6   0 2527.66 105.760   1
  -6   1   0 45.1300 31.8400   1
  -6   1   0 42.1400 24.0400   1
  -5   1  -4 130.700 33.5800   1
  -5   1  -4 115.140 32.2700   1
   0   6  -3 1504.50 73.1100   1
   0  -6   3 1590.43 69.1800   1
   0  -6   3 1331.01 69.8500   1
   0   6  -3 1550.25 91.3800   1
   0   6  -3 1630.96 89.6200   1
   0  -6   3 1412.07 71.4400   1
  -5   1   4 10.0200 21.7600   1
  -2   5   4 2088.04 122.230   1
  -2   5   4 2076.95 91.0900   1
  -2   5   4 1932.21 87.0100   1
  -2   5   4 2036.99 72.7900   1
   4  -5  -1 31.5200 22.4200   1
  -4   5   1 41.6600 22.9000   1
   4  -5  -1 -38.370 37.0500   1
  -4   5   1 16.9800 22.2900   1
  -4   5   1 34.9100 24.4800   1
   2   5  -4 467.430 83.9300   1
   2   5  -4 437.590 41.7400   1
   2   5  -4 471.420 42.6900   1
   2   5  -4 499.540 50.0100   1
  -2  -5   4 435.800 43.7500   1
  -2   3   6 12.3200 34.2600   1
  -2   3   6 72.4600 39.7100   1
  -2   3   6 31.1700 27.3300   1
  -2  -6   1 0.58000 30.3600   1
   2   6  -1 26.9100 38.3500   1
  -2  -6   1 -28.610 46.4300   1
  -5  -3   2 286.030 31.5700   1
   5   3  -2 241.860 41.3100   1
  -5  -3   2 269.310 34.5800   1
  -6   0   1 4226.71 109.570   1
  -6   0   1 4253.73 111.280   1
  -6   0   1 4348.29 112.390   1
  -4  -3  -4 5873.50 154.660   1
  -4  -3  -4 6323.33 141.170   1
   4   3   4 6507.90 156.250   1
   4   2  -5 67.2900 25.2200   1
   4   2  -5 67.8400 32.1100   1
  -4  -2   5 56.8700 25.7600   1
   4   2  -5 85.5300 26.0100   1
  -4  -2   5 65.0700 28.7500   1
  -1   6  -3 -20.470 37.3200   1
   1  -6   3 17.5600 23.4700   1
  -6   0  -1 39.9400 34.8100   1
  -6   0  -1 88.2800 32.0800   1
  -2  -4  -5 426.800 55.4400   1
   2   4   5 486.540 43.9500   1
  -2  -4  -5 382.750 46.6000   1
  -2  -4  -5 445.340 38.9000   1
   2   4   5 375.630 58.8000   1
  -2  -4  -5 442.890 41.8800   1
  -5   4   0 839.080 46.6500   1
  -5   4   0 771.280 48.6300   1
  -3   2   6 1747.18 92.3900   1
  -3   2   6 1824.11 68.3700   1
  -3   2   6 2047.84 88.4400   1
  -4  -4   3 1422.72 76.7700   1
  -4  -4   3 1472.16 77.1800   1
   4   4  -3 1316.18 61.3700   1
  -3  -2   6 62.1900 40.4000   1
   3   2  -6 47.2500 26.9800   1
  -3  -2   6 24.3400 24.8800   1
   3   2  -6 19.6700 25.7400   1
  -5  -1   4 944.910 50.4800   1
  -5  -1   4 1080.03 60.4600   1
   5   1  -4 1040.46 54.6500   1
  -6   1   1 16503.8 266.360   1
  -6   1   1 17579.2 276.900   1
  -6   1  -1 19057.9 596.140   1
  -6   1  -1 18676.7 288.590   1
  -5   3  -3 377.310 31.9100   1
  -5   3  -3 415.040 40.4100   1
  -1   2  -7 167.720 36.8700   1
  -1   2  -7 222.100 48.0400   1
  -2   6   2 4851.76 115.900   1
   2  -6  -2 5148.57 169.530   1
  -2   6   2 4986.40 138.390   1
  -2   6   2 4930.89 172.090   1
   0   4  -6 4808.57 164.300   1
   0   4  -6 5432.72 142.730   1
   0   4  -6 5214.56 158.640   1
  -2  -6  -1 1.28000 40.8500   1
   2   6   1 109.020 39.0100   1
  -2  -6  -1 68.7200 22.9500   1
   2   6   1 51.9500 28.4100   1
  -2  -6  -1 66.4200 30.2000   1
  -2  -6  -1 53.2000 23.3300   1
  -5   4  -1 821.520 48.0000   1
  -5   4  -1 821.980 45.7400   1
   5  -4   1 786.810 72.5500   1
   2   0  -7 106.130 31.6400   1
   2   0  -7 67.7000 24.8200   1
  -2   0   7 57.1500 24.2000   1
  -2   0   7 54.8200 33.9600   1
  -2   0   7 75.5800 42.9900   1
  -1  -2   7 257.730 50.0600   1
   1   2  -7 203.780 44.3700   1
   3   5  -3 745.210 54.6200   1
  -3  -5   3 866.890 59.1800   1
   3   5  -3 891.880 61.4600   1
   0   5  -5 -5.6400 51.0300   1
   0   5  -5 39.5900 25.3900   1
   5   3   2 133.470 35.9300   1
  -5  -3  -2 164.160 33.9000   1
  -5  -3  -2 128.180 25.2500   1
   6   1   0 94.4400 39.0300   1
  -6  -1   0 86.1700 33.1100   1
  -6  -1   0 140.800 37.8500   1
  -5   4   1 1303.55 62.8500   1
  -5   4   1 1295.06 61.3800   1
  -5   4   1 1194.53 56.0200   1
  -2   0  -7 124.610 37.8700   1
  -2   0  -7 112.370 28.6400   1
  -2   0  -7 122.510 27.5200   1
  -2   0  -7 151.230 36.2100   1
   0   2   7 41.3400 47.2200   1
   0  -2  -7 91.6900 60.0200   1
   0  -2  -7 67.3900 28.0100   1
  -5  -1  -4 399.380 39.3200   1
  -5  -1  -4 394.800 34.4300   1
  -5   3   3 -51.370 21.4100   1
  -5   3   3 10.9800 31.9000   1
  -5   3   3 -5.8700 25.0900   1
   3  -4   5 1270.06 75.8700   1
  -3   4  -5 1382.11 62.3600   1
  -3   4  -5 1293.36 64.4000   1
   3  -4   5 1225.38 75.2000   1
  -4   5  -2 270.640 36.7300   1
  -4   5  -2 322.040 31.6300   1
   4  -5   2 284.390 31.7100   1
  -4   5  -2 361.940 34.4500   1
  -1   4  -6 747.450 70.9400   1
  -1   4  -6 542.100 50.6800   1
  -1   4  -6 616.820 43.6000   1
  -1  -6   3 16.7000 22.9300   1
   1   6  -3 7.83000 32.2700   1
  -1  -6   3 -15.070 38.8200   1
  -2   1  -7 878.710 63.8700   1
  -2   1  -7 898.430 58.5200   1
  -2   1  -7 1073.50 54.6300   1
  -1   5  -5 7411.39 215.540   1
  -1   5  -5 7909.53 212.980   1
   1  -5   5 7448.38 184.160   1
   1  -5   5 7468.64 223.540   1
  -1   5  -5 7565.03 180.310   1
  -2  -3  -6 2237.87 107.210   1
  -2  -3  -6 2173.68 84.6600   1
  -2  -3  -6 2163.46 100.800   1
  -2  -3  -6 2194.34 81.9200   1
  -4  -2  -5 1420.07 70.5300   1
  -4  -2  -5 1492.67 66.1600   1
  -4  -2  -5 1256.03 78.8200   1
   6   1  -1 3838.52 110.280   1
  -6  -1   1 4076.34 114.140   1
  -6  -1   1 4039.74 115.740   1
  -2  -1   7 1878.87 92.7100   1
  -2  -1   7 1509.79 107.690   1
  -2  -1   7 1699.10 69.5400   1
   2   1  -7 1862.84 83.3700   1
   2   1  -7 1544.96 71.6300   1
   0   6   3 199.990 41.6600   1
   0  -6  -3 440.200 165.010   1
   0  -6  -3 182.840 30.6200   1
   0   6   3 185.920 44.6200   1
  -5   2  -4 58.4800 24.2700   1
  -5   2  -4 15.7700 28.8400   1
  -3   6   0 4057.01 106.450   1
  -3   6   0 3785.14 102.300   1
   3  -6   0 3689.27 114.700   1
  -3   6   0 4097.89 154.100   1
  -3   6   0 3955.22 120.370   1
  -6   2   0 15202.9 253.230   1
  -6   2   0 14077.9 235.870   1
   4   4   3 2058.03 130.650   1
  -4  -4  -3 2329.85 81.4800   1
  -4  -4  -3 2130.20 99.9100   1
   4   4   3 2271.24 82.5200   1
  -6  -1  -1 4591.78 110.800   1
  -6  -1  -1 4492.95 118.890   1
  -1   2   7 60.8800 41.8800   1
  -1   2   7 176.060 58.7200   1
  -1   2   7 49.7900 27.6200   1
   2  -1  -7 3629.82 131.380   1
  -2   1   7 4402.00 135.710   1
  -2   1   7 4073.91 181.180   1
  -2   1   7 4170.67 112.120   1
   2  -1  -7 4134.64 133.310   1
   2   6  -2 3643.41 122.420   1
   2   6  -2 3296.75 111.520   1
  -2  -6   2 3744.86 123.180   1
  -3  -2  -6 2980.28 114.660   1
  -3  -2  -6 3016.41 95.7100   1
  -3  -2  -6 3043.71 97.5000   1
  -3  -2  -6 2889.78 122.400   1
  -1   6   3 110.570 41.8300   1
   1  -6  -3 139.830 31.7600   1
  -1   6   3 151.810 44.1000   1
  -1   6   3 133.180 35.0600   1
   1  -6  -3 186.160 60.8900   1
  -4   4  -4 2337.39 81.7000   1
   4  -4   4 2099.26 96.0900   1
  -4   4  -4 2309.70 79.7000   1
  -2  -5  -4 167.980 42.6600   1
  -2  -5  -4 165.420 33.4600   1
   2   5   4 164.530 29.9900   1
   2   5   4 265.750 51.6500   1
  -2  -5  -4 145.740 28.6400   1
  -2  -5  -4 168.710 47.2900   1
  -1  -4   6 849.550 57.2100   1
  -1  -4   6 934.950 67.0000   1
   1   4  -6 1007.11 65.8600   1
   1   4  -6 985.710 63.6600   1
   1   4  -6 918.940 67.5600   1
  -5   2   4 137.880 26.2800   1
  -5   2   4 135.790 29.9700   1
  -5   2   4 94.8200 33.0200   1
  -3   6  -1 108.580 29.6900   1
  -3   6  -1 116.860 29.8300   1
   3  -6   1 86.6400 21.4700   1
  -3   6  -1 92.1500 54.8400   1
  -6   0   2 890.730 52.3600   1
  -6   0   2 773.470 52.8600   1
   6   0  -2 940.120 57.0500   1
   4  -5  -2 21.7100 23.5600   1
  -4   5   2 63.3000 36.2800   1
  -4   5   2 34.7300 23.8700   1
  -6   0  -2 8.26000 27.4900   1
  -6   0  -2 45.4300 38.1300   1
  -1  -5   5 1774.39 79.8700   1
   1   5  -5 1660.38 82.1300   1
   1   5  -5 1890.24 90.5700   1
  -1  -5   5 1563.95 77.3000   1
   1   2   7 5452.50 158.500   1
  -1  -2  -7 5507.01 204.550   1
  -1  -2  -7 5092.33 139.230   1
  -1  -2  -7 4928.33 174.130   1
  -1  -2  -7 5041.24 132.590   1
  -6   2  -1 300.450 40.5100   1
  -6   2  -1 379.690 33.5200   1
  -6   2   1 1166.75 55.9800   1
  -6   2   1 1332.99 62.0500   1
  -6   1   2 3733.51 100.800   1
  -6   1   2 3527.28 96.5300   1
  -6   1  -2 4832.56 119.940   1
  -6   1  -2 4963.83 115.370   1
  -2  -1  -7 318.280 41.5600   1
  -2  -1  -7 337.120 36.5300   1
  -2  -1  -7 348.340 36.6100   1
  -2  -1  -7 360.000 44.0900   1
  -2  -1  -7 333.870 35.9400   1
   3   5   3 309.950 38.3200   1
  -3  -5  -3 290.300 58.3500   1
  -3  -5  -3 265.970 37.4300   1
  -3  -5  -3 207.190 45.8600   1
  -3  -5  -3 240.190 28.7700   1
   4  -3   5 1937.47 89.9700   1
  -4   3  -5 1802.73 72.5800   1
  -4   3  -5 1782.62 112.990   1
  -4   3  -5 2254.17 80.1700   1
   3  -5   4 2266.32 88.6100   1
  -3   5  -4 2358.56 87.7700   1
  -3   5  -4 2438.43 79.9100   1
   3  -5   4 2076.96 89.7100   1
  -3   5  -4 2536.94 87.7900   1
  -2   6  -3 230.650 35.1100   1
  -2   6  -3 267.050 60.0200   1
   2  -6   3 187.750 26.1300   1
   3  -6  -1 390.520 41.4200   1
  -3   6   1 342.540 49.6700   1
  -3   6   1 399.530 41.4200   1
  -3   6   1 418.550 46.6900   1
  -3   6   1 361.510 35.2600   1
   3  -6  -1 262.990 68.5800   1
  -5   4  -2 138.700 29.0900   1
   5  -4   2 117.960 40.9200   1
  -5   4  -2 177.830 34.6400   1
  -3   4   5 124.230 26.8100   1
  -3   4   5 54.8700 31.2000   1
  -3   4   5 83.1600 27.7700   1
   0   4   6 27.8300 49.1100   1
   0  -4  -6 37.5700 78.6300   1
   0  -4  -6 -21.710 25.0100   1
  -4  -5   0 -7.5100 29.7700   1
   4   5   0 2.03000 24.4700   1
  -4  -5   0 20.5100 25.0200   1
  -2  -6  -2 3834.69 110.510   1
  -2  -6  -2 3679.05 138.280   1
  -2  -6  -2 3730.56 111.230   1
   2   6   2 3373.70 117.260   1
   2   6   2 3788.65 112.510   1
  -1  -6  -3 48.8000 50.6500   1
  -1  -6  -3 31.4100 43.2300   1
  -1  -6  -3 56.4800 34.1000   1
   3  -3   6 286.130 41.5000   1
  -3   3  -6 339.720 37.4000   1
  -3   3  -6 349.570 35.5300   1
   3  -3   6 323.960 38.6800   1
  -4   4   4 6450.54 139.070   1
  -4   4   4 6329.39 148.270   1
  -5   4   2 910.670 53.3200   1
  -5   4   2 844.970 51.9800   1
  -5   4   2 835.500 48.5000   1
  -5  -2   4 305.700 40.1900   1
  -5  -2   4 290.310 39.9800   1
   5   2  -4 267.660 38.7900   1
  -5  -3   3 831.920 54.9400   1
  -5  -3   3 736.890 47.6800   1
   5   3  -3 651.670 57.8400   1
   0  -5  -5 6244.27 188.920   1
   0  -5  -5 5826.31 218.170   1
   0   5   5 5634.16 155.890   1
   0  -5  -5 6089.20 149.820   1
   0   5   5 5715.51 157.260   1
  -2   2  -7 34.3800 32.6600   1
  -2   2  -7 37.3100 40.5200   1
   3   4  -5 261.980 48.4700   1
  -3  -4   5 323.620 37.8200   1
   3   4  -5 281.120 31.1900   1
  -3  -4   5 327.480 45.9200   1
   3   4  -5 317.840 43.2200   1
  -4  -5   1 5466.59 148.080   1
  -4  -5   1 5288.61 144.860   1
  -4  -5   1 4708.43 219.400   1
  -4  -5   1 5599.06 138.880   1
   4   5  -1 5473.11 132.970   1
  -6  -1   2 113.590 27.9900   1
  -6  -1   2 112.790 24.7400   1
   6   1  -2 85.3400 38.7400   1
  -1   4   6 950.580 54.1600   1
  -1   4   6 1044.82 66.2300   1
  -4   3   5 1533.25 75.7300   1
  -4   3   5 1282.00 74.6100   1
  -4   3   5 1331.19 66.4400   1
   0   3  -7 1178.51 68.6600   1
   0   3  -7 1191.29 70.8700   1
   0  -3   7 1065.64 73.6900   1
  -1   5   5 5.64000 41.9000   1
  -1   5   5 71.8100 24.9700   1
  -4   0   6 5843.93 157.930   1
  -4   0   6 5634.79 136.930   1
  -4   0   6 5925.97 152.350   1
   4   0  -6 5941.86 144.490   1
   3  -6   2 4168.00 138.870   1
  -3   6  -2 4815.85 175.000   1
  -3   6  -2 4578.15 117.660   1
  -3   6  -2 4409.24 117.730   1
  -6  -1  -2 232.030 28.9500   1
  -6  -1  -2 277.490 41.2100   1
  -2   5  -5 2214.76 87.2100   1
   2  -5   5 2080.93 92.7700   1
  -2   5  -5 1981.62 97.5000   1
  -2   5  -5 2000.34 77.9100   1
  -2  -2   7 106.500 45.7000   1
   2   2  -7 125.230 36.4600   1
   2   2  -7 98.3900 31.9100   1
  -2  -2   7 110.750 23.0900   1
  -2   4  -6 210.780 28.0600   1
  -2   4  -6 283.420 59.9700   1
  -2   4  -6 265.850 32.3700   1
   4   5   1 658.230 45.0100   1
  -4  -5  -1 600.290 52.9200   1
  -4  -5  -1 423.590 58.9000   1
  -4  -5  -1 575.600 38.0400   1
  -6  -2   0 2502.06 105.040   1
  -6  -2   0 2808.38 101.920   1
   6   2   0 2690.96 105.420   1
   0   6  -4 347.500 36.4400   1
   0  -6   4 347.850 52.6600   1
   0   6  -4 299.470 44.4600   1
   0   6  -4 346.580 60.3300   1
   0  -6   4 333.590 37.1800   1
  -2   6   3 162.980 28.7700   1
  -2   6   3 207.800 35.0700   1
  -2   6   3 216.080 46.7400   1
   2  -6  -3 228.060 48.4500   1
  -4   0  -6 2275.92 103.710   1
  -4   0  -6 2318.48 93.4600   1
   4   0   6 1831.56 94.5200   1
  -5  -4   0 675.250 45.1200   1
  -5  -4   0 625.950 58.4300   1
   5   4   0 653.310 54.5600   1
  -3   5   4 1690.06 86.5500   1
  -3   5   4 1528.08 76.6100   1
  -3   5   4 1712.99 80.3000   1
  -6   2  -2 2513.36 96.7200   1
  -6   2  -2 2327.28 97.6200   1
   6  -2   2 1798.38 120.510   1
  -1   3  -7 577.350 51.0200   1
  -1   3  -7 624.920 69.0000   1
  -1   3  -7 591.470 50.5100   1
  -5  -2  -4 1561.11 88.2200   1
  -5  -2  -4 1702.77 74.3000   1
  -4   1  -6 294.180 38.3400   1
   4  -1   6 231.210 30.5800   1
  -4   1  -6 221.290 36.0200   1
   4  -1   6 257.060 46.9200   1
  -4   1  -6 206.350 43.3500   1
   5   3   3 3830.77 135.970   1
  -5  -3  -3 3678.01 125.120   1
  -5  -3  -3 3745.25 145.230   1
   5   3   3 3311.26 183.850   1
   1   4   6 616.090 58.6900   1
  -1  -4  -6 349.470 76.6500   1
  -1  -4  -6 503.790 43.0200   1
  -1  -4  -6 465.500 68.6400   1
  -1  -4  -6 481.990 47.5000   1
  -6   2   2 50.8500 34.6500   1
  -6   2   2 29.0200 30.8500   1
  -2   2   7 30.5700 47.0800   1
  -2   2   7 13.0500 47.2000   1
  -2   2   7 -12.220 27.5300   1
  -4   1   6 0.12000 29.6500   1
  -4   1   6 6.83000 29.0300   1
   4  -1  -6 31.3800 30.2500   1
   4   3  -5 2205.25 130.080   1
  -4  -3   5 2890.31 127.380   1
   4   3  -5 2219.99 102.510   1
  -4  -3   5 2713.42 112.620   1
   4   3  -5 2632.80 102.090   1
  -3   3   6 235.620 33.6000   1
  -3   3   6 163.720 36.6100   1
  -3   3   6 215.100 35.6300   1
  -6  -2   1 1598.90 72.9200   1
   6   2  -1 1446.92 72.0500   1
  -6  -2   1 1591.66 74.7300   1
   3   3  -6 2121.37 99.4500   1
  -3  -3   6 2443.34 117.070   1
   3   3  -6 2325.53 100.280   1
  -3  -3   6 2320.78 99.6800   1
   3   3  -6 2008.79 114.630   1
   1  -6   4 67.0400 23.0600   1
  -1   6  -4 64.2300 20.7800   1
   1  -6   4 67.2100 23.7100   1
  -1   6  -4 -81.430 52.9700   1
  -5  -4   1 211.780 44.1200   1
   5   4  -1 279.190 42.7400   1
  -5  -4   1 208.970 34.8500   1
  -4  -1   6 113.660 25.8700   1
   4   1  -6 156.520 36.5400   1
  -4  -1   6 119.100 29.2100   1
  -4  -1   6 144.790 34.9600   1
  -1  -5  -5 1007.89 83.8900   1
  -1  -5  -5 862.240 87.8600   1
   1   5   5 931.870 72.3600   1
   1   5   5 778.410 56.8100   1
  -1  -5  -5 886.290 51.6500   1
  -1  -5  -5 862.880 58.2300   1
  -1  -5  -5 1048.85 103.820   1
  -4  -4   4 3506.41 135.060   1
  -4  -4   4 3639.09 152.710   1
   4   4  -4 3616.09 129.320   1
  -1  -3   7 -44.540 44.8800   1
  -2  -6   3 24.6300 30.5800   1
   2   6  -3 27.5900 41.4900   1
  -3   6   2 4407.47 175.360   1
  -3   6   2 4671.96 162.880   1
  -3   6   2 4713.13 168.440   1
  -3   6   2 4585.52 150.140   1
   3  -6  -2 4932.93 197.590   1
   6   2   1 2057.20 92.9100   1
  -6  -2  -1 2142.29 86.9700   1
  -6  -2  -1 2113.48 99.6400   1
  -4  -5   2 123.810 27.7300   1
  -4  -5   2 113.960 32.1400   1
   4   5  -2 91.4200 39.1300   1
   5   4   1 359.380 43.4700   1
  -5  -4  -1 330.450 37.9800   1
  -5  -4  -1 342.790 42.5600   1
  -5   3  -4 2064.28 82.1500   1
  -5   3  -4 2191.60 90.3100   1
   5   0  -5 579.450 48.5500   1
  -5   0   5 544.030 43.0800   1
  -5   0   5 584.350 49.1500   1
   3   6   0 2659.83 110.570   1
   3   6   0 2499.50 118.030   1
  -3  -6   0 2802.05 114.120   1
  -3  -6   0 2393.80 128.540   1
  -3  -6   0 2709.01 129.060   1
   2   4  -6 1785.14 93.8600   1
  -2  -4   6 1818.49 104.360   1
   2   4  -6 1544.40 80.0700   1
   2   4  -6 1591.30 88.7600   1
  -2  -4   6 1707.77 85.2800   1
   2   4  -6 1608.81 108.490   1
   3   5  -4 29.7500 40.7200   1
   3   5  -4 9.00000 44.4700   1
  -3  -5   4 18.5400 31.1000   1
   3   5  -4 11.6700 23.9600   1
   3   5  -4 14.2100 21.2900   1
  -6   3   0 676.900 52.8500   1
  -6   3   0 697.380 49.3600   1
   6   0  -3 490.720 46.1100   1
  -6   0   3 530.740 47.4600   1
  -6   0   3 420.000 39.3100   1
  -2  -2  -7 206.000 34.7700   1
  -2  -2  -7 248.990 34.1300   1
  -2  -2  -7 252.090 35.8100   1
  -2  -2  -7 177.180 44.1600   1
   3   4   5 148.740 33.4500   1
  -3  -4  -5 120.670 35.1500   1
  -3  -4  -5 234.570 56.9800   1
  -3  -4  -5 160.680 36.0500   1
  -3  -4  -5 170.200 36.3200   1
  -3  -6   1 197.520 38.9900   1
   3   6  -1 173.840 29.5400   1
   3   6  -1 151.010 42.5400   1
   0  -7   0 2.49000 31.4900   1
   0  -7   0 56.3100 41.0300   1
   0   7   0 68.5100 30.3600   1
   0   7   0 36.0300 43.2800   1
   0  -7   0 65.1200 80.1800   1
   0  -3  -7 1993.05 144.020   1
   0   3   7 1825.75 98.6700   1
   0  -3  -7 1769.31 86.3000   1
   3   0  -7 1700.15 84.9000   1
   3   0  -7 1557.32 84.7000   1
  -3   0   7 1845.20 85.3600   1
  -3   0   7 1913.12 97.9700   1
  -3   0   7 1543.97 111.020   1
  -4   5   3 5303.08 175.200   1
  -4   5   3 5104.71 174.160   1
  -5   0  -5 3055.70 118.390   1
  -5   0  -5 3278.89 117.500   1
  -2  -5   5 711.230 62.9700   1
   2   5  -5 901.910 60.1700   1
   2   5  -5 669.760 92.0900   1
   2   5  -5 670.270 63.5200   1
  -6   0  -3 218.940 30.3200   1
  -6   0  -3 205.700 38.0200   1
   6   0   3 205.110 46.9900   1
   1   6  -4 7823.73 251.480   1
   1   6  -4 7364.83 247.160   1
  -1  -6   4 6981.12 222.060   1
  -1  -6   4 7773.88 257.080   1
  -4  -1  -6 344.860 36.3900   1
  -4  -1  -6 330.610 51.8900   1
  -6   1   3 2435.20 97.0800   1
  -6   1   3 2275.93 90.4100   1
  -5   1  -5 5712.57 179.080   1
  -5   1  -5 5805.48 180.080   1
  -6   1  -3 5329.90 169.480   1
   6  -1   3 5080.30 215.530   1
  -6   1  -3 5338.02 171.690   1
  -5   1   5 16.5400 26.7500   1
  -5   1   5 5.49000 33.0000   1
  -5   1   5 -8.4600 35.2700   1
  -5   4  -3 88.7900 25.7400   1
  -5   4  -3 68.0900 30.1800   1
  -1   7   0 43.8500 29.5000   1
   1  -7   0 90.3500 131.850   1
  -1   7   0 6.97000 35.0500   1
  -6   3  -1 9176.34 262.240   1
  -6   3  -1 9248.88 157.030   1
  -5   3   4 377.750 43.0200   1
  -5   3   4 301.930 46.6900   1
  -5   3   4 344.520 42.1800   1
   0  -7   1 4140.26 149.780   1
   0   7  -1 4095.07 151.700   1
   0   7  -1 4077.70 159.950   1
   0  -7   1 4149.75 188.110   1
   0  -7   1 3821.82 159.900   1
  -2   4   6 6087.04 198.850   1
  -2   4   6 5735.52 194.530   1
  -2   4   6 5978.11 183.810   1
  -3   0  -7 7105.72 209.800   1
   3   0   7 6042.08 284.240   1
  -3   0  -7 6737.49 214.900   1
  -6   3   1 5728.96 174.840   1
  -6   3   1 5713.85 178.210   1
  -2   5   5 2012.07 91.1000   1
  -2   5   5 1824.28 139.720   1
  -2   5   5 1699.83 112.200   1
  -2   5   5 1875.71 88.9200   1
  -3  -6  -1 782.710 51.8000   1
  -3  -6  -1 748.880 50.1400   1
  -3  -6  -1 570.150 56.5400   1
   3   6   1 633.730 60.6400   1
   3   6   1 729.220 57.6000   1
  -3  -6  -1 693.940 70.6400   1
   4  -2   6 677.840 49.0400   1
  -4   2  -6 764.720 50.0600   1
  -4   2  -6 737.530 55.3700   1
   4  -2   6 653.080 60.2000   1
  -4   2  -6 619.770 68.7200   1
  -1   7  -1 597.350 59.8900   1
  -1   7  -1 600.520 49.9500   1
   1  -7   1 713.140 115.780   1
   4   5   2 2864.02 114.180   1
  -4  -5  -2 2513.55 115.230   1
  -4  -5  -2 2595.79 96.5300   1
   3  -1   7 525.320 81.9100   1
  -3   1  -7 455.420 47.5900   1
  -3   1  -7 410.240 43.7900   1
  -1   3   7 2152.60 101.560   1
  -1   3   7 2153.98 101.340   1
  -1   3   7 2230.02 91.1700   1
  -5  -1   5 31.2400 38.5500   1
  -5  -1   5 26.2400 31.1800   1
   5   1  -5 29.9800 23.7100   1
  -4  -3  -5 2164.40 100.200   1
  -4  -3  -5 2342.41 95.9500   1
   5   4  -2 1805.84 79.8500   1
  -5  -4   2 1851.33 85.3400   1
  -5  -4   2 1995.45 95.9000   1
  -6  -2   2 3313.70 133.920   1
  -6  -2   2 3256.71 113.430   1
   6   2  -2 3332.32 123.290   1
  -3  -1   7 964.700 54.8900   1
  -3  -1   7 1079.85 77.2000   1
  -3  -1   7 841.320 74.5000   1
   3   1  -7 1013.53 80.4000   1
   3   1  -7 779.730 66.5400   1
   0  -6  -4 15.5200 29.6200   1
   0  -6  -4 51.5700 56.3700   1
   0  -6  -4 -34.680 66.9400   1
   0   6   4 -4.1900 44.3000   1
   0   6   4 48.4200 33.3900   1
  -3   1   7 1887.27 95.5000   1
   3  -1  -7 1815.85 91.2100   1
  -3   1   7 1641.86 103.700   1
  -3   1   7 1833.33 85.1000   1
   0  -7  -1 1453.10 82.6200   1
   0   7   1 1661.75 93.4600   1
   0   7   1 1549.14 86.4100   1
   0  -7  -1 1489.98 77.5600   1
   0  -7  -1 1715.70 82.4400   1
   0  -7  -1 1682.40 123.860   1
   4   4   4 994.790 56.8300   1
  -4  -4  -4 1191.92 64.0400   1
  -4  -4  -4 1156.69 77.1900   1
   6   1  -3 771.730 58.2000   1
  -6  -1   3 815.730 58.1500   1
  -6  -1   3 768.060 51.6000   1
  -3  -3  -6 91.9000 32.8100   1
  -3  -3  -6 75.7000 27.2500   1
  -3  -3  -6 41.1100 47.5100   1
  -3  -3  -6 57.9800 27.9100   1
  -2  -6  -3 187.230 32.8800   1
  -2  -6  -3 214.090 39.3800   1
   2   6   3 172.590 35.2100   1
  -2  -6  -3 189.580 41.8300   1
  -2  -6  -3 203.130 65.9200   1
  -5   4   3 82.5100 33.6300   1
  -5   4   3 -1.5400 32.8300   1
  -5   4   3 61.1100 31.5200   1
  -1   6   4 4405.10 161.310   1
  -1   6   4 3638.00 148.260   1
   1  -6  -4 3966.94 161.900   1
   1  -6  -4 4258.58 165.850   1
   1  -7  -1 1301.38 77.0000   1
  -1   7   1 1443.13 85.9200   1
   1  -7  -1 1610.29 134.230   1
  -1   7   1 1460.90 77.6200   1
   1  -7  -1 1358.49 77.5400   1
  -3   6  -3 1.93000 57.6300   1
  -3   6  -3 48.2600 29.1600   1
  -4   2   6 169.300 33.4100   1
  -4   2   6 150.090 46.2100   1
  -4   2   6 213.580 29.6900   1
   1   3   7 3695.83 144.250   1
  -1  -3  -7 3879.74 144.480   1
  -1  -3  -7 3544.81 160.700   1
  -1  -3  -7 3697.62 130.280   1
   2  -6   4 6777.60 221.200   1
  -2   6  -4 8106.94 283.180   1
  -2   6  -4 7751.28 231.240   1
  -2   6  -4 7716.13 243.450   1
  -6  -2  -2 1510.82 69.0000   1
  -6  -2  -2 1323.60 72.5200   1
   6   2   2 1490.02 80.3600   1
   0   0   8 21.3100 54.8600   1
   0   0  -8 1.03000 39.3000   1
  -2   3  -7 8719.09 283.300   1
  -2   3  -7 8972.17 265.280   1
  -5  -1  -5 431.410 49.8900   1
  -5  -1  -5 432.620 45.5200   1
  -6  -1  -3 1775.58 88.3600   1
  -6  -1  -3 1815.70 76.8700   1
   3   6  -2 2247.25 109.330   1
   3   6  -2 2544.05 108.840   1
  -3  -6   2 2668.89 115.790   1
  -1  -7   0 -3.2300 47.2200   1
  -1  -7   0 -10.040 31.6300   1
   1   7   0 18.7600 44.2800   1
  -5   5   0 69.1400 24.8100   1
  -5   5   0 108.850 34.5900   1
   5  -5   0 -26.540 55.9300   1
  -5   5   0 68.5700 33.5600   1
  -4  -2   6 2888.96 116.620   1
   4   2  -6 3105.01 123.120   1
  -4  -2   6 3009.79 117.570   1
  -5  -4  -2 356.660 53.6700   1
   5   4   2 490.080 49.2700   1
  -5  -4  -2 472.540 38.5900   1
  -3  -5  -4 1028.25 55.4700   1
  -3  -5  -4 1088.14 60.3700   1
  -3  -5  -4 891.420 75.2900   1
   3   5   4 1014.38 58.0500   1
  -3  -1  -7 2959.60 130.370   1
  -3  -1  -7 2911.14 110.320   1
  -3  -1  -7 2434.49 126.290   1
   0  -1   8 66.2100 28.2500   1
   0   1  -8 29.0400 40.2600   1
   0  -1   8 154.760 56.7800   1
   0   1  -8 38.8700 39.8400   1
  -5   2  -5 1154.39 64.6200   1
  -5   2  -5 1124.51 61.3200   1
  -6   2  -3 185.950 30.3700   1
  -6   2  -3 210.000 28.5600   1
   6  -2   3 184.220 54.9400   1
  -1  -7   1 3559.58 152.290   1
  -1  -7   1 3782.30 140.540   1
   1   7  -1 4227.06 176.590   1
   0   7  -2 3192.13 132.190   1
   0  -7   2 2668.11 130.050   1
   0  -7   2 2913.62 141.650   1
   0   7  -2 2869.41 122.860   1
   0  -7   2 3189.14 115.630   1
  -5  -3   4 1873.49 87.5400   1
  -5  -3   4 1891.65 95.2100   1
   5   3  -4 1902.13 82.1100   1
   4  -4   5 1045.66 78.4000   1
  -4   4  -5 1236.37 63.5400   1
  -4   4  -5 1183.83 67.3500   1
   2   4   6 4.98000 36.9500   1
  -2  -4  -6 38.8000 31.7000   1
  -2  -4  -6 39.0300 40.9200   1
  -2  -4  -6 -90.350 56.9300   1
  -2  -4  -6 -17.180 30.1800   1
  -6   3  -2 2041.70 81.8100   1
  -6   3  -2 2226.23 93.0500   1
   6  -3   2 2156.18 115.590   1
  -5   5  -1 4052.46 132.980   1
  -5   5  -1 3883.71 128.540   1
   5  -5   1 4119.83 165.030   1
  -5   5  -1 4216.37 141.720   1
  -6   2   3 978.010 60.8400   1
  -6   2   3 921.560 58.3600   1
   1  -7   2 628.210 103.060   1
   1  -7   2 601.970 48.2400   1
  -1   7  -2 571.860 44.5600   1
  -1   7  -2 674.880 73.8300   1
   4  -6   0 176.830 27.3000   1
  -4   6   0 181.740 29.1500   1
  -4   6   0 144.320 28.5800   1
  -4   6   0 117.790 32.5000   1
   4  -6   0 120.840 62.5000   1
   1   0  -8 113.030 25.0000   1
  -1   0   8 250.930 53.5800   1
  -1   0   8 164.890 43.2800   1
   1   0  -8 128.340 27.7500   1
   1   0  -8 111.090 25.1700   1
   1   0  -8 338.210 104.440   1
   0   5  -6 1216.08 76.5300   1
   0   5  -6 1247.06 85.5700   1
   0   5  -6 935.220 75.5200   1
   2   3  -7 2751.92 123.490   1
  -2  -3   7 2634.73 135.190   1
  -2  -3   7 2656.04 110.660   1
   2   3  -7 2430.45 129.490   1
  -5   2   5 391.730 54.1300   1
  -5   2   5 363.150 36.4000   1
  -5   2   5 347.830 49.6400   1
  -1  -6  -4 149.620 57.1400   1
   1   6   4 22.1100 28.1800   1
  -1  -6  -4 65.7700 43.7500   1
   1   6   4 33.8900 45.4000   1
  -1  -6  -4 -52.980 32.7600   1
  -1   0  -8 5609.56 192.480   1
  -1   0  -8 6009.79 229.090   1
  -1   0  -8 5725.25 190.880   1
  -1   0  -8 5385.57 208.410   1
  -2   7   0 86.4400 26.1400   1
  -2   7   0 101.070 43.9900   1
  -2   7   0 28.6600 32.6200   1
  -3   2  -7 952.520 73.8400   1
  -3   2  -7 950.510 58.4000   1
  -3   2  -7 817.530 71.7900   1
   3  -2   7 931.310 94.4200   1
  -6   3   2 163.750 30.7500   1
  -6   3   2 94.5800 27.5000   1
  -4  -5   3 8270.18 254.180   1
  -4  -5   3 7982.39 292.870   1
   4   5  -3 8887.38 263.310   1
  -5   5   1 7153.41 215.180   1
  -5   5   1 6959.14 213.220   1
  -5   5   1 7293.83 216.870   1
   5  -5  -1 6712.19 221.970   1
  -2  -5  -5 1341.49 72.4400   1
   2   5   5 1563.89 87.6700   1
  -2  -5  -5 1455.19 76.0100   1
  -2  -5  -5 1277.08 90.7200   1
   2   5   5 1492.43 77.1800   1
  -2  -5  -5 1363.55 91.9100   1
   0  -1  -8 647.060 57.6700   1
   0   1   8 621.120 72.9500   1
   0  -1  -8 427.960 37.8600   1
   0  -1  -8 704.490 87.6500   1
  -1  -7  -1 7379.72 260.290   1
   1   7   1 7912.79 257.110   1
  -1  -7  -1 7059.94 218.620   1
   1   7   1 7569.57 247.380   1
  -1  -7  -1 6985.69 224.060   1
  -1  -7  -1 7522.86 226.190   1
  -3   5  -5 204.510 29.9100   1
  -3   5  -5 226.210 31.8400   1
  -3   5  -5 212.240 31.6900   1
  -3   5  -5 312.350 66.5200   1
   3  -5   5 192.390 32.9100   1
  -4   6  -1 222.940 30.3800   1
  -4   6  -1 270.090 40.8400   1
  -4   6  -1 228.970 34.7300   1
   4  -6   1 197.800 31.0600   1
  -3   6   3 1059.53 66.3600   1
  -3   6   3 1152.37 69.5600   1
  -3   6   3 998.620 60.7100   1
   3  -6  -3 999.310 74.1600   1
  -3   6   3 1151.45 85.3100   1
  -3   4  -6 862.860 55.4300   1
   3  -4   6 881.640 61.3700   1
  -3   4  -6 914.210 64.8400   1
   3  -4   6 856.290 66.7700   1
  -1   1  -8 726.690 60.5500   1
  -1   1  -8 776.540 66.3100   1
  -1   1  -8 810.370 66.3400   1
  -1   1  -8 773.380 62.8100   1
  -1   1  -8 940.190 76.8300   1
  -2   7  -1 44.1000 30.7300   1
  -2   7  -1 -20.210 55.8900   1
   1   1  -8 272.590 37.5100   1
  -1  -1   8 460.310 64.5800   1
   1   1  -8 258.140 34.0800   1
   1   1  -8 337.760 86.6300   1
  -1  -1   8 357.470 49.4600   1
  -1   5  -6 6354.50 203.320   1
  -1   5  -6 5249.85 204.770   1
  -1   5  -6 6304.00 222.630   1
   3   6   2 570.200 49.2200   1
  -3  -6  -2 508.350 67.4500   1
  -3  -6  -2 472.380 39.6500   1
  -3  -6  -2 420.980 47.8500   1
  -3  -6  -2 471.080 41.8600   1
  -2   3   7 113.740 40.4400   1
  -2   3   7 39.9900 28.5400   1
  -2   3   7 78.1100 41.4200   1
   4  -6  -1 1.87000 41.7000   1
  -4   6   1 0.31000 34.6600   1
  -4   6   1 40.2500 25.6700   1
   4  -6  -1 27.1400 21.2000   1
   6   3   0 263.010 45.2800   1
  -6  -3   0 231.590 30.7000   1
  -6  -3   0 188.430 44.6000   1
  -4   5  -4 38.6100 24.0600   1
  -4   5  -4 77.3500 23.9400   1
   4  -5   4 57.9600 28.6200   1
   4  -5   4 38.0200 25.3600   1
  -4   5  -4 39.0500 23.8500   1
  -3  -2   7 522.400 41.7000   1
   3   2  -7 440.200 46.7400   1
   3   2  -7 519.780 51.0500   1
  -3  -2   7 523.410 58.4000   1
   0  -7  -2 1250.03 123.020   1
   0   7   2 1357.03 79.2400   1
   0   7   2 1334.91 80.5000   1
   0  -7  -2 1029.08 57.8400   1
   0  -7  -2 1224.68 70.7900   1
   0  -7  -2 1324.01 68.9000   1
  -4  -2  -6 1305.58 68.8600   1
  -4  -2  -6 1203.78 75.7500   1
  -1   1   8 115.310 42.2900   1
   1  -1  -8 66.2600 24.0200   1
  -1   1   8 27.7000 41.7100   1
  -3   2   7 213.820 35.7000   1
  -3   2   7 167.270 40.5700   1
  -3   2   7 188.790 39.0100   1
  -5  -2   5 5698.55 188.340   1
   5   2  -5 5828.91 183.340   1
  -5  -2   5 5647.19 190.360   1
  -2   7   1 4759.50 202.180   1
  -2   7   1 4890.27 161.760   1
  -2   7   1 4930.02 163.640   1
   2  -7  -1 4946.74 180.910   1
   2  -7  -1 4506.15 168.260   1
   2  -6  -4 822.010 70.7500   1
  -2   6   4 907.490 54.6300   1
  -2   6   4 939.090 68.7000   1
  -2   6   4 923.020 75.8200   1
   0  -4   7 1772.24 97.2700   1
   0   4  -7 1786.59 86.1800   1
   0   4  -7 1784.98 105.100   1
   2   6  -4 499.680 102.240   1
  -2  -6   4 616.230 51.3300   1
   2   6  -4 537.990 46.6100   1
   2   6  -4 606.210 62.0700   1
  -1   7   2 1748.40 88.0200   1
   1  -7  -2 1554.91 164.600   1
  -1   7   2 1633.30 106.310   1
   1  -7  -2 1662.18 89.2700   1
   1   7  -2 2456.08 93.3700   1
  -1  -7   2 2375.02 106.110   1
  -1  -7   2 2367.84 99.6100   1
   5   3   4 1330.86 93.0600   1
  -5  -3  -4 1276.02 83.9700   1
  -5  -3  -4 1258.76 89.7700   1
  -4   4   5 101.600 27.8700   1
  -4   4   5 115.560 46.3700   1
  -4   4   5 166.520 36.8800   1
  -6  -3   1 3449.35 100.300   1
  -6  -3   1 3454.65 92.0500   1
   6   3  -1 3388.74 102.190   1
   1   5  -6 21.7900 36.7100   1
  -1  -1  -8 1840.52 100.460   1
  -1  -1  -8 1621.13 99.4300   1
  -1  -1  -8 1540.68 114.240   1
   1   1   8 1840.22 96.5500   1
  -1  -1  -8 1671.40 73.6400   1
  -1  -1  -8 1442.86 100.300   1
  -1  -1  -8 1759.44 72.9700   1
  -5  -4   3 714.490 65.2900   1
  -5  -4   3 713.320 58.5500   1
   5   4  -3 733.660 58.4900   1
   6   2  -3 150.220 43.1900   1
  -6  -2   3 100.560 30.5700   1
  -6  -2   3 125.400 38.2000   1
  -5   5  -2 1697.10 63.6300   1
  -5   5  -2 1868.35 66.7000   1
   0   2  -8 2365.12 104.170   1
   0  -2   8 2401.15 101.800   1
   0   2  -8 2329.35 99.3900   1
   0   2  -8 2576.76 87.3900   1
   6   3   1 1913.11 73.0900   1
  -6  -3  -1 1953.34 69.3000   1
  -6  -3  -1 1767.72 73.0800   1
  -4   3  -6 8.36000 35.8300   1
   4  -3   6 43.5300 29.9100   1
  -4   3  -6 2.15000 25.4300   1
  -4   3  -6 12.2100 29.5000   1
  -1   4  -7 73.3200 33.8200   1
  -1   4  -7 30.9300 50.8200   1
   4   5   3 555.550 74.6700   1
   4   5   3 629.360 53.2200   1
  -4  -5  -3 626.050 68.2700   1
  -4  -5  -3 684.250 55.4200   1
   0   6  -5 768.060 72.4500   1
   0   6  -5 680.670 68.6100   1
   0  -6   5 659.150 58.0200   1
   0  -6   5 765.770 66.4200   1
   0   6  -5 757.150 76.3100   1
  -6   0   4 12248.3 175.480   1
  -6   0   4 11970.2 191.990   1
   6   0  -4 12387.7 197.080   1
  -4   6  -2 300.920 38.8700   1
  -4   6  -2 193.180 35.2300   1
  -4   6  -2 191.890 34.9600   1
  -4   6  -2 216.690 33.9200   1
   4  -6   2 185.980 27.5300   1
  -2   7  -2 3154.40 84.8200   1
  -2   7  -2 3039.61 129.580   1
  -2   7  -2 3108.87 94.8700   1
  -2  -3  -7 1032.13 113.290   1
  -2  -3  -7 1048.28 95.2100   1
  -2  -3  -7 936.820 69.2700   1
  -2  -3  -7 881.920 73.0600   1
  -3  -6   3 742.450 66.2100   1
   3   6  -3 555.420 57.6000   1
   3   6  -3 663.820 58.8300   1
   1  -6   5 1528.44 121.810   1
   1  -6   5 1486.46 99.4200   1
  -1   6  -5 1760.89 92.2500   1
  -1   6  -5 1630.98 77.4800   1
  -1   6  -5 1517.98 112.890   1
  -5   4  -4 1857.04 68.0300   1
  -5   4  -4 1958.86 69.6600   1
  -5   5   2 959.830 72.6500   1
  -5   5   2 827.220 63.4200   1
  -5   5   2 869.740 62.3700   1
  -6   1   4 -16.550 33.8400   1
  -6   1   4 32.3700 26.4000   1
  -6   0  -4 2032.10 76.9600   1
  -6   0  -4 2232.72 84.6000   1
  -3   4   6 1327.97 95.0700   1
  -3   4   6 1415.41 101.570   1
  -3   4   6 1571.73 65.4400   1
  -3   4   6 1328.12 95.0300   1
  -3   5   5 3152.85 141.600   1
  -3   5   5 3251.91 112.970   1
  -3   5   5 3154.08 92.4000   1
  -3   5   5 3260.15 102.580   1
  -6   1  -4 0.86000 31.2900   1
  -6   1  -4 22.6800 22.8600   1
   1   4  -7 40.5300 53.9300   1
   1   4  -7 -2.2100 31.4900   1
   3   4  -6 1198.09 110.570   1
  -3  -4   6 1442.73 97.1600   1
   3   4  -6 1277.29 92.1100   1
  -3  -4   6 1469.30 119.020   1
   3   4  -6 1518.60 105.830   1
  -1   2  -8 645.530 60.4100   1
  -1   2  -8 734.520 76.0500   1
  -5  -2  -5 3101.98 97.9300   1
  -5  -2  -5 3072.68 91.2600   1
  -6  -2  -3 -37.620 28.7400   1
  -6  -2  -3 -17.920 40.5500   1
  -4   5   4 46.9000 30.2700   1
  -4   5   4 -6.7400 23.6900   1
  -4  -4   5 273.540 46.1800   1
  -4  -4   5 274.510 42.0800   1
   4   4  -5 259.210 38.5100   1
   0   7  -3 398.310 54.5500   1
   0   7  -3 333.440 62.8800   1
   0   7  -3 380.660 45.5800   1
   0  -7   3 346.230 43.1000   1
   0  -7   3 402.260 70.5700   1
  -6   4   0 3075.61 91.8300   1
  -6   4   0 2744.17 86.0200   1
  -1  -7  -2 2712.75 94.7500   1
   1   7   2 2951.37 116.190   1
  -1  -7  -2 3316.75 137.340   1
   1   7   2 3170.94 111.880   1
  -1  -7  -2 3032.37 96.4200   1
  -1  -7  -2 2945.20 97.4500   1
  -3  -2  -7 34.0400 35.9100   1
  -3  -2  -7 54.3600 32.7300   1
  -3  -2  -7 25.0700 42.2000   1
   1   2  -8 495.570 52.7500   1
   1   2  -8 562.450 60.9000   1
  -1  -2   8 565.560 73.3700   1
   1   2  -8 538.380 78.4900   1
  -1  -2   8 478.100 54.2200   1
   2   0  -8 1264.06 89.6300   1
  -2   0   8 1212.80 115.880   1
  -2   0   8 1170.45 93.0700   1
  -2   0   8 1290.81 89.0300   1
   2   0  -8 920.560 72.5500   1
   0  -5  -6 138.550 105.090   1
   0   5   6 134.340 53.8100   1
   0  -5  -6 127.590 42.8500   1
  -2  -7   0 12.9400 32.0800   1
  -2  -7   0 -39.240 53.0100   1
   2   7   0 6.43000 45.5900   1
   1  -7   3 8065.50 177.630   1
  -1   7  -3 7485.64 159.410   1
   1  -7   3 8451.52 261.560   1
  -1   7  -3 8139.12 211.320   1
   5   4   3 286.430 48.5600   1
   5   4   3 209.890 44.4300   1
  -5  -4  -3 158.750 48.6100   1
  -5  -4  -3 175.730 36.0000   1
   2  -5   6 895.710 116.890   1
   2  -5   6 878.120 81.4500   1
  -2   5  -6 870.740 68.8600   1
  -2   5  -6 753.670 88.4300   1
   3   5  -5 39.3500 48.5300   1
   3   5  -5 61.8700 32.1500   1
  -3  -5   5 115.960 32.0400   1
   3   5  -5 93.6900 30.8800   1
  -4   3   6 -4.8200 44.8700   1
  -4   3   6 9.65000 30.5700   1
  -6   3  -3 881.050 63.6000   1
  -6   3  -3 1064.68 75.7900   1
  -5   3  -5 3501.91 104.260   1
  -5   3  -5 3412.75 94.7900   1
   4  -6  -2 2011.70 89.8800   1
   4  -6  -2 2312.53 108.850   1
  -4   6   2 2410.27 80.7800   1
  -4   6   2 2356.78 95.3600   1
  -4   6   2 2588.73 88.4100   1
  -2   0  -8 837.500 75.9300   1
  -2   0  -8 790.400 67.6700   1
  -2   0  -8 887.500 70.1800   1
  -2   0  -8 812.020 75.2300   1
  -2   0  -8 880.540 82.0700   1
  -6   4  -1 235.890 30.3700   1
  -6   4  -1 242.830 30.8500   1
   6  -4   1 248.650 53.9500   1
  -6  -3   2 36.5400 38.1900   1
  -6  -3   2 11.6300 24.3700   1
   6   3  -2 3.51000 26.1900   1
   0   2   8 53.8900 57.4600   1
   0  -2  -8 -56.150 71.9300   1
  -2  -7   1 302.520 43.3500   1
   2   7  -1 292.220 42.2900   1
   2   7  -1 326.390 53.3100   1
  -2  -7   1 336.590 61.0000   1
  -6  -1   4 789.280 63.4100   1
  -6  -1   4 894.550 71.0400   1
   6   1  -4 723.980 62.7600   1
  -1   5   6 3756.35 121.320   1
   1  -5  -6 3212.15 177.350   1
   1  -5  -6 3672.68 114.120   1
  -3   6  -4 1651.72 114.800   1
  -3   6  -4 1581.57 70.7800   1
  -3   6  -4 1749.71 66.6600   1
   3  -6   4 1493.05 104.590   1
  -2   1  -8 560.580 60.9500   1
  -2   1  -8 605.480 80.6000   1
  -2   1  -8 546.450 58.3500   1
  -2   1  -8 647.240 58.8200   1
  -6   4   1 25.2900 25.3000   1
  -6   4   1 -8.2300 32.7400   1
   1   6  -5 6.81000 34.2800   1
  -1  -6   5 -1.8600 20.8000   1
  -2   7   2 1148.75 80.5900   1
  -2   7   2 1126.18 82.7900   1
  -2   7   2 1165.44 103.310   1
  -2  -1   8 2950.21 164.740   1
  -2  -1   8 3681.00 120.110   1
  -2  -1   8 3870.52 117.950   1
   2   1  -8 3879.86 118.570   1
   2   1  -8 3259.87 118.230   1
  -5   4   4 985.190 71.7600   1
  -5   4   4 1017.91 70.0400   1
  -5   4   4 1011.99 70.4500   1
  -6   3   3 5094.56 114.250   1
  -6   3   3 5101.02 116.690   1
  -6   3   3 5262.40 124.060   1
   2   6   4 1858.03 91.2400   1
   2   6   4 1705.37 72.2000   1
  -2  -6  -4 1872.86 73.8400   1
  -2  -6  -4 1692.51 75.7700   1
  -2  -6  -4 1789.50 93.9900   1
  -4  -3   6 2604.04 104.960   1
  -4  -3   6 2691.10 102.970   1
   4   3  -6 2035.08 119.820   1
   4   3  -6 2554.30 82.1600   1
  -3   3  -7 138.960 35.6800   1
  -2   1   8 -33.920 47.3800   1
  -2   1   8 48.7400 20.7300   1
  -2   1   8 27.2900 30.6900   1
   0   4   7 4029.81 134.730   1
   0  -4  -7 4165.75 115.960   1
   0  -4  -7 3810.28 176.960   1
  -1   2   8 3434.25 105.940   1
  -1   2   8 3168.44 108.210   1
   1  -2  -8 2870.08 178.150   1
  -2  -7  -1 158.660 36.8200   1
  -2  -7  -1 162.300 28.5400   1
  -2  -7  -1 178.020 26.0900   1
   2   7   1 179.550 31.5900   1
  -2  -7  -1 238.760 59.3100   1
   2   7   1 190.270 42.1800   1
  -6  -3  -2 210.570 44.7100   1
  -6  -3  -2 240.250 30.2900   1
   6   3   2 199.310 34.1000   1
  -5   3   5 358.540 44.9400   1
  -5   3   5 389.550 43.8600   1
  -5   3   5 384.320 45.8000   1
  -6  -1  -4 591.240 52.2400   1
  -6  -1  -4 756.570 62.6400   1
  -3  -6  -3 136.030 28.8400   1
   3   6   3 109.940 34.7200   1
  -3  -6  -3 169.660 32.2200   1
  -3  -6  -3 100.640 42.0200   1
  -6   2  -4 15.6400 22.4400   1
  -6   2  -4 -0.8200 28.3000   1
  -7   0   0 76.7800 35.2900   1
  -7   0   0 100.570 37.2000   1
  -1  -7   3 533.440 59.1400   1
   1   7  -3 568.020 59.7000   1
  -5  -5   0 -4.9100 26.4300   1
   5   5   0 45.0500 39.4000   1
  -5  -5   0 43.2300 45.0700   1
  -3   7   0 37.2000 41.7200   1
  -3   7   0 40.1400 33.3800   1
  -3   7   0 43.2600 29.1800   1
  -7   1   0 44.0700 36.3000   1
  -7   1   0 23.0400 24.3900   1
   1  -4  -7 55.2600 81.9900   1
  -1   4   7 30.4100 48.5500   1
  -1  -5  -6 1561.14 138.770   1
  -1  -5  -6 1476.46 111.670   1
   1   5   6 1661.16 75.8900   1
  -1  -5  -6 1396.31 124.740   1
  -1  -5  -6 1689.66 77.9600   1
   1   5   6 1685.12 90.2900   1
  -1  -5  -6 1494.70 97.8700   1
  -2   4  -7 3995.78 121.990   1
  -2   4  -7 4151.86 116.780   1
  -2   4  -7 4350.39 161.310   1
   4   0  -7 327.880 40.7400   1
  -4   0   7 352.350 41.7800   1
  -4   0   7 380.780 49.0400   1
  -4   0   7 285.550 48.7800   1
  -1  -2  -8 24.9900 30.1900   1
  -1  -2  -8 -23.190 56.4400   1
  -1  -2  -8 7.18000 27.9900   1
   1   2   8 -21.060 50.3400   1
   5   0  -6 54.1100 35.2400   1
  -5   0   6 65.5500 22.2100   1
  -5   0   6 11.1200 31.8900   1
  -2  -1  -8 1113.61 87.5700   1
  -2  -1  -8 1438.73 94.7500   1
  -2  -1  -8 1341.86 91.0700   1
  -2  -1  -8 1058.88 82.6500   1
  -2  -1  -8 1408.04 103.750   1
  -6   2   4 4036.17 108.000   1
  -6   2   4 4107.13 109.280   1
  -4  -5   4 1211.23 113.900   1
  -4  -5   4 1541.96 107.920   1
   4   5  -4 1406.79 92.5800   1
   0   7   3 2699.67 110.050   1
   0  -7  -3 2581.91 89.2700   1
   0  -7  -3 2472.14 88.9200   1
   0   7   3 2694.77 100.530   1
   0  -7  -3 2243.21 134.570   1
  -4  -6   0 11479.7 221.900   1
   4   6   0 11691.8 195.300   1
  -5  -5   1 5864.22 161.370   1
  -5  -5   1 5852.07 137.850   1
   5   5  -1 6482.87 134.360   1
  -5  -5   1 6309.47 126.190   1
  -3   7  -1 -1.9500 37.7900   1
  -3   7  -1 49.7000 30.7400   1
  -3   7  -1 149.110 56.2100   1
  -2   6  -5 29.1700 42.7800   1
  -2   6  -5 68.1900 23.9900   1
   2  -6   5 61.0000 25.0500   1
   2   5  -6 527.420 53.2500   1
   2   5  -6 742.720 72.0500   1
   2   5  -6 536.820 55.8600   1
  -2  -5   6 563.500 59.5800   1
   2   5  -6 590.760 123.000   1
  -5   5  -3 36.1600 21.4300   1
  -5   5  -3 77.3400 28.6400   1
   0  -6  -5 235.170 43.5700   1
   0   6   5 136.030 31.5500   1
   0  -6  -5 207.600 62.2500   1
   0  -6  -5 206.470 91.9500   1
   0   6   5 189.990 52.1900   1
  -7   0   1 267.710 40.9900   1
  -7   0   1 239.140 33.4500   1
  -4  -4  -5 1196.18 95.3900   1
  -4  -4  -5 1115.82 74.3900   1
   4   4   5 1233.95 84.9500   1
   2   7  -2 1973.02 100.630   1
   2   7  -2 2221.24 92.1000   1
  -2  -7   2 2222.87 101.850   1
  -1   7   3 4179.00 124.690   1
   1  -7  -3 3794.87 188.430   1
  -1   7   3 3663.63 125.050   1
   1  -7  -3 3572.07 120.120   1
  -4   0  -7 186.040 36.5900   1
  -4   0  -7 133.100 39.0700   1
  -7   0  -1 1015.59 75.5000   1
  -7   0  -1 1016.06 68.1100   1
   4   6  -1 489.240 51.1100   1
  -4  -6   1 475.870 63.3100   1
  -4  -6   1 464.900 47.0400   1
  -4  -6   1 440.040 51.4600   1
   6  -4   2 7765.31 281.610   1
  -6   4  -2 7790.25 152.510   1
  -6   4  -2 7712.96 145.400   1
  -7   1   1 7241.60 141.990   1
  -7   1   1 7202.17 146.670   1
   4  -1   7 331.210 42.6100   1
  -4   1  -7 402.930 46.5000   1
   4  -1   7 337.080 61.3900   1
  -4   1  -7 431.160 51.4100   1
  -4   1  -7 324.180 53.1000   1
  -7   1  -1 1800.80 74.8500   1
  -7   1  -1 1605.67 65.2200   1
  -5   0  -6 1811.99 70.4800   1
  -5   0  -6 1910.02 73.5400   1
   3   3  -7 3205.89 117.360   1
   3   3  -7 2735.14 142.220   1
  -3  -3   7 3121.94 113.190   1
  -3  -3   7 3368.12 128.730   1
  -1   6   5 3777.69 154.160   1
   1  -6  -5 3958.68 118.550   1
  -1   6   5 3900.73 125.620   1
   1  -6  -5 4114.40 152.370   1
   1  -6  -5 4006.97 193.700   1
  -5   1  -6 868.490 67.3100   1
  -5   1  -6 706.130 57.0000   1
  -3  -4  -6 913.980 84.5100   1
  -3  -4  -6 935.900 69.6500   1
  -3  -4  -6 1014.95 72.8900   1
  -3  -4  -6 925.450 77.3400   1
  -5   1   6 666.820 56.3400   1
  -5   1   6 627.580 59.2700   1
  -5   1   6 603.340 65.8000   1
   4  -6   3 1045.81 81.0300   1
  -4   6  -3 1284.19 85.7400   1
  -4   6  -3 1159.37 77.6000   1
  -4   6  -3 1256.93 91.2800   1
  -2   7  -3 314.300 40.1000   1
  -2   7  -3 298.850 36.6900   1
  -2   7  -3 278.580 61.5600   1
  -4   1   7 35.0800 31.2000   1
  -4   1   7 36.8800 45.8500   1
  -5  -5  -1 184.730 49.9300   1
  -5  -5  -1 96.2400 40.9400   1
  -5  -5  -1 169.460 33.6700   1
   5   5   1 239.770 33.5500   1
  -1  -4  -7 521.490 74.9600   1
  -1  -4  -7 369.850 46.6300   1
   1   4   7 439.080 58.6100   1
  -1  -4  -7 499.600 54.4800   1
  -3   7   1 1615.18 65.6300   1
   3  -7  -1 1362.54 94.9000   1
  -3   7   1 1589.85 69.1000   1
  -3   7   1 1542.16 119.280   1
  -2   2  -8 77.2100 35.8400   1
  -2   2  -8 45.8200 46.2000   1
   4   1  -7 70.1700 32.9300   1
  -4  -1   7 118.510 43.7100   1
  -4  -1   7 66.0400 27.4800   1
  -3   3   7 108.240 51.9400   1
  -3   3   7 137.040 28.5900   1
  -3   6   4 211.770 59.2900   1
  -3   6   4 203.580 47.5200   1
  -3   6   4 142.430 42.1700   1
  -3   6   4 195.480 38.7800   1
   0  -3   8 5758.31 178.040   1
   0   3  -8 5837.23 151.440   1
   0   3  -8 5977.77 162.720   1
  -6   4   2 7630.36 156.430   1
  -6   4   2 7488.61 152.860   1
  -6   4   2 7259.93 142.950   1
  -5  -3   5 5039.80 133.370   1
  -5  -3   5 4711.90 130.130   1
   5   3  -5 4520.17 114.350   1
  -5  -1   6 282.010 40.9300   1
  -5  -1   6 243.560 46.8700   1
   5   1  -6 335.540 45.2900   1
  -4  -6  -1 111.290 22.9000   1
  -4  -6  -1 179.640 56.1000   1
  -4  -6  -1 69.9300 35.1700   1
   4   6   1 93.3800 28.8700   1
  -2   5   6 727.900 67.7000   1
  -2   5   6 861.740 72.0600   1
  -2   5   6 722.960 79.5000   1
  -2   5   6 765.500 57.7500   1
  -2   5   6 702.830 71.0600   1
   3   5   5 2842.23 96.5800   1
  -3  -5  -5 2350.57 122.480   1
  -3  -5  -5 2832.31 89.6600   1
  -3  -5  -5 2761.25 87.9900   1
  -3  -5  -5 2793.37 109.920   1
  -2  -4   7 1992.21 106.050   1
   2   4  -7 1824.19 89.8900   1
   2   4  -7 2173.39 128.320   1
   2   4  -7 1949.26 106.950   1
   2   4  -7 2255.39 96.4200   1
  -2  -4   7 2170.23 105.520   1
  -7  -1   0 203.930 33.4100   1
  -7  -1   0 241.950 38.0700   1
   2   2  -8 141.180 34.5700   1
  -2  -2   8 178.270 29.2100   1
  -2  -2   8 210.480 54.8500   1
   2   2  -8 210.630 39.6600   1
  -4  -3  -6 1061.55 76.4900   1
  -4  -3  -6 968.120 87.8000   1
  -5   5   3 65.8200 37.0700   1
  -5   5   3 114.690 31.7100   1
   5   4  -4 5285.92 124.020   1
  -5  -4   4 5403.23 164.670   1
  -5  -4   4 4902.23 128.510   1
   6   2  -4 679.920 60.4800   1
  -6  -2   4 705.040 57.2600   1
  -6  -2   4 663.820 55.6300   1
  -7   2   0 1451.53 92.5000   1
  -7   2   0 1538.40 97.1400   1
  -1   3  -8 3851.66 128.910   1
  -1   3  -8 4225.68 114.140   1
  -2  -7  -2 1390.27 103.630   1
   2   7   2 1673.67 75.9100   1
  -2  -7  -2 1584.82 102.560   1
  -2  -7  -2 1635.66 64.2500   1
  -2  -7  -2 1603.56 66.6400   1
   6   3  -3 124.330 36.8800   1
  -6  -3   3 139.510 32.9400   1
  -6  -3   3 156.060 40.9600   1
  -7  -1   1 4269.21 112.250   1
  -7  -1   1 4352.86 117.530   1
  -7  -1   1 4098.15 100.190   1
   7   1  -1 4284.23 119.100   1
  -1  -7  -3 2661.64 85.6300   1
  -1  -7  -3 2604.45 132.480   1
   1   7   3 2670.32 100.550   1
  -1  -7  -3 2757.57 100.590   1
   1   7   3 2766.41 107.520   1
   3  -7   2 599.470 64.3700   1
  -3   7  -2 632.350 71.0800   1
  -3   7  -2 735.590 58.8700   1
  -3   7  -2 679.180 56.6000   1
  -5  -5   2 555.040 59.1300   1
   5   5  -2 629.490 60.5100   1
  -5  -5   2 541.610 58.3600   1
   1   6   5 96.7700 25.9500   1
  -1  -6  -5 135.740 44.4800   1
  -1  -6  -5 130.540 36.2100   1
  -1  -6  -5 140.340 37.3900   1
   1   6   5 122.040 50.9400   1
  -1  -6  -5 28.1300 75.5300   1
  -4  -1  -7 909.790 69.9800   1
  -4  -1  -7 914.390 69.9400   1
  -7  -1  -1 4977.05 116.030   1
  -7  -1  -1 5077.08 119.730   1
  -2   2   8 91.1400 48.2500   1
  -2   2   8 51.2300 31.2600   1
  -2   2   8 36.0300 37.6900   1
   3   6  -4 1269.52 95.2400   1
   3   6  -4 1095.80 89.9500   1
  -3  -6   4 1315.99 98.8400   1
  -4   6   3 470.930 55.7500   1
  -4   6   3 421.200 53.9200   1
  -4   6   3 474.020 51.1200   1
   1   3  -8 1157.63 92.6000   1
  -4  -6   2 2211.25 94.0000   1
   4   6  -2 2192.79 84.1800   1
  -5  -1  -6 231.640 44.1500   1
  -5  -1  -6 201.270 37.2700   1
  -4   5  -5 5919.01 150.950   1
  -4   5  -5 5980.31 130.930   1
  -7   0   2 8.61000 23.7600   1
  -7   0   2 42.6800 36.4900   1
  -4  -5  -4 4299.13 115.560   1
   4   5   4 4126.66 114.570   1
  -4  -5  -4 3725.46 139.950   1
  -4   2  -7 254.570 55.8800   1
  -4   2  -7 256.120 32.4000   1
   4  -2   7 234.520 31.3100   1
  -4   2  -7 252.000 35.9500   1
   4  -2   7 250.930 51.5700   1
  -7   2  -1 8032.51 180.550   1
  -7   2  -1 8389.17 174.810   1
  -2   4   7 2690.85 95.4900   1
  -2   4   7 2577.35 107.220   1
  -2   4   7 2788.01 115.200   1
  -5   2  -6 275.240 35.0900   1
   5  -2   6 255.160 32.4700   1
  -5   2  -6 347.700 34.3200   1
  -7   2   1 4726.93 126.440   1
  -7   2   1 4882.29 133.800   1
  -2  -6   5 530.060 49.3100   1
  -2  -6   5 639.350 50.9000   1
   2   6  -5 563.420 51.3200   1
   2   6  -5 700.930 62.1400   1
   0  -7   4 6.54000 41.7400   1
   0  -7   4 15.7300 27.5700   1
   0  -7   4 -15.360 22.8800   1
   0   7  -4 41.6300 37.7800   1
   4  -4   6 54.4700 31.9100   1
  -4   4  -6 91.3900 32.1500   1
  -4   4  -6 53.8800 25.1200   1
  -7   1   2 2058.20 82.0800   1
  -7   1   2 1928.19 72.1000   1
  -7   0  -2 2133.45 78.8600   1
  -7   0  -2 2034.79 73.5000   1
  -7   1  -2 9131.21 195.470   1
  -7   1  -2 9280.66 197.340   1
   2  -7  -3 3868.72 145.520   1
  -2   7   3 3852.51 115.960   1
  -2   7   3 4054.81 127.930   1
  -2   7   3 3937.35 151.800   1
   1  -7   4 3344.68 150.290   1
  -1   7  -4 3390.24 135.310   1
  -1   7  -4 3281.98 107.420   1
   1  -7   4 3441.94 128.890   1
  -6  -2  -4 375.110 47.3100   1
  -6  -2  -4 394.100 43.0300   1
   6   4   0 3240.37 100.810   1
  -6  -4   0 3294.00 95.1400   1
  -6  -4   0 3247.28 115.690   1
  -2   6   5 360.250 43.9300   1
  -2   6   5 396.370 62.4900   1
  -2   6   5 401.910 57.0000   1
  -3   5  -6 4611.39 136.880   1
  -3   5  -6 4762.75 135.940   1
  -3   5  -6 4825.31 132.650   1
  -3   5  -6 5040.71 170.370   1
   3  -5   6 4137.99 172.370   1
  -5  -3  -5 11020.7 230.940   1
  -5  -3  -5 10662.1 230.920   1
  -5   2   6 116.990 38.0800   1
  -5   2   6 161.170 28.9400   1
  -6  -3  -3 568.350 39.8600   1
   6   3   3 605.330 55.8300   1
  -6  -3  -3 549.320 54.3000   1
  -3  -3  -7 294.750 34.8500   1
  -3  -3  -7 256.040 40.3700   1
  -3  -3  -7 445.250 49.5200   1
  -3  -3  -7 381.650 41.5200   1
  -5  -5  -2 417.950 54.7900   1
   5   5   2 454.550 39.8100   1
  -5  -5  -2 444.150 39.0000   1
   3  -7  -2 -33.610 45.0900   1
  -3   7   2 24.5900 35.7400   1
  -3   7   2 10.1600 34.1300   1
   3   0  -8 1523.51 69.1200   1
  -3   0   8 1246.53 86.5900   1
  -3   0   8 1732.55 89.5100   1
  -3   0   8 1656.22 74.8200   1
  -6   3  -4 2387.12 82.2700   1
  -6   3  -4 2165.95 74.6400   1
  -2  -2  -8 3879.53 149.350   1
  -2  -2  -8 3787.84 156.750   1
  -2  -2  -8 4219.92 127.230   1
  -2  -2  -8 4283.36 137.360   1
  -4   2   7 64.6700 54.3100   1
  -4   2   7 -12.760 30.1400   1
   0   3   8 971.540 67.6000   1
   0  -3  -8 928.140 100.550   1
   0  -3  -8 936.120 66.4500   1
  -6  -4   1 307.360 39.3800   1
  -6  -4   1 263.870 31.4500   1
  -6  -4   1 274.580 43.8600   1
   6   4  -1 334.730 37.1200   1
   2   7  -3 3468.10 142.350   1
   2   7  -3 4212.73 141.600   1
  -2  -7   3 3897.03 129.650   1
   5   4   4 136.520 40.7300   1
  -5  -4  -4 59.9500 34.8700   1
  -5  -4  -4 75.6000 25.4300   1
  -2  -5  -6 230.300 43.7400   1
  -2  -5  -6 210.470 44.2100   1
   2   5   6 216.330 47.7100   1
  -2  -5  -6 213.610 66.9900   1
   2   5   6 250.510 56.5700   1
  -2  -5  -6 212.360 33.6200   1
  -4  -2   7 375.680 40.2800   1
  -4  -2   7 339.750 53.9200   1
   4   2  -7 455.830 48.4800   1
  -6   0   5 660.790 54.1900   1
   6   0  -5 635.730 55.7900   1
  -6   0   5 683.990 50.0600   1
   4   6   2 1035.74 55.1900   1
  -4  -6  -2 1207.64 76.9200   1
  -4  -6  -2 1029.68 50.7900   1
  -4  -6  -2 853.920 80.8000   1
  -3   0  -8 122.750 35.5000   1
  -3   0  -8 249.070 40.6300   1
  -3   0  -8 216.440 32.7800   1
  -5   6   0 3434.27 109.360   1
   5  -6   0 3152.57 137.080   1
  -5   6   0 3260.69 96.6200   1
  -5   6   0 3296.38 97.8100   1
  -7  -1   2 144.710 39.9400   1
  -7  -1   2 67.3600 34.3500   1
   7   1  -2 -27.800 43.5700   1
  -6   4  -3 1364.26 61.2800   1
  -6   4  -3 1363.15 57.8900   1
  -5   4  -5 248.620 33.9000   1
  -5   4  -5 171.340 31.3300   1
  -3   1  -8 593.220 50.4000   1
  -3   1  -8 704.730 51.5100   1
   6   4   1 163.390 33.0000   1
  -6  -4  -1 160.570 36.0200   1
  -6  -4  -1 117.450 41.9600   1
  -5  -2   6 8628.46 205.840   1
  -5  -2   6 8539.60 210.620   1
   5   2  -6 8654.46 194.130   1
  -6   3   4 21.0300 31.7900   1
  -6   3   4 61.0300 39.4900   1
  -6   3   4 40.2800 32.3000   1
  -3  -1   8 2517.67 99.8600   1
   3   1  -8 2086.83 106.670   1
  -3  -1   8 2507.42 106.380   1
   3   1  -8 2434.26 90.6700   1
   1  -3  -8 2501.61 176.560   1
  -1   3   8 2413.22 102.810   1
  -6   1   5 1155.59 59.8900   1
  -6   1   5 1037.43 54.5600   1
   0   5  -7 51.2700 33.6700   1
   0   5  -7 -37.290 55.6800   1
   0   5  -7 35.9700 36.6900   1
  -3  -7   0 20.2000 38.3100   1
  -3  -7   0 37.5200 25.2000   1
   3   7   0 9.56000 30.9300   1
  -6   0  -5 1615.58 64.1100   1
  -6   0  -5 1571.10 71.2200   1
  -6   1  -5 16.3400 31.3400   1
  -6   1  -5 2.85000 33.4600   1
  -5   6  -1 8.19000 30.0000   1
  -5   6  -1 13.5900 32.8600   1
  -5   6  -1 2.09000 31.7700   1
   3  -1  -8 299.710 39.0000   1
  -3   1   8 245.870 46.5800   1
  -3   1   8 319.590 58.4700   1
  -3   1   8 404.140 39.0300   1
  -1  -7   4 160.890 29.0600   1
  -1  -7   4 188.360 47.1400   1
   1   7  -4 116.390 39.4800   1
   1   7  -4 129.780 24.3000   1
   1   7  -4 155.550 30.4100   1
  -7  -1  -2 339.310 49.5600   1
  -7  -1  -2 365.190 38.7900   1
  -2  -4  -7 1467.59 69.7200   1
  -2  -4  -7 1283.79 91.4400   1
  -2  -4  -7 1446.53 71.4800   1
  -2  -4  -7 1423.66 107.440   1
  -2  -4  -7 1291.40 92.2600   1
  -4   5   5 307.020 41.6200   1
  -4   5   5 466.410 46.3300   1
  -4   5   5 412.570 38.3100   1
   3   7  -1 2294.38 90.8200   1
   3   7  -1 1967.27 104.690   1
  -3  -7   1 2388.80 104.140   1
  -7   2  -2 2034.56 75.7900   1
  -7   2  -2 1903.08 71.9400   1
   7  -2   2 1797.85 95.8300   1
  -4   4   6 82.3800 31.8600   1
  -4   4   6 124.000 30.3300   1
  -4   4   6 54.6500 43.9400   1
  -7   2   2 185.780 31.5400   1
  -7   2   2 82.2200 36.6700   1
  -2   3  -8 18.4100 38.8100   1
  -2   3  -8 40.7200 38.1900   1
   0  -6   6 4962.66 196.440   1
   0  -6   6 4320.87 155.110   1
   0   6  -6 4182.72 152.740   1
   0   6  -6 4472.64 140.470   1
   0   6  -6 5190.10 172.220   1
  -1   5  -7 2473.57 114.390   1
  -1   5  -7 2281.77 107.630   1
   3  -4   7 2252.32 128.820   1
  -3   4  -7 2507.26 99.3200   1
  -3   4  -7 2510.44 132.170   1
  -7  -2   0 915.760 51.7500   1
  -7  -2   0 830.170 56.8900   1
   7   2   0 913.560 63.1500   1
  -5   6   1 691.500 51.6800   1
  -5   6   1 802.330 54.3400   1
   5  -6  -1 656.350 74.5800   1
  -6   4   3 3.78000 32.0900   1
  -6   4   3 90.0200 30.8900   1
  -6   4   3 72.3500 29.7200   1
   3  -6   5 342.740 38.3500   1
  -3   6  -5 419.220 36.5600   1
  -3   6  -5 337.380 34.5200   1
  -3   6  -5 420.970 64.2500   1
  -6  -1   5 326.030 45.9900   1
   6   1  -5 335.810 43.2000   1
  -6  -1   5 393.930 36.4300   1
  -1  -3  -8 12.0800 36.4200   1
   1   3   8 19.6600 57.5800   1
  -1  -3  -8 21.2500 33.0000   1
  -1  -3  -8 -8.2400 49.0500   1
  -3  -6  -4 392.630 35.5300   1
   3   6   4 434.240 41.8500   1
  -3  -6  -4 332.400 41.4400   1
  -3  -6  -4 341.920 60.0400   1
  -5   5  -4 878.740 57.5200   1
  -5   5  -4 802.910 43.8900   1
  -1   6  -6 307.520 50.2000   1
  -1   6  -6 325.620 65.1600   1
  -1   6  -6 337.560 36.8700   1
   1  -6   6 301.030 48.5900   1
  -3   7  -3 35.0900 47.0800   1
  -3   7  -3 115.760 39.5600   1
  -3   7  -3 144.170 33.4700   1
   5   5  -3 893.690 52.0300   1
  -5  -5   3 887.320 56.8200   1
  -5  -5   3 853.430 58.4600   1
  -7  -2   1 250.850 36.0600   1
  -7  -2   1 246.860 40.4300   1
   7   2  -1 307.590 39.4200   1
  -7  -2   1 270.980 37.6000   1
  -3  -7  -1 194.910 58.2800   1
  -3  -7  -1 225.000 40.1800   1
  -3  -7  -1 288.430 32.2300   1
   3   7   1 285.100 45.9000   1
  -3  -7  -1 208.580 40.0600   1
   3   7   1 220.780 35.8300   1
  -2   7  -4 1974.37 114.050   1
   2  -7   4 1925.28 149.380   1
   2  -7   4 1503.22 73.5500   1
   2  -7   4 1770.31 85.1100   1
  -6  -4   2 35.8800 39.8400   1
   6   4  -2 -63.260 34.6400   1
  -3  -1  -8 1918.72 74.8500   1
  -3  -1  -8 1899.37 88.2000   1
  -3  -1  -8 1453.11 85.2100   1
   4  -6   4 23.7600 24.1900   1
  -4   6  -4 20.9900 30.0900   1
  -4   6  -4 -28.950 31.6600   1
  -6   5   0 507.510 38.8900   1
  -6   5   0 504.010 39.2500   1
   6  -5   0 507.930 56.8000   1
  -6   5   0 514.200 39.3100   1
   0   7   4 -29.660 46.4200   1
   0   7   4 10.5500 36.2200   1
   0  -7  -4 108.620 98.9700   1
   0  -7  -4 22.7000 38.1300   1
  -5   4   5 509.750 47.1900   1
  -5   4   5 439.180 51.3300   1
   4   4  -6 4078.06 125.970   1
  -4  -4   6 3907.41 142.190   1
  -4  -4   6 3900.40 141.110   1
  -4  -6   3 4.51000 34.2000   1
   4   6  -3 -9.3900 37.2300   1
  -7   3   0 1269.88 57.2700   1
  -7   3   0 1036.80 50.7600   1
  -4  -2  -7 2970.24 93.9600   1
  -4  -2  -7 3145.51 121.100   1
  -7  -2  -1 478.130 49.8000   1
  -7  -2  -1 448.840 43.8200   1
   7   2   1 538.580 56.9900   1
   1   5  -7 12.3000 49.3000   1
   1   5  -7 -8.0300 28.5200   1
  -2  -3   8 6.70000 46.6600   1
   2   3  -8 -3.3000 36.7100   1
  -1   7   4 794.670 67.4400   1
  -1   7   4 778.010 64.4800   1
   1  -7  -4 801.750 130.210   1
   1  -7  -4 755.070 80.4300   1
   1  -7  -4 784.840 61.3700   1
   2   7   3 2366.65 93.9800   1
  -2  -7  -3 2379.92 90.6300   1
  -2  -7  -3 2156.97 110.090   1
  -2  -7  -3 2487.07 98.6500   1
  -2  -6  -5 238.920 49.9500   1
   2   6   5 273.060 36.6900   1
   2   6   5 306.120 54.1400   1
  -2  -6  -5 179.520 49.9200   1
  -2  -6  -5 273.100 32.6400   1
  -2  -6  -5 271.620 40.9200   1
  -3   5   6 368.180 56.7100   1
  -3   5   6 500.870 58.3900   1
  -3   5   6 362.220 44.4800   1
  -3   5   6 359.980 49.5200   1
  -3   5   6 413.880 37.6200   1
  -5  -2  -6 94.9900 41.1400   1
  -5  -2  -6 89.9400 27.7500   1
  -7   0   3 2887.56 95.7600   1
  -7   0   3 2919.58 95.7400   1
  -3   2  -8 989.580 66.4000   1
  -3   2  -8 1107.32 59.0900   1
   6  -5   1 837.080 68.2600   1
  -6   5  -1 819.470 51.5200   1
  -6   5  -1 897.450 47.9900   1
   3   5  -6 -11.010 23.6200   1
   3   5  -6 8.50000 38.4400   1
  -6  -1  -5 5486.10 143.810   1
  -6  -1  -5 5263.89 159.640   1
  -6   2  -5 147.960 28.4800   1
   0   8   0 762.920 67.6700   1
   0  -8   0 1041.48 94.2100   1
   0   8   0 835.360 59.2000   1
   0  -8   0 770.790 54.3600   1
  -5   3  -6 2174.72 80.3000   1
   5  -3   6 1848.91 90.7300   1
  -5   3  -6 2417.11 89.6700   1
  -5   6  -2 1591.97 67.4900   1
  -5   6  -2 1570.39 71.5100   1
  -5   6  -2 1484.64 61.1700   1
  -4  -5   5 3296.74 163.630   1
   4   5  -5 3641.33 140.900   1
  -4  -5   5 3393.92 138.460   1
  -7   3  -1 2173.93 76.0600   1
  -7   3  -1 2007.68 75.3400   1
   4  -3   7 136.850 44.0700   1
  -4   3  -7 77.8800 33.2600   1
  -4   3  -7 171.300 31.4900   1
  -4   3  -7 96.5700 31.6300   1
  -7   1   3 7804.21 170.560   1
  -7   1   3 8301.80 182.110   1
   0   0  -9 130.510 43.2800   1
   0   0   9 184.580 64.6800   1
   0   0  -9 58.0100 29.1000   1
   0   0  -9 99.8900 36.6600   1
  -3  -7   2 1681.75 93.5900   1
   3   7  -2 1550.61 72.3100   1
   3   7  -2 1250.11 69.7900   1
  -7   0  -3 6583.90 157.320   1
   7   0   3 5907.90 191.140   1
  -7   0  -3 6925.41 157.500   1
  -1   8   0 1996.87 93.8600   1
  -1   8   0 1832.31 86.9900   1
   1  -8   0 1841.09 147.630   1
  -7   1  -3 312.500 43.7700   1
  -7   1  -3 269.070 38.4500   1
   7  -1   3 202.220 57.6900   1
  -6   5   1 270.710 39.8700   1
  -6   5   1 236.890 31.7700   1
  -6   5   1 205.900 31.0800   1
  -4   7   0 11.3200 34.1200   1
  -4   7   0 26.9300 30.7400   1
  -4   7   0 12.7400 33.2400   1
  -4   7   0 48.8300 39.4000   1
  -7   3   1 4707.75 121.790   1
  -7   3   1 4898.32 125.600   1
   1   6  -6 1197.85 69.4800   1
   1   6  -6 1504.59 80.8400   1
  -1  -6   6 1096.14 68.7700   1
  -1  -6   6 1292.23 85.9900   1
   0   8  -1 493.270 61.1300   1
   0   8  -1 378.490 46.6000   1
   0  -8   1 377.070 41.4500   1
   0  -8   1 316.610 42.6000   1
   0  -8   1 462.270 71.9800   1
  -6  -4  -2 44.4000 24.1700   1
   6   4   2 80.6500 31.0200   1
  -6  -4  -2 53.7700 40.7800   1
  -6   2   5 751.420 50.1100   1
  -6   2   5 644.820 53.4300   1
  -6   2   5 695.310 44.6300   1
   1  -8   1 141.240 35.7700   1
  -1   8  -1 223.060 63.5000   1
   1  -8   1 203.560 71.8600   1
  -6  -3   4 526.400 44.2100   1
   6   3  -4 594.370 46.2000   1
  -6  -3   4 579.240 43.8000   1
  -5   5   4 18.3100 29.7000   1
  -5   5   4 39.9200 26.3300   1
   0   1  -9 337.910 51.4300   1
   0   1  -9 379.610 51.2700   1
   0   1  -9 477.980 57.2800   1
   0  -1   9 323.170 65.0000   1
   0   1  -9 363.300 38.8100   1
   0   1  -9 278.070 42.0300   1
   0   1  -9 290.620 42.4200   1
  -3  -2   8 220.650 33.0000   1
   3   2  -8 158.780 33.3000   1
   3   2  -8 246.430 37.3700   1
  -3  -2   8 238.420 43.4400   1
  -4   7  -1 5694.95 213.090   1
  -4   7  -1 6050.08 149.090   1
  -2   3   8 2130.07 92.4600   1
  -2   3   8 2230.57 89.2600   1
  -2   3   8 2349.05 100.620   1
   3   4  -7 4028.60 125.620   1
   3   4  -7 3036.29 144.940   1
  -3  -4   7 3803.94 141.860   1
   3   4  -7 3177.10 121.450   1
  -3  -4   7 4016.43 151.150   1
   0   4  -8 19525.0 296.770   1
   0   4  -8 19604.0 275.810   1
   0  -4   8 18827.7 404.730   1
   5   5   3 10822.2 215.740   1
  -5  -5  -3 11157.9 224.780   1
  -5  -5  -3 11140.0 250.850   1
  -3   2   8 222.140 42.4100   1
  -3   2   8 242.140 36.6800   1
  -3   2   8 187.780 46.8600   1
  -3   7   3 621.840 50.5700   1
  -3   7   3 664.180 72.6300   1
  -3   7   3 584.970 49.3400   1
   3  -7  -3 611.530 66.0400   1
  -5   6   2 496.010 51.1500   1
  -5   6   2 440.110 44.2200   1
   5  -6  -2 479.560 77.7100   1
  -3   4   7 -20.490 23.1600   1
  -3   4   7 41.2900 50.5500   1
  -3   4   7 4.67000 30.7200   1
   0  -8  -1 291.380 86.8100   1
   0  -8  -1 179.440 30.4300   1
   0   8   1 221.650 42.0600   1
   0   8   1 205.990 53.2200   1
  -1   0   9 18.3500 54.0900   1
   1   0  -9 62.5600 30.1200   1
   1   0  -9 18.0700 79.3200   1
  -1   0   9 25.5800 30.6700   1
   7   2  -2 1939.68 80.0200   1
  -7  -2   2 1851.63 78.6800   1
  -7  -2   2 1848.01 77.0700   1
   1   7   4 24.7400 46.9700   1
  -1  -7  -4 31.4900 34.0800   1
  -1  -7  -4 -115.60 74.9100   1
   1   7   4 10.5400 30.9000   1
  -1  -7  -4 34.1500 29.1000   1
  -7  -1   3 7485.64 173.740   1
  -7  -1   3 7275.32 173.510   1
   7   1  -3 6970.56 162.300   1
  -4   7   1 3054.51 98.1900   1
  -4   7   1 2811.71 105.570   1
  -4   7   1 3088.20 107.820   1
   4  -7  -1 2688.47 127.690   1
  -4   7   1 2937.26 139.600   1
  -1   0  -9 760.970 71.9400   1
  -1   0  -9 798.020 62.7100   1
  -1   0  -9 695.380 52.0100   1
  -1   0  -9 521.160 49.7100   1
  -1   0  -9 631.150 59.3000   1
  -2   5  -7 3909.77 146.090   1
  -2   5  -7 3550.17 107.870   1
  -1   8   1 1178.72 79.3400   1
   1  -8  -1 1016.70 137.520   1
  -1   8   1 1080.36 67.8900   1
  -5   3   6 390.510 59.8800   1
  -5   3   6 301.100 40.3800   1
  -4   6   4 1095.48 65.2200   1
  -4   6   4 1067.66 59.3600   1
  -4   6   4 1182.37 69.3100   1
  -1   4  -8 85.4400 53.3900   1
  -1   4  -8 3.30000 35.9300   1
  -4  -6  -3 1603.57 73.0500   1
  -4  -6  -3 1325.25 73.1200   1
   4   6   3 1569.72 67.5600   1
  -3   6   5 1802.83 88.5600   1
  -3   6   5 1864.34 84.5200   1
  -3   6   5 1757.36 114.270   1
  -3   6   5 1921.14 77.0600   1
   0  -1  -9 87.1000 45.0900   1
   0  -1  -9 22.7000 65.3700   1
   0   1   9 96.2900 42.2200   1
   5   4  -5 5074.74 132.440   1
  -5  -4   5 4867.44 199.190   1
  -5  -4   5 4784.93 138.360   1
  -1   1  -9 169.190 53.1100   1
  -1   1  -9 123.710 35.3600   1
  -1   1  -9 160.860 31.1200   1
  -1   1  -9 128.110 39.5400   1
   0   5   7 6835.84 190.880   1
   0  -5  -7 6986.28 249.200   1
   0  -5  -7 6815.76 171.810   1
   2  -6   6 483.640 73.7300   1
   2  -6   6 382.560 51.3400   1
  -2   6  -6 441.810 41.7000   1
  -2   6  -6 512.840 59.3200   1
   1   1  -9 1268.58 112.640   1
  -1  -1   9 1236.70 70.0900   1
  -1  -1   9 1391.18 83.0200   1
   1   1  -9 1193.07 71.7900   1
  -4   3   7 9801.67 228.260   1
  -4   3   7 9582.81 200.710   1
  -3  -7  -2 1835.18 78.1000   1
   3   7   2 1692.83 78.2400   1
  -3  -7  -2 1619.85 84.9800   1
  -3  -7  -2 1637.40 68.6700   1
  -3  -7  -2 1365.94 85.8900   1
  -6   5  -2 534.410 39.1300   1
  -6   5  -2 529.080 41.5100   1
  -7  -2  -2 -34.720 38.6500   1
  -7  -2  -2 54.4100 31.1700   1
  -6  -2   5 848.010 55.9900   1
  -6  -2   5 869.270 52.2100   1
   6   2  -5 809.110 55.3500   1
   1   8   0 8525.97 206.470   1
   1   8   0 8192.99 229.270   1
  -1  -8   0 8658.70 185.250   1
  -1  -8   0 7720.85 231.560   1
  -2   7   4 -18.810 40.1600   1
  -2   7   4 48.4100 41.4800   1
   2  -7  -4 3.10000 65.3300   1
  -2   7   4 12.6900 36.0000   1
  -7  -1  -3 6449.06 162.860   1
  -7  -1  -3 6440.73 162.420   1
  -7   2  -3 4961.00 113.840   1
  -7   2  -3 4987.44 122.470   1
   7  -2   3 4450.62 181.720   1
   0  -8   2 -27.060 47.8600   1
   0   8  -2 13.2600 47.6000   1
   0  -8   2 -18.650 22.4800   1
   2   7  -4 25.9700 33.8400   1
  -4  -3   7 846.140 62.8700   1
   4   3  -7 1039.04 61.9000   1
  -4  -3   7 867.090 70.0700   1
  -4  -3   7 958.720 57.2700   1
   1  -5  -7 4570.63 136.150   1
  -1   5   7 4080.21 124.420   1
   1  -5  -7 3855.44 200.220   1
  -7   3  -2 7.42000 25.6500   1
   7  -3   2 -5.8400 49.7600   1
  -7   3  -2 40.2100 42.0900   1
   1   8  -1 91.9200 38.3100   1
  -1  -8   1 122.490 46.7300   1
  -1  -8   1 54.9900 32.6400   1
   1   4  -8 45.2800 46.4800   1
  -7   2   3 3561.48 102.520   1
  -7   2   3 3443.90 100.550   1
   3   6  -5 103.420 33.6500   1
   1  -8   2 909.390 58.4400   1
  -1   8  -2 1007.97 74.9100   1
  -1   8  -2 991.580 58.5500   1
   1  -8   2 829.660 109.010   1
  -6  -3  -4 38.4900 31.5300   1
  -6  -3  -4 85.3900 25.8300   1
   0  -6  -6 65.8400 37.7400   1
   0   6   6 72.0800 57.3700   1
   0  -6  -6 86.1000 97.4000   1
   0  -6  -6 -2.9100 55.4500   1
  -4  -4  -6 4230.72 127.200   1
  -4  -4  -6 4158.91 112.310   1
  -2  -3  -8 74.5200 29.7100   1
  -2  -3  -8 77.3300 33.4700   1
  -2  -3  -8 49.8500 45.7300   1
  -1   1   9 775.800 64.1500   1
   1  -1  -9 703.650 103.360   1
  -1   1   9 763.190 62.5800   1
  -4   7  -2 -17.690 30.4300   1
  -4   7  -2 48.2700 45.2800   1
  -4   7  -2 24.2900 21.0900   1
  -7   3   2 757.160 52.5100   1
  -7   3   2 826.710 55.7100   1
  -2   8   0 31729.9 319.870   1
  -2   8   0 30310.4 298.430   1
  -2   8   0 30790.3 367.550   1
   0   7  -5 128.320 58.1700   1
   0   7  -5 204.800 39.5500   1
   0  -7   5 171.050 29.8900   1
   0  -7   5 216.960 50.7300   1
   6   4  -3 438.290 41.0800   1
  -6  -4   3 390.060 41.4000   1
  -6  -4   3 383.540 45.1500   1
  -6   5   2 1057.87 61.3600   1
  -6   5   2 1084.32 57.4600   1
  -6   5   2 1092.38 54.4000   1
  -5  -3   6 79.4000 46.3600   1
   5   3  -6 91.1100 30.4300   1
  -5  -3   6 105.240 26.9700   1
   1  -6  -6 -39.830 57.7700   1
   1  -6  -6 9.70000 37.1700   1
  -1   6   6 -48.550 46.0300   1
   1  -6  -6 278.600 139.900   1
  -6   4  -4 5520.76 109.540   1
  -6   4  -4 5995.08 133.410   1
  -3  -2  -8 115.330 46.1400   1
  -3  -2  -8 63.0700 37.6100   1
  -3  -2  -8 69.0400 29.6500   1
  -1  -1  -9 76.7200 31.3800   1
   1   1   9 -9.1900 44.0300   1
  -1  -1  -9 55.1200 31.3600   1
  -1  -1  -9 95.3300 49.9200   1
  -2   8  -1 432.940 56.0800   1
  -2   8  -1 504.690 45.7700   1
   0   2  -9 848.860 66.5700   1
   0   2  -9 929.630 56.1800   1
   0   2  -9 835.570 64.2100   1
   1  -7   5 2168.97 92.6000   1
  -1   7  -5 2496.06 101.680   1
   1  -7   5 2651.56 144.560   1
  -1   7  -5 2770.51 108.400   1
   1   8   1 380.700 56.1000   1
  -1  -8  -1 362.000 40.8400   1
  -1  -8  -1 409.790 79.7700   1
  -1  -8  -1 469.930 43.3500   1
   1   8   1 402.140 49.1900   1
  -4  -5  -5 260.810 37.5700   1
   4   5   5 216.630 38.8600   1
  -4  -5  -5 224.520 43.4500   1
  -5   0   7 -32.210 30.7900   1
  -5   0   7 37.7500 28.6100   1
   5   0  -7 24.5000 27.6100   1
  -5   0   7 27.4600 31.5000   1
  -2  -5   7 8442.03 177.070   1
  -3  -5  -6 145.510 40.6000   1
  -3  -5  -6 -60.770 41.6800   1
  -3  -5  -6 137.150 29.3700   1
   3   5   6 101.380 32.6400   1
  -1  -5  -7 661.520 75.9500   1
   1   5   7 755.080 75.9700   1
  -1  -5  -7 623.050 74.7600   1
  -1  -5  -7 724.930 50.9400   1
  -1  -5  -7 791.320 56.8000   1
  -3  -7   3 76.7500 42.9400   1
   3   7  -3 -47.490 42.8600   1
  -5   6  -3 487.140 44.4300   1
  -5   6  -3 486.600 41.9600   1
  -5   6  -3 455.820 39.0700   1
  -6  -2  -5 29.0900 41.5400   1
  -6  -2  -5 7.48000 35.4900   1
  -6   3  -5 215.810 40.8100   1
  -6   3  -5 197.610 31.8100   1
  -2   8   1 404.550 37.1000   1
  -2   8   1 383.710 64.2500   1
  -2   8   1 364.500 46.6200   1
   2  -8  -1 367.010 42.4900   1
  -3   3  -8 3493.19 142.040   1
  -3   3  -8 3599.24 113.110   1
   0   8   2 476.220 49.8700   1
   0  -8  -2 431.190 80.2600   1
   0  -8  -2 424.220 40.9800   1
   0   8   2 420.760 51.6900   1
   0  -8  -2 392.640 46.6800   1
  -4   7   2 -5.7800 53.4700   1
   4  -7  -2 25.5600 47.4900   1
  -4   7   2 -4.1000 36.0300   1
  -4   7   2 -9.8300 38.8900   1
  -4   7   2 26.5000 27.1300   1
  -1   2  -9 2446.71 94.6300   1
  -1   2  -9 2466.67 115.550   1
  -3   7  -4 2152.70 101.150   1
  -3   7  -4 2087.97 112.670   1
  -3   7  -4 2415.71 83.1600   1
  -5   0  -7 237.950 40.7900   1
  -5   0  -7 247.070 44.5600   1
  -5   1  -7 796.010 52.9300   1
  -5   1  -7 777.980 54.5500   1
   5   5  -4 770.950 57.2900   1
  -5  -5   4 763.260 62.7700   1
  -5  -5   4 748.170 61.5300   1
  -5   1   7 971.480 57.7300   1
  -5   1   7 1009.96 74.5400   1
   1  -8  -2 401.890 108.850   1
  -1   8   2 393.410 50.2300   1
   1  -8  -2 375.770 46.5000   1
  -1   8   2 406.650 57.1300   1
  -6   4   4 773.110 58.0000   1
  -6   4   4 531.980 49.5100   1
  -6   4   4 622.810 55.2000   1
  -4   5  -6 375.280 38.6000   1
  -4   5  -6 344.700 36.8500   1
   7   3   0 39.3300 42.1000   1
  -7  -3   0 36.7600 43.6100   1
  -7  -3   0 36.6500 26.5600   1
  -1  -8   2 3860.19 147.760   1
  -1  -8   2 4222.29 125.750   1
   1   8  -2 4070.76 145.900   1
   2   6  -6 583.840 54.0400   1
  -2  -6   6 614.860 52.5500   1
  -1  -2   9 2080.92 104.270   1
  -1  -2   9 2111.61 92.7800   1
   1   2  -9 2283.78 105.500   1
  -3  -4  -7 3296.13 123.380   1
  -3  -4  -7 3410.05 103.720   1
  -3  -4  -7 3157.04 100.170   1
   1   6   6 3601.50 119.270   1
  -1  -6  -6 3434.30 143.260   1
  -1  -6  -6 3414.88 147.610   1
  -1  -6  -6 3535.12 110.230   1
   1   6   6 3587.20 114.690   1
  -1  -6  -6 3570.36 111.790   1
  -4  -6   4 2487.34 102.030   1
   4   6  -4 2693.52 105.470   1
  -5  -6   0 4453.53 108.940   1
   5   6   0 4608.76 116.750   1
  -5  -6   0 4500.76 133.070   1
   0  -4  -8 2613.56 147.680   1
   0  -4  -8 2346.65 88.9900   1
   0   4   8 2179.81 99.4100   1
   5   4   5 29.4100 29.7100   1
  -5  -4  -5 93.9900 35.7900   1
  -5  -4  -5 59.0000 35.1200   1
  -6  -4  -3 575.630 58.5100   1
  -6  -4  -3 643.750 42.6300   1
   6   4   3 700.720 60.1000   1
  -2   0   9 162.400 31.4800   1
  -2   0   9 78.9000 56.2400   1
  -2   0   9 131.710 46.1900   1
   2   0  -9 163.470 32.1200   1
  -5  -1   7 3124.04 110.860   1
   5   1  -7 3199.03 97.1500   1
  -5  -1   7 3430.70 115.750   1
  -5  -1   7 3478.17 102.500   1
   1   7  -5 97.1500 38.6600   1
  -1  -7   5 84.4900 25.5800   1
  -1  -7   5 110.320 41.0100   1
   1   7  -5 93.3800 30.8500   1
  -2   4  -8 2038.38 107.150   1
  -2   4  -8 2057.48 81.4300   1
  -2   4  -8 1993.57 107.970   1
  -7  -3   1 3458.22 97.2600   1
  -7  -3   1 3417.35 105.780   1
   7   3  -1 3204.49 93.5900   1
  -7  -3   1 3442.06 95.4800   1
   5   6  -1 2099.60 81.7400   1
  -5  -6   1 1919.56 87.5500   1
  -5  -6   1 2168.52 91.0400   1
  -4   0   8 842.190 50.1400   1
   4   0  -8 1042.57 91.3700   1
  -4   0   8 980.110 74.0900   1
  -6   3   5 4042.25 107.700   1
  -6   3   5 3877.10 106.260   1
  -6   3   5 3613.06 93.8700   1
  -2   0  -9 125.950 26.5500   1
  -2   0  -9 166.540 41.9300   1
  -2   0  -9 130.240 49.0000   1
  -2   0  -9 155.410 38.5400   1
  -2   8  -2 10889.1 234.060   1
   2  -8   2 9844.16 312.730   1
  -2   8  -2 10472.2 178.520   1
  -7  -2   3 42.6800 29.4800   1
   7   2  -3 1.36000 28.7700   1
  -7  -2   3 18.7200 31.5100   1
  -2   5   7 59.0000 38.3500   1
  -2   5   7 -9.9100 32.2800   1
   1  -4  -8 856.040 60.7800   1
   1  -4  -8 933.190 136.930   1
  -1   4   8 770.870 69.7600   1
   0  -2  -9 2036.26 122.680   1
   0  -2  -9 2052.75 89.5200   1
   0   2   9 2161.67 92.7100   1
  -7   0   4 123.360 29.3500   1
  -7   0   4 138.990 31.7600   1
  -2   1  -9 1676.23 106.940   1
  -2   1  -9 1482.22 65.8400   1
  -2   1  -9 1196.41 80.3000   1
  -4  -3  -7 4574.59 146.430   1
  -4  -3  -7 4543.91 108.520   1
   2   1  -9 46.8400 30.3500   1
  -2  -1   9 54.3600 53.1700   1
  -2  -1   9 60.8400 24.4800   1
   7   3   1 6533.90 140.020   1
  -7  -3  -1 6498.69 130.510   1
  -5   6   3 180.760 39.8600   1
  -5   6   3 329.070 46.8400   1
  -7   4   0 11.7700 25.4500   1
  -7   4   0 25.7900 37.5700   1
  -3  -3   8 19.2000 42.2700   1
   3   3  -8 -1.4200 39.4000   1
  -4   0  -8 1137.40 54.9500   1
  -4   0  -8 1118.37 76.2000   1
  -7   1   4 57.5200 35.9600   1
  -7   1   4 75.1000 28.0300   1
  -2  -7  -4 26.8400 27.0800   1
   2   7   4 25.6800 31.2200   1
  -2  -7  -4 19.1600 28.6000   1
  -2  -7  -4 17.8600 62.1000   1
  -5  -3  -6 1420.65 65.2700   1
  -5  -3  -6 1478.51 90.5200   1
  -2   6   6 4100.29 177.380   1
  -2   6   6 4307.73 123.240   1
  -2   6   6 4498.87 117.030   1
  -4   1  -8 219.100 35.1900   1
  -4   1  -8 169.070 43.7700   1
  -6   5  -3 583.470 44.8000   1
  -6   5  -3 540.470 51.2500   1
   5   6   1 9049.00 155.260   1
  -5  -6  -1 9201.67 153.520   1
  -5  -6  -1 9197.92 182.640   1
  -5   5  -5 -1.8500 23.5800   1
  -5   5  -5 9.35000 26.8200   1
   0  -8   3 260.210 39.0200   1
   0   8  -3 351.350 58.2700   1
   0  -8   3 293.780 61.1700   1
  -7   1  -4 3747.30 104.130   1
  -7   1  -4 3702.36 106.930   1
  -7   0  -4 1379.70 66.2900   1
  -7   0  -4 1555.67 70.4400   1
  -6   0   6 3378.03 95.5800   1
   6   0  -6 3660.37 113.810   1
  -6   0   6 3624.77 112.170   1
  -6   0   6 3267.88 96.9500   1
  -2   1   9 1650.52 84.4700   1
  -2   1   9 1501.26 66.8600   1
  -2   1   9 1467.97 86.9700   1
  -4   1   8 384.900 52.9000   1
  -4   1   8 455.580 42.7000   1
  -2   7  -5 207.930 49.5800   1
   2  -7   5 224.490 82.6200   1
   2  -7   5 256.980 36.0000   1
  -2   7  -5 244.310 36.1000   1
  -4  -1   8 68.3400 51.6800   1
   4   1  -8 75.9700 37.2000   1
  -4  -1   8 73.0700 31.5800   1
   1  -8   3 208.150 33.7000   1
  -1   8  -3 213.440 30.7300   1
  -1   8  -3 174.550 45.9300   1
   1  -8   3 253.800 60.5300   1
  -1   2   9 973.700 78.6200   1
   1  -2  -9 783.800 94.4100   1
  -4   6  -5 59.7500 28.5000   1
  -4   6  -5 -12.540 25.6100   1
  -4   6  -5 97.2100 57.2900   1
  -5   4  -6 1450.02 80.1200   1
  -5   4  -6 1552.58 63.3800   1
   1   8   2 170.480 38.7000   1
  -1  -8  -2 164.770 29.6300   1
   1   8   2 167.340 52.0300   1
  -1  -8  -2 182.640 37.1100   1
  -1  -8  -2 90.2500 77.0900   1
  -7  -2  -3 1380.85 66.9100   1
  -7  -2  -3 1278.03 54.3700   1
  -5  -1  -7 86.9800 28.8000   1
  -5  -1  -7 31.1900 38.3600   1
  -7   4  -1 25.3800 28.8100   1
  -7   4  -1 41.4200 34.5200   1
   7  -4   1 -21.830 35.6800   1
  -3   3   8 346.080 62.4500   1
  -3   3   8 337.730 50.3400   1
  -3   3   8 401.840 43.9400   1
  -4   4  -7 536.590 50.7000   1
  -4   4  -7 518.640 46.0600   1
  -7   3  -3 5923.17 133.350   1
  -7   3  -3 5620.46 116.310   1
   3   6   5 27.4200 30.1200   1
  -3  -6  -5 69.5700 33.8000   1
  -3  -6  -5 138.060 44.1900   1
  -3  -6  -5 28.9400 35.2300   1
  -5   2  -7 436.460 37.5300   1
  -5   2  -7 316.010 38.8600   1
  -1  -4  -8 3015.43 98.0900   1
  -1  -4  -8 3140.38 100.840   1
   1   4   8 3400.88 122.130   1
  -1  -4  -8 3272.45 141.060   1
  -6  -5   0 289.010 36.9500   1
   6   5   0 260.490 36.6600   1
  -6  -5   0 214.200 36.7900   1
   2   4  -8 860.730 86.1400   1
  -3  -7  -3 2382.72 114.440   1
  -3  -7  -3 2263.04 77.6700   1
   3   7   3 2484.65 89.1300   1
  -3  -7  -3 2291.76 80.5000   1
  -4   7  -3 995.200 57.1600   1
  -4   7  -3 1015.17 54.6300   1
  -4   7  -3 1164.36 81.7300   1
  -7   4   1 5.08000 25.4200   1
  -7   4   1 64.0500 33.1800   1
  -2  -8   0 553.570 58.5200   1
  -2  -8   0 524.230 41.5300   1
   2   8   0 440.380 45.5800   1
  -6   1   6 575.390 45.7300   1
  -6   1   6 541.730 46.0300   1
  -6   1   6 516.540 51.9000   1
  -6   1  -6 461.500 45.7900   1
  -6   1  -6 405.460 43.5100   1
  -6   0  -6 200.480 35.8300   1
  -6   0  -6 100.860 29.6700   1
  -1  -2  -9 1012.35 57.4900   1
   1   2   9 812.320 66.6300   1
  -1  -2  -9 1172.70 65.9500   1
  -1  -2  -9 1049.79 80.0300   1
   6   5  -1 2708.36 88.5900   1
  -6  -5   1 2489.84 79.1500   1
  -6  -5   1 2507.34 98.2600   1
  -6  -5   1 2406.48 88.0100   1
  -3   5  -7 4371.12 122.640   1
  -3   5  -7 4561.92 116.010   1
  -3   5  -7 4626.67 161.100   1
  -2  -1  -9 282.150 53.9400   1
  -2  -1  -9 310.690 58.4400   1
  -2  -1  -9 274.640 36.3200   1
  -2  -1  -9 292.970 57.7600   1
   2  -8  -2 696.250 61.0100   1
  -2   8   2 729.280 51.6600   1
  -2   8   2 845.750 74.7100   1
  -2   8   2 706.320 45.4200   1
   0   7   5 2194.26 102.140   1
   0  -7  -5 2282.15 86.1500   1
   0   7   5 2364.81 93.2000   1
   0  -7  -5 2253.34 88.0200   1
   0  -7  -5 2305.24 134.620   1
  -7   3   3 66.9600 30.4800   1
  -7   3   3 124.880 36.3100   1
   7   1  -4 1905.78 78.8700   1
  -7  -1   4 1784.36 74.1100   1
  -7  -1   4 1924.15 72.8400   1
   2   8  -1 -4.2400 34.1800   1
  -2  -8   1 31.4600 30.8100   1
  -2  -8   1 43.8200 54.7600   1
   4   7   0 1448.66 64.6000   1
  -4  -7   0 1334.55 65.1000   1
  -4  -7   0 1384.48 79.0500   1
  -5  -6   2 2575.57 100.720   1
   5   6  -2 2323.71 78.0500   1
  -5  -6   2 2451.58 104.000   1
   5   5   4 3241.64 96.3200   1
  -5  -5  -4 3472.56 93.7500   1
  -5  -5  -4 3205.87 108.830   1
   7   3  -2 656.770 53.3200   1
  -7  -3   2 646.820 54.8900   1
  -7  -3   2 683.680 47.8000   1
  -3   6  -6 265.610 32.3500   1
  -3   6  -6 250.540 63.2800   1
  -3   6  -6 203.180 30.5900   1
  -6   5   3 6467.87 137.460   1
  -6   5   3 6412.57 146.170   1
  -6   5   3 6231.86 136.770   1
  -5   2   7 75.3300 35.4100   1
  -5   2   7 64.9700 26.4200   1
  -1   7   5 316.730 51.4900   1
   1  -7  -5 388.050 47.3500   1
  -1   7   5 341.590 52.6900   1
   1  -7  -5 452.430 97.7800   1
   1  -7  -5 294.910 55.6500   1
  -3   7   4 -68.470 45.1900   1
  -3   7   4 27.8000 26.0000   1
   3  -7  -4 -46.480 43.5000   1
  -3   7   4 40.1100 44.3800   1
  -4   5   6 578.310 53.8000   1
  -4   5   6 516.370 40.8900   1
  -4   5   6 638.190 62.3300   1
  -4  -7   1 4457.01 124.530   1
   4   7  -1 5035.48 127.270   1
  -6  -1   6 905.720 64.9600   1
  -6  -1   6 767.680 54.0200   1
   6   1  -6 749.390 55.4800   1
  -6  -5  -1 1979.58 87.6000   1
  -6  -5  -1 1892.32 67.5000   1
   6   5   1 2070.60 77.3900   1
  -6  -3   5 109.410 39.8300   1
   6   3  -5 192.360 34.8400   1
  -6  -3   5 149.820 32.9300   1
  -2   2  -9 473.750 71.3200   1
  -2   2  -9 359.170 38.2500   1
  -4  -1  -8 1213.64 56.3600   1
  -4  -1  -8 1109.47 86.8700   1
  -4  -6  -4 -11.660 37.3900   1
   4   6   4 51.5500 27.9000   1
  -4  -6  -4 62.4500 33.4500   1
  -3   8   0 215.370 63.3400   1
  -3   8   0 151.030 36.6600   1
  -3   8   0 120.660 27.8000   1
   0   3  -9 4123.51 152.910   1
   0   3  -9 4284.82 133.720   1
  -7   2  -4 1661.25 65.4200   1
  -7   2  -4 1706.48 68.7600   1
  -4   2  -8 3338.77 123.070   1
  -4   2  -8 3493.86 99.7800   1
  -2  -8  -1 79.8000 50.4400   1
   2   8   1 80.5700 32.3100   1
  -2  -8  -1 65.6900 24.3500   1
  -2  -8  -1 88.5500 26.7700   1
  -2  -5  -7 571.810 63.7000   1
  -2  -5  -7 476.930 81.5100   1
  -2  -5  -7 503.210 76.1400   1
   2   5   7 495.390 55.8000   1
  -2  -5  -7 501.010 41.4700   1
   1   8  -3 735.410 60.1900   1
  -1  -8   3 716.560 62.6500   1
  -5  -2   7 1305.40 68.8100   1
  -5  -2   7 1166.95 78.2300   1
  -5  -2   7 1348.76 80.2200   1
   5   2  -7 1253.13 64.4900   1
  -7  -1  -4 6915.34 142.130   1
  -7  -1  -4 6045.57 124.840   1
  -7  -3  -2 -0.2500 32.6300   1
  -7  -3  -2 -16.510 29.2700   1
   7   3   2 46.6600 32.3400   1
  -3   8  -1 92.8000 35.0500   1
  -3   8  -1 160.530 48.6600   1
  -3   8  -1 80.5400 25.1000   1
  -5   5   5 218.910 38.2100   1
  -5   5   5 276.680 33.6100   1
  -7   2   4 1688.89 68.9300   1
  -7   2   4 1797.58 68.4900   1
  -2   4   8 10196.1 169.600   1
  -2   4   8 10426.5 196.790   1
  -2   4   8 10044.4 202.230   1
  -2  -2   9 781.750 57.9500   1
  -2  -2   9 863.950 73.3500   1
   2   2  -9 834.470 56.4900   1
  -4  -7  -1 5323.72 150.020   1
   4   7   1 5471.56 122.650   1
  -4  -7  -1 5381.38 122.200   1
   6   4  -4 3933.02 104.660   1
  -6  -4   4 4038.53 129.490   1
  -6  -4   4 4042.06 124.560   1
  -5   4   6 120.660 36.3500   1
  -5   4   6 26.7600 29.9300   1
  -7   4  -2 34.1400 25.6600   1
  -7   4  -2 11.9400 31.5900   1
   7  -4   2 38.0800 51.3900   1
   0   6  -7 329.330 49.3400   1
   0  -6   7 314.000 53.9800   1
   0   6  -7 353.120 45.3200   1
  -4   7   3 654.420 57.9800   1
  -4   7   3 803.920 48.0800   1
   4  -7  -3 811.900 86.1600   1
  -4   7   3 782.810 59.8800   1
  -4   7   3 686.880 63.6800   1
  -4  -5   6 85.2300 46.8600   1
  -4  -5   6 138.080 34.8500   1
   4   5  -6 180.890 48.2900   1
  -5  -6  -2 1315.78 60.6500   1
  -5  -6  -2 1452.85 76.0500   1
   5   6   2 1502.73 66.7500   1
   0  -8  -3 376.810 45.9900   1
   0  -8  -3 252.080 101.270   1
   0   8   3 267.640 44.8600   1
   0   8   3 321.710 55.7800   1
   0  -8  -3 300.300 38.4200   1
  -1   3  -9 2046.24 79.3600   1
  -1   3  -9 2130.02 100.790   1
  -2   8  -3 385.930 55.0900   1
  -2   8  -3 390.370 42.2100   1
   2  -8   3 428.870 39.9700   1
   2  -8   3 533.800 87.6200   1
  -6   2  -6 461.040 45.0100   1
  -6   2  -6 502.520 39.2800   1
   1  -8  -3 29.3900 23.7000   1
  -1   8   3 -8.2400 43.9600   1
   1  -8  -3 17.6800 107.650   1
   2   8  -2 58.6100 49.2100   1
  -2  -8   2 125.760 51.2300   1
  -6  -1  -6 22.5600 35.9300   1
  -6  -1  -6 -52.950 31.2400   1
   2   6   6 372.820 40.4300   1
  -2  -6  -6 440.630 42.3500   1
   2   6   6 431.030 63.9700   1
  -2  -6  -6 473.260 47.0200   1
  -2  -6  -6 529.460 78.2500   1
  -6  -5   2 2372.77 105.850   1
  -6  -5   2 2130.21 94.5000   1
   6   5  -2 2232.28 90.0200   1
  -4   4   7 418.250 42.7100   1
  -4   4   7 356.010 61.9100   1
  -3   8   1 57.1000 34.0000   1
  -3   8   1 -2.7200 59.5800   1
  -3   8   1 105.840 27.5600   1
  -1  -7  -5 160.650 31.4900   1
  -1  -7  -5 234.330 78.8400   1
  -1  -7  -5 222.930 31.9200   1
   1   7   5 157.240 35.3900   1
   1   7   5 82.7800 47.9700   1
  -3  -3  -8 36.7100 40.0800   1
  -3  -3  -8 34.9300 34.5200   1
  -3  -3  -8 38.9000 34.8100   1
  -3  -7   4 16.6000 34.4400   1
   3   7  -4 48.0000 32.5600   1
  -4   2   8 1.29000 36.1700   1
  -4   2   8 -0.1100 35.4200   1
   4   2  -8 167.800 36.1600   1
  -4  -2   8 105.870 30.9400   1
  -4  -2   8 109.500 50.2800   1
  -1   6  -7 211.070 35.1300   1
  -1   6  -7 279.220 59.3200   1
   2   7  -5 7919.39 210.220   1
  -2  -7   5 7546.96 219.390   1
  -5   6  -4 889.380 57.7100   1
  -5   6  -4 955.660 64.4300   1
  -5   6  -4 931.100 59.5300   1
  -7   4   2 2134.70 84.1400   1
  -7   4   2 2075.37 76.9700   1
  -7   4   2 2223.78 81.3800   1
  -4   6   5 0.05000 45.5700   1
  -4   6   5 65.3900 33.2800   1
  -4   6   5 17.7100 42.5400   1
  -4   6   5 31.1700 26.8000   1
  -1  -3   9 20.1100 37.0800   1
   1   3  -9 31.9700 32.4600   1
   4   7  -2 6605.23 185.640   1
  -4  -7   2 6156.18 170.480   1
  -6   2   6 2434.93 95.1000   1
  -6   2   6 2385.87 92.4400   1
  -6   2   6 2307.95 98.2600   1
  -2   2   9 162.460 48.3900   1
  -2   2   9 132.320 33.1600   1
  -2   2   9 37.0500 40.1300   1
   4   4  -7 869.590 67.2700   1
  -4  -4   7 728.940 59.7000   1
  -4  -4   7 825.220 82.8000   1
   0   5  -8 1355.84 77.9200   1
   0  -5   8 1350.62 80.7400   1
   0   5  -8 1513.64 96.6400   1
   6  -6   0 3074.61 129.080   1
  -6   6   0 2890.45 98.7900   1
  -6   6   0 3117.62 112.220   1
  -6   6   0 3051.03 95.3400   1
  -2   7   5 79.4900 28.6200   1
   2  -7  -5 163.920 66.7600   1
  -2   7   5 45.0000 38.6200   1
   2  -7  -5 70.1800 35.9400   1
  -2   7   5 81.2300 49.4500   1
  -3  -5   7 1828.51 88.4900   1
   3   5  -7 1959.71 85.0000   1
  -6  -3  -5 3799.92 130.170   1
  -6  -3  -5 4063.58 113.760   1
  -5   7   0 328.930 46.2900   1
  -5   7   0 299.570 40.7900   1
  -5   7   0 287.290 44.9600   1
  -3   8  -2 665.720 51.3900   1
  -3   8  -2 800.040 75.0600   1
  -3   8  -2 744.640 54.2200   1
  -6   4  -5 24.9300 30.0300   1
  -6   4  -5 43.3400 24.0000   1
  -6   6  -1 69.3600 28.3000   1
  -6   6  -1 -20.230 30.8400   1
   6  -6   1 14.4900 70.6100   1
  -6   6  -1 27.8300 24.1900   1
  -1   5  -8 5956.01 158.280   1
  -1   5  -8 6061.75 201.850   1
  -6  -5  -2 426.370 48.4100   1
   6   5   2 468.220 45.1500   1
  -6  -5  -2 474.110 45.5000   1
  -3   4  -8 472.510 73.0000   1
  -3   4  -8 380.770 42.8300   1
  -5  -2  -7 351.500 44.5400   1
  -5  -2  -7 323.530 43.1300   1
   5   4  -6 3524.41 114.900   1
  -5  -4   6 3794.73 152.770   1
  -5  -4   6 3750.35 139.230   1
   1   6  -7 27.2900 32.5900   1
   1   6  -7 40.1100 37.6500   1
  -5   3  -7 2544.72 91.8500   1
  -5   3  -7 2606.88 109.750   1
  -8   0   0 10909.5 222.030   1
  -8   0   0 11179.5 171.850   1
  -3   5   7 1754.21 92.6600   1
  -3   5   7 1538.45 67.0900   1
  -3   5   7 1446.18 81.5100   1
  -2  -4  -8 728.170 63.7600   1
  -2  -4  -8 779.530 56.0200   1
  -2  -4  -8 762.560 73.2800   1
  -2  -4  -8 746.200 75.9400   1
  -8   1   0 735.090 57.5900   1
  -8   1   0 859.960 57.8600   1
   3   0  -9 174.000 31.6400   1
  -3   0   9 202.670 35.9700   1
  -5   7  -1 176.800 39.2400   1
  -5   7  -1 198.760 38.7200   1
  -5   7  -1 220.810 39.0500   1
   7   2  -4 3459.04 112.550   1
  -7  -2   4 3126.95 100.940   1
  -7  -2   4 3341.49 115.410   1
  -6  -4  -4 -16.630 31.9300   1
  -6  -4  -4 11.9300 25.4000   1
   6   4   4 0.12000 38.3700   1
   5   6  -3 8765.95 214.540   1
  -5  -6   3 8274.22 215.020   1
  -2  -2  -9 1913.58 104.220   1
  -2  -2  -9 1907.59 78.9000   1
  -2  -2  -9 1846.38 80.8800   1
  -6   6   1 169.320 38.5200   1
  -6   6   1 211.590 38.1300   1
  -6   6   1 121.960 29.0300   1
   6  -6  -1 190.110 66.5600   1
  -1  -8  -3 385.920 66.8500   1
  -1  -8  -3 387.010 45.5500   1
   1   8   3 248.460 57.6100   1
  -1  -8  -3 260.070 35.6600   1
   1   8   3 339.970 53.9200   1
  -6  -2   6 57.2900 25.2600   1
  -6  -2   6 -20.710 29.1900   1
   6   2  -6 -13.800 27.2600   1
  -2  -8  -2 406.560 73.8700   1
   2   8   2 432.210 53.2900   1
  -2  -8  -2 478.140 45.7800   1
  -2  -8  -2 502.690 46.0100   1
  -3   6   6 86.6200 27.7800   1
  -3   6   6 104.320 34.9200   1
  -3   6   6 135.890 38.3400   1
   7   3  -3 84.6900 33.4900   1
  -7  -3   3 10.9100 34.2100   1
  -7  -3   3 -13.650 27.3100   1
   0   3   9 123.170 61.0700   1
   0  -3  -9 178.350 35.2200   1
   0  -3  -9 127.890 56.4300   1
  -3  -6   6 353.010 45.0800   1
   3   6  -6 340.290 43.9100   1
   0  -8   4 1796.43 97.2800   1
   0   8  -4 1889.04 104.280   1
   0  -8   4 1758.04 84.4400   1
  -4  -7  -2 3675.84 141.220   1
  -4  -7  -2 3739.54 109.900   1
   4   7   2 3914.45 121.830   1
  -3   0  -9 17.4200 38.6400   1
  -3   0  -9 63.4200 30.7000   1
  -3   7  -5 3691.72 144.450   1
  -3   7  -5 3938.78 126.280   1
  -3   7  -5 4054.39 186.130   1
  -8   0   1 1197.46 59.7400   1
  -8   0   1 1385.37 61.6800   1
   5  -7  -1 128.000 54.1600   1
  -5   7   1 40.8000 38.9500   1
  -5   7   1 53.1600 28.5000   1
  -5   7   1 78.0300 38.3800   1
  -6   5  -4 1947.33 75.5000   1
  -6   5  -4 2115.03 80.9300   1
  -5  -5   5 534.110 60.1400   1
  -5  -5   5 416.350 60.2800   1
   5   5  -5 553.900 47.9000   1
  -3   1  -9 67.7600 54.3900   1
  -3   1  -9 -21.860 27.9200   1
  -8   1   1 -54.020 26.7900   1
  -8   1   1 23.5800 37.6100   1
   1   5  -8 443.070 64.1700   1
  -1   8  -4 3369.98 116.160   1
   1  -8   4 3598.82 133.380   1
   1  -8   4 3478.39 156.160   1
  -1   8  -4 3637.21 135.720   1
   0  -7   6 451.190 53.2600   1
   0   7  -6 485.250 66.0600   1
   0   7  -6 448.640 50.9200   1
  -8   0  -1 601.440 56.0300   1
  -8   0  -1 637.760 47.5500   1
  -8   1  -1 86.2400 35.0600   1
  -8   1  -1 24.8900 35.0500   1
  -3  -1   9 2527.78 92.1100   1
   3   1  -9 2415.45 95.0000   1
  -3  -1   9 2518.83 114.660   1
  -2   8   3 1310.34 84.8700   1
  -2   8   3 1520.35 78.9600   1
  -2   8   3 1467.30 75.6700   1
   2  -8  -3 1412.98 80.8500   1
  -4  -6   5 83.4000 41.5900   1
   4   6  -5 75.0300 40.3500   1
  -5   6   4 96.3600 45.5800   1
  -5   6   4 52.7800 37.7700   1
  -1   3   9 1106.24 71.2300   1
   1  -3  -9 973.820 130.540   1
   1  -3  -9 888.490 69.7100   1
  -4  -2  -8 1450.73 75.8400   1
  -4  -2  -8 1469.82 70.2800   1
  -3   1   9 1048.59 89.5900   1
  -3   1   9 883.700 56.1600   1
  -4   7  -4 1993.10 124.150   1
  -4   7  -4 2308.42 89.8000   1
  -4   7  -4 2126.12 102.340   1
  -1   7  -6 1038.53 80.6300   1
   1  -7   6 945.350 86.1500   1
  -1   7  -6 1006.46 77.4000   1
  -6   4   5 6.40000 40.1800   1
  -6   4   5 21.2300 32.9900   1
  -3   8   2 -0.4500 36.1500   1
  -3   8   2 19.4000 38.9400   1
  -3   8   2 -1.9200 60.2600   1
  -7   3  -4 1900.76 82.4100   1
  -7   3  -4 1855.38 74.0900   1
  -2   3  -9 2666.88 106.650   1
  -2   3  -9 2909.64 154.980   1
  -2   6  -7 1124.26 76.8300   1
  -2   6  -7 1118.24 57.2600   1
  -4   3  -8 1591.64 96.6700   1
  -4   3  -8 1605.16 71.5500   1
  -5   3   7 193.980 39.4500   1
  -5   3   7 192.580 31.9100   1
  -7  -2  -4 96.6600 36.6300   1
  -7  -2  -4 106.300 43.1900   1
   7   4   0 75.1500 38.3600   1
  -7  -4   0 72.0200 31.4600   1
  -7  -4   0 43.1400 35.5100   1
  -6   6  -2 3871.93 112.040   1
  -6   6  -2 3608.54 106.170   1
  -6   6  -2 3965.98 118.050   1
  -7  -3  -3 1390.18 71.3800   1
  -7  -3  -3 1324.34 71.8600   1
  -8  -1   0 989.740 61.1500   1
  -8  -1   0 690.100 59.1400   1
  -2  -8   3 37.9700 39.5700   1
   2   8  -3 123.650 51.0500   1
  -7   4  -3 72.5900 30.5700   1
  -7   4  -3 47.1500 34.0700   1
   7   0  -5 2348.21 97.4800   1
  -7   0   5 2369.35 89.1000   1
  -7   0   5 2180.98 92.6800   1
  -3  -7  -4 0.41000 26.5200   1
  -3  -7  -4 57.3700 33.3600   1
   3   7   4 54.6900 30.3900   1
  -3  -7  -4 -24.440 47.3400   1
   1   3   9 490.280 70.7200   1
  -1  -3  -9 427.240 54.3300   1
  -1  -3  -9 446.180 75.9500   1
  -1  -3  -9 540.140 51.2100   1
  -5   7  -2 1988.88 74.9900   1
  -5   7  -2 1788.54 77.9200   1
  -5   7  -2 1733.86 107.090   1
  -6  -5   3 289.270 42.1400   1
  -6  -5   3 264.580 37.7300   1
   6   5  -3 242.630 43.3100   1
  -8   2   0 2739.46 100.210   1
  -8   2   0 2889.74 93.4500   1
  -4  -5  -6 46.7400 45.7900   1
   4   5   6 63.5200 26.0400   1
  -4  -5  -6 76.1400 26.9800   1
  -4  -5  -6 4.40000 35.2600   1
  -7   3   4 55.1000 43.6800   1
  -7   3   4 124.060 29.5000   1
  -7   3   4 124.790 33.6900   1
  -3  -4   8 2017.74 119.330   1
  -3  -4   8 1870.57 93.6300   1
   3   4  -8 1981.90 86.5400   1
  -6   3  -6 432.610 44.5600   1
  -6   3  -6 475.800 47.6200   1
   7   4  -1 348.460 54.8600   1
  -7  -4   1 178.210 30.2000   1
  -7  -4   1 230.900 36.9700   1
  -7  -4   1 173.860 49.9000   1
  -4  -7   3 2585.54 102.170   1
   4   7  -3 2792.62 101.540   1
  -7   1   5 1004.57 65.2700   1
  -7   1   5 993.260 65.8100   1
  -6  -2  -6 1778.84 80.8400   1
  -6  -2  -6 1943.47 75.8400   1
  -3  -1  -9 2.23000 38.8100   1
  -3  -1  -9 -0.4800 37.1700   1
  -2  -3   9 1901.16 101.260   1
   2   3  -9 1737.19 86.9800   1
  -6   5   4 79.1600 35.4400   1
  -6   5   4 19.9300 44.1900   1
  -8  -1   1 2007.54 90.1700   1
  -8  -1   1 2045.38 112.540   1
   5   6   3 567.910 61.6500   1
  -5  -6  -3 588.790 49.7500   1
  -5  -6  -3 532.620 66.0700   1
   1   8  -4 72.4700 68.3200   1
  -1  -8   4 22.2100 29.8300   1
  -7   1  -5 237.860 36.7300   1
  -7   1  -5 217.680 41.3100   1
   5   3  -7 545.540 46.9800   1
  -5  -3   7 551.350 49.7800   1
  -5  -3   7 550.450 63.1400   1
  -7   0  -5 3175.90 108.280   1
  -7   0  -5 3157.72 95.3000   1
   1   7  -6 1035.27 83.9800   1
   1   7  -6 1150.96 68.8000   1
  -2   5  -8 988.380 64.6600   1
  -2   5  -8 1031.07 88.7400   1
  -8  -1  -1 253.330 39.4900   1
  -8  -1  -1 336.680 41.8300   1
  -8   2  -1 598.330 51.1700   1
  -8   2  -1 665.930 54.1100   1
  -7   4   3 875.980 59.0500   1
  -7   4   3 1277.17 64.8800   1
  -7   4   3 1058.51 65.9300   1
  -4  -4  -7 5605.51 176.240   1
  -4  -4  -7 5675.55 157.000   1
  -3   2  -9 411.250 65.5300   1
  -3   2  -9 492.770 45.9400   1
   2   7   5 1186.85 75.3100   1
  -2  -7  -5 1287.99 73.7200   1
  -2  -7  -5 1376.22 99.3600   1
   2   7   5 1258.46 73.4900   1
  -2  -7  -5 1350.56 73.7600   1
  -8   2   1 448.720 42.9500   1
  -8   2   1 538.400 44.6900   1
   0  -6  -7 59.2700 27.9500   1
   0  -6  -7 -10.920 39.7300   1
   0  -6  -7 14.5900 66.5200   1
   0  -6  -7 31.9100 43.3100   1
   0   6   7 73.8800 42.4100   1
   7   4   1 -24.180 30.4200   1
  -7  -4  -1 18.9700 47.2300   1
  -7  -4  -1 27.6600 31.6200   1
  -8   0   2 1971.13 74.0500   1
  -8   0   2 2059.00 82.5700   1
  -3  -8   0 2018.71 99.7100   1
   3   8   0 2014.57 86.9600   1
  -6   6   2 1617.16 82.7700   1
  -6   6   2 1698.57 76.8000   1
  -6   6   2 1639.96 68.5400   1
   6  -6  -2 1569.42 87.9100   1
  -3   4   8 79.2300 32.7400   1
  -3   4   8 96.0900 50.4400   1
  -3   4   8 72.0500 49.4000   1
  -8   1   2 979.320 61.7000   1
  -8   1   2 1218.45 61.7900   1
  -3   8  -3 -49.360 70.2500   1
  -3   8  -3 48.8000 31.5100   1
  -3   8  -3 59.3100 35.6900   1
  -8   1  -2 97.2600 39.3700   1
  -8   1  -2 112.180 35.2900   1
  -3  -8   1 310.750 60.0100   1
   3   8  -1 349.160 56.8700   1
  -5  -4  -6 178.560 52.0600   1
  -5  -4  -6 229.140 34.6000   1
   1  -6  -7 289.820 119.410   1
  -1   6   7 392.020 65.4800   1
   1  -6  -7 312.670 51.5800   1
  -8   0  -2 1941.65 85.9700   1
  -8   0  -2 1971.43 73.9100   1
  -2   8  -4 1571.13 72.7600   1
  -2   8  -4 1668.48 110.410   1
   2  -8   4 1660.67 117.250   1
   2  -8   4 1459.89 74.9100   1
  -7   5   0 345.270 42.7400   1
   7  -5   0 328.460 65.3800   1
  -7   5   0 366.170 45.7900   1
  -7   5   0 300.910 36.4700   1
  -5   7   2 275.720 56.5200   1
  -5   7   2 115.760 40.4800   1
  -5   7   2 118.310 38.4600   1
   5  -7  -2 208.040 53.5500   1
  -6   3   6 21.0400 24.9700   1
  -6   3   6 62.8500 33.4200   1
   7   1  -5 1246.75 68.9900   1
  -7  -1   5 1418.06 71.0200   1
  -7  -1   5 1415.06 63.8000   1
  -4   3   8 1328.14 70.5300   1
  -4   3   8 1471.97 86.9300   1
   4   3  -8 983.770 69.3700   1
  -4  -3   8 963.230 79.1700   1
  -4  -3   8 987.360 74.2600   1
   0   5   8 206.460 46.7800   1
   0  -5  -8 163.080 33.8700   1
   0  -5  -8 187.650 86.6500   1
   3   2  -9 125.840 34.7600   1
  -3  -2   9 101.790 50.5600   1
  -3  -2   9 123.790 30.5400   1
   0   4  -9 738.030 63.7400   1
   0   4  -9 845.370 73.2300   1
  -5   5  -6 902.370 65.7600   1
  -5   5  -6 1099.30 67.2400   1
  -3  -5  -7 3111.63 115.040   1
  -3  -5  -7 3060.66 102.930   1
  -3  -5  -7 3467.70 139.420   1
  -2   7  -6 138.510 26.3400   1
   2  -7   6 168.050 61.9900   1
  -2   7  -6 256.300 66.1000   1
  -7   5  -1 527.090 45.0600   1
   7  -5   1 369.470 60.8200   1
  -7   5  -1 447.160 45.8700   1
   2   6  -7 478.990 51.6500   1
  -2  -6   7 379.790 43.6200   1
  -4   5  -7 49.7000 51.5600   1
  -4   5  -7 34.1700 25.8700   1
  -4   5  -7 145.840 27.4500   1
   4  -7  -4 1392.16 113.670   1
  -4   7   4 1356.01 71.3300   1
  -4   7   4 1346.38 80.8800   1
  -4   7   4 1524.26 80.2200   1
  -4   7   4 1326.59 112.110   1
  -5  -5  -5 3424.61 134.480   1
  -5  -5  -5 3667.26 119.780   1
   5   5   5 3535.77 118.090   1
  -2   3   9 827.490 61.8600   1
  -2   3   9 752.240 60.2900   1
  -2   3   9 789.760 68.3500   1
   6   5   3 214.770 34.8100   1
  -6  -5  -3 189.880 50.8200   1
  -6  -5  -3 250.610 38.9100   1
  -1   5   8 1610.27 89.1000   1
   1  -5  -8 1630.45 138.460   1
   1  -5  -8 1769.20 92.0000   1
  -4   6  -6 204.140 29.7200   1
  -4   6  -6 273.070 36.6800   1
  -4   6  -6 206.310 31.9500   1
  -4   6  -6 92.7800 65.3500   1
   0  -8  -4 3058.84 104.800   1
   0  -8  -4 3273.92 169.940   1
   0   8   4 3232.00 116.270   1
   0   8   4 3198.82 128.840   1
   0  -8  -4 3061.64 116.500   1
  -3  -8  -1 77.9500 28.5100   1
   3   8   1 10.2200 36.6600   1
  -3  -8  -1 30.8300 59.7200   1
  -3  -8  -1 -26.780 35.3300   1
   3  -7  -5 1142.47 83.6900   1
  -3   7   5 1046.89 79.1800   1
  -3   7   5 877.550 56.5200   1
  -3   7   5 929.630 96.2000   1
  -3   2   9 403.330 65.8700   1
  -3   2   9 386.630 40.2600   1
  -3   2   9 413.410 58.5400   1
  -1   8   4 869.200 70.3600   1
   1  -8  -4 1126.90 115.350   1
  -1   8   4 837.480 85.4400   1
   1  -8  -4 931.050 71.6000   1
  -7  -4   2 2754.92 114.890   1
   7   4  -2 2825.23 98.3700   1
  -7  -4   2 2679.19 98.6400   1
  -7   5   1 85.1200 37.8300   1
  -7   5   1 96.1200 30.7900   1
  -7   5   1 78.8500 38.8100   1
  -4   8   0 29.6300 66.3700   1
  -4   8   0 -10.870 36.7200   1
  -4   8   0 66.1700 32.8400   1
  -7   2  -5 2038.31 75.0900   1
  -7   2  -5 1989.79 82.8500   1
  -1   4  -9 696.580 65.8600   1
  -1   4  -9 736.480 55.0600   1
  -6  -4   5 24.0900 35.6000   1
  -6  -4   5 52.7500 42.0100   1
   6   4  -5 48.1600 35.4300   1
   2   5  -8 1869.97 93.2000   1
  -8  -1   2 440.430 43.5100   1
  -8  -1   2 498.250 50.6900   1
  -2  -8  -3 728.000 84.8900   1
  -2  -8  -3 548.440 56.7700   1
  -2  -8  -3 586.170 46.4700   1
   2   8   3 594.730 50.5900   1
  -4  -6  -5 20.2100 26.1000   1
   4   6   5 3.41000 31.8100   1
  -4  -6  -5 30.1100 54.5000   1
  -4  -6  -5 54.2300 33.2500   1
  -7  -1  -5 116.810 38.9900   1
  -7  -1  -5 109.680 44.0400   1
   1   6   7 313.100 50.1900   1
  -1  -6  -7 273.990 37.1600   1
  -1  -6  -7 373.870 69.6200   1
  -1  -6  -7 293.340 46.3700   1
  -1  -6  -7 310.670 87.7700   1
  -4   8  -1 68.1000 27.6800   1
  -4   8  -1 58.0300 34.3000   1
  -4   8  -1 96.4900 47.3400   1
  -7   2   5 392.750 42.5700   1
  -7   2   5 373.190 38.3800   1
  -7   2   5 507.530 58.3000   1
   0   0 -10 207.030 49.0500   1
   0   0 -10 210.590 36.8300   1
   0   0  10 251.950 56.6400   1
   0   0 -10 198.190 49.0500   1
  -5   0   8 2126.30 82.6300   1
  -5   0   8 2249.63 94.9800   1
   5   0  -8 2247.85 90.2600   1
  -4  -7  -3 1408.59 81.8100   1
  -4  -7  -3 1478.68 68.1900   1
   4   7   3 1405.58 69.6700   1
  -3  -6  -6 271.670 51.7400   1
   3   6   6 205.430 36.8200   1
  -3  -6  -6 199.770 34.1900   1
  -3  -6  -6 236.900 39.3200   1
   3   8  -2 799.880 60.9900   1
  -3  -8   2 951.330 91.6600   1
  -8   2  -2 548.690 48.1600   1
   8  -2   2 378.290 62.0500   1
  -8   2  -2 435.250 49.8500   1
  -3  -7   5 52.9200 35.0100   1
   3   7  -5 58.0000 47.5400   1
  -8   2   2 1162.39 54.9800   1
  -8   2   2 1200.43 61.5500   1
   5   6  -4 498.870 54.7900   1
  -5  -6   4 566.910 55.3100   1
  -8  -1  -2 152.010 30.4100   1
  -8  -1  -2 164.820 44.6100   1
   1   4  -9 72.8600 44.9100   1
   1   4  -9 13.3400 26.2800   1
  -1  -4   9 -37.590 43.0400   1
   0   1 -10 834.260 78.2400   1
   0   1 -10 898.050 67.6500   1
   0   1 -10 900.800 70.6300   1
  -1  -5  -8 2117.94 101.570   1
   1   5   8 2260.02 108.160   1
  -1  -5  -8 2085.11 137.730   1
  -1  -5  -8 1855.97 120.540   1
  -1  -5  -8 2058.22 94.8000   1
  -6   6  -3 22.0000 22.7000   1
  -6   6  -3 49.5100 34.1700   1
  -6   6  -3 17.6300 30.6500   1
  -5   6  -5 34.2600 31.0400   1
  -5   6  -5 -1.1900 32.1400   1
  -5   6  -5 -5.9200 26.9700   1
   0  -7  -6 186.870 43.0400   1
   0   7   6 295.150 65.9800   1
   0  -7  -6 180.890 48.9300   1
   0  -7  -6 207.620 55.5200   1
   0  -7  -6 153.670 89.9900   1
   0   7   6 131.370 31.6000   1
  -7  -4  -2 4007.53 128.660   1
   7   4   2 4224.57 126.180   1
  -7  -4  -2 4140.60 114.610   1
  -5   7  -3 169.020 28.5500   1
  -5   7  -3 123.120 37.5900   1
  -5   7  -3 271.940 31.4000   1
  -6  -3   6 32.6200 51.0900   1
   6   3  -6 -13.000 37.2800   1
  -6  -3   6 65.9200 35.2700   1
  -4   8   1 1365.65 70.1800   1
  -4   8   1 1103.26 80.6700   1
  -4   8   1 1264.00 60.4300   1
  -7  -3   4 89.4900 38.0100   1
  -7  -3   4 76.0200 39.9100   1
   7   3  -4 68.9500 29.9500   1
  -3   8   3 240.960 45.4100   1
  -3   8   3 276.200 42.3600   1
   3  -8  -3 337.640 80.4200   1
  -3   8   3 324.720 46.0900   1
  -5   1  -8 144.170 31.4300   1
  -5   1  -8 146.140 29.3900   1
  -8  -2   0 260.800 43.0400   1
  -8  -2   0 149.300 50.1400   1
   8   2   0 147.560 51.1000   1
  -6   0   7 1295.47 72.5900   1
   6   0  -7 1240.70 71.9800   1
  -6   0   7 1318.73 75.6800   1
  -6   0   7 1263.96 69.4000   1
  -5   1   8 143.260 60.0700   1
  -5   1   8 122.010 32.4300   1
  -5   0  -8 -7.1000 34.1500   1
  -5   0  -8 78.8000 33.0800   1
  -5  -3  -7 235.390 33.2200   1
  -5  -3  -7 262.930 50.5000   1
   1  -7  -6 260.320 111.080   1
  -1   7   6 207.180 35.4300   1
   1  -7  -6 293.100 71.2100   1
  -1   7   6 293.730 61.8900   1
   1  -7  -6 259.900 43.5000   1
  -2  -3  -9 608.560 45.8100   1
  -2  -3  -9 497.840 45.1700   1
  -2  -3  -9 516.080 56.3000   1
  -5   4  -7 2809.97 99.6400   1
  -5   4  -7 2495.20 101.950   1
   1   0 -10 73.1500 57.2700   1
  -1   0  10 15.3500 41.2000   1
  -1   0  10 50.3700 56.1800   1
   1   0 -10 33.3200 31.7500   1
  -2   6   7 1084.80 58.0000   1
  -2   6   7 1071.40 69.2900   1
   5   1  -8 2959.97 104.840   1
  -5  -1   8 2896.57 116.200   1
  -5  -1   8 2732.58 91.4800   1
  -8   3   0 47.5500 38.4900   1
  -8   3   0 186.910 32.3500   1
  -7   5  -2 162.440 28.0900   1
  -7   5  -2 205.050 37.2700   1
  -1   0 -10 768.630 65.8900   1
  -1   0 -10 641.370 51.6100   1
  -1   0 -10 608.330 52.3900   1
  -1   0 -10 506.090 52.6000   1
  -1  -8  -4 1222.88 95.3300   1
  -1  -8  -4 1271.02 80.0200   1
   1   8   4 1326.79 82.5600   1
  -1  -8  -4 1187.24 62.9400   1
   1   8   4 1295.17 76.6600   1
  -3  -4  -8 566.340 53.0300   1
  -3  -4  -8 419.180 60.7600   1
  -3  -4  -8 501.490 41.7100   1
  -3  -2  -9 690.430 55.4400   1
  -3  -2  -9 735.410 53.2700   1
  -3  -2  -9 663.370 46.7200   1
  -8  -2   1 89.5000 25.5900   1
   8   2  -1 25.6300 44.0600   1
  -8  -2   1 15.3900 38.9800   1
   0   1  10 1026.93 83.8800   1
   0  -1 -10 944.970 64.8600   1
   0  -1 -10 760.880 55.5300   1
   0  -1 -10 749.300 82.2600   1
  -1   1 -10 795.410 59.2200   1
  -1   1 -10 990.720 77.5200   1
  -1   1 -10 977.030 56.2600   1
  -6   1   7 -7.7300 25.9900   1
  -6   1   7 53.7200 39.8800   1
  -6   1   7 14.7500 31.1400   1
  -1  -1  10 10.0100 42.4700   1
   1   1 -10 51.8700 33.7500   1
  -1  -1  10 69.8500 45.4500   1
  -6   1  -7 220.540 37.5800   1
  -6   1  -7 144.610 42.3000   1
  -5   5   6 181.780 54.3900   1
  -5   5   6 217.510 33.3100   1
  -3   6  -7 3341.47 108.790   1
  -3   6  -7 3836.04 166.000   1
   0  -9   0 -57.210 73.2600   1
   0   9   0 -16.560 38.7600   1
   0  -9   0 35.9900 37.8400   1
  -6   0  -7 2047.18 84.0500   1
  -6   0  -7 2210.59 87.1100   1
  -1   9   0 375.870 45.7300   1
   1  -9   0 505.540 88.2400   1
   1  -9   0 363.730 46.4400   1
  -1   9   0 423.750 67.6500   1
  -8   0   3 158.830 37.1300   1
  -8   0   3 147.270 31.4800   1
  -8  -2  -1 2702.65 100.020   1
  -8  -2  -1 2868.05 86.6500   1
  -4   8  -2 881.870 53.3000   1
  -4   8  -2 920.510 54.3300   1
  -4   8  -2 945.700 98.8600   1
  -8   3  -1 1039.77 54.9900   1
  -8   3  -1 967.670 56.1800   1
   2  -8  -4 1171.44 90.6300   1
  -2   8   4 1158.33 66.9500   1
  -2   8   4 1270.07 99.7500   1
   2  -8  -4 1226.71 82.0700   1
   0   9  -1 3597.17 153.460   1
   0  -9   1 3555.40 114.710   1
   0  -9   1 3367.96 163.060   1
  -2   5   8 2672.11 103.140   1
  -2   5   8 2667.88 96.3900   1
   2   8  -4 1398.32 76.8600   1
  -2  -8   4 1623.98 90.3800   1
   2   7  -6 -20.440 48.1000   1
  -8   3   1 2662.12 89.5200   1
  -8   3   1 2732.76 92.2200   1
  -7   5   2 1245.16 64.7900   1
  -7   5   2 1053.17 64.2000   1
  -7   5   2 1030.32 61.8900   1
  -3   3  -9 1604.64 109.490   1
  -3   3  -9 1739.33 75.9600   1
  -7  -2   5 3421.11 111.530   1
   7   2  -5 3237.19 100.510   1
  -7  -2   5 3058.52 103.890   1
  -8   1   3 16.8000 37.4400   1
  -8   1   3 58.3600 36.8100   1
  -1   9  -1 1405.76 74.3800   1
  -1   9  -1 1588.45 88.7600   1
   1  -9   1 1287.61 122.870   1
   1  -9   1 1478.10 69.9900   1
  -3  -8  -2 204.920 46.8800   1
  -3  -8  -2 269.280 39.7600   1
   3   8   2 327.900 53.4500   1
  -3  -8  -2 294.160 30.4700   1
  -4  -3  -8 3405.80 136.410   1
  -4  -3  -8 3559.25 115.160   1
   6   1  -7 1002.35 61.4100   1
  -6  -1   7 877.340 58.0000   1
  -6  -1   7 851.930 64.1000   1
  -6  -1   7 991.560 54.3800   1
  -6   6   3 418.750 47.1500   1
  -6   6   3 472.750 49.1500   1
   0   8  -5 28.4800 55.6600   1
   0  -8   5 89.5000 46.0300   1
  -8   1  -3 991.450 57.2700   1
  -8   1  -3 1029.93 55.7400   1
   8  -1   3 1048.74 82.5900   1
  -6  -5   4 55.6000 28.9200   1
   6   5  -4 82.7700 41.6000   1
  -7   4  -4 419.560 37.5400   1
  -7   4  -4 490.630 41.3900   1
  -8   0  -3 105.830 41.1200   1
   8   0   3 166.880 49.6600   1
  -8   0  -3 208.350 30.8400   1
  -4   5   7 2689.57 109.590   1
  -4   5   7 2729.53 90.1600   1
  -4   5   7 2711.13 106.450   1
   1  -1 -10 842.600 67.2000   1
  -1   1  10 766.880 73.2200   1
   1  -1 -10 877.800 112.530   1
   4   7  -4 188.930 46.3400   1
  -4  -7   4 250.920 46.5000   1
  -1   8  -5 439.300 39.1600   1
   1  -8   5 477.210 63.7200   1
  -1   8  -5 349.920 51.3600   1
  -6  -4  -5 118.630 37.2200   1
  -6  -4  -5 138.650 29.4100   1
  -4   4  -8 94.3600 65.8800   1
  -4   4  -8 45.4800 23.4500   1
  -6   5  -5 370.230 38.0200   1
  -6   5  -5 337.130 31.3500   1
   1   7   6 50.8500 30.7700   1
  -1  -7  -6 70.1200 37.9700   1
   1   7   6 57.3500 38.6800   1
  -1  -7  -6 -25.570 36.7900   1
  -1  -7  -6 147.150 89.4600   1
  -7  -3  -4 33.6900 33.0000   1
  -7  -3  -4 52.6900 40.3800   1
  -6  -6   0 1070.13 67.9400   1
   6   6   0 1195.49 64.1900   1
  -6  -6   0 1263.15 62.6100   1
  -2   4  -9 880.310 50.8000   1
  -2   4  -9 1000.98 91.6900   1
  -5   7   3 659.050 44.4200   1
  -5   7   3 786.630 59.9200   1
   5  -7  -3 715.490 126.330   1
  -5   7   3 674.630 49.9100   1
  -4   6   6 854.090 65.1500   1
  -4   6   6 779.470 91.2900   1
  -4   6   6 914.580 57.1900   1
  -4   6   6 826.620 57.3800   1
  -5   2  -8 145.760 40.4200   1
  -5   2  -8 109.920 32.3300   1
   0   2 -10 613.640 54.6400   1
   0   2 -10 622.600 61.1800   1
  -5  -7   0 1096.64 66.9000   1
  -5  -7   0 1340.90 72.0200   1
   5   7   0 1306.22 62.2500   1
  -1  -1 -10 274.730 54.8800   1
  -1  -1 -10 356.850 49.0900   1
  -1  -1 -10 292.730 48.7000   1
  -5  -1  -8 827.210 59.1800   1
  -5  -1  -8 922.360 51.6500   1
   0  -4  -9 692.640 93.0200   1
   0  -4  -9 534.650 52.3200   1
   0   4   9 647.420 60.6500   1
   0  -4  -9 676.600 59.4900   1
   0   9   1 2120.92 109.930   1
   0  -9  -1 2372.67 137.350   1
   0   9   1 2373.51 118.860   1
   0  -9  -1 2420.55 91.4100   1
  -4   7  -5 47.2100 23.2200   1
  -4   7  -5 96.9900 51.5300   1
  -4   7  -5 84.1900 29.9700   1
  -4   0   9 171.710 41.8300   1
  -4   0   9 164.000 32.0700   1
   4   0  -9 173.940 36.7400   1
  -7  -4   3 76.0700 31.0600   1
  -7  -4   3 131.530 41.6000   1
   7   4  -3 47.9900 30.4600   1
  -3   5  -8 28.3700 51.5200   1
  -3   5  -8 60.1300 33.4000   1
  -6  -6   1 111.940 46.1000   1
   6   6  -1 60.6400 38.8200   1
  -6  -6   1 68.2400 26.9900   1
  -1   9   1 779.680 57.7800   1
   1  -9  -1 795.740 57.9700   1
   1  -9  -1 733.470 102.070   1
  -1   9   1 825.790 76.4500   1
  -4  -5   7 18.6100 30.2600   1
  -4  -5   7 53.3300 47.9500   1
   4   5  -7 30.6900 42.1200   1
  -5  -7   1 1721.70 85.4500   1
   5   7  -1 1629.03 78.3800   1
  -6   4  -6 507.240 45.0300   1
  -6   4  -6 530.710 41.6000   1
  -3   8  -4 3.43000 25.1900   1
  -3   8  -4 21.9100 29.7300   1
  -3   8  -4 154.650 75.8700   1
  -5   4   7 2481.64 93.7300   1
  -5   4   7 2671.29 102.420   1
  -7   3  -5 4118.84 117.420   1
  -7   3  -5 4184.13 128.950   1
  -5   6   5 131.120 36.8700   1
  -5   6   5 114.540 29.1500   1
   2  -7  -6 346.570 58.9000   1
   2  -7  -6 204.740 39.0700   1
  -2   7   6 314.540 61.8100   1
  -2   7   6 180.940 37.2500   1
   5   6   4 87.8900 43.8400   1
  -5  -6  -4 164.860 33.3100   1
  -5  -6  -4 16.7400 53.6300   1
  -4   8   2 267.680 34.1500   1
  -4   8   2 331.680 39.0600   1
  -4   8   2 273.990 51.4400   1
   4  -8  -2 341.610 61.4500   1
   1  -4  -9 -10.700 44.9800   1
  -1   4   9 41.3000 59.4400   1
   1  -4  -9 40.0300 102.040   1
  -6  -3  -6 1.97000 35.7400   1
  -6  -3  -6 -36.210 35.8200   1
  -7   4   4 1490.04 76.1000   1
  -7   4   4 1414.90 66.9500   1
  -7   4   4 1228.48 58.6300   1
  -6   2  -7 136.860 28.5900   1
  -6   2  -7 115.880 40.8900   1
  -3  -3   9 856.990 75.0800   1
   3   3  -9 773.100 65.3400   1
  -8  -1   3 3806.95 119.660   1
  -8  -1   3 3473.15 116.590   1
   8   1  -3 3669.78 113.130   1
  -8  -2   2 354.820 41.6100   1
  -8  -2   2 295.040 44.5400   1
   8   2  -2 364.440 50.2700   1
  -3  -8   3 815.510 60.2600   1
   3   8  -3 851.980 69.1700   1
  -5   2   8 167.970 30.8900   1
  -5   2   8 113.240 52.9000   1
  -1   2 -10 1010.78 79.8500   1
  -1   2 -10 1031.64 63.1300   1
   0  -9   2 427.750 79.8700   1
   0  -9   2 379.310 44.4000   1
   0   9  -2 415.860 91.3000   1
  -4   0  -9 106.260 33.5800   1
  -4   0  -9 91.8100 29.4600   1
  -6  -1  -7 582.580 53.5400   1
  -6  -1  -7 550.780 41.2800   1
  -4   1  -9 731.420 55.8200   1
  -4   1  -9 938.080 61.8300   1
  -6  -6  -1 119.560 34.6000   1
  -6  -6  -1 125.240 47.1600   1
   6   6   1 92.2600 37.4100   1
   1   9   0 68.1700 55.1200   1
  -1  -9   0 -18.670 31.8600   1
  -1  -9   0 7.58000 58.0500   1
  -7  -2  -5 3903.99 124.380   1
  -7  -2  -5 4019.42 121.760   1
   1  -9   2 2827.96 139.420   1
   1  -9   2 2764.43 93.6500   1
  -1   9  -2 3037.34 129.380   1
   3  -7   6 21.8800 80.7800   1
  -3   7  -6 -96.750 62.0500   1
  -3   7  -6 14.5700 21.9100   1
  -4  -1   9 29.4800 57.0700   1
  -4  -1   9 66.9100 31.3100   1
   4   1  -9 83.3100 33.0500   1
   5   7   1 19.6900 29.1300   1
  -5  -7  -1 7.52000 51.2400   1
  -5  -7  -1 13.3500 24.6600   1
  -1  -2  10 345.720 42.0700   1
   1   2 -10 227.390 39.3400   1
   1   2 -10 375.360 47.0700   1
  -1  -2  10 271.920 71.0600   1
  -4   1   9 176.530 44.2000   1
  -4   1   9 165.430 30.3300   1
  -2  -6  -7 115.440 62.3300   1
  -2  -6  -7 164.380 39.0600   1
   2   6   7 193.960 51.0300   1
  -2  -6  -7 168.200 31.3500   1
  -8   2  -3 309.610 48.3000   1
   8  -2   3 261.690 60.0600   1
  -8   2  -3 328.950 33.3600   1
   5   5  -6 450.470 51.2300   1
  -5  -5   6 324.780 65.2900   1
  -5  -5   6 424.540 40.2900   1
  -8   3  -2 3088.26 94.9700   1
  -8   3  -2 3380.15 107.380   1
   8  -3   2 3044.44 127.270   1
  -1  -9   1 869.050 52.0200   1
   1   9  -1 1022.60 72.1800   1
  -1  -9   1 849.280 82.5500   1
  -2   9   0 -86.970 50.3900   1
   2  -9   0 -59.520 104.960   1
  -2   9   0 47.6200 34.7700   1
   2   4  -9 1183.76 78.5700   1
  -6   2   7 470.880 58.7100   1
  -6   2   7 410.250 37.0400   1
  -5  -2   8 1412.95 84.7500   1
   5   2  -8 1252.74 68.7600   1
  -5  -2   8 1426.91 79.5200   1
   1   8  -5 558.220 65.1900   1
  -8   2   3 413.780 39.4700   1
  -8   2   3 458.470 46.3400   1
  -4  -6   6 1656.81 90.8900   1
   4   6  -6 1819.83 93.1000   1
  -2   0  10 292.890 68.0800   1
  -2   0  10 178.140 49.4100   1
  -7   3   5 79.0600 35.3500   1
  -7   3   5 101.240 29.1200   1
  -7   3   5 120.160 34.4500   1
  -8  -2  -2 2665.92 88.4800   1
  -8  -2  -2 2334.06 91.8800   1
  -8  -1  -3 31.4400 30.2900   1
  -8  -1  -3 71.6200 32.3100   1
  -8   3   2 3709.86 103.320   1
  -8   3   2 3464.83 100.860   1
  -3   3   9 1077.96 72.4800   1
  -3   3   9 1296.16 81.3600   1
  -3   3   9 1234.41 58.6700   1
  -2   9  -1 190.220 73.6500   1
  -2   9  -1 142.580 35.5500   1
   2  -9   1 271.280 90.7300   1
  -3  -7  -5 1995.92 105.490   1
  -3  -7  -5 2253.05 83.0300   1
  -3  -7  -5 2232.93 92.3200   1
   3   7   5 2280.35 96.9800   1
  -1  -4  -9 23.3000 59.9500   1
   1   4   9 50.7900 61.7800   1
  -1  -4  -9 87.5200 37.1600   1
  -1  -4  -9 82.2500 43.7500   1
   0   6  -8 1472.69 86.0400   1
   0   6  -8 1516.74 81.2500   1
  -2  -5  -8 545.060 50.9600   1
  -2  -5  -8 671.040 81.4100   1
  -2  -5  -8 516.960 49.7700   1
  -2   0 -10 372.610 47.0400   1
  -2   0 -10 431.050 61.8200   1
  -2   0 -10 318.130 44.9200   1
  -6   5   5 827.620 54.9000   1
  -6   5   5 851.800 56.1000   1
  -7  -4  -3 294.600 51.3500   1
  -7  -4  -3 478.410 44.8000   1
   7   4   3 421.950 54.2300   1
  -5  -4   7 426.900 45.3300   1
   5   4  -7 504.400 49.4500   1
  -5  -4   7 474.850 56.1600   1
  -7   5  -3 1307.17 64.6500   1
  -7   5  -3 1213.65 58.1500   1
  -2   1 -10 63.7800 50.1300   1
  -2   1 -10 141.940 43.1600   1
  -2  -1  10 99.0400 35.4400   1
  -2  -1  10 114.140 43.7300   1
   2   1 -10 107.470 29.9300   1
  -6  -6   2 2278.60 98.7200   1
   6   6  -2 2567.97 115.730   1
   6   5   4 81.1900 30.7500   1
  -6  -5  -4 143.010 38.8600   1
  -6  -5  -4 67.0000 32.2700   1
  -5  -7   2 2010.58 94.0200   1
   5   7  -2 1850.37 80.2600   1
   0  -2 -10 -14.330 45.5700   1
   0   2  10 -16.630 59.5600   1
   0  -2 -10 20.2700 65.0400   1
   0  -2 -10 -9.8800 28.6400   1
   2  -8   5 65.1700 71.2100   1
  -2   8  -5 -10.200 61.7000   1
  -6   4   6 1555.03 74.5100   1
  -6   4   6 1456.43 71.7600   1
  -1   6  -8 1148.73 62.8500   1
  -1   6  -8 1343.32 111.210   1
   1   9   1 2341.71 100.900   1
  -1  -9  -1 2292.05 96.7600   1
  -1  -9  -1 2029.54 123.360   1
  -4   8  -3 559.700 39.2800   1
  -4   8  -3 679.570 69.1200   1
  -4   8  -3 615.420 46.8300   1
  -6  -2   7 1007.23 63.0600   1
  -6  -2   7 1145.47 69.8200   1
   6   2  -7 1126.06 59.4700   1
  -3  -6   7 89.2100 31.7000   1
   3   6  -7 51.4600 42.8100   1
  -2   9   1 -13.720 36.3100   1
   2  -9  -1 33.4000 141.880   1
  -2   9   1 40.6500 62.5000   1
  -4   4   8 -0.2800 57.1600   1
  -4   4   8 41.8700 47.8000   1
  -4   4   8 74.0400 36.4000   1
   7   0  -6 1344.82 74.0800   1
  -7   0   6 1095.19 61.2900   1
  -7   0   6 1266.93 65.9500   1
   4   4  -8 309.390 44.6500   1
  -4  -4   8 319.130 54.7700   1
  -4  -4   8 311.660 38.7200   1
  -2   1  10 40.7800 60.2700   1
  -2   1  10 -33.120 44.3200   1
   0   7  -7 709.680 72.2300   1
   0   7  -7 620.880 50.6400   1
  -2  -8  -4 631.700 50.8200   1
  -2  -8  -4 641.970 49.0900   1
   2   8   4 594.980 48.6400   1
  -6   6  -4 148.110 33.0200   1
  -6   6  -4 118.310 27.4900   1
  -6   6  -4 178.850 33.3900   1
  -4  -1  -9 195.520 39.0000   1
  -4   2  -9 53.9900 38.6200   1
   0   9   2 736.230 64.9100   1
   0  -9  -2 717.300 55.4700   1
   0   9   2 734.930 68.8500   1
   0  -9  -2 595.300 94.9600   1
  -5   7  -4 54.3900 28.9900   1
  -5   7  -4 17.7400 33.0300   1
  -1   2  10 4.65000 61.8800   1
   1  -2 -10 114.280 96.1700   1
   1  -2 -10 0.72000 41.0400   1
  -1   9   2 830.890 70.9200   1
   1  -9  -2 990.460 131.910   1
   1  -9  -2 767.110 60.8000   1
  -1   9   2 928.400 70.2300   1
  -4  -7  -4 44.1000 28.7000   1
  -4  -7  -4 23.4300 41.3200   1
   4   7   4 63.1400 40.3600   1
  -4  -7  -4 88.4200 29.8000   1
  -3   6   7 1289.02 85.0700   1
  -3   6   7 1430.19 82.0300   1
  -3   6   7 1404.83 69.2700   1
  -1  -9   2 -39.810 56.5300   1
  -1  -9   2 20.0000 32.8100   1
   1   9  -2 -71.220 52.1300   1
   3   5  -8 158.680 36.2700   1
  -7   1   6 17.7400 29.9500   1
  -7   1   6 19.2400 34.2800   1
  -7   1   6 31.9900 55.8400   1
  -1   7  -7 62.9500 51.4600   1
  -1   7  -7 6.15000 25.0400   1
  -7   5   3 273.250 34.8100   1
  -7   5   3 274.240 37.1900   1
  -7   5   3 224.920 32.7900   1
  -7   1  -6 186.200 37.3800   1
  -7   1  -6 154.510 31.2300   1
   2  -9   2 996.860 113.220   1
   2  -9   2 959.260 63.4100   1
  -2   9  -2 967.560 59.0700   1
  -2   9  -2 1098.15 76.4300   1
  -2   4   9 62.4800 52.1800   1
  -2   4   9 83.2500 35.9600   1
   1   6  -8 143.220 66.1200   1
   1   6  -8 12.3600 40.7500   1
   6  -7   0 22.6200 61.9900   1
  -6   7   0 66.6200 26.7800   1
  -6   7   0 30.8700 38.6300   1
  -7   0  -6 167.850 40.7700   1
  -7   0  -6 165.340 39.3000   1
  -3  -8  -3 1691.64 74.8500   1
   3   8   3 1900.30 79.0600   1
  -3  -8  -3 1841.75 78.2500   1
  -3  -8  -3 1870.99 100.330   1
  -4   7   5 372.740 62.4400   1
  -4   7   5 511.080 48.8800   1
  -4   7   5 557.340 54.3600   1
  -4   7   5 566.560 57.9400   1
  -1  -2 -10 32.2700 23.9300   1
  -1  -2 -10 76.2000 61.3300   1
  -1  -2 -10 -2.6100 40.3100   1
   1   2  10 1.83000 49.1400   1
  -2  -1 -10 178.640 47.5100   1
  -2  -1 -10 128.720 35.8600   1
  -2  -1 -10 135.090 49.2100   1
  -7  -5   0 30.4500 33.1100   1
  -7  -5   0 -9.1700 46.0600   1
   7   5   0 17.9800 36.3800   1
  -6  -6  -2 434.630 67.0300   1
   6   6   2 555.010 52.9100   1
  -6  -6  -2 430.300 39.8600   1
  -3   8   4 6125.46 221.830   1
   3  -8  -4 5433.48 194.500   1
  -3   8   4 6255.60 138.130   1
  -3   8   4 6002.09 173.970   1
  -5   3  -8 307.250 41.6900   1
  -5   3  -8 259.000 34.6900   1
  -8  -3   0 -29.400 28.6100   1
   8   3   0 60.6400 35.4300   1
  -8  -3   0 -32.100 36.0900   1
   0  -8  -5 133.900 40.2600   1
   0  -8  -5 131.680 32.5200   1
   0   8   5 73.7000 36.5900   1
   0   8   5 82.0500 32.3200   1
   0  -8  -5 35.5900 99.9500   1
   5   7   2 2275.44 100.680   1
  -5  -7  -2 2200.57 91.9400   1
  -5  -7  -2 2351.31 107.830   1
  -5  -2  -8 2969.60 139.530   1
  -5  -2  -8 2759.29 115.600   1
  -1   8   5 112.740 51.6200   1
   1  -8  -5 210.180 37.2800   1
   1  -8  -5 294.090 111.860   1
  -1   8   5 195.590 43.6400   1
   4   2  -9 152.510 37.0500   1
  -4  -2   9 121.110 30.0400   1
  -4  -2   9 159.580 68.9400   1
  -6   7  -1 55.4800 38.1900   1
  -6   7  -1 4.03000 36.0300   1
  -6   7  -1 29.2300 39.0100   1
  -4  -8   0 1014.19 73.2600   1
  -4  -8   0 871.900 51.0800   1
   4   8   0 899.020 55.6800   1
  -2  -7  -6 170.990 30.6000   1
  -2  -7  -6 148.580 41.1300   1
  -2  -7  -6 68.5800 65.3100   1
   2   7   6 136.720 31.8700   1
   5   6  -5 18.4700 31.1800   1
  -5  -6   5 39.3600 28.1500   1
  -7  -5   1 23.6000 25.6400   1
   7   5  -1 -42.140 41.0300   1
  -7  -5   1 10.6200 39.2500   1
  -7  -1   6 50.2300 42.7900   1
  -7  -1   6 52.9200 39.7000   1
   7   1  -6 32.0200 41.3200   1
  -3   5   8 310.460 36.2600   1
  -3   5   8 202.480 60.5000   1
  -3   5   8 339.520 56.8800   1
  -4   2   9 -21.140 33.4400   1
  -4   2   9 67.1500 50.7300   1
  -2   2 -10 662.350 65.5900   1
  -2   2 -10 733.850 58.4800   1
  -8   4   0 3201.37 106.740   1
  -8   4   0 3037.25 108.130   1
  -3  -3  -9 335.430 43.6800   1
  -3  -3  -9 211.990 54.7800   1
  -3  -3  -9 265.150 44.9100   1
   0   3 -10 362.040 56.2900   1
   0   3 -10 344.410 52.3500   1
   0   9  -3 734.650 68.2600   1
   0  -9   3 738.050 52.7200   1
   0  -9   3 635.060 75.5500   1
  -8   0   4 125.620 38.4900   1
  -8   0   4 145.260 45.1200   1
   8   3  -1 5194.53 160.770   1
  -8  -3   1 5525.47 183.690   1
  -8  -3   1 5110.31 161.760   1
   4   8  -1 935.250 62.1700   1
  -4  -8   1 1012.58 68.2000   1
   0   5  -9 478.190 46.1200   1
   0   5  -9 443.970 60.4600   1
   8   2  -3 151.210 45.5500   1
  -8  -2   3 196.490 40.5600   1
  -8  -2   3 249.430 45.2700   1
   1  -9   3 282.430 37.3400   1
   1  -9   3 290.880 82.5200   1
  -1   9  -3 197.910 47.8500   1
  -6   3  -7 271.580 41.5300   1
  -6   3  -7 180.750 33.0500   1
  -8   1   4 3568.01 125.280   1
  -8   1   4 3396.33 116.720   1
   7   3  -5 1101.61 62.2500   1
  -7  -3   5 1070.68 68.3100   1
  -7  -3   5 1065.98 63.4800   1
   1   7  -7 379.900 49.5700   1
   1   7  -7 348.580 53.8600   1
   6  -7  -1 47.4300 68.9900   1
  -6   7   1 46.2500 27.0900   1
  -6   7   1 -54.950 41.7400   1
   2   2 -10 30.3900 36.5300   1
  -2  -2  10 -42.320 30.7300   1
  -2  -2  10 -4.6400 40.8600   1
  -4  -5  -7 960.500 69.6100   1
  -4  -5  -7 819.030 55.3600   1
  -4  -5  -7 840.910 57.1900   1
  -8   1  -4 2134.77 95.8000   1
  -8   1  -4 2090.63 84.9900   1
   7   5   1 106.540 48.2900   1
  -7  -5  -1 136.650 37.1400   1
  -7  -5  -1 79.6900 35.3200   1
  -8  -3  -1 1542.41 79.4300   1
  -8  -3  -1 1635.93 69.5000   1
   8   3   1 1806.21 86.2000   1
   8  -4   1 765.630 66.5200   1
  -8   4  -1 816.650 47.6900   1
  -8   4  -1 739.830 47.7800   1
  -4   8   3 412.830 58.9800   1
  -4   8   3 430.710 54.4500   1
   4  -8  -3 468.510 74.7600   1
  -4   8   3 429.520 39.1500   1
  -6  -2  -7 2861.58 123.990   1
  -6  -2  -7 3187.46 116.310   1
  -8   0  -4 -37.290 34.8200   1
  -8   0  -4 2.16000 28.6400   1
  -1   5  -9 -26.430 35.9300   1
  -1   5  -9 6.59000 54.5000   1
  -8   3  -3 882.710 55.7200   1
  -8   3  -3 958.880 53.4500   1
  -6   6   4 3432.61 125.560   1
  -6   6   4 3028.11 106.400   1
  -6  -4   6 32.6500 40.0700   1
   6   4  -6 27.7800 40.8200   1
  -6  -4   6 34.5100 25.8400   1
  -2   6  -8 476.380 76.3700   1
  -2   6  -8 344.440 45.0700   1
  -1  -9  -2 17.8100 39.6100   1
   1   9   2 46.2100 41.9200   1
  -1  -9  -2 48.4000 94.7000   1
  -8   4   1 159.470 42.0300   1
  -8   4   1 146.380 41.9100   1
  -1   3 -10 264.510 39.2900   1
  -1   3 -10 294.120 52.3000   1
  -3   4  -9 58.1000 59.1000   1
  -3   4  -9 132.410 35.3000   1
  -5  -5  -6 -9.6800 34.2200   1
  -5  -5  -6 7.16000 37.2500   1
  -7   2  -6 874.740 51.3200   1
  -7   2  -6 712.820 51.0300   1
  -7  -4   4 6174.92 189.570   1
  -7  -4   4 6241.55 161.030   1
   7   4  -4 6121.46 176.410   1
   4   8   1 2410.73 96.1000   1
  -4  -8  -1 2608.16 103.590   1
  -4  -8  -1 2897.98 174.810   1
  -2   9   2 1.66000 52.6100   1
   2  -9  -2 42.3700 93.7700   1
   3  -7  -6 85.8800 45.7200   1
  -3   7   6 9.63000 26.9000   1
  -3   7   6 -1.9100 46.9300   1
   2   9   0 117.060 38.2100   1
  -2  -9   0 103.500 33.1600   1
  -2  -9   0 85.3500 58.7600   1
  -8   3   3 1022.99 56.1000   1
  -8   3   3 1199.27 69.3700   1
  -3  -7   6 678.360 58.8700   1
   3   7  -6 705.010 60.8200   1
  -8  -2  -3 442.790 48.9800   1
  -8  -2  -3 319.060 34.7900   1
  -5  -7   3 2908.25 127.440   1
   5   7  -3 3143.98 117.360   1
  -5   3   8 270.880 52.5300   1
  -5   3   8 232.520 41.4400   1
  -6  -6   3 125.970 49.4000   1
   6   6  -3 -2.4300 38.6200   1
  -7   6   0 91.2700 28.8600   1
   7  -6   0 43.6500 51.5600   1
  -7   6   0 166.140 31.3900   1
  -7   6   0 98.9400 38.1700   1
   1   3 -10 1621.44 84.9100   1
  -1  -3  10 1369.06 81.3500   1
   1   3 -10 1410.01 91.1700   1
  -2  -8   5 347.790 49.3900   1
   2   8  -5 264.590 52.2400   1
  -5   7   4 262.590 35.0000   1
  -5   7   4 257.540 44.3600   1
   5  -7  -4 192.560 71.5700   1
  -5   7   4 284.260 52.6900   1
  -7   2   6 1743.27 100.760   1
  -7   2   6 1948.91 89.8700   1
  -7   2   6 1847.02 91.4200   1
   3   8  -4 62.2900 34.7400   1
  -3  -8   4 -15.500 52.2700   1
  -7  -1  -6 578.150 41.2100   1
  -7  -1  -6 649.920 54.1300   1
  -2  -9   1 559.380 72.5300   1
  -2  -9   1 489.720 51.1500   1
   2   9  -1 493.170 49.1100   1
  -2  -4  -9 146.460 58.5100   1
  -2  -4  -9 186.620 44.8300   1
  -2  -4  -9 200.560 41.0900   1
  -2  -4  -9 136.300 35.7500   1
  -5  -4  -7 39.8700 53.0300   1
  -2   7  -7 646.780 63.8200   1
  -2   7  -7 703.950 74.0400   1
  -4  -6  -6 98.7200 42.2800   1
   4   6   6 64.4200 38.5000   1
  -4  -6  -6 69.0900 62.4200   1
  -4  -6  -6 33.3300 38.6800   1
  -6   3   7 121.970 30.5100   1
  -6   3   7 111.870 46.9200   1
  -1  -8  -5 225.160 37.3100   1
   1   8   5 218.150 57.2400   1
  -1  -8  -5 203.870 38.7400   1
   1   8   5 126.610 34.8100   1
  -1  -8  -5 178.240 76.0200   1
  -3   9   0 187.510 40.3200   1
  -3   9   0 167.400 39.0200   1
  -3   9   0 80.7100 62.5400   1
   1   5  -9 97.3800 53.4000   1
  -1  -5   9 60.5500 43.5400   1
   1   5  -9 70.9000 40.4000   1
  -5   6  -6 2311.65 105.930   1
  -5   6  -6 2095.17 93.6800   1
  -5   6  -6 2215.62 98.0100   1
  -5   5  -7 255.520 35.2800   1
  -5   5  -7 282.370 37.1200   1
  -8  -1   4 59.8800 56.7600   1
  -8  -1   4 58.7300 28.6500   1
   8   1  -4 55.5700 34.0900   1
  -5   8   0 2468.08 133.590   1
  -5   8   0 2801.26 109.590   1
  -5   8   0 2635.35 113.900   1
  -2   2  10 169.570 50.0700   1
  -2   2  10 167.090 46.7000   1
  -6   7  -2 189.620 31.9400   1
  -6   7  -2 208.020 30.7000   1
  -6   7  -2 210.150 41.7700   1
   6   5  -5 89.9100 32.8200   1
  -6  -5   5 185.670 35.4500   1
  -7  -5   2 907.590 70.9600   1
  -7  -5   2 931.420 60.0300   1
   7   5  -2 872.700 64.4900   1
   7  -6   1 853.800 83.6400   1
  -7   6  -1 912.860 55.5000   1
  -7   6  -1 904.380 77.9800   1
  -7   6  -1 933.860 54.1100   1
   4   7  -5 38.7100 48.5200   1
  -4   6  -7 676.420 77.7000   1
  -4   6  -7 583.520 59.5300   1
  -4   6  -7 552.840 50.3200   1
  -4  -8   2 84.7200 52.3300   1
   4   8  -2 -28.410 31.3000   1
  -3   9  -1 2217.64 87.6600   1
  -3   9  -1 2585.29 138.430   1
  -3   9  -1 2011.07 83.1700   1
  -7   4  -5 -2.9100 35.1100   1
  -7   4  -5 12.1500 27.7300   1
   5   3  -8 2380.60 99.8300   1
  -5  -3   8 2214.10 98.4900   1
  -5  -3   8 2516.36 132.360   1
  -5   8  -1 107.730 39.8900   1
  -5   8  -1 109.360 28.2600   1
  -5   8  -1 171.710 50.8200   1
   8   3  -2 361.810 48.7800   1
  -8  -3   2 311.370 40.3800   1
  -8  -3   2 323.060 46.3900   1
   2  -8  -5 -166.48 131.100   1
  -2   8   5 -13.600 33.8600   1
   2  -8  -5 19.8000 65.9100   1
  -2   8   5 -8.2200 40.2700   1
   2  -8  -5 -15.540 32.3100   1
  -1  -9   3 1036.88 81.8200   1
   1   9  -3 1037.16 79.0800   1
  -8   2  -4 30.0900 43.5600   1
  -8   2  -4 156.060 38.3200   1
  -7   6   1 17.4900 38.5800   1
   7  -6  -1 -54.420 64.0700   1
  -7   6   1 -15.310 25.0200   1
  -7   6   1 6.58000 29.4100   1
  -2  -9  -1 -40.670 45.2300   1
   2   9   1 62.4500 52.5300   1
  -2  -9  -1 -32.660 50.0000   1
  -4  -2  -9 981.580 60.0500   1
  -4  -2  -9 1021.28 77.9600   1
  -8   2   4 846.180 55.8800   1
  -8   2   4 851.600 58.0000   1
   2  -9   3 532.570 117.870   1
  -2   9  -3 513.040 43.0100   1
   2  -9   3 584.440 44.7000   1
  -2   9  -3 551.660 61.8000   1
  -4   3  -9 168.940 46.0300   1
  -4   3  -9 155.080 58.1900   1
   3  -8   5 111.900 100.500   1
  -3   8  -5 -47.920 63.1000   1
  -4  -4  -8 -4.8300 38.4000   1
  -4  -4  -8 10.8600 44.5200   1
  -3   0  10 129.880 38.3200   1
  -3   0  10 209.800 61.2200   1
  -7  -3  -5 140.880 43.8500   1
  -7  -3  -5 125.710 36.0600   1
  -8   4  -2 305.990 48.3200   1
   8  -4   2 259.750 55.8900   1
  -8   4  -2 191.890 35.7000   1
   0  -6  -8 480.020 58.0700   1
   0  -6  -8 449.260 85.2500   1
   0  -6  -8 382.760 45.1800   1
   0   6   8 533.080 69.4300   1
   0  -6  -8 343.020 46.6500   1
  -8  -1  -4 123.530 34.6100   1
  -8  -1  -4 149.520 45.7400   1
  -5   8   1 554.870 41.6700   1
  -5   8   1 519.080 84.0900   1
  -5   8   1 471.430 41.6600   1
  -5   8   1 580.540 51.6900   1
  -3   9   1 78.9000 44.5000   1
  -3   9   1 95.8700 35.7300   1
  -3   9   1 82.3200 33.2200   1
  -7   5  -4 1291.65 62.9200   1
  -7   5  -4 1345.54 75.5900   1
   0   9   3 17.3200 45.3200   1
   0  -9  -3 147.120 69.8000   1
   0  -9  -3 39.4800 40.0600   1
  -6   7   2 520.710 44.3400   1
  -6   7   2 587.940 49.2900   1
   6  -7  -2 593.830 84.0600   1
   3   4  -9 142.650 40.7800   1
  -3  -4   9 135.630 54.0100   1
  -2  -2 -10 1720.69 82.5300   1
  -2  -2 -10 1915.17 85.3400   1
  -2  -2 -10 1651.72 105.960   1
  -1   9   3 1179.77 88.1600   1
  -1   9   3 1198.49 80.3300   1
   1  -9  -3 1439.39 146.680   1
  -8  -3  -2 632.350 42.0300   1
  -8  -3  -2 733.780 56.1200   1
   0   8  -6 25.3600 62.8700   1
   1  -6  -8 333.390 91.3800   1
  -1   6   8 197.490 47.3900   1
   1  -6  -8 231.480 46.5200   1
  -4   8  -4 2830.73 113.320   1
  -4   8  -4 2705.65 101.620   1
  -4   8  -4 2633.49 157.560   1
  -2  -9   2 1488.98 96.6800   1
   2   9  -2 1336.50 93.5500   1
   2   6  -8 21.7900 47.8900   1
   7   5   2 292.010 42.0700   1
  -7  -5  -2 288.400 37.8500   1
  -7  -5  -2 368.790 45.6300   1
   7   2  -6 3326.61 122.990   1
  -7  -2   6 3381.80 128.140   1
  -7  -2   6 3264.40 126.910   1
  -8   4   2 52.8100 33.2800   1
  -8   4   2 145.730 30.8900   1
   0  -3 -10 804.700 95.9300   1
   0  -3 -10 866.890 51.5300   1
   0  -3 -10 970.360 62.5200   1
   0   3  10 910.420 78.9100   1
  -4   5  -8 835.060 56.1400   1
  -4   5  -8 883.310 144.660   1
  -3  -6  -7 304.350 69.4000   1
  -3  -6  -7 342.120 41.4100   1
  -3  -6  -7 327.540 42.5400   1
  -3   0 -10 57.1700 34.5800   1
  -3   0 -10 99.8700 51.5200   1
  -3   0 -10 225.990 48.3100   1
  -7  -4  -4 4176.25 145.490   1
  -7  -4  -4 4123.20 133.530   1
   6   3  -7 2307.93 94.5500   1
  -6  -3   7 2112.41 105.510   1
  -6  -3   7 2223.44 100.140   1
  -1   8  -6 2008.66 112.960   1
  -3   1 -10 619.150 51.6100   1
  -3   1 -10 650.620 75.7600   1
  -7   4   5 237.860 52.6000   1
  -7   4   5 199.080 34.2100   1
  -7   4   5 269.140 38.4900   1
   3   1 -10 361.190 39.3200   1
  -3  -1  10 445.300 62.8000   1
  -3  -1  10 441.220 44.0100   1
  -2   5  -9 109.450 45.5000   1
  -2   5  -9 121.490 33.4400   1
  -5  -6  -5 605.870 67.5300   1
   5   6   5 532.650 50.4900   1
  -5  -6  -5 538.540 47.3700   1
  -6  -6  -3 1144.85 58.6700   1
   6   6   3 1103.58 64.2100   1
  -6  -6  -3 1079.46 68.8900   1
  -6   5  -6 52.4300 33.6900   1
  -6   5  -6 60.4100 23.9300   1
  -3  -5  -8 97.5400 43.9600   1
  -3  -5  -8 71.5900 71.6600   1
  -3  -5  -8 78.9700 32.7300   1
  -3   9  -2 121.490 49.9900   1
  -3   9  -2 118.920 33.4000   1
  -3   9  -2 172.710 36.1800   1
  -4  -8  -2 -38.790 41.8300   1
   4   8   2 -7.6500 45.5300   1
  -4  -8  -2 -11.810 29.3600   1
  -7   6  -2 1540.22 69.0800   1
  -7   6  -2 1474.48 70.6500   1
  -7   6  -2 1490.60 73.7300   1
  -3   1  10 93.5900 52.0800   1
  -3   1  10 41.6800 35.2800   1
  -3   1  10 121.560 29.6200   1
  -5  -7  -3 49.8800 28.2400   1
  -5  -7  -3 53.8400 39.1000   1
   5   7   3 29.7500 36.8600   1
   0  -7  -7 778.430 53.2600   1
   0   7   7 779.460 63.4200   1
   0  -7  -7 772.800 53.4500   1
   0  -7  -7 600.470 98.6700   1
   1  -3 -10 3.45000 44.9600   1
  -1   3  10 -9.8200 56.0200   1
   1  -3 -10 99.5300 89.5000   1
  -4   7  -6 511.830 43.0400   1
  -4   7  -6 606.690 66.6800   1
  -5   8  -2 761.010 50.8700   1
  -5   8  -2 753.780 89.6600   1
  -2   3 -10 -38.660 41.0000   1
  -2   3 -10 80.9800 41.5900   1
  -6  -4  -6 3623.47 142.150   1
  -6  -4  -6 3431.81 129.920   1
   1  -7  -7 140.220 67.2100   1
   1  -7  -7 136.820 84.8000   1
  -1   7   7 113.370 49.7300   1
   1  -7  -7 149.360 32.6200   1
  -3   4   9 57.4000 37.8000   1
  -3   4   9 -57.450 56.0000   1
  -3   4   9 22.6000 36.2600   1
   2   7  -7 1300.55 80.1800   1
  -4  -3   9 -25.110 56.9400   1
   4   3  -9 -7.5900 39.7800   1
  -7   5   4 667.960 52.6700   1
  -7   5   4 721.270 57.0800   1
  -7   5   4 642.780 58.1100   1
  -7   3  -6 612.420 50.6200   1
  -7   3  -6 561.680 53.2100   1
  -1  -6  -8 526.810 49.2300   1
   1   6   8 538.270 73.7600   1
  -1  -6  -8 613.120 76.9200   1
  -1  -6  -8 509.700 50.1800   1
  -1  -6  -8 434.110 85.7400   1
  -4   3   9 1108.57 68.3500   1
  -4   3   9 1133.36 73.5600   1
  -4   3   9 946.280 82.2300   1
  -5   5   7 3488.93 142.830   1
  -5   5   7 3189.62 127.810   1
  -1  -3 -10 182.270 69.8800   1
  -1  -3 -10 133.910 38.1600   1
   1   3  10 124.840 66.2100   1
  -1  -3 -10 282.590 49.5700   1
  -7   6   2 441.890 51.8100   1
  -7   6   2 432.430 50.2100   1
  -7   6   2 388.440 43.5000   1
   0  -9   4 778.860 56.5700   1
   0  -9   4 693.750 74.4200   1
   0   9  -4 846.890 72.0700   1
   2   3 -10 260.700 51.6100   1
  -2  -3  10 179.070 48.4500   1
  -5   6   6 -34.880 35.6100   1
  -5   6   6 50.0500 51.3600   1
  -5   6   6 10.5800 38.9100   1
   0  -5  -9 249.200 85.8500   1
   0  -5  -9 178.720 43.7800   1
   0   5   9 193.900 61.6800   1
   0  -5  -9 235.060 39.5600   1
  -1   9  -4 4105.94 180.430   1
   1  -9   4 3502.85 155.380   1
   1  -9   4 3590.50 139.170   1
   1   8  -6 172.560 56.1700   1
   6   5   5 179.910 53.4100   1
  -6  -5  -5 154.230 44.8100   1
  -6  -5  -5 106.000 37.8200   1
  -3  -8  -4 343.940 36.6500   1
   3   8   4 399.440 48.1400   1
  -3  -8  -4 444.000 46.6800   1
  -3  -8  -4 445.850 59.1500   1
   1   9   3 15.9600 43.8100   1
  -1  -9  -3 -14.390 28.3500   1
  -1  -9  -3 16.0300 71.5900   1
  -3  -1 -10 -71.530 39.8900   1
  -3  -1 -10 16.8000 39.6100   1
   4   8  -3 3711.08 142.080   1
  -4  -8   3 3535.41 130.720   1
   6   0  -8 90.1100 50.6200   1
  -6   0   8 82.7900 48.0200   1
  -6   0   8 128.190 39.7700   1
  -6   7  -3 1939.03 87.1200   1
  -6   7  -3 1991.04 81.2900   1
  -6   7  -3 1814.53 87.3700   1
  -6   6  -5 696.890 49.9000   1
  -6   6  -5 611.470 47.3400   1
  -6   6  -5 661.520 48.3100   1
  -5   7  -5 395.560 36.1300   1
  -5   7  -5 478.000 79.8800   1
  -5   7  -5 403.140 37.8300   1
  -5   7  -5 470.190 47.9900   1
  -5   4  -8 1204.31 70.8800   1
  -2  -9  -2 1530.05 106.610   1
  -2  -9  -2 1660.60 85.3300   1
   2   9   2 1816.21 89.9600   1
  -8  -2   4 179.790 44.7100   1
  -8  -2   4 195.230 38.8300   1
   8   2  -4 166.710 43.8100   1
  -7  -5   3 514.060 53.4700   1
   7   5  -3 509.330 43.6200   1
  -7  -5   3 490.730 48.4200   1
   2  -9  -3 244.630 152.610   1
  -2   9   3 69.4200 51.6600   1
  -2   9   3 -25.620 50.1600   1
  -7  -2  -6 686.200 44.0800   1
  -7  -2  -6 654.660 65.0200   1
  -3   2 -10 32.9300 56.5900   1
  -3   2 -10 -23.080 36.9500   1
   1  -5  -9 1638.93 84.8600   1
  -1   5   9 1637.47 104.380   1
   1  -5  -9 1430.06 136.210   1
   2   5  -9 2479.53 137.840   1
  -5   8   2 1470.43 70.9900   1
  -5   8   2 1428.88 100.240   1
  -5   8   2 1556.31 81.3600   1
  -5   8   2 1366.52 73.6700   1
   5  -8  -2 1577.27 99.9900   1
  -5  -3  -8 268.850 35.2800   1
  -5  -3  -8 234.580 52.1400   1
  -3   9   2 -10.700 39.0000   1
  -3   9   2 11.4100 61.3600   1
  -3   9   2 -26.890 26.7300   1
  -8  -3   3 1016.05 61.6300   1
  -8  -3   3 957.090 51.2200   1
   8   3  -3 1097.58 66.2500   1
  -7   3   6 -16.250 36.7900   1
  -7   3   6 -35.940 33.0700   1
  -7   3   6 20.4900 27.2800   1
   2  -6  -8 564.700 64.6200   1
  -2   6   8 538.810 56.6300   1
   2  -6  -8 420.800 142.770   1
  -3   6  -8 18.6100 39.4000   1
  -3   6  -8 60.4700 69.0100   1
  -6   4  -7 4642.23 143.640   1
  -6   4  -7 4313.06 166.740   1
  -4   6   7 25.6200 54.3800   1
  -4   6   7 -9.6400 46.8900   1
  -4   6   7 29.1800 38.6800   1
  -1  -7  -7 18.5600 38.4100   1
  -1  -7  -7 5.66000 28.7100   1
  -1  -7  -7 9.06000 81.3200   1
   1   7   7 41.1100 54.1100   1
  -2   8  -6 111.520 60.7300   1
   5   0  -9 56.9000 37.1900   1
  -5   0   9 113.870 58.1100   1
  -5   0   9 3.05000 31.4400   1
  -6   1   8 15.8500 33.4100   1
  -6   1   8 17.4200 37.7200   1
   2   8   5 1103.58 69.4000   1
  -2  -8  -5 1148.37 72.9800   1
  -2  -8  -5 1055.86 87.0700   1
  -2  -8  -5 1054.48 64.3500   1
  -8   3  -4 448.260 38.4100   1
  -8   3  -4 452.900 40.2200   1
  -6   1  -8 1272.17 78.4100   1
  -6   1  -8 1382.78 67.6400   1
  -4  -7  -5 47.6300 28.3000   1
  -4  -7  -5 6.76000 37.7000   1
   4   7   5 47.7100 33.4100   1
  -4  -7  -5 13.6200 50.1500   1
  -3  -2  10 572.930 58.0200   1
   0   4 -10 1237.19 83.2000   1
   0   4 -10 1185.94 88.7000   1
   5   7  -4 682.240 49.5500   1
  -5  -7   4 741.600 72.6900   1
  -6   0  -8 78.6600 33.4500   1
  -6   0  -8 105.620 31.5700   1
  -3  -7  -6 728.600 66.8100   1
  -3  -7  -6 803.280 54.9300   1
  -3  -7  -6 779.410 63.9700   1
   3   7   6 682.490 47.3300   1
   6   6  -4 1461.62 77.8500   1
  -6  -6   4 1557.25 101.490   1
  -6   5   6 76.2800 47.8700   1
  -6   5   6 46.9500 34.5300   1
  -4   8   4 136.440 44.8300   1
   4  -8  -4 251.410 64.9200   1
  -4   8   4 200.360 37.7700   1
  -4   8   4 103.680 48.7600   1
  -8   4  -3 32.4600 28.3800   1
  -8   4  -3 18.8300 37.5600   1
   6   1  -8 826.140 59.6900   1
  -6  -1   8 780.600 67.0700   1
  -6  -1   8 761.270 55.1000   1
  -6  -1   8 764.550 72.6600   1
  -3   7  -7 4172.95 142.680   1
  -3   7  -7 4468.58 192.350   1
  -2  -9   3 2431.97 106.460   1
   2   9  -3 2722.38 122.230   1
  -6  -3  -7 507.680 53.5800   1
  -6  -3  -7 368.140 47.4100   1
  -5  -5   7 1685.51 93.3500   1
   5   5  -7 1726.16 76.8600   1
  -8   3   4 801.160 49.9300   1
  -8   3   4 926.790 55.7600   1
  -8   3   4 991.510 62.8500   1
  -2   7   7 356.390 65.6900   1
   2  -7  -7 435.230 129.280   1
   2  -7  -7 272.250 59.1400   1
   2  -7  -7 313.850 50.5500   1
   4   6  -7 178.070 40.4000   1
  -4  -6   7 191.630 33.1100   1
  -3   8   5 57.9800 44.7500   1
  -3   8   5 48.1100 30.0600   1
   3  -8  -5 -52.330 49.8900   1
  -3   8   5 54.4700 40.5900   1
  -5   1  -9 356.710 75.6700   1
  -5   1  -9 318.350 40.6500   1
  -1  -5  -9 1561.60 74.2700   1
   1   5   9 1752.06 100.070   1
  -1  -5  -9 1492.33 72.7100   1
  -1  -5  -9 1538.55 105.290   1
  -1  -5  -9 1389.69 88.5700   1
  -8  -2  -4 3628.02 112.100   1
  -8  -2  -4 3252.04 113.270   1
  -5   1   9 2145.84 83.9800   1
  -5   1   9 2405.29 102.840   1
  -8   0   5 342.510 41.6400   1
  -8   0   5 274.710 43.5100   1
   2  -3 -10 180.740 94.3700   1
  -2   3  10 162.030 57.2600   1
  -2   3  10 153.450 50.9500   1
  -5   0  -9 -24.490 29.9300   1
  -5   0  -9 42.3200 34.8900   1
  -1   4 -10 190.720 33.8000   1
  -1   4 -10 321.160 63.4200   1
   5   1  -9 1309.34 66.5700   1
  -5  -1   9 1497.66 89.5500   1
  -5  -1   9 1535.55 79.4100   1
  -3   2  10 347.040 38.3100   1
  -3   2  10 378.700 46.9400   1
  -3   2  10 382.390 64.9600   1
  -1  -9   4 31.4600 43.0700   1
   1   9  -4 4.95000 50.1300   1
  -4   5   8 98.8700 48.3300   1
  -4   5   8 121.660 43.5800   1
  -4   5   8 158.820 42.9700   1
  -9   1   0 198.830 34.2000   1
  -9   1   0 258.190 42.5700   1
  -3   9  -3 1946.25 83.2200   1
   3  -9   3 1703.47 170.800   1
  -3   9  -3 2077.55 116.170   1
   6  -7  -3 351.930 78.8300   1
  -6   7   3 358.590 36.9100   1
  -6   7   3 330.920 48.0300   1
  -8   1   5 18.2000 41.1500   1
  -8   1   5 79.7300 29.2500   1
  -9   0   0 513.390 48.5400   1
  -9   0   0 488.310 47.2100   1
  -9   0   0 576.550 54.7200   1
  -8  -3  -3 32.4200 50.0500   1
  -8  -3  -3 71.6000 28.5200   1
   4   5  -8 151.750 56.2900   1
  -8  -4   0 306.440 42.1300   1
   8   4   0 266.560 41.8300   1
  -8   4   3 620.700 53.3200   1
  -8   4   3 739.750 52.5100   1
  -8   4   3 816.350 62.8900   1
  -7  -5  -3 264.070 52.0900   1
  -7  -5  -3 174.040 38.4200   1
   7   5   3 250.640 45.6500   1
  -5   8  -3 219.950 34.9300   1
  -5   8  -3 248.520 39.7900   1
  -5   8  -3 330.310 82.8500   1
  -2   9  -4 64.1500 59.1600   1
   2  -9   4 174.290 31.7600   1
   2  -9   4 82.0800 82.8200   1
  -7   6  -3 142.770 30.0000   1
  -7   6  -3 92.6000 38.0200   1
  -7   6  -3 132.830 27.8800   1
  -8   1  -5 3274.25 102.710   1
  -8   1  -5 3412.68 115.220   1
  -3  -4  -9 1.49000 54.3700   1
  -3  -4  -9 3.32000 36.5200   1
  -3  -4  -9 -7.6300 36.0800   1
   7   4  -5 1747.89 74.7900   1
  -7  -4   5 1705.22 92.7700   1
  -7  -4   5 1912.91 95.9200   1
   1   4 -10 183.540 42.0300   1
   1   4 -10 127.440 40.6000   1
  -1  -4  10 240.810 43.5600   1
   8   4  -1 7.27000 31.0400   1
  -8  -4   1 3.51000 31.0500   1
  -8  -4   1 2.90000 21.5000   1
  -8   0  -5 32.3600 36.2500   1
  -8   0  -5 14.5400 36.5300   1
  -8   5   0 825.770 50.5300   1
  -8   5   0 858.480 50.5800   1
   8  -5   0 1008.74 86.4900   1
  -3  -9   0 30.8200 39.3400   1
   3   9   0 113.510 40.0100   1
  -3  -8   5 174.390 47.1400   1
   3   8  -5 232.990 48.0700   1
  -9   1   1 866.060 50.4000   1
  -9   1   1 965.810 60.4700   1
  -9   0   1 111.060 41.1600   1
  -9   0   1 90.9500 28.0200   1
  -5  -6   6 1144.67 79.1300   1
   5   6  -6 1212.47 75.5400   1
  -6   2  -8 32.0300 29.1000   1
  -6   2  -8 67.8100 38.1400   1
  -6   6   5 87.7100 39.1000   1
  -6   6   5 83.5400 40.7500   1
  -5   4   8 170.140 36.2100   1
  -5   4   8 77.3100 57.2200   1
  -9   1  -1 1519.35 70.0900   1
  -9   1  -1 1656.44 70.1700   1
  -3  -9   1 2789.50 121.090   1
   3   9  -1 3009.95 117.880   1
  -9   0  -1 470.630 105.490   1
  -9   0  -1 383.640 45.7700   1
  -6   4   7 180.440 34.6100   1
  -6   4   7 197.520 56.2300   1
  -4   7   6 78.6000 35.6000   1
  -4   7   6 43.3800 40.7600   1
  -4   7   6 40.4500 42.6800   1
  -4  -8  -3 629.890 66.4700   1
   4   8   3 658.480 52.7300   1
  -4  -8  -3 551.520 49.2800   1
  -2   5   9 653.290 64.5800   1
   2  -5  -9 369.720 137.620   1
  -4  -3  -9 526.260 64.0700   1
  -4  -3  -9 413.450 76.3300   1
  -8  -4  -1 1778.69 93.1300   1
   8   4   1 1861.15 81.9500   1
  -8  -4  -1 2148.83 80.9500   1
  -7   0   7 622.040 51.9900   1
  -7   0   7 676.420 48.9900   1
  -7   0   7 644.490 65.7800   1
   7   0  -7 593.880 55.1800   1
  -8   5  -1 2255.15 84.4600   1
  -8   5  -1 2320.67 82.5900   1
   8  -5   1 2141.96 115.300   1
  -6  -1  -8 57.7500 35.7300   1
  -6  -1  -8 63.4000 39.7000   1
  -4   4  -9 39.4700 27.7000   1
  -4   4  -9 131.670 63.9900   1
   0  -8  -6 693.990 63.2300   1
   0   8   6 604.750 64.7600   1
   0  -8  -6 704.670 101.360   1
   0  -8  -6 770.300 60.7900   1
  -8  -1   5 580.330 46.5600   1
   8   1  -5 766.720 65.0500   1
  -8  -1   5 536.550 43.0000   1
  -4   9   0 5.88000 39.0400   1
  -4   9   0 34.5700 48.4800   1
  -4   9   0 -30.350 40.2700   1
  -7  -3   6 215.480 43.2600   1
  -7  -3   6 270.880 52.9500   1
   7   3  -6 252.510 47.7700   1
   1  -8  -6 6.42000 67.5000   1
  -1   8   6 99.4100 55.5400   1
   1  -8  -6 61.7600 80.2900   1
   1  -8  -6 55.9800 38.4300   1
  -5   7   5 1200.60 94.0800   1
  -5   7   5 1271.72 64.0500   1
  -5   7   5 1414.42 88.9700   1
  -5   7   5 1464.75 80.9000   1
  -6   2   8 1609.58 77.5000   1
  -6   2   8 1551.52 91.0100   1
  -5   2  -9 175.440 37.7100   1
  -2  -3 -10 293.510 47.8400   1
  -2  -3 -10 263.500 53.0300   1
  -2  -3 -10 235.860 69.6600   1
  -8   5   1 1530.22 77.9100   1
  -8   5   1 1577.42 68.8700   1
  -8   5   1 1489.79 64.8400   1
  -3   5  -9 1906.66 98.1400   1
  -3   5  -9 2096.48 140.880   1
  -4   9  -1 1781.68 134.390   1
  -4   9  -1 1569.09 77.2300   1
  -4   9  -1 1765.70 74.8000   1
  -2  -6  -8 601.040 51.9700   1
  -2  -6  -8 661.100 47.3200   1
  -2  -6  -8 522.180 82.8800   1
   6   7   0 742.200 56.8000   1
  -6  -7   0 781.570 52.3000   1
  -6  -7   0 651.300 61.6300   1
   0   9   4 196.990 57.0100   1
   0  -9  -4 194.380 34.8100   1
   0  -9  -4 64.2000 83.7300   1
   0   9   4 143.130 40.8500   1
  -7   1   7 134.880 35.9900   1
  -7   1   7 131.390 53.0300   1
  -7   1   7 127.370 28.3800   1
  -1   9   4 533.810 65.8600   1
  -1   9   4 654.390 69.4000   1
   1  -9  -4 550.650 96.1500   1
  -5  -1  -9 390.910 56.6800   1
  -5  -1  -9 427.240 47.3300   1
  -5  -4   8 1702.84 98.1500   1
   5   4  -8 1771.01 88.0900   1
  -5  -4   8 1702.72 97.3500   1
  -7   6   3 218.590 47.2100   1
  -7   6   3 117.410 37.2200   1
  -3  -2 -10 -23.040 30.1900   1
  -3  -2 -10 -37.170 29.0200   1
  -9   2   0 2364.37 86.9400   1
  -9   2   0 2349.59 89.3500   1
   0   0  11 17.3600 45.9600   1
   0   0 -11 -17.590 33.1000   1
   3   9   1 2374.97 102.310   1
  -3  -9  -1 2063.92 88.5900   1
  -3  -9  -1 2203.09 103.900   1
  -7   1  -7 1042.06 60.2400   1
  -7   1  -7 916.010 55.2800   1
  -6  -7   1 69.4500 37.7700   1
   6   7  -1 93.9800 35.3700   1
  -9  -1   0 -20.380 41.4100   1
  -9  -1   0 18.5800 38.5500   1
  -8   2  -5 101.840 36.4700   1
  -8   2  -5 105.110 38.9200   1
   2   8  -6 1055.19 70.9200   1
  -7   0  -7 2039.05 82.3300   1
  -7   0  -7 1925.94 93.4500   1
  -3   3 -10 6.82000 43.1000   1
  -3   3 -10 26.7200 52.3100   1
   0   1 -11 32.4100 37.2900   1
   3   6  -8 990.020 72.8400   1
  -6  -6  -4 304.380 44.4800   1
  -6  -6  -4 352.200 34.8700   1
   6   6   4 364.280 55.0500   1
  -8   2   5 15.0100 28.0900   1
  -8   2   5 83.6400 43.6100   1
  -8   2   5 48.6300 33.5300   1
   6   2  -8 183.720 40.7900   1
  -6  -2   8 183.100 53.2800   1
  -6  -2   8 232.600 39.0900   1
   2   9   3 4057.48 151.970   1
  -2  -9  -3 4171.54 120.050   1
  -2  -9  -3 4384.75 168.810   1
  -7   5  -5 5005.71 116.710   1
  -7   5  -5 4941.31 138.150   1
   0   7  -8 9.52000 49.9800   1
  -4   8  -5 281.890 37.0000   1
  -4   8  -5 269.280 74.9700   1
  -5   2   9 421.500 39.6700   1
  -5   2   9 560.670 65.7100   1
  -8  -4   2 427.540 49.1100   1
  -8  -4   2 381.130 41.9000   1
   8   4  -2 448.300 43.2500   1
   7   1  -7 1309.01 69.9700   1
  -7  -1   7 1113.98 82.7300   1
  -7  -1   7 1221.08 60.5500   1
  -7  -1   7 1361.54 70.2800   1
  -4   9   1 3906.74 137.550   1
  -4   9   1 4031.58 171.700   1
  -4   9   1 3988.63 128.050   1
   5   7   4 815.630 60.0600   1
  -5  -7  -4 800.250 63.7200   1
  -5  -7  -4 745.400 52.2200   1
  -5   8   3 27.6700 51.6400   1
   5  -8  -3 -87.550 66.3900   1
  -5   8   3 2.14000 52.4600   1
  -5   8   3 -30.260 42.6200   1
  -5   8   3 44.1200 37.5900   1
  -9   2  -1 18.4100 37.8600   1
  -9   2  -1 19.8300 39.4300   1
  -9   2   1 1303.54 65.8300   1
  -9   2   1 1223.90 61.4300   1
  -9  -1   1 280.540 43.2400   1
  -9  -1   1 337.160 47.6500   1
   3   9  -2 627.150 62.2900   1
  -3  -9   2 788.650 64.7800   1
  -6  -5   6 22.3600 40.0500   1
   6   5  -6 12.2200 47.2900   1
   4   7  -6 809.670 61.6600   1
  -4  -7   6 739.980 81.3500   1
  -8  -1  -5 379.540 54.9600   1
  -8  -1  -5 481.590 39.7300   1
  -3   9   3 2396.07 97.0600   1
  -3   9   3 2208.40 134.460   1
  -3   9   3 2249.35 96.7000   1
   5   2  -9 1329.14 73.0700   1
  -5  -2   9 1426.64 91.4400   1
  -5  -2   9 1370.41 68.1200   1
  -2   4 -10 3.71000 61.3300   1
  -2   4 -10 30.7600 30.4400   1
  -1   0  11 4.23000 74.6600   1
   1   0 -11 206.510 46.1000   1
  -1   7  -8 192.560 64.0100   1
  -9   0   2 404.720 66.0200   1
  -9   0   2 302.210 38.1200   1
  -6  -7  -1 32.7500 25.0200   1
   6   7   1 -29.070 40.9300   1
  -9  -1  -1 667.000 56.2200   1
  -9  -1  -1 565.770 49.6200   1
  -4  -8   4 1761.49 99.7000   1
   4   8  -4 1846.58 83.8100   1
  -9   1   2 550.040 49.5600   1
  -9   1   2 641.190 51.0100   1
  -2  -7  -7 479.860 46.7500   1
  -2  -7  -7 480.970 48.9700   1
  -2  -7  -7 442.510 89.2600   1
   0   6  -9 302.670 40.5700   1
   0   6  -9 274.170 54.6800   1
  -1   0 -11 -77.870 46.1000   1
  -6   7  -4 114.770 30.4300   1
  -6   7  -4 130.140 36.1100   1
  -6   7  -4 191.270 41.7000   1
  -9   1  -2 302.790 35.1100   1
  -9   1  -2 373.650 42.2000   1
  -7   4  -6 59.0800 34.5300   1
  -7   4  -6 98.2300 34.3100   1
   7   5  -4 707.800 54.9100   1
  -7  -5   4 700.000 90.9400   1
  -8   5  -2 518.360 43.5200   1
  -8   5  -2 529.770 52.3000   1
   8  -5   2 411.000 57.8500   1
  -9   0  -2 60.7600 41.6700   1
  -9   0  -2 20.3000 37.7600   1
  -6  -4   7 765.440 57.5400   1
  -6  -4   7 734.280 66.4400   1
   6   4  -7 778.760 58.5400   1
  -4   0  10 300.480 40.5400   1
  -4   0  10 277.980 68.5200   1
  -1  -1  11 87.2400 32.9000   1
  -1  -1  11 -18.920 68.8900   1
   1   1 -11 59.0200 49.0400   1
  -1   1 -11 1518.55 85.6200   1
   1   8   6 51.6800 54.4600   1
  -1  -8  -6 35.8100 32.6300   1
  -1  -8  -6 49.5400 59.9100   1
  -1  -8  -6 54.7900 38.7100   1
  -7  -4  -5 846.000 57.9900   1
  -7  -4  -5 812.470 52.8900   1
   0  -1 -11 102.540 33.9300   1
   0  -1 -11 118.870 50.5900   1
   0   1  11 167.200 59.9800   1
  -3   6   8 1169.77 69.6500   1
  -3   6   8 1131.20 94.2400   1
   0  -4 -10 17.7500 32.2200   1
   0   4  10 157.320 71.0500   1
   0  -4 -10 -9.5000 74.9800   1
   0  -4 -10 33.6200 39.9100   1
  -4   9  -2 946.590 55.8800   1
  -4   9  -2 1173.04 104.840   1
  -4   9  -2 914.650 54.7400   1
  -3   8  -6 98.5200 48.7900   1
  -1   6  -9 326.000 50.7600   1
  -1   6  -9 366.380 59.9400   1
  -5  -8   0 570.350 63.2400   1
  -5  -8   0 518.140 40.6400   1
   5   8   0 527.640 61.7200   1
   3   3 -10 924.030 67.1800   1
  -3  -3  10 955.030 68.9900   1
   3   7  -7 787.940 65.8400   1
   8   3  -4 42.2400 42.6900   1
  -8  -3   4 86.6600 36.8600   1
  -8  -3   4 87.0300 37.1600   1
  -2  -5  -9 12.1800 37.6100   1
  -2  -5  -9 74.2800 43.7000   1
  -2  -5  -9 58.3000 66.5300   1
  -7   2  -7 752.730 56.4700   1
  -7   2  -7 758.440 45.5700   1
   7   6   0 1133.80 59.3600   1
  -7  -6   0 1366.66 64.7200   1
  -7  -6   0 1225.33 69.6300   1
  -8  -4  -2 73.8700 50.3500   1
  -8  -4  -2 104.570 46.1300   1
   8   4   2 66.5500 35.9000   1
  -2   8   6 1.32000 37.1900   1
   2  -8  -6 63.0000 38.7100   1
   2  -8  -6 59.8400 53.1500   1
   2  -8  -6 -7.4500 90.6700   1
   6   7  -2 -31.560 34.5100   1
  -6  -7   2 -66.150 47.9300   1
  -1  -9  -4 910.090 63.3900   1
   1   9   4 1113.34 79.3600   1
  -1  -9  -4 987.590 97.2400   1
   1   9   4 1108.77 74.6900   1
  -5  -8   1 485.870 72.9200   1
   5   8  -1 459.290 58.1400   1
   1  -4 -10 -34.090 77.1400   1
  -1   4  10 6.42000 60.6200   1
   1  -4 -10 139.750 48.9900   1
  -8   5   2 300.440 37.0900   1
  -8   5   2 370.270 42.4900   1
  -8   5   2 330.650 44.7300   1
  -5  -5  -7 7.26000 29.1000   1
  -5  -5  -7 -58.490 48.5200   1
   7   6  -1 567.350 52.5200   1
  -7  -6   1 650.910 54.3100   1
  -2   9   4 66.4400 56.1000   1
  -2   9   4 73.2900 55.9300   1
   2  -9  -4 -73.380 96.5400   1
   4   4  -9 -24.500 47.3800   1
  -4   1 -10 171.170 32.7400   1
   0  -9   5 245.280 47.8900   1
   0   9  -5 239.880 47.1100   1
  -4   0 -10 1586.76 76.0100   1
  -4  -1  10 7.50000 29.7800   1
  -4  -1  10 72.6600 49.9300   1
   4   1 -10 -0.9900 33.7200   1
   2   9  -4 2201.38 103.300   1
  -2  -9   4 2065.28 103.840   1
  -5   6  -7 61.7900 31.4300   1
  -5   6  -7 98.9600 30.0400   1
  -5   6  -7 56.1300 69.1600   1
  -7   2   7 -3.1000 38.2700   1
  -7   2   7 -8.2200 34.6500   1
  -7   2   7 -4.7400 49.7800   1
   2   4 -10 -0.7200 51.7100   1
  -7  -3  -6 2152.56 87.2400   1
  -7  -3  -6 1920.03 91.2900   1
  -3   7   7 45.4100 42.1900   1
  -3   7   7 74.7400 29.3700   1
  -1   9  -5 59.4000 55.7100   1
   1  -9   5 -16.700 52.5200   1
   1   7  -8 159.900 53.0800   1
   1   7  -8 154.380 34.7100   1
  -1   1  11 573.130 73.8900   1
   1  -1 -11 413.950 51.7000   1
  -7  -1  -7 428.390 45.1500   1
  -7  -1  -7 512.790 40.0300   1
  -4   1  10 412.000 76.3800   1
  -4   1  10 341.240 41.9800   1
  -6   3  -8 -34.180 41.8000   1
  -6   3  -8 17.4700 25.3900   1
  -4   4   9 35.1400 41.1100   1
  -4   4   9 85.8400 46.1000   1
  -4   4   9 31.2100 35.9400   1
   3   5  -9 455.640 62.3300   1
  -7   5   5 2146.01 96.9400   1
  -7   5   5 2063.86 85.4700   1
  -8   4  -4 -13.280 42.7600   1
  -8   4  -4 10.9100 23.2100   1
   0   2 -11 704.960 69.8500   1
   3   9   2 93.5700 43.8500   1
  -3  -9  -2 110.990 32.0500   1
  -3  -9  -2 77.0000 61.0900   1
   1   6  -9 103.120 59.7600   1
   1   6  -9 244.550 39.3400   1
  -9  -1   2 1002.90 53.7800   1
  -9  -1   2 988.390 61.2600   1
  -1  -1 -11 19.5300 35.8400   1
  -1  -1 -11 -7.4000 44.2600   1
  -4  -6  -7 161.010 54.2500   1
  -4  -6  -7 32.7900 38.3300   1
  -4  -6  -7 96.5300 37.0300   1
   8   2  -5 397.880 44.7000   1
  -8  -2   5 363.960 49.2700   1
  -8  -2   5 420.330 51.5500   1
   7   6   1 95.6000 44.9500   1
  -7  -6  -1 167.130 50.7900   1
  -7  -6  -1 163.280 48.9900   1
  -7   4   6 3018.21 106.990   1
  -7   4   6 3160.48 119.350   1
   5   8   1 211.380 51.6200   1
  -5  -8  -1 279.610 37.7900   1
  -5  -8  -1 325.950 59.7400   1
  -9   2  -2 2951.54 95.3500   1
  -3   3  10 419.380 44.0500   1
  -3   3  10 593.640 61.7100   1
  -3   3  10 503.350 49.3100   1
   3  -9   4 230.420 35.9000   1
  -3   9  -4 281.410 72.2000   1
   3  -9   4 299.930 124.060   1
  -3   9  -4 198.430 33.1300   1
  -9   2   2 375.160 48.4100   1
  -9   2   2 342.020 39.4600   1
  -4  -5  -8 93.0200 41.2300   1
  -4  -5  -8 -44.070 38.0200   1
  -4  -5  -8 39.3500 42.6800   1
  -1  -4 -10 256.670 53.6400   1
   1   4  10 487.060 71.8400   1
  -1  -4 -10 368.370 48.8800   1
  -1  -4 -10 240.060 60.3800   1
  -6  -2  -8 1724.23 73.3800   1
  -6  -2  -8 1626.82 83.2200   1
  -5   8  -4 200.400 37.0400   1
  -5   8  -4 86.9000 71.3500   1
  -5   8  -4 176.260 33.0000   1
  -5   3  -9 31.7500 37.6400   1
  -5  -6  -6 161.710 54.9000   1
   5   6   6 251.750 47.8400   1
  -5  -6  -6 169.760 32.5600   1
  -4   9   2 64.2100 74.9300   1
  -4   9   2 131.810 46.9500   1
  -4   9   2 110.940 31.0300   1
  -3  -8  -5 77.4400 48.5800   1
  -3  -8  -5 14.8100 32.6600   1
   3   8   5 44.1600 31.1300   1
  -3  -8  -5 28.8300 38.4500   1
  -9  -1  -2 46.3300 35.8500   1
  -9  -1  -2 74.5100 46.0100   1
  -7   6  -4 1231.92 72.6300   1
  -7   6  -4 1205.56 59.1200   1
   0   8  -7 31.0800 60.5400   1
  -5  -7   5 1494.16 98.7900   1
   5   7  -5 1653.19 103.850   1
  -1   2 -11 542.690 60.3200   1
  -1   2 -11 572.380 55.3400   1
  -2   7  -8 14.6200 73.7700   1
  -8   4   4 1735.76 73.6600   1
  -8   4   4 1701.94 79.9700   1
  -8   4   4 1617.41 73.6900   1
   6   6  -5 52.5500 43.0700   1
  -6  -6   5 19.5100 28.1700   1
  -8  -3  -4 369.200 40.1000   1
  -8  -3  -4 337.430 45.8800   1
   6   7   2 58.4500 45.1500   1
  -6  -7  -2 58.0700 33.6100   1
  -6  -7  -2 39.8100 38.4600   1
  -9   3   0 174.730 52.0500   1
  -9   3   0 128.470 44.2800   1
  -8   3  -5 1119.87 56.8800   1
  -8   3  -5 1094.98 71.9200   1
  -6   7   4 222.340 55.4700   1
  -6   7   4 153.280 33.0300   1
   5   8  -2 881.710 65.0400   1
  -5  -8   2 815.010 61.7500   1
  -5  -2  -9 1293.59 65.1600   1
  -5  -2  -9 1235.19 82.0200   1
  -1  -2  11 395.390 49.4500   1
   1   2 -11 446.660 46.1500   1
  -5   5  -8 561.610 42.2400   1
   1 -10   0 6.94000 27.2700   1
   1 -10   0 59.0000 99.0900   1
  -1  10   0 13.9600 43.6300   1
   0  10   0 1093.18 84.8500   1
   0 -10   0 1098.61 59.5600   1
   0 -10   0 1023.56 107.560   1
   7   2  -7 1625.46 73.1600   1
  -7  -2   7 1528.82 82.9300   1
  -7  -2   7 1573.00 70.9800   1
  -4   6  -8 1739.10 89.5600   1
  -4   6  -8 1951.95 119.600   1
   7   5   4 50.5700 34.2100   1
  -7  -5  -4 97.4700 51.7700   1
  -7  -5  -4 37.0900 25.7500   1
  -7   7   0 223.780 35.1000   1
  -7   7   0 190.100 49.8900   1
  -7   7   0 168.690 36.0300   1
   7  -7   0 128.320 83.4800   1
  -9  -2   0 1314.95 64.2200   1
  -9  -2   0 1295.47 61.8800   1
  -3  -9   3 326.540 51.9200   1
   3   9  -3 268.030 50.2600   1
   7   6  -2 489.410 44.5300   1
  -7  -6   2 535.260 58.7400   1
  -6   8   0 254.620 44.9100   1
  -6   8   0 229.430 43.9000   1
  -3   5   9 68.2800 56.3200   1
  -3   5   9 -31.210 38.6000   1
  -3   5   9 10.9600 42.8500   1
  -4   2 -10 208.890 67.9500   1
  -4   2 -10 209.060 38.5600   1
   8   4  -3 796.360 59.9600   1
  -8  -4   3 752.150 50.9200   1
  -8  -4   3 725.030 54.8200   1
   1 -10   1 -21.120 65.5700   1
   1 -10   1 3.51000 36.2800   1
  -1  10  -1 16.0100 69.9300   1
  -6   3   8 -25.390 36.2200   1
  -6   3   8 20.0200 38.8000   1
   0  10  -1 -0.5100 45.8500   1
   0 -10   1 -24.610 33.5500   1
   0 -10   1 6.16000 73.4200   1
  -4  -1 -10 977.400 57.9400   1
  -4  -1 -10 1008.84 82.8100   1
  -2   0  11 36.3300 34.6200   1
  -2   0  11 17.2300 69.1900   1
  -5  -4  -8 280.270 55.6400   1
  -5  -4  -8 343.330 50.0000   1
  -5   7  -6 9.45000 84.0200   1
  -5   7  -6 -21.140 25.0100   1
  -5   7  -6 19.1500 24.5100   1
  -1  -9   5 722.890 64.0200   1
   1   9  -5 777.820 75.8400   1
  -6   6  -6 296.400 36.4900   1
  -6   6  -6 264.440 34.8600   1
  -6   8  -1 6.46000 38.8800   1
  -6   8  -1 38.4100 29.0200   1
  -9   3  -1 14.9000 41.7300   1
  -9   3  -1 5.37000 37.1900   1
   9  -3   1 -1.3400 36.8400   1
  -9   3  -1 42.5100 28.8900   1
  -2   6  -9 16.6500 61.5100   1
  -2   6  -9 26.4600 32.9600   1
  -6   5  -7 4283.73 117.820   1
  -7   7  -1 180.340 40.0500   1
  -7   7  -1 163.840 31.2200   1
  -7   7  -1 162.530 32.5000   1
  -4   7  -7 21.5500 62.3400   1
  -8   3   5 -4.7800 39.4600   1
  -8   3   5 58.0300 33.9100   1
  -8   3   5 128.370 46.5200   1
  -4   8   5 125.490 38.9200   1
  -4   8   5 116.100 54.6600   1
   4  -8  -5 171.980 76.2300   1
  -4   8   5 118.350 33.8300   1
  -9   3   1 -46.200 40.0100   1
  -9   3   1 -11.230 34.7800   1
  -9  -2   1 0.08000 38.9500   1
  -9  -2   1 12.8900 36.7100   1
  -2   0 -11 2029.71 90.3500   1
  -9   0   3 417.760 47.9700   1
  -9   0   3 213.300 45.9700   1
  -2   9  -5 1570.60 96.7100   1
  -2  -1  11 289.120 63.1600   1
  -2  -1  11 245.280 41.7800   1
  -2   1 -11 444.770 60.6000   1
  -6  -5  -6 591.070 61.4300   1
  -6  -5  -6 632.390 43.3500   1
  -9   1   3 1183.69 62.2900   1
  -9   1   3 1265.16 65.2200   1
  -8  -2  -5 261.550 39.9500   1
  -8  -2  -5 234.110 52.8000   1
   4   8   4 195.860 38.7600   1
  -4  -8  -4 363.380 41.9800   1
  -4  -8  -4 404.180 54.3200   1
  -4  -8  -4 292.720 36.1400   1
   2  -4 -10 259.330 138.650   1
  -2   4  10 105.670 57.2900   1
  -4   9  -3 306.870 45.2800   1
  -4   9  -3 372.850 60.9200   1
  -4   9  -3 361.300 43.5000   1
  -8   5  -3 6.42000 29.5000   1
  -8   5  -3 107.290 34.7400   1
  -9  -2  -1 49.3900 48.6500   1
  -9  -2  -1 -15.290 37.1700   1
   0   2  11 200.140 52.6400   1
   0  -2 -11 92.6100 36.8900   1
   0  -2 -11 116.630 61.1800   1
   0  -2 -11 69.1100 47.8400   1
  -4  -2  10 33.5600 46.6700   1
   4   2 -10 18.9000 34.2400   1
  -9   1  -3 1309.63 60.7800   1
  -9   1  -3 1214.04 66.5700   1
  -7   7   1 1891.19 71.2500   1
  -7   7   1 1712.14 68.3900   1
  -7   7   1 1976.69 79.2000   1
   7  -7  -1 1991.65 125.260   1
  -6   8   1 265.550 45.2000   1
  -6   8   1 207.040 34.1600   1
   6  -8  -1 263.770 58.8700   1
  -1  10   1 156.350 42.9100   1
   1 -10  -1 109.330 37.9900   1
   1 -10  -1 256.870 107.120   1
   0  10   1 125.150 40.5900   1
   0 -10  -1 116.660 31.7700   1
   0 -10  -1 72.2600 67.6200   1
   0   5 -10 6.46000 40.6900   1
   0   5 -10 -3.5100 30.1100   1
  -9   0  -3 487.050 45.6400   1
  -9   0  -3 405.900 36.9700   1
  -6  -7   3 -43.880 39.6200   1
   6   7  -3 -56.920 43.5000   1
  -6  -4  -7 311.260 43.4500   1
  -6  -4  -7 400.190 68.1300   1
  -5   3   9 101.550 52.2500   1
  -5   3   9 76.5300 40.6700   1
  -7   3  -7 1490.43 67.6000   1
  -4   2  10 373.860 38.0000   1
  -4   2  10 345.320 60.2300   1
  -4   2  10 356.730 57.8100   1
  -7   6   4 633.620 48.9200   1
  -7   6   4 621.950 44.8200   1
   1   8  -7 616.300 60.5100   1
  -2   1  11 214.250 42.5200   1
  -2   1  11 206.390 50.3500   1
   6   3  -8 19.5300 41.0600   1
  -6  -3   8 26.1600 31.4100   1
  -3  -3 -10 358.050 67.6200   1
  -3  -3 -10 382.750 40.8800   1
  -3  -3 -10 278.770 39.8600   1
  -7  -6  -2 2174.85 95.5500   1
   7   6   2 2074.95 74.6800   1
  -7  -6  -2 2245.83 79.6200   1
   5   8   2 1024.05 57.1500   1
  -5  -8  -2 944.340 74.2500   1
  -5  -8  -2 856.200 56.2000   1
  -2  -8  -6 293.990 43.5400   1
  -2  -8  -6 312.670 50.8400   1
  -2  -8  -6 325.160 83.2200   1
  -5  -3   9 1644.98 91.0300   1
   5   3  -9 1668.09 71.4300   1
   1  -2 -11 369.620 50.1600   1
  -1   2  11 414.360 75.5600   1
   1  -2 -11 425.440 87.3100   1
   0 -10   2 156.400 61.5300   1
   0 -10   2 168.770 37.8800   1
   0  10  -2 84.6000 51.4600   1
  -1  10  -2 1002.14 79.2900   1
   1 -10   2 932.180 98.9700   1
   1 -10   2 1028.94 65.1300   1
  -4  -7  -6 166.860 40.2600   1
   4   7   6 182.010 41.5000   1
  -4  -7  -6 289.280 44.5700   1
  -4  -7  -6 88.8100 58.3700   1
  -1   5 -10 227.840 62.4900   1
  -1   5 -10 199.470 34.4600   1
  -8  -4  -3 1007.87 52.2000   1
  -8  -4  -3 930.260 58.8900   1
  -8   0   6 915.780 56.8800   1
  -8   0   6 914.740 65.6700   1
  -3  -6  -8 -100.72 68.6600   1
  -3  -6  -8 -62.450 37.1300   1
  -3  -6  -8 19.9900 36.2900   1
  -8   5   3 86.7100 36.6300   1
  -8   5   3 93.6900 44.2100   1
  -8   5   3 123.390 41.7300   1
   2 -10   0 5023.12 135.460   1
   2 -10   0 6214.40 230.060   1
  -2  10   0 5328.03 208.260   1
  -5   6   7 332.980 46.4100   1
  -5   6   7 323.630 55.0400   1
  -5   6   7 309.940 47.0000   1
  -3   4 -10 845.860 102.590   1
  -3   4 -10 792.790 60.1400   1
   1  10   0 4265.23 171.050   1
  -1 -10   0 4173.97 113.390   1
  -1 -10   0 4163.86 146.910   1
  -6   8  -2 -9.2300 31.6200   1
  -6   8  -2 5.78000 24.7900   1
   2 -10   1 175.240 37.4500   1
   2 -10   1 140.250 111.220   1
   1  10  -1 -21.500 46.4800   1
  -1 -10   1 -23.470 27.3100   1
  -1 -10   1 -70.070 67.9400   1
  -2   8  -7 438.270 70.2100   1
  -2  -9  -4 430.860 42.6200   1
   2   9   4 360.190 51.0700   1
  -2  -9  -4 341.890 85.1000   1
   5  -8  -4 229.910 58.3300   1
  -5   8   4 165.050 40.0400   1
  -5   8   4 257.630 63.2100   1
  -5   8   4 171.970 51.0000   1
  -5   8   4 280.880 41.4200   1
  -7   7  -2 661.400 48.9100   1
  -7   7  -2 620.570 49.5500   1
  -7   7  -2 637.950 46.7600   1
  -2  -1 -11 761.180 53.1400   1
  -2  -1 -11 719.740 56.5000   1
   2   7  -8 953.790 80.1100   1
  -1  -2 -11 413.210 41.7100   1
  -1  -2 -11 486.720 55.7700   1
  -1  -2 -11 465.500 62.4200   1
  -7  -2  -7 634.940 48.8600   1
  -7  -2  -7 606.040 57.2100   1
  -8   1   6 7.13000 30.9400   1
  -8   1   6 28.3700 36.7600   1
  -8   1   6 62.5800 33.5900   1
  -3   8   6 1984.09 129.390   1
  -3   8   6 1877.09 85.3300   1
   3  -8  -6 2160.82 123.700   1
  -9  -1   3 61.4500 42.6500   1
  -9  -1   3 -8.8600 55.6900   1
  -9   3  -2 140.240 40.5500   1
  -9   3  -2 133.010 31.0400   1
   9  -3   2 94.6500 61.9400   1
  -9  -2   2 1438.45 74.6100   1
  -9  -2   2 1446.12 66.4900   1
   9   2  -2 1336.51 77.6300   1
   7   4  -6 68.8600 46.3000   1
  -7  -4   6 84.4400 43.6500   1
  -7  -4   6 53.5500 38.6900   1
   3   8  -6 575.140 57.9600   1
  -3   9   4 130.710 43.4500   1
  -3   9   4 70.4600 37.9900   1
  -3   9   4 82.8700 44.2600   1
  -7   3   7 609.040 64.4200   1
  -7   3   7 545.840 51.6800   1
   0  -7  -8 384.050 63.2600   1
   0  -7  -8 291.710 105.660   1
   0  -7  -8 412.690 43.5000   1
   0   7   8 354.020 83.5200   1
   0  -7  -8 374.900 51.5300   1
  -9   2  -3 6.20000 26.9500   1
  -9   2  -3 22.1000 44.1600   1
   2   6  -9 116.010 45.9600   1
   0   3 -11 -1.6100 45.8100   1
   0   3 -11 -9.7500 46.4500   1
  -8   1  -6 65.6600 34.1500   1
  -8   1  -6 18.1300 37.6600   1
   1   5 -10 1541.00 86.3600   1
   1   5 -10 1519.67 91.8600   1
  -2   2 -11 1298.34 65.3800   1
  -2   2 -11 1159.51 93.7500   1
  -9   2   3 668.750 57.2700   1
  -9   2   3 610.220 50.4900   1
  -4  -4  -9 -8.0100 49.0600   1
  -4  -4  -9 24.5100 40.3600   1
  -9   3   2 1210.72 59.7200   1
  -9   3   2 1412.16 69.5700   1
   1  -7  -8 126.810 38.6600   1
  -1   7   8 121.520 49.5200   1
   1  -7  -8 57.9200 88.4100   1
   1  -7  -8 96.0200 61.8800   1
  -4   5  -9 206.710 38.7700   1
  -4   5  -9 287.510 74.7200   1
   0  -6  -9 48.8900 62.7200   1
   0  -6  -9 31.5900 44.0300   1
   0  -6  -9 62.1800 33.4100   1
   0   6   9 72.3400 50.6700   1
   0  -6  -9 50.2900 36.4700   1
  -5  -8   3 1373.53 84.4100   1
   5   8  -3 1451.50 80.3300   1
  -8   0  -6 637.450 57.7900   1
  -8   0  -6 660.230 44.0600   1
  -2  -4 -10 764.730 68.0900   1
  -2  -4 -10 750.070 53.9300   1
  -2  -4 -10 757.980 52.1900   1
   0   9   5 199.170 56.4700   1
   0  -9  -5 116.730 83.2800   1
   0  -9  -5 92.5900 44.8500   1
  -3  -9  -3 331.700 44.9200   1
  -3  -9  -3 217.510 67.1000   1
   3   9   3 340.510 43.1300   1
  -1   9   5 1197.36 78.9000   1
   1  -9  -5 1230.77 146.480   1
  -2  -2  11 72.2000 45.9100   1
  -2  -2  11 48.7100 53.5400   1
  -6   5   7 111.220 54.3600   1
  -1   6   9 997.500 72.4100   1
   1  -6  -9 1170.24 71.1300   1
   1  -6  -9 712.980 146.080   1
   2 -10  -1 658.910 135.100   1
  -2  10   1 906.000 70.8300   1
  -2  10   1 678.640 58.1000   1
  -5   5   8 186.520 52.1000   1
  -5   5   8 239.520 59.2500   1
  -5   5   8 265.920 40.2000   1
  -4  -8   5 529.800 53.2600   1
   4   8  -5 525.740 60.1500   1
  -9  -1  -3 1122.72 59.7400   1
  -9  -1  -3 1014.29 63.3000   1
   7   6  -3 696.670 87.2600   1
  -7  -6   3 666.610 54.5100   1
  -9  -2  -2 1342.85 62.8000   1
  -9  -2  -2 1653.41 70.6000   1
  -1 -10  -1 75.8100 87.3300   1
   1  10   1 26.4600 44.2300   1
  -1 -10  -1 28.7700 44.3800   1
  -6   6   6 344.500 46.4000   1
  -6   6   6 392.910 43.0300   1
  -3  -7  -7 986.550 61.6400   1
  -3  -7  -7 957.700 96.9000   1
  -3  -7  -7 1096.06 59.4900   1
   4   9   0 104.920 38.5100   1
  -4  -9   0 66.7600 54.0600   1
  -6  -6  -5 67.9200 43.7600   1
  -6  -6  -5 -9.3100 35.9900   1
   6   6   5 55.1900 38.2500   1
  -8  -1   6 458.870 49.3600   1
   8   1  -6 448.180 46.7800   1
  -8  -1   6 577.590 57.3500   1
  -4   9   3 50.4700 49.3400   1
  -4   9   3 -12.180 38.9600   1
  -4   9   3 36.8500 62.2200   1
  -7   7   2 83.5600 41.3600   1
   7  -7  -2 164.320 57.4100   1
  -1   3 -11 386.130 54.2100   1
  -1   3 -11 309.580 54.2400   1
   8   5   0 66.2100 42.6100   1
  -8  -5   0 148.950 38.6400   1
  -8  -5   0 137.440 45.4200   1
  -7  -5   5 2251.71 104.740   1
   7   5  -5 2143.24 82.7400   1
  -6   7  -5 1836.44 89.0600   1
  -6   7  -5 1912.49 77.2700   1
  -6   7  -5 2039.65 79.9700   1
   4   9  -1 1111.69 70.2800   1
  -4  -9   1 847.100 71.9900   1
  -6   8   2 490.200 53.7600   1
  -6   8   2 402.000 55.6900   1
  -6   8   2 497.390 42.2300   1
   6  -8  -2 391.110 90.6500   1
  -4   3 -10 1.55000 43.0300   1
  -4   3 -10 47.4900 54.6200   1
   5   7   5 12.8400 34.7900   1
  -5  -7  -5 -33.780 40.3500   1
  -5  -7  -5 -39.460 56.3600   1
  -6  -7  -3 369.740 60.4500   1
  -6  -7  -3 553.660 47.7200   1
   6   7   3 503.810 52.9200   1
  -3  -5  -9 41.7400 34.1900   1
  -3  -5  -9 -7.6800 40.8000   1
  -3  -5  -9 12.5400 43.4300   1
  -1  10   2 714.530 81.8500   1
   1 -10  -2 696.390 52.7100   1
   1 -10  -2 754.550 107.050   1
   0 -10  -2 10.6600 37.8900   1
   0 -10  -2 -37.540 72.4700   1
   0  10   2 -11.810 41.6600   1
  -4  -2 -10 59.7600 49.3500   1
  -4  -2 -10 9.81000 44.5600   1
   1  10  -2 1770.31 110.300   1
  -1 -10   2 1729.89 79.1800   1
  -1 -10   2 1826.10 108.850   1
   2 -10   2 859.570 114.650   1
  -2  10  -2 828.390 85.4400   1
   2 -10   2 952.370 60.4800   1
  -6   4  -8 372.440 35.4600   1
  -8  -5   1 244.700 41.3400   1
  -8  -5   1 234.880 46.3200   1
   8   5  -1 375.090 47.8400   1
  -1  -3  11 254.600 54.9400   1
   1   3 -11 275.680 38.7800   1
   1   3 -11 330.800 44.1600   1
  -5   7   6 17.5200 43.1900   1
  -5   7   6 -4.4100 44.4200   1
  -5   7   6 18.3300 38.1800   1
   3   4 -10 1604.18 78.7600   1
  -3  -4  10 1561.54 112.590   1
   5   6  -7 186.520 41.1400   1
  -5  -6   7 185.870 35.1300   1
   8   3  -5 672.260 63.5700   1
  -8  -3   5 516.550 49.8200   1
  -8  -3   5 602.700 53.4100   1
  -8   6   0 1820.26 79.1400   1
  -8   6   0 1896.55 74.5300   1
   8  -6   0 1729.36 96.6200   1
  -8   6   0 1846.03 86.6200   1
  -5   9   0 349.940 45.6200   1
  -5   9   0 430.780 50.7100   1
  -5   9   0 140.460 57.8100   1
  -8   2  -6 606.470 47.3400   1
  -8   2  -6 702.950 56.3700   1
  -3   7  -8 538.200 80.3100   1
  -4   6   8 107.350 35.6600   1
  -4   6   8 62.1600 37.0800   1
  -4   6   8 126.380 42.4200   1
  -4   8  -6 535.890 77.1800   1
  -2  -9   5 1796.88 93.6500   1
   2   9  -5 1851.85 92.4400   1
   5   5  -8 14.6500 42.5400   1
  -1  -7  -8 731.790 60.0400   1
  -1  -7  -8 704.450 82.3100   1
  -1  -7  -8 701.290 55.5300   1
   1   7   8 903.720 82.8800   1
   4   6  -8 1991.63 87.0600   1
  -7   5  -6 104.080 36.3000   1
  -7   5  -6 133.120 36.6800   1
  -5   9  -1 3752.49 108.210   1
  -5   9  -1 3423.84 156.140   1
  -5   9  -1 3444.85 108.670   1
  -8   2   6 990.170 61.3000   1
  -8   2   6 1045.24 54.0500   1
  -8   2   6 936.710 59.0500   1
  -2   2  11 -12.580 57.5000   1
  -2   2  11 -152.17 64.0600   1
   2  -2 -11 -3.5800 72.9900   1
  -2   5 -10 113.240 61.8400   1
  -2   5 -10 184.890 32.6800   1
  -3  -9   4 92.9400 56.8500   1
   3   9  -4 11.5000 53.6600   1
  -8  -5  -1 750.750 66.1400   1
  -8  -5  -1 738.020 47.9100   1
   8   5   1 799.230 129.130   1
  -4  -9  -1 1816.81 89.3600   1
   4   9   1 1550.06 84.1400   1
  -8   6  -1 154.560 42.0600   1
  -8   6  -1 168.150 42.1200   1
   8  -6   1 70.8500 54.8200   1
  -8   6  -1 142.370 45.4200   1
   1   6   9 260.350 79.3100   1
  -1  -6  -9 224.560 47.3100   1
  -1  -6  -9 278.650 68.0800   1
  -1  -6  -9 125.190 57.2600   1
  -1  -6  -9 211.680 47.0400   1
  -5   4  -9 -4.7900 32.9600   1
  -6   0   9 623.610 62.7100   1
   6   0  -9 696.910 54.5200   1
  -6   0   9 665.030 54.6000   1
   0 -10   3 196.680 100.200   1
   0  10  -3 32.8600 63.7600   1
   0 -10   3 119.100 32.4500   1
   7   3  -7 1108.76 64.0600   1
  -7  -3   7 1181.47 79.8800   1
  -7  -3   7 1044.79 66.2400   1
   1 -10   3 -21.880 84.3400   1
  -1  10  -3 -10.690 60.7400   1
  -8  -4   4 563.950 54.2400   1
  -8  -4   4 482.420 51.0900   1
   8   4  -4 734.800 57.8700   1
  -6  -3  -8 734.310 64.9900   1
  -6  -3  -8 662.400 56.1400   1
  -4   7   7 -29.880 27.7500   1
  -4   7   7 23.0500 49.3800   1
  -4   7   7 -37.460 50.6100   1
  -8  -1  -6 33.3900 52.1800   1
  -8  -1  -6 14.8500 38.4400   1
  -8   4  -5 974.090 57.3300   1
  -8   4  -5 943.640 56.4600   1
  -1  -9  -5 112.010 31.8100   1
  -1  -9  -5 17.6100 57.5100   1
   1   9   5 44.7900 36.1000   1
   1   9   5 71.3800 44.0700   1
   8  -6  -1 475.260 79.7100   1
  -8   6   1 505.950 43.1500   1
  -8   6   1 437.230 41.9100   1
  -8   6   1 568.760 43.5400   1
  -3   9  -5 3186.81 174.330   1
  -2   7   8 166.400 56.9700   1
   2  -7  -8 113.950 106.390   1
  -3   6  -9 2012.79 97.4800   1
  -3   6  -9 2398.48 140.460   1
  -9   4   0 725.740 58.8800   1
  -9   4   0 766.150 61.3400   1
   2  -9  -5 605.470 112.820   1
  -2   9   5 454.080 51.4700   1
   4   9  -2 37.5800 33.7600   1
  -4  -9   2 -0.9400 38.0100   1
  -5   9   1 3157.17 111.340   1
  -5   9   1 3049.77 96.4100   1
  -5   9   1 3106.85 172.520   1
  -3   0  11 1177.66 85.2500   1
  -3   0  11 1284.98 81.5900   1
  -5  -3  -9 2495.05 105.360   1
  -5  -3  -9 2459.40 83.8000   1
   2   8  -7 53.1700 49.3500   1
   0  -8  -7 334.610 48.8600   1
   0   8   7 320.730 62.8800   1
   0  -8  -7 385.370 46.4600   1
   0  -8  -7 376.240 98.9100   1
   4   3 -10 293.870 50.9000   1
  -4  -3  10 213.610 64.3500   1
  -6   8  -3 304.160 36.2700   1
  -6   8  -3 303.920 45.2100   1
  -5   8  -5 155.490 35.9300   1
  -5   8  -5 85.3300 68.2000   1
  -4   9  -4 444.230 42.8400   1
  -4   9  -4 470.200 73.4500   1
  -4   9  -4 502.270 63.1300   1
   9   3   0 525.900 52.9700   1
  -9  -3   0 431.160 54.5800   1
  -9  -3   0 297.760 41.8400   1
   1  -8  -7 148.250 81.2500   1
   1  -8  -7 160.580 111.660   1
  -1   8   7 189.960 60.2900   1
   1  -8  -7 115.710 38.2300   1
  -7  -6  -3 38.0400 37.1300   1
  -7  -6  -3 -70.900 39.8700   1
   7   6   3 -24.680 38.0300   1
  -6   1   9 29.5400 56.9600   1
  -3   4  10 696.760 77.6300   1
  -3   4  10 576.770 66.9100   1
  -3   4  10 514.040 47.4000   1
  -7   7  -3 197.780 39.9000   1
  -7   7  -3 267.480 36.8500   1
  -7   7  -3 265.610 43.4700   1
  -9   0   4 3622.69 124.100   1
  -9   0   4 3526.26 130.890   1
   2  -6  -9 365.300 156.140   1
  -2   6   9 91.9700 65.2900   1
   2  -6  -9 162.930 36.7000   1
  -6   1  -9 299.050 39.2500   1
  -6   1  -9 256.860 35.5600   1
  -5  -8  -3 4716.69 155.040   1
  -5  -8  -3 4483.90 163.940   1
   5   8   3 4810.86 148.260   1
  -8  -5   2 -3.8500 35.7300   1
   8   5  -2 48.6300 33.0100   1
  -7   6  -5 549.310 53.7800   1
  -7   6  -5 527.280 56.4300   1
   9  -4   1 135.710 59.0000   1
  -9   4  -1 117.690 36.2400   1
  -9   4  -1 35.4400 29.0700   1
  -9   1   4 96.8600 45.1700   1
  -9   1   4 122.790 42.0500   1
  -8   5  -4 994.070 61.2500   1
  -8   5  -4 877.150 58.1400   1
   0   9  -6 404.050 73.4200   1
  -2  -2 -11 7.92000 34.2800   1
  -2  -2 -11 17.7700 29.8900   1
  -2  -2 -11 -37.890 45.7500   1
  -7  -4  -6 -8.4100 47.1700   1
  -7  -4  -6 35.3800 61.9800   1
  -6  -7   4 523.650 67.2000   1
   6   7  -4 655.170 73.7400   1
  -6   0  -9 676.890 52.3900   1
  -6   0  -9 573.690 63.0800   1
   2 -10  -2 2691.42 174.120   1
  -2  10   2 2563.37 151.310   1
  -2  10   2 2859.30 125.570   1
  -6  -1   9 3316.50 132.360   1
   6   1  -9 3252.52 131.090   1
  -6  -1   9 3516.02 142.730   1
   4   7  -7 535.900 58.6700   1
  -9  -2   3 77.1900 44.5400   1
  -9  -2   3 63.9800 36.3600   1
   9   2  -3 117.000 38.2000   1
  -1   9  -6 104.660 85.0500   1
   1  10   2 288.810 47.9700   1
  -1 -10  -2 209.050 40.4600   1
  -1 -10  -2 259.180 84.8000   1
  -4   3  10 59.3300 59.8900   1
  -4   3  10 46.4200 27.2200   1
  -4   3  10 132.560 65.3000   1
   6   5  -7 184.200 49.0000   1
  -6  -5   7 286.160 45.8000   1
  -9   4   1 16.6000 41.7500   1
  -9   4   1 -8.1700 40.8300   1
  -9  -3   1 615.140 62.3400   1
   9   3  -1 762.400 59.5200   1
  -9  -3   1 601.120 61.1000   1
  -3   0 -11 207.350 43.8500   1
  -3  -1  11 801.660 69.5900   1
  -3  -1  11 826.350 61.7300   1
  -3   1 -11 17.1900 36.8000   1
  -9   3  -3 -17.850 28.7400   1
  -9   3  -3 31.1200 38.4100   1
   0   3  11 330.320 73.8000   1
   0  -3 -11 135.390 31.3600   1
   0  -3 -11 144.310 59.9800   1
   0  -3 -11 159.420 50.2600   1
  -9   1  -4 -15.470 43.9500   1
  -9   1  -4 35.6500 32.7200   1
   3 -10   0 2006.85 166.590   1
  -3  10   0 1812.64 92.2500   1
  -3  10   0 1936.91 174.600   1
  -7   0   8 25.1500 29.3500   1
  -7   0   8 150.490 43.3000   1
  -7   0   8 44.7500 54.3100   1
  -6   4   8 195.320 42.9100   1
  -6   4   8 311.570 62.5100   1
  -5   9  -2 46.4100 28.3100   1
  -5   9  -2 7.09000 47.1800   1
  -5   9  -2 39.0100 60.3100   1
  -2 -10   0 1012.72 76.9400   1
  -2 -10   0 859.530 64.6500   1
   2  10   0 813.420 65.5800   1
   2   5 -10 58.1800 46.8600   1
  -8   4   5 43.7200 39.6400   1
  -8   4   5 129.020 32.1500   1
  -8   4   5 22.3000 32.7600   1
  -9   0  -4 3.33000 46.0000   1
  -9   0  -4 18.2000 28.1900   1
   0  -5 -10 123.620 67.3600   1
   0  -5 -10 178.030 43.2400   1
   0  -5 -10 158.880 43.4700   1
   0   5  10 241.540 61.7100   1
   4   5  -9 848.830 67.0200   1
  -9   3   3 817.880 55.4100   1
  -9   3   3 732.620 54.0100   1
  -3  10  -1 94.8900 75.4100   1
   3 -10   1 145.820 105.240   1
  -8  -3  -5 1360.21 65.6300   1
  -8  -3  -5 1353.86 80.3100   1
  -2   3 -11 879.190 79.5000   1
  -2   3 -11 760.460 69.2100   1
  -2 -10   1 13.8100 65.8700   1
   2  10  -1 11.8400 57.3500   1
  -2 -10   1 22.4100 34.7100   1
  -9  -3  -1 290.020 57.4800   1
  -9  -3  -1 269.990 49.2300   1
  -3   1  11 361.540 62.5200   1
  -3   1  11 444.430 64.3300   1
  -8   6  -2 853.220 57.7500   1
  -8   6  -2 741.700 57.0400   1
  -8   6  -2 861.090 53.1300   1
  -6   7   5 232.700 43.3200   1
  -6   7   5 212.150 51.7300   1
  -6   7   5 172.720 48.3200   1
  -7   4  -7 237.910 35.7400   1
  -7   4  -7 243.630 31.4400   1
  -1   3  11 336.990 81.1100   1
   1  -3 -11 385.170 96.3200   1
   1  -3 -11 397.290 59.0700   1
  -8  -2   6 632.640 70.7700   1
   8   2  -6 641.160 64.2500   1
  -8  -2   6 615.460 68.7500   1
  -3   8  -7 60.8000 51.4200   1
  -7   5   6 136.390 38.1700   1
  -7   5   6 27.5200 40.4600   1
   1  -5 -10 314.860 82.0300   1
  -1   5  10 480.930 79.1700   1
   1  -5 -10 436.410 56.1600   1
  -4   5   9 2397.75 100.070   1
  -4   5   9 2477.91 111.270   1
  -4   5   9 2614.11 121.290   1
  -7  -5  -5 43.3400 45.9300   1
  -7  -5  -5 99.5700 32.1600   1
  -7   1   8 26.8800 49.6500   1
  -7   1   8 -29.730 47.2600   1
  -5   0  10 176.520 67.7900   1
  -5   0  10 260.200 45.9800   1
  -1 -10   3 49.9000 55.5000   1
   1  10  -3 46.5400 48.7400   1
   2 -10   3 1177.10 80.4300   1
   2 -10   3 1155.47 110.870   1
  -2  10  -3 1224.00 123.210   1
  -9  -2  -3 269.980 49.0500   1
  -9  -2  -3 289.380 38.5400   1
  -8  -5  -2 41.7000 50.4900   1
   8   5   2 -17.040 49.9900   1
  -8  -5  -2 28.5000 35.9600   1
  -7   1  -8 13.1900 27.2700   1
  -7   1  -8 5.98000 39.9400   1
  -5  -7   6 52.9900 41.4600   1
   5   7  -6 26.4200 45.2800   1
  -8  -4  -4 497.630 66.0500   1
  -8  -4  -4 634.590 60.7500   1
  -8   5   4 1076.50 77.3900   1
  -8   5   4 1178.98 67.1000   1
  -8   5   4 1094.02 61.0800   1
   4   9   2 689.260 52.5100   1
  -4  -9  -2 617.570 67.7000   1
  -6  -6   6 331.390 51.2400   1
   6   6  -6 316.640 51.3400   1
  -9  -1   4 -4.4500 43.1100   1
  -9  -1   4 37.1900 32.9400   1
  -6   2  -9 204.340 44.9600   1
  -2  -3  11 389.220 60.8800   1
   2   3 -11 420.320 51.7400   1
  -7   0  -8 272.520 47.4700   1
  -7   0  -8 259.560 42.2100   1
  -1  -8  -7 349.860 71.4900   1
  -1  -8  -7 391.510 54.0700   1
   1   8   7 253.640 53.3500   1
  -1  -8  -7 353.800 53.4900   1
  -7   7   3 389.680 59.9500   1
  -7   7   3 422.820 50.7000   1
   7  -7  -3 484.840 78.7600   1
   3 -10  -1 684.280 164.980   1
  -3  10   1 718.600 59.6400   1
  -3  10   1 699.510 82.3100   1
  -8   6   2 1736.94 78.7300   1
  -8   6   2 1292.37 79.2000   1
  -8   6   2 1597.79 77.1300   1
   8  -6  -2 1494.76 91.9300   1
  -7  -1   8 705.050 66.2700   1
  -7  -1   8 652.970 68.8500   1
   7   1  -8 634.360 73.1300   1
  -7  -1   8 678.390 52.4100   1
  -5  -8   4 -12.090 33.6100   1
   5   8  -4 -57.960 50.1600   1
   2  10   1 31.9100 43.5000   1
  -2 -10  -1 -20.490 30.7100   1
  -2 -10  -1 -3.5100 60.7600   1
  -1  -3 -11 121.170 63.3300   1
  -1  -3 -11 306.190 49.0700   1
  -1  -3 -11 266.860 45.0800   1
  -5   4   9 160.660 48.2600   1
  -5   4   9 189.100 41.7900   1
  -5   4   9 152.120 55.1100   1
   6  -8  -3 146.840 81.6000   1
  -6   8   3 7.66000 50.3500   1
  -6   8   3 77.3500 39.9500   1
  -8   3  -6 744.550 46.3000   1
  -8   3  -6 738.820 60.2300   1
  -9   2  -4 907.790 63.4600   1
  -9   2  -4 855.300 52.2900   1
   1   9  -6 19.0900 51.5400   1
  -9   2   4 51.3900 41.6200   1
  -9   2   4 68.6900 47.8500   1
   2  -8  -7 -99.410 111.980   1
   2  -8  -7 235.070 75.7100   1
  -2   8   7 -57.370 65.6400   1
   2  -8  -7 -55.330 43.6100   1
   4   8   5 -33.740 31.8000   1
  -4  -8  -5 -6.0200 35.4200   1
  -4  -8  -5 -25.550 29.3600   1
  -4  -8  -5 -18.310 60.6000   1
  -5   1 -10 386.820 52.2000   1
   9  -4   2 2256.11 125.010   1
  -9   4  -2 2798.19 107.990   1
  -9   4  -2 2739.54 99.3600   1
  -3  -1 -11 37.7100 42.7500   1
  -5   1  10 87.2500 62.0600   1
  -5   1  10 151.690 32.4100   1
  -3  -8  -6 326.650 48.3000   1
  -3  -8  -6 378.210 64.3900   1
  -3  -8  -6 297.740 40.2700   1
  -5  -1  10 916.690 70.9400   1
  -3   2 -11 419.270 51.2100   1
  -3   2 -11 500.250 75.6400   1
  -6  -1  -9 217.540 39.5500   1
  -6  -1  -9 201.970 52.5000   1
   1 -10  -3 336.010 64.3100   1
   1 -10  -3 239.180 102.540   1
  -1  10   3 336.800 54.0800   1
  -1  10   3 248.110 53.2700   1
  -9  -3   2 436.460 52.5100   1
  -9  -3   2 424.260 58.2100   1
   9   3  -2 464.600 66.9300   1
   7   6  -4 70.9700 44.5700   1
  -7  -6   4 -9.0800 40.2000   1
  -5   0 -10 138.200 36.6200   1
  -5   9   2 653.640 96.5200   1
  -5   9   2 737.410 61.9600   1
  -5   9   2 810.820 63.5800   1
   0 -10  -3 -31.140 38.0800   1
   0 -10  -3 153.150 104.300   1
   0  10   3 -4.3300 44.9900   1
  -7  -3  -7 203.280 38.3300   1
  -7  -3  -7 181.070 39.8100   1
   1   5  10 14.8100 61.1400   1
  -1  -5 -10 -21.700 43.3400   1
  -1  -5 -10 -21.260 37.5000   1
  -1  -5 -10 39.1300 77.5800   1
   6   4  -8 44.6000 37.1900   1
  -6  -4   8 46.3600 26.4100   1
   2  10  -2 2368.92 121.610   1
  -2 -10   2 2377.88 125.840   1
  -6   2   9 13.9300 33.2500   1
  -6   2   9 75.0100 65.2300   1
   5   4  -9 120.680 41.5400   1
  -5  -4   9 103.380 49.7000   1
   3 -10   2 1309.02 162.200   1
  -3  10  -2 1212.47 114.800   1
  -7   6   5 1626.47 78.8300   1
  -7   6   5 1792.55 93.2500   1
  -2   9  -6 74.4500 50.6000   1
   3   7  -8 24.8300 42.0500   1
  -9   4   2 2282.86 97.5000   1
  -9   4   2 2032.95 92.4400   1
   4   9  -3 341.290 55.1400   1
  -4  -9   3 186.750 42.8800   1
  -9  -1  -4 659.750 64.7500   1
  -9  -1  -4 941.540 70.9300   1
  -2  -7  -8 19.7300 74.4300   1
  -2  -7  -8 45.5800 54.7600   1
  -2  -7  -8 5.29000 46.0300   1
   3   6  -9 -74.720 36.0600   1
   0   4 -11 1053.10 97.4700   1
   0   4 -11 1125.19 76.6800   1
  -3  -2  11 27.2500 62.3800   1
  -7   4   7 -28.190 33.9100   1
  -7   4   7 20.1800 42.8800   1
  -8   3   6 429.870 45.5100   1
  -8   3   6 616.290 70.2000   1
  -8   3   6 459.390 47.9500   1
  -3  -9  -4 63.6000 60.9700   1
  -3  -9  -4 4.97000 36.5000   1
   3   9   4 -3.6900 35.4500   1
  -2  -6  -9 123.110 48.6400   1
  -2  -6  -9 19.2500 45.1200   1
  -2  -6  -9 29.6300 53.4400   1
   0   7  -9 744.190 81.4500   1
  -7   2  -8 55.2300 45.6400   1
  -7   2  -8 82.6100 36.7800   1
  -3  -4 -10 25.3800 30.4300   1
  -3  -4 -10 12.4900 65.4800   1
  -3  -4 -10 36.4600 43.8500   1
   6   2  -9 395.910 52.7500   1
  -6  -2   9 497.650 68.5600   1
  -6  -2   9 418.110 45.0800   1
   4  -8  -6 58.6400 75.2200   1
  -4   8   6 113.970 40.0500   1
  -4   8   6 198.490 57.0600   1
  -9  -3  -2 140.220 35.8500   1
  -9  -3  -2 164.810 43.7100   1
  -8  -2  -6 211.270 42.5700   1
  -8  -2  -6 269.660 45.6000   1
  -4   9   4 65.0100 63.2500   1
  -4   9   4 75.6400 36.8700   1
   4  -9  -4 83.7100 55.6900   1
  -4   9   4 29.3100 60.6300   1
  -5   6  -8 458.070 52.4300   1
  -5   6  -8 461.600 91.1800   1
   8   5  -3 35.2700 45.0600   1
  -8  -5   3 149.590 63.2900   1
  -1   7  -9 502.170 75.3800   1
  -4   4 -10 24.6300 76.1700   1
  -4   4 -10 -6.8100 28.8400   1
   5  -8  -5 363.100 95.3700   1
  -5   8   5 279.000 48.6500   1
  -5   8   5 247.520 45.2400   1
  -5   8   5 269.400 49.8700   1
  -5  -6  -7 34.4000 35.3600   1
  -5  -6  -7 -29.100 67.0500   1
  -1   4 -11 553.720 74.0700   1
  -1   4 -11 426.960 59.0400   1
  -7   2   8 63.9700 55.7500   1
  -7   2   8 22.7500 30.3300   1
   2   9   5 1016.42 73.5900   1
  -2  -9  -5 1036.34 72.3400   1
  -2  -9  -5 949.240 91.4700   1
  -6  -7  -4 507.640 92.0800   1
   6   7   4 714.090 55.6100   1
  -6  -7  -4 682.210 52.2300   1
  -5   7  -7 165.850 60.2300   1
  -5   7  -7 217.710 33.8700   1
   2  -5 -10 9.02000 36.7500   1
  -2   5  10 11.1800 59.9800   1
   2  -5 -10 118.710 96.1400   1
  -4  -3 -10 580.040 63.0900   1
  -4  -3 -10 512.010 61.2000   1
  -5  -5  -8 51.9900 37.7000   1
  -5  -5  -8 -2.3300 54.6400   1
   0  10  -4 208.790 58.9600   1
   0 -10   4 68.3300 52.6200   1
  -3   5 -10 553.440 60.3200   1
  -3   5 -10 603.170 78.9300   1
   1 -10   4 2419.44 133.860   1
  -1  10  -4 2752.77 161.870   1
  -6   6  -7 2179.60 108.270   1
  -7  -1  -8 83.3000 44.0100   1
  -7  -1  -8 80.7300 32.7700   1
  -2   3  11 3040.97 135.510   1
   2  -3 -11 2814.61 139.390   1
   2  -3 -11 2511.50 177.270   1
  -5   9  -3 299.050 45.4300   1
  -5   9  -3 324.940 51.8600   1
  -5   9  -3 384.550 125.230   1
  -3   9   5 633.570 66.7300   1
   3  -9  -5 655.940 96.4000   1
  -3   9   5 757.100 55.4600   1
  -5   2 -10 80.1300 41.3600   1
  -3   2  11 124.750 69.9000   1
  -3   2  11 138.830 55.0600   1
  -3   2  11 144.210 37.7600   1
  -3   7   8 105.620 44.4400   1
  -3   7   8 12.3400 46.2500   1
   1   4 -11 51.8400 54.1600   1
  -1  -4  11 23.6800 40.8900   1
   1   4 -11 -18.610 41.4200   1
  -5  -1 -10 80.7200 41.9600   1
  -5  -1 -10 134.230 39.4000   1
  -8   6  -3 425.120 46.5200   1
  -8   6  -3 413.540 49.7900   1
  -2  10   3 134.290 38.9800   1
  -2  10   3 282.240 72.5200   1
   2 -10  -3 419.120 107.210   1
   0   8  -8 116.520 49.3000   1
  -3  10   2 84.7200 41.8100   1
  -3  10   2 39.3100 52.3400   1
   3 -10  -2 205.200 232.920   1
  -4  -6  -8 64.9600 50.6100   1
  -4  -6  -8 178.090 64.9700   1
  -4  -6  -8 125.570 31.3500   1
   1  10   3 16.9600 41.1900   1
  -1 -10  -3 40.9400 41.0500   1
  -1 -10  -3 -8.9500 60.3000   1
  -6   8  -4 143.380 42.2700   1
  -6   8  -4 194.390 42.9900   1
  -6   8  -4 183.130 57.4200   1
  -3   6   9 994.380 65.9700   1
  -3   6   9 1090.15 93.5600   1
   2  10   2 41.0100 32.9800   1
  -2 -10  -2 69.2600 31.4000   1
  -2 -10  -2 37.9100 51.6300   1
  -1   8  -8 231.360 55.8800   1
   6   8   0 5740.50 125.860   1
  -6  -8   0 5230.79 171.930   1
   1   7  -9 1348.88 89.3200   1
  -7   7  -4 1199.84 73.9800   1
  -7   7  -4 1155.14 60.2400   1
  -7   7  -4 1120.85 63.7900   1
  -6  -5  -7 8.08000 40.1400   1
  -6  -5  -7 67.3900 55.2900   1
   7   7   0 4.07000 31.5500   1
  -7  -7   0 0.89000 37.4600   1
  -5   2  10 396.770 84.2000   1
  -5   2  10 189.500 44.1000   1
   6   8  -1 625.620 66.0000   1
  -6  -8   1 695.970 68.7200   1
  -7  -2   8 104.000 34.6800   1
  -7  -2   8 129.180 43.2100   1
   7   2  -8 186.970 45.5700   1
  -3  -9   5 95.3800 40.6900   1
   3   9  -5 146.250 48.7900   1
  -5  -2  10 64.4300 56.7400   1
   5   2 -10 64.5700 36.1600   1
   0   6 -10 151.000 68.3100   1
   0   6 -10 142.030 45.8300   1
   4   8  -6 2212.28 117.610   1
  -6   3  -9 410.060 52.7900   1
   7   7  -1 850.550 59.7100   1
  -7  -7   1 926.110 75.0200   1
  -9  -2   4 1638.48 76.0100   1
  -9  -2   4 1497.50 86.3600   1
   9   2  -4 1550.39 85.2900   1
  -7  -6  -4 1176.22 74.0000   1
  -7  -6  -4 1211.14 62.9300   1
   7   6   4 1182.42 65.8100   1
  -4   7  -8 289.120 75.3900   1
  -9   3  -4 248.390 35.7800   1
  -9   3  -4 228.750 36.0100   1
  -6   5  -8 1148.80 75.1400   1
   8   5   3 1162.21 67.8100   1
  -8  -5  -3 1169.43 59.4800   1
  -8  -5  -3 1239.73 74.0700   1
   8   4  -5 107.400 46.1400   1
  -8  -4   5 149.870 43.8900   1
   7   5  -6 144.110 45.6000   1
  -7  -5   6 123.210 36.9100   1
  -2 -10   3 20.6700 54.5000   1
   2  10  -3 1.92000 43.1400   1
  -2  -3 -11 125.930 43.1600   1
  -2  -3 -11 95.8300 38.4700   1
  -2  -3 -11 74.4200 33.9800   1
  -6   7  -6 537.460 50.5800   1
  -1   6 -10 3.79000 68.3600   1
  -1   6 -10 89.3800 36.5000   1
  -5  -8  -4 743.270 55.8200   1
   5   8   4 871.720 69.8800   1
  -5  -8  -4 873.900 80.2700   1
   3 -10   3 97.5000 38.1900   1
   3 -10   3 -4.2500 121.550   1
  -3  10  -3 -58.910 82.4100   1
  -8   0   7 42.4400 31.0800   1
  -8   0   7 5.68000 56.2800   1
  -8   0   7 -25.590 25.8300   1
   9   3  -3 713.610 57.4300   1
  -9  -3   3 634.060 63.9400   1
  -9  -3   3 560.780 57.4100   1
  -9   4  -3 687.530 50.7600   1
  -9   4  -3 649.960 71.2100   1
  -8   6   3 111.500 48.3800   1
  -8   6   3 62.6100 45.3300   1
  -8   6   3 81.2900 38.8600   1
  -4  -9  -3 212.590 47.3900   1
   4   9   3 310.980 46.4700   1
   0  -9  -6 253.250 41.7000   1
   0  -9  -6 449.180 109.880   1
   0   9   6 172.760 66.1500   1
  -1   9   6 45.6900 46.0600   1
   1  -9  -6 30.0700 42.5800   1
   1  -9  -6 -26.290 108.730   1
  -3  -2 -11 103.910 44.8600   1
   3   8  -7 670.540 64.7400   1
  -1 -10   4 30.8300 41.7800   1
   1  10  -4 -43.580 58.0900   1
  -2  -8  -7 164.610 73.2400   1
  -2  -8  -7 -3.2100 31.1000   1
  -2  -8  -7 50.2500 30.1300   1
  -6  -8  -1 1139.55 79.1300   1
   6   8   1 871.130 67.2000   1
  -6  -8  -1 925.730 62.1600   1
  -3   3 -11 646.120 69.6300   1
  -3   3 -11 690.730 89.2300   1
  -2  10  -4 48.6200 57.4500   1
  -4  -7  -7 137.760 40.2000   1
  -4  -7  -7 139.050 43.0000   1
  -4  -7  -7 150.630 51.4600   1
  -9   3   4 161.330 49.0800   1
  -9   3   4 165.480 52.7800   1
  -9   3   4 244.080 48.8900   1
  -2   7  -9 171.410 62.3000   1
  -4   9  -5 1520.84 99.5300   1
  -4   9  -5 1132.87 59.7700   1
   7   4  -7 149.140 33.7400   1
  -7  -4   7 138.390 32.0100   1
  -7  -7  -1 1066.48 74.6400   1
   7   7   1 1018.04 75.0700   1
  -7  -7  -1 1091.35 58.3800   1
  -8   1   7 319.240 57.1100   1
  -8   1   7 276.230 41.9400   1
  -8   1   7 362.520 51.0400   1
  -6  -6  -6 667.250 73.4500   1
  -6  -6  -6 760.540 52.6800   1
   4   4 -10 344.050 48.4500   1
  -4  -4  10 323.680 58.4100   1
  -6  -2  -9 626.130 69.8700   1
  -6  -2  -9 593.740 59.7500   1
  -4  -5  -9 762.270 52.5000   1
  -4  -5  -9 767.370 67.7600   1
  -4  -5  -9 872.010 68.3300   1
  -8  -3   6 387.140 58.7300   1
   8   3  -6 282.820 50.3900   1
  -8  -3   6 275.060 66.0400   1
   2   9  -6 74.9500 44.4500   1
   1   8  -8 1141.32 93.5100   1
  -2  -5 -10 749.980 54.3400   1
  -2  -5 -10 771.810 93.2700   1
  -2  -5 -10 714.250 54.8800   1
  -5   5  -9 141.330 52.4000   1
  -5   5  -9 130.060 46.7500   1
  -6  -7   5 46.1500 36.0600   1
   6   7  -5 38.8400 32.6300   1
  -5   9   3 -25.530 36.4500   1
  -5   9   3 4.04000 36.6600   1
   5  -9  -3 68.8600 100.420   1
  -5   9   3 -6.8700 55.5600   1
  -4   6  -9 481.340 70.2500   1
  -4   6  -9 350.660 41.2200   1
   3   5 -10 4.80000 45.5700   1
  -9   4   3 527.180 63.5200   1
  -9   4   3 495.790 49.2100   1
  -9   4   3 443.100 60.3000   1
  -9   0   5 74.3300 43.1800   1
  -9   0   5 76.6700 43.1300   1
  -2   4 -11 824.640 73.4600   1
  -2   4 -11 861.360 78.2900   1
  -7   3  -8 419.690 53.1000   1
  -8   1  -7 1160.83 62.7700   1
  -8   1  -7 1041.18 70.2600   1
  -5  -7  -6 403.620 63.8800   1
  -5  -7  -6 408.490 47.0000   1
   5   7   6 499.580 57.3100   1
  -8   5  -5 564.230 55.3200   1
  -8   5  -5 540.650 57.2100   1
  -3   8   7 12.8100 40.0000   1
  -3   8   7 -71.810 40.4600   1
   3  -8  -7 -78.220 50.0600   1
   3  -8  -7 -42.580 47.9200   1
  -9   1   5 608.650 62.9600   1
  -9   1   5 565.890 65.2000   1
   6   8  -2 2101.59 90.8300   1
  -6  -8   2 1916.40 92.8800   1
   1   6 -10 394.970 67.0900   1
   1   6 -10 385.540 51.8500   1
  -9  -2  -4 1.76000 39.4900   1
  -9  -2  -4 2.40000 47.1800   1
  -6  -4  -8 3566.81 142.800   1
  -6  -4  -8 3636.10 150.580   1
  -9   5   0 557.280 52.2000   1
   9  -5   0 220.230 60.9600   1
  -9   5   0 431.550 51.4600   1
  -8   0  -7 372.850 58.3800   1
  -8   0  -7 381.720 48.7700   1
  -4   4  10 109.880 67.9000   1
  -4   4  10 -4.8900 37.3400   1
  -4   4  10 39.4300 40.8800   1
  -6   3   9 94.1300 32.0700   1
  -6   3   9 103.380 40.5100   1
  -7  -7   2 789.380 62.0400   1
   7   7  -2 975.180 60.3200   1
  -4  10   0 271.170 62.6400   1
  -4  10   0 330.830 45.8100   1
  -4  10   0 305.470 38.6500   1
  -3   9  -6 7.90000 66.7100   1
  -9   1  -5 59.2800 41.8400   1
  -9   1  -5 71.2600 46.9600   1
   3  10   0 17.5800 36.6000   1
  -3 -10   0 4.21000 49.5200   1
  -4   0  11 602.610 69.2600   1
  -2   8  -8 -44.380 50.4200   1
  -8  -1   7 24.2500 47.7300   1
   8   1  -7 29.6100 49.5200   1
  -8  -1   7 45.5400 39.1000   1
  -7   7   4 1245.08 70.4200   1
  -7   7   4 1444.44 94.8600   1
  -5  -4  -9 13.8800 42.5800   1
  -5  -4  -9 32.5100 33.4000   1
  -9  -3  -3 46.2800 40.1500   1
  -9  -3  -3 30.4600 44.8000   1
   0   0 -12 -42.420 39.0200   1
  -4  10  -1 12.4000 35.1100   1
  -4  10  -1 38.7600 84.1800   1
  -4  10  -1 5.03000 37.6300   1
  -3  -3  11 53.4500 53.0000   1
   3   3 -11 60.1900 38.5800   1
  -3 -10   1 -8.8400 52.7100   1
   3  10  -1 9.87000 34.6900   1
  -8   4  -6 1411.58 88.7400   1
  -8   4  -6 1582.63 82.8400   1
   9   4   0 3510.47 133.770   1
  -9  -4   0 3475.51 119.660   1
  -9  -4   0 3137.36 149.740   1
  -9  -4   0 3344.76 142.010   1
   4   9  -4 494.970 60.7900   1
  -4  -9   4 366.590 53.3600   1
  -7   8   0 3765.30 144.960   1
  -7   8   0 3947.17 109.250   1
  -9   0  -5 197.940 44.9400   1
  -9   0  -5 182.580 36.3100   1
   9  -5   1 2272.12 136.680   1
  -9   5  -1 2687.52 103.330   1
  -9   5  -1 2845.77 116.160   1
  -6   6   7 662.250 69.9000   1
  -6   6   7 717.460 67.3900   1
  -6   6   7 653.660 68.5400   1
  -5   3 -10 42.8200 43.5200   1
  -5   3 -10 76.7400 44.4400   1
   6  -8  -4 815.650 92.4100   1
  -6   8   4 787.760 58.0800   1
  -6   8   4 842.250 78.6500   1
  -6   8   4 744.750 94.8500   1
  -6   8   4 1032.12 70.4200   1
   0  -4 -11 175.850 40.7400   1
   0   4  11 183.260 52.6200   1
   0  -4 -11 44.4600 68.5600   1
   0  -4 -11 106.860 60.7600   1
  -5   8  -6 388.140 112.500   1
   0   1 -12 442.770 49.5600   1
  -5   6   8 60.7900 45.4700   1
  -5   6   8 34.7400 53.5000   1
  -5   6   8 0.01000 43.4600   1
  -9   5   1 922.440 57.6700   1
  -9   5   1 841.730 55.3500   1
  -9   5   1 917.160 65.8400   1
  -9  -4   1 294.220 50.0400   1
  -9  -4   1 382.420 47.5800   1
   9   4  -1 278.340 62.0000   1
  -7   8  -1 147.580 48.8500   1
  -7   8  -1 128.760 46.2300   1
  -2  -4  11 42.5000 35.7900   1
   2   4 -11 54.5100 44.9400   1
  -7  -2  -8 539.350 43.7200   1
  -7  -2  -8 495.430 59.1700   1
  -4   8  -7 417.330 66.1000   1
  -4  -1  11 -23.660 84.2600   1
  -4   1 -11 86.9400 42.6800   1
  -7   6  -6 136.400 27.4300   1
  -7   3   8 -6.2400 41.9000   1
  -7   3   8 -50.740 62.7000   1
  -1  -9  -6 38.1100 88.7500   1
  -1  -9  -6 45.0200 30.7500   1
   1   9   6 69.8600 51.9700   1
  -1  10   4 492.030 73.5500   1
  -1  10   4 589.840 67.2700   1
   1 -10  -4 594.110 95.4300   1
   1 -10  -4 545.530 50.7000   1
  -4   0 -11 457.620 51.6600   1
  -6  -3   9 2766.26 155.760   1
   6   3  -9 2664.65 120.740   1
   0 -10  -4 402.160 100.010   1
   0 -10  -4 540.340 56.1800   1
   0  10   4 469.690 58.5300   1
   1  -4 -11 292.080 47.9600   1
   1  -4 -11 198.500 92.2300   1
  -1   4  11 256.300 66.0500   1
  -5  -8   5 2125.47 109.840   1
   5   8  -5 2528.47 115.540   1
   2  -9  -6 271.570 106.250   1
   2  -9  -6 199.120 79.1900   1
  -2   9   6 182.530 67.9900   1
  -8   2  -7 90.9500 34.7200   1
  -8   2  -7 32.4800 36.9500   1
  -9  -1   5 31.6800 32.8400   1
  -9  -1   5 49.5400 50.3800   1
  -5  -2 -10 813.000 69.7200   1
  -5  -2 -10 880.420 56.5500   1
  -7   5  -7 2359.98 112.220   1
  -4   1  11 190.510 45.5600   1
  -4   1  11 312.150 67.2000   1
  -5   7   7 1084.12 64.2700   1
  -5   7   7 899.660 67.3600   1
  -5   7   7 1178.79 87.5900   1
   1   0 -12 215.610 53.4500   1
  -8  -5   4 -15.370 46.4400   1
   8   5  -4 94.1000 51.5500   1
  -4  10   1 109.670 62.1400   1
  -4  10   1 4.94000 36.9600   1
  -4  10   1 81.6300 45.4800   1
  -2   6 -10 181.670 35.5000   1
  -2   6 -10 184.770 58.0400   1
   5   9   0 166.270 41.4800   1
  -5  -9   0 82.4500 44.4700   1
  -9  -4  -1 68.6700 32.1400   1
   9   4   1 18.4600 39.0800   1
  -9  -4  -1 60.7900 45.0600   1
  -8   5   5 123.710 47.0800   1
  -8   5   5 214.270 44.9100   1
  -3 -10  -1 12.4300 60.5400   1
   3  10   1 102.200 54.5300   1
  -8   2   7 236.970 61.6500   1
  -8   2   7 313.430 38.5600   1
  -8   2   7 197.550 35.0400   1
  -1   0 -12 267.470 44.0900   1
  -8  -4  -5 -26.690 31.7700   1
  -8  -4  -5 -43.970 52.0900   1
  -7   8   1 672.040 53.0600   1
   7  -8  -1 544.940 74.3300   1
  -7   8   1 762.230 60.6400   1
  -3   5  10 39.4500 62.2200   1
  -3   5  10 44.1700 27.5100   1
   7   6  -5 116.610 44.7400   1
  -7  -6   5 43.3800 37.4500   1
   5   9  -1 85.6600 33.5300   1
  -5  -9   1 65.9800 42.3400   1
  -5   9  -4 99.3100 76.6500   1
  -5   9  -4 80.1000 30.7700   1
  -5   9  -4 85.2600 32.6200   1
   1   1 -12 136.980 55.4200   1
  -1  -1  12 30.7100 47.8700   1
  -9   2  -5 65.7300 28.5100   1
  -9   2  -5 5.52000 31.8700   1
  -1   1 -12 127.110 52.6100   1
   6   8   2 267.960 48.8800   1
  -6  -8  -2 294.000 46.6100   1
  -6  -8  -2 169.400 31.6700   1
  -3  10   3 80.7200 66.6800   1
   3 -10  -3 223.180 134.730   1
  -3  10   3 72.5300 46.0700   1
   2   7  -9 34.1000 48.5400   1
  -6   5   8 30.8000 40.3000   1
  -6   5   8 120.800 42.5900   1
   7   7   2 580.610 57.1300   1
  -7  -7  -2 427.690 50.1100   1
  -7  -7  -2 412.520 42.9400   1
  -9   2   5 48.4400 35.4900   1
  -9   2   5 56.1200 46.3500   1
  -9   2   5 16.8000 31.8700   1
  -3   3  11 -106.09 54.3800   1
  -3   3  11 13.3100 36.2900   1
  -3   3  11 31.2100 38.1200   1
   0   1  12 37.7500 47.7900   1
   0  -1 -12 30.8200 49.9400   1
 -10   1   0 364.140 45.4100   1
 -10   1   0 384.550 40.2800   1
  -8   4   6 22.7900 37.8500   1
  -8   4   6 161.800 52.7200   1
  -2 -10  -3 67.2000 41.3000   1
  -2 -10  -3 22.1800 67.3800   1
   2  10   3 -4.4700 40.3500   1
  -8  -6   0 286.000 50.1600   1
  -8  -6   0 331.130 40.2100   1
   8   6   0 399.030 51.9000   1
   3  10  -2 83.2100 56.5500   1
  -3 -10   2 20.8400 66.2600   1
  -4  10  -2 496.690 48.5300   1
  -4  10  -2 400.040 80.8500   1
 -10   0   0 779.410 52.0300   1
 -10   0   0 915.100 61.5400   1
  -8  -1  -7 889.070 54.9500   1
  -8  -1  -7 821.390 61.1200   1
  -3  -7  -8 -45.960 64.6400   1
  -3  -7  -8 -5.1500 44.2300   1
  -3  -7  -8 78.0200 34.2500   1
   5   6  -8 216.720 50.8600   1
  -3  -6  -9 54.2300 46.3300   1
  -3  -6  -9 -7.0100 40.4100   1
  -3  -6  -9 131.170 40.9600   1
  -1  -4 -11 311.700 45.6300   1
  -1  -4 -11 295.970 67.9500   1
  -1  -4 -11 178.260 56.4000   1
   1   4  11 229.470 74.3300   1
  -8  -3  -6 89.4800 45.0000   1
  -8  -3  -6 137.770 31.0400   1
   0   9  -7 489.140 81.4000   1
  -8  -6   1 171.780 39.8300   1
   8   6  -1 132.710 40.5900   1
  -8   6  -4 301.790 42.5300   1
  -8   6  -4 322.440 35.7600   1
  -6   7   6 122.010 42.1700   1
  -6   7   6 187.040 46.8600   1
  -6   7   6 37.8300 44.3300   1
  -1   9  -7 112.720 61.3600   1
  -6   9   0 -21.710 72.1700   1
  -6   9   0 222.210 46.1800   1
  -6   9   0 113.090 37.3000   1
  -9   5  -2 162.570 33.5300   1
  -9   5  -2 277.860 50.2700   1
 -10   1   1 2528.02 104.460   1
 -10   1   1 2340.46 100.390   1
  -9  -1  -5 1336.38 64.0000   1
  -5  -9  -1 855.100 69.2500   1
   5   9   1 730.820 57.4900   1
  -5   3  10 -6.0100 53.7600   1
  -5   3  10 43.1300 44.0000   1
  -7  -5  -6 107.610 39.5600   1
  -7  -5  -6 25.5700 41.0000   1
  -8   7   0 183.420 50.1000   1
   8  -7   0 112.710 78.4700   1
  -8   7   0 154.950 38.0500   1
  -8   7   0 140.900 35.3900   1
  -7   8  -2 2202.82 95.7000   1
  -7   8  -2 2128.85 103.590   1
 -10   1  -1 793.920 55.3200   1
 -10   1  -1 718.770 59.1400   1
  -1   1  12 67.7900 51.0600   1
   1  -1 -12 -29.150 35.1900   1
 -10   0   1 188.800 47.1000   1
 -10   0   1 221.910 45.9900   1
  -9  -4   2 650.690 67.3300   1
  -9  -4   2 689.630 64.1600   1
   9   4  -2 832.180 57.6300   1
  -4   2 -11 78.4800 37.3800   1
  -4   2 -11 122.210 52.1600   1
   0   2 -12 162.400 44.8400   1
  -5  -3  10 240.850 59.0000   1
   5   3 -10 242.300 46.1200   1
  -6   9  -1 276.760 35.3300   1
  -6   9  -1 262.570 45.2400   1
  -6   9  -1 216.200 85.1700   1
   0  -7  -9 1242.54 90.1100   1
   0  -7  -9 1295.96 104.630   1
   0  -7  -9 1159.24 117.660   1
   0  -7  -9 1270.71 72.7300   1
   0   7   9 1316.25 91.4800   1
 -10   0  -1 1285.24 70.7500   1
 -10   0  -1 1304.93 70.6700   1
   0  10  -5 160.680 61.9200   1
   6   8  -3 1240.68 83.5900   1
  -6  -8   3 1093.65 77.8900   1
  -1  10  -5 1589.95 100.850   1
   1  -7  -9 532.410 75.0900   1
   1  -7  -9 550.190 105.520   1
  -1   7   9 787.330 72.9300   1
   1  -7  -9 721.420 57.5700   1
  -4  -1 -11 457.550 49.6900   1
   7   3  -8 -13.020 44.5900   1
  -7  -3   8 14.8100 47.9900   1
  -7  -3   8 71.6400 37.9400   1
  -7  -4  -7 1130.67 77.4800   1
  -7  -4  -7 1319.27 74.3300   1
   8   6   1 438.060 45.2700   1
  -8  -6  -1 393.560 48.7600   1
  -8  -6  -1 322.570 45.0000   1
  -3  -9  -5 358.180 72.5000   1
  -3  -9  -5 418.600 50.4500   1
   3   9   5 422.660 55.6600   1
  -2  10   4 -28.660 55.2100   1
  -2  10   4 37.9400 55.0900   1
   2 -10  -4 -4.7900 130.330   1
  -8   7  -1 275.270 42.6100   1
  -8   7  -1 311.190 43.3100   1
  -8   7  -1 246.050 45.6300   1
  -1  -1 -12 514.480 60.4600   1
  -9   5   2 252.300 35.9700   1
  -9   5   2 333.490 57.1700   1
  -9   5   2 236.590 45.0700   1
  -2 -10   4 519.250 70.8600   1
   2  10  -4 524.750 84.2000   1
  -7  -7   3 805.330 69.2000   1
   7   7  -3 776.290 67.4000   1
   5   9  -2 3.36000 46.6800   1
  -5  -9   2 70.7500 40.7000   1
  -5   5   9 360.450 44.1400   1
  -5   5   9 309.040 60.0000   1
  -5   5   9 412.200 64.0600   1
  -1 -10  -4 7.40000 92.1800   1
  -1 -10  -4 67.4900 44.1200   1
   1  10   4 -18.120 50.4400   1
   2   8  -8 277.650 61.9800   1
   3 -10   4 158.800 100.210   1
  -3  10  -4 134.930 65.5400   1
   4  -9  -5 12.4400 82.1700   1
  -4   9   5 63.6500 31.7800   1
  -4   9   5 121.980 46.4900   1
  -8  -2   7 24.6300 44.2800   1
   8   2  -7 -15.480 32.6200   1
  -8  -2   7 24.6500 47.5700   1
  -4  -2  11 431.680 57.4200   1
   2   6 -10 109.010 46.1500   1
   2   6 -10 32.2800 45.5500   1
  -6   9   1 143.890 37.8300   1
  -6   9   1 81.4800 36.0200   1
  -6   9   1 70.2300 71.8600   1
  -6   4  -9 1501.23 80.2700   1
 -10   2   0 331.830 51.6200   1
 -10   2   0 333.320 53.1200   1
   0   5 -11 3662.73 188.980   1
   0   5 -11 3479.96 161.280   1
   9   3  -4 92.7400 43.3800   1
  -9  -3   4 187.590 38.8100   1
  -9  -3   4 138.850 60.8900   1
   5   7  -7 145.170 51.7700   1
   8  -7  -1 48.8200 68.7100   1
  -8   7   1 59.4600 42.3700   1
  -8   7   1 35.0900 37.5500   1
  -8   7   1 -38.250 31.1300   1
  -1   2 -12 402.080 48.2400   1
  -4   7   8 464.170 78.1700   1
  -4   7   8 407.230 48.2400   1
  -6  -7  -5 1152.43 82.0700   1
   6   7   5 1250.11 68.4300   1
  -6  -7  -5 1352.39 79.1000   1
  -4  -8  -6 105.480 71.4600   1
  -4  -8  -6 60.4700 40.9400   1
  -4  -8  -6 -6.9500 32.1400   1
  -2   4  11 943.570 88.9300   1
   2  -4 -11 1078.86 80.2900   1
   2  -4 -11 851.250 136.640   1
  -3   7  -9 -19.960 65.2900   1
  -9   4  -4 2922.41 109.490   1
  -9   4  -4 2770.16 111.190   1
  -6  -6   7 298.150 80.3200   1
   6   6  -7 354.550 59.8400   1
  -6   8  -5 831.850 102.250   1
   1   2 -12 96.2700 49.0700   1
  -7   5   7 79.6800 41.2700   1
  -7   5   7 38.8600 38.3500   1
   4   7  -8 72.4900 43.9400   1
  -9  -4  -2 465.710 58.3700   1
  -9  -4  -2 466.720 48.2100   1
  -7   6   6 3333.00 135.620   1
  -7   6   6 3472.34 127.330   1
  -4   5 -10 194.990 35.9900   1
  -4   5 -10 118.510 67.0500   1
   5   5  -9 330.330 50.6200   1
  -4  10   2 318.800 43.3600   1
  -4  10   2 308.690 55.4900   1
  -4  10   2 316.680 66.3200   1
   4   6  -9 -65.550 35.6700   1
  -8  -5  -4 182.640 32.7700   1
  -8  -5  -4 206.440 51.9800   1
  -7   8   2 630.100 52.3000   1
  -7   8   2 578.060 49.2900   1
   7  -8  -2 562.480 85.7700   1
  -7   8   2 596.310 57.9700   1
 -10  -1   0 -54.920 44.6100   1
 -10  -1   0 47.9500 39.3200   1
   8   6  -2 782.430 62.9900   1
  -8  -6   2 776.370 57.3900   1
   6   5  -8 18.6200 41.1800   1
  -4   2  11 26.2400 39.7000   1
  -4   2  11 -71.700 61.4600   1
  -4   2  11 -1.0300 48.8200   1
  -7   7  -5 330.560 35.8400   1
  -7   7  -5 293.120 52.9600   1
  -8   6   4 8.78000 47.6100   1
  -8   6   4 22.6300 33.3300   1
  -3 -10  -2 303.940 69.3200   1
  -3 -10  -2 345.170 45.4900   1
   3  10   2 354.490 57.4700   1
   0  -8  -8 41.6400 51.4300   1
   0  -8  -8 -26.850 42.1700   1
   0  -8  -8 186.800 79.5200   1
   0  -8  -8 43.1400 53.4200   1
   0   8   8 78.1800 63.6800   1
   1   9  -7 6.71000 68.4800   1
  -4  -4 -10 754.390 57.4200   1
  -4  -4 -10 808.460 75.6500   1
  -1   5 -11 350.690 45.8000   1
  -1   5 -11 380.730 53.1200   1
 -10   2  -1 56.9700 29.7200   1
 -10   2  -1 11.5700 51.3600   1
 -10   2   1 2.41000 43.3900   1
 -10   2   1 29.0500 39.0100   1
   1  -8  -8 482.880 125.460   1
   1  -8  -8 442.130 76.2600   1
   1  -8  -8 695.250 63.3000   1
  -1   8   8 444.950 74.3400   1
   2   0 -12 87.2300 39.5200   1
  -2   0  12 48.4100 75.0400   1
  -2   0  12 107.820 81.7000   1
  -4   6   9 93.4200 39.3400   1
  -4   6   9 -43.690 48.0400   1
  -4   6   9 52.4100 61.7700   1
  -3  -3 -11 93.0200 47.2800   1
  -3  -3 -11 65.9500 34.1200   1
  -3  -3 -11 -16.640 53.1400   1
   0  -6 -10 289.980 65.5800   1
   0  -6 -10 329.620 111.620   1
   0  -6 -10 192.140 40.4100   1
   0   6  10 136.330 85.8800   1
   0  -6 -10 336.000 43.1600   1
  -8   3  -7 201.090 40.0500   1
  -8   3  -7 235.240 37.5000   1
  -4  -9  -4 529.580 62.3800   1
   4   9   4 612.180 59.6000   1
  -6   9  -2 184.000 62.3300   1
  -6   9  -2 214.380 33.2400   1
  -6   9  -2 265.940 45.6400   1
  -3   4 -11 98.6800 40.9900   1
  -3   4 -11 66.4300 54.8900   1
 -10  -1   1 2615.22 104.350   1
 -10  -1   1 2677.08 104.870   1
   9   2  -5 -19.310 51.7800   1
  -9  -2   5 -34.680 32.9500   1
  -9  -2   5 66.9200 32.4500   1
  -1  -7  -9 -6.9600 32.1100   1
  -1  -7  -9 -19.210 35.7500   1
  -1  -7  -9 -56.990 68.2800   1
   1   7   9 74.4200 54.5700   1
  -2   9  -7 218.480 72.3000   1
 -10   1   2 306.730 45.8400   1
 -10   1   2 328.220 52.6300   1
  -9   4   4 2827.11 112.720   1
  -9   4   4 2889.25 123.600   1
  -9   4   4 2992.48 123.110   1
  -3   8  -8 794.420 74.4800   1
 -10   0   2 150.250 34.7600   1
 -10   0   2 290.150 40.6000   1
   1  -6 -10 474.810 47.4500   1
  -1   6  10 316.380 65.0000   1
   1  -6 -10 404.750 97.1700   1
  -2   0 -12 276.370 50.4900   1
  -2  -1  12 662.550 85.8900   1
   2   1 -12 480.550 53.0300   1
  -2  -1  12 482.600 61.0600   1
  -7   4  -8 82.7300 30.7400   1
  -2   1 -12 387.150 57.1200   1
 -10   1  -2 3050.68 113.560   1
 -10   1  -2 3257.39 125.340   1
 -10  -1  -1 1792.44 85.3600   1
 -10  -1  -1 1885.90 85.8200   1
  -6  -3  -9 708.370 55.8800   1
  -6  -3  -9 562.280 52.1900   1
  -8   7  -2 430.390 40.3300   1
  -8   7  -2 350.060 43.2700   1
  -8   7  -2 321.660 47.7900   1
   5  -9  -4 -82.710 53.7000   1
  -5   9   4 -74.400 39.3400   1
  -5   9   4 115.740 56.6800   1
  -5   9   4 -59.690 57.6000   1
  -5   8   6 334.730 47.1000   1
   5  -8  -6 396.430 107.490   1
  -5   8   6 401.080 61.2200   1
  -5   8   6 501.640 60.8600   1
   1  10  -5 69.5600 50.2600   1
  -9   3  -5 63.0500 35.4800   1
  -9   3  -5 4.62000 34.0000   1
  -3 -10   3 184.950 52.3700   1
   3  10  -3 144.360 47.6300   1
  -2  10  -5 169.940 62.7600   1
   1   5 -11 110.510 49.5600   1
   1   5 -11 126.850 50.8100   1
  -4  10  -3 543.830 92.6600   1
 -10   0  -2 878.390 68.3600   1
 -10   0  -2 784.620 50.1900   1
   0  -2 -12 102.180 46.2500   1
  -2  -9  -6 40.9100 30.1200   1
  -2  -9  -6 -121.69 75.5000   1
  -3  -8  -7 401.350 41.2800   1
  -3  -8  -7 438.500 45.3300   1
  -3  -8  -7 476.690 84.9400   1
   2  -7  -9 49.0200 49.1100   1
   2  -7  -9 177.120 122.480   1
  -2   7   9 59.4700 65.8100   1
   5   9   2 598.280 49.2500   1
  -5  -9  -2 657.090 69.3700   1
  -3  -5 -10 5.77000 31.7400   1
  -3  -5 -10 34.4400 49.0800   1
  -3  -5 -10 -55.000 59.7700   1
  -3   9   6 86.9600 55.1200   1
   3  -9  -6 226.230 116.570   1
   3  -9  -6 125.300 81.3000   1
  -7  -6  -5 85.7100 34.6300   1
  -7  -6  -5 72.7400 47.3100   1
   7   6   5 158.470 44.7500   1
  -8   3   7 58.0000 61.1800   1
  -8   3   7 21.0700 44.4600   1
   3   9  -6 90.3200 54.0500   1
  -9  -3  -4 482.330 52.8200   1
  -9  -3  -4 496.880 52.2700   1
   8   6   2 221.370 48.9800   1
  -8  -6  -2 232.500 45.7700   1
  -8  -6  -2 239.830 46.5800   1
   2  -1 -12 62.4200 51.6500   1
  -2   1  12 57.4900 69.2500   1
  -9   3   5 2060.63 110.580   1
  -9   3   5 1963.57 88.1100   1
  -9   3   5 2083.08 96.9600   1
  -5  -8  -5 151.340 44.4800   1
   5   8   5 83.0300 29.0700   1
  -6  -8  -3 18.7000 56.4300   1
  -6  -8  -3 135.880 29.2500   1
   6   8   3 105.110 49.7500   1
  -7  -7  -3 158.940 56.8400   1
   7   7   3 96.6800 46.4300   1
  -7  -7  -3 115.450 32.9300   1
  -5   4 -10 260.930 62.0900   1
  -5   4 -10 278.840 41.7400   1
  -2  -4 -11 304.500 66.6100   1
  -2  -4 -11 305.230 43.4900   1
  -2  -4 -11 349.130 52.1600   1
  -7   8  -3 909.140 61.2400   1
  -7   8  -3 859.710 59.3600   1
  -7   8  -3 963.840 67.4100   1
  -9   5  -3 889.940 64.5200   1
  -9   5  -3 1055.63 65.1100   1
   1  -2 -12 39.7100 43.6300   1
  -1   2  12 43.4400 69.5900   1
   1  -2 -12 -13.570 41.5300   1
  -7   0   9 130.880 35.2000   1
  -6   0  10 211.800 52.7900   1
  -6   0  10 221.170 40.9800   1
   9   4  -3 262.530 56.9700   1
  -9  -4   3 185.870 55.9600   1
  -8  -2  -7 -95.630 47.0600   1
  -8  -2  -7 -3.9700 27.5100   1
  -8   7   2 129.650 40.7900   1
  -8   7   2 125.640 42.1800   1
   8  -7  -2 171.470 79.3100   1
  -3   6 -10 36.4500 93.3500   1
  -3   6 -10 -25.330 37.1000   1
   6  -9  -2 40.7300 57.3700   1
  -6   9   2 152.700 48.1000   1
  -6   9   2 92.2500 63.8200   1
  -6   9   2 103.070 56.5600   1
  -4   8   7 44.0900 57.0600   1
  -4   8   7 -11.540 51.5200   1
   4  -8  -7 -69.590 51.3800   1
   1   8   8 154.250 68.2700   1
  -1  -8  -8 11.6200 50.2300   1
  -1  -8  -8 14.5000 70.1000   1
  -1  -8  -8 68.9000 49.4600   1
  -6   4   9 26.0200 44.8800   1
  -6   4   9 -8.2900 37.7800   1
  -1  -6 -10 4.84000 43.4400   1
  -1  -6 -10 18.6900 90.1500   1
   1   6  10 -34.830 73.4200   1
  -1  -6 -10 -1.9000 38.7800   1
  -4   3 -11 619.080 98.1100   1
  -4   3 -11 541.930 65.1800   1
   8   4  -6 1973.25 107.910   1
  -8  -4   6 1640.19 87.5900   1
  -5  -9   3 2722.85 129.560   1
   5   9  -3 2603.87 124.520   1
   4   9  -5 1.64000 50.2400   1
 -10   2  -2 224.560 45.4600   1
 -10   2  -2 168.310 36.4700   1
 -10   2   2 2007.74 103.830   1
 -10   2   2 2124.95 103.930   1
   1 -11   0 205.260 43.0400   1
   1 -11   0 239.950 88.9400   1
  -1  11   0 206.200 57.4100   1
   3   4 -11 2352.30 132.510   1
  -2  -1 -12 180.390 51.7300   1
   2  -8  -8 -141.06 141.430   1
   2  -8  -8 17.8500 44.4800   1
  -2   8   8 -77.810 55.2000   1
  -9  -2  -5 515.490 48.4200   1
  -9  -2  -5 500.010 46.3300   1
   0  11   0 16.2500 60.7600   1
   0 -11   0 44.6800 96.8500   1
   0 -11   0 -20.490 30.5500   1
  -1  -2 -12 360.620 43.4100   1
  -7  -3  -8 83.8400 49.0200   1
  -7  -3  -8 134.070 42.2400   1
   1 -11   1 142.240 116.280   1
  -1  11  -1 -56.820 46.5600   1
   1 -11   1 19.7000 38.5000   1
 -10  -1   2 164.380 35.0700   1
 -10  -1   2 273.650 39.2000   1
  -4   9  -6 138.680 67.1400   1
  -7   1   9 -71.520 57.9000   1
  -7   1   9 14.6600 37.9600   1
   0   3 -12 445.900 56.7700   1
  -4  -2 -11 925.680 70.5500   1
   0  11  -1 131.510 44.9100   1
   0 -11   1 70.6900 62.9000   1
   0 -11   1 33.3600 39.0400   1
  -2   2 -12 331.560 53.9500   1
  -6   1  10 12.1500 46.0600   1
  -6   1  10 8.46000 55.8200   1
  -5  -3 -10 1357.71 90.0200   1
  -5  -3 -10 1471.25 84.6300   1
  -9   5   3 27.2400 46.5700   1
  -9   5   3 55.4400 38.3700   1
  -9   5   3 43.6700 42.6700   1
  -7   1  -9 1117.23 69.5300   1
  -6   1 -10 135.150 35.4100   1
  -6  -7   6 110.560 41.0800   1
   6   7  -6 195.430 51.0000   1
  -2   5 -11 108.130 40.9900   1
  -2   5 -11 128.780 50.3200   1
  -7   4   8 2898.66 129.900   1
  -7   4   8 3149.05 101.390   1
  -6  -1  10 28.0500 70.5300   1
 -10   3   0 945.940 63.8400   1
 -10   3   0 997.520 75.4100   1
  -7   7   5 -25.840 37.5100   1
  -7   7   5 -29.990 45.9900   1
  -2  -2  12 875.760 81.5200   1
   2   2 -12 857.870 77.6100   1
  -2  -2  12 807.400 84.6600   1
   4   8  -7 805.640 69.9700   1
  -7  -1   9 455.250 53.0000   1
   7   1  -9 527.190 57.5700   1
  -7  -1   9 483.340 47.8300   1
  -6   0 -10 140.760 43.1400   1
   2  -6 -10 111.600 97.3400   1
  -2   6  10 114.160 71.6300   1
   2  -6 -10 162.220 40.8300   1
 -10  -1  -2 990.330 64.4300   1
 -10  -1  -2 1221.60 75.1800   1
  -7   0  -9 1121.57 105.170   1
  -7   0  -9 1226.15 78.1200   1
  -3  10   4 409.940 57.4000   1
   3 -10  -4 455.280 158.980   1
  -8  -6   3 318.720 56.4500   1
   8   6  -3 307.010 41.9900   1
  -5   7  -8 506.870 84.2600   1
   4   5 -10 279.220 54.6600   1
  -6   8   5 113.290 48.4900   1
  -6   8   5 27.3700 45.3200   1
  -6   8   5 104.090 38.7600   1
   6  -8  -5 244.880 82.7700   1
  -8   5  -6 1064.70 67.8000   1
  -8   5  -6 1247.90 78.4700   1
  -8  -5   5 71.2200 51.5200   1
   8   5  -5 -26.440 41.8300   1
  -9   0   6 1539.80 91.5300   1
  -9   0   6 1265.49 81.7500   1
  -1   3 -12 1055.44 73.9800   1
  -6  -8   4 14.3600 41.6600   1
   6   8  -4 60.4200 46.5300   1
  -2 -10  -4 -14.600 72.3200   1
   2  10   4 33.6700 45.9000   1
  -2 -10  -4 33.8800 46.0500   1
  -6   6  -8 257.040 33.1300   1
   6   4  -9 330.580 52.4400   1
  -9   1   6 237.150 44.6400   1
  -9   1   6 265.940 40.4700   1
  -9   1   6 322.410 52.3600   1
  -6   9  -3 888.940 64.5300   1
  -6   9  -3 1071.39 69.7200   1
  -6   9  -3 1275.27 101.670   1
   3   7  -9 379.280 73.5600   1
  10  -3   1 386.450 57.6300   1
 -10   3  -1 394.700 39.7100   1
 -10   3  -1 377.950 41.9900   1
  -5   9  -5 258.920 72.9600   1
  -5   9  -5 315.360 45.2900   1
   7   5  -7 1304.60 80.9400   1
  -7  -5   7 1076.74 77.8400   1
   1 -11  -1 146.130 89.1300   1
   1 -11  -1 237.170 45.5800   1
  -1  11   1 148.240 66.1000   1
  -9  -4  -3 -19.970 34.9700   1
  -9  -4  -3 -16.300 29.1100   1
  -6   7  -7 943.010 104.980   1
  -6   7  -7 996.050 78.2900   1
 -10   3   1 14.7800 32.8400   1
 -10   3   1 36.1000 42.3800   1
 -10  -2   0 34.2500 46.2700   1
 -10  -2   0 118.940 42.8300   1
  -7  -7   4 192.770 45.9100   1
   7   7  -4 242.040 49.0100   1
   0 -11  -1 487.880 52.3500   1
   0 -11  -1 451.910 93.6600   1
   0  11   1 347.860 72.1100   1
  -5  -6  -8 13.7000 52.9100   1
  -5  -6  -8 -29.040 36.6200   1
   1   3 -12 45.2200 48.6700   1
  -4  -3  11 166.310 68.6100   1
  -7   8   3 144.890 51.8400   1
   7  -8  -3 314.020 177.400   1
  -7   8   3 108.420 51.6500   1
  -7   8   3 80.9800 45.5100   1
  -4  10   3 229.950 38.6700   1
  -4  10   3 294.270 50.1900   1
  -4  10   3 212.510 49.8700   1
  -1  10   5 112.500 63.9000   1
   1 -10  -5 102.090 41.5200   1
   0 -10  -5 520.550 63.2600   1
   0 -10  -5 325.290 80.7800   1
   0  10   5 552.250 65.7900   1
  -9   1  -6 958.020 68.0800   1
  -9   1  -6 833.100 65.5200   1
   1 -11   2 -42.380 35.4400   1
  -1  11  -2 -82.050 64.3000   1
   1 -11   2 31.7300 55.5000   1
 -10   1   3 273.580 48.4100   1
 -10   1   3 180.590 37.1400   1
 -10   0   3 11.9200 34.6700   1
 -10   0   3 38.2200 45.5000   1
   2   9  -7 -33.920 52.7600   1
  -4   5  10 274.540 61.2100   1
  -4   5  10 241.890 45.7700   1
  -4   5  10 90.0400 63.5700   1
  -8   7  -3 151.410 35.4400   1
  -8   7  -3 181.500 38.1300   1
  -8   7  -3 189.580 43.6700   1
   3  10   3 -18.250 40.1600   1
  -3 -10  -3 48.2100 50.2800   1
  -3 -10  -3 -68.200 63.7100   1
   0 -11   2 225.550 44.7500   1
   0  11  -2 183.850 59.6800   1
   0 -11   2 332.840 98.8200   1
 -10  -2   1 844.290 59.1700   1
 -10  -2   1 849.470 58.2600   1
  -2  11   0 377.600 82.8400   1
   2 -11   0 433.070 50.8000   1
   2 -11   0 397.970 99.9400   1
  -7   2  -9 629.830 56.3900   1
  -3   4  11 38.1400 37.7100   1
  -3   4  11 41.3600 56.7300   1
   3  -4 -11 2.63000 88.3900   1
  -5   6  -9 693.730 57.9900   1
  -5   6  -9 654.500 98.7900   1
  -9   0  -6 386.170 47.3700   1
  -9   0  -6 370.350 66.5600   1
   8   3  -7 728.670 65.8300   1
  -8  -3   7 642.040 67.3200   1
  -8  -3   7 647.480 51.0500   1
  -6   2 -10 14.9400 31.0200   1
  -5  10   0 97.9200 38.3000   1
  -5  10   0 44.9500 32.7300   1
  -5  10   0 2.17000 69.3900   1
 -10   1  -3 811.730 58.7700   1
 -10   1  -3 684.220 60.4100   1
  -8   6  -5 146.570 46.7400   1
  -8   6  -5 206.230 36.8200   1
   5   8  -6 1294.61 87.2100   1
  -2  11  -1 177.860 61.4700   1
   2 -11   1 8.64000 101.270   1
   2 -11   1 206.970 33.7200   1
  -2  -7  -9 349.820 53.8800   1
  -2  -7  -9 291.470 44.7500   1
  -2  -7  -9 321.700 64.9100   1
   4  10   0 37.9400 34.7500   1
  -4 -10   0 90.3200 43.1400   1
   2   5 -11 148.670 48.7500   1
   2   5 -11 156.990 59.6200   1
   2  -2 -12 48.2900 54.6000   1
  -2   2  12 25.4400 63.5700   1
 -10  -2  -1 140.090 48.3200   1
 -10  -2  -1 155.760 49.1400   1
  -5  10  -1 266.470 62.3500   1
  -5  10  -1 393.790 48.1100   1
  -5  10  -1 460.160 48.0600   1
   0  -9  -7 -13.220 121.410   1
   0  -9  -7 20.9100 41.1400   1
   0   9   7 93.5900 64.4300   1
   4  10  -1 8.08000 59.9000   1
  -4 -10   1 -58.520 55.4100   1
  -1   9   7 121.770 62.0300   1
   1  -9  -7 48.0700 32.9300   1
   1  -9  -7 6.63000 88.1600   1
  -4   3  11 -25.770 48.5900   1
  -4   3  11 67.3000 36.6700   1
  -4   3  11 69.9100 59.4900   1
   1  11   0 10.7800 50.5000   1
  -1 -11   0 -36.870 44.3400   1
  -1 -11   0 -12.840 88.8300   1
 -10   0  -3 23.2800 32.8700   1
 -10   0  -3 44.3500 30.2500   1
   1  11  -1 92.5800 40.0800   1
  -1 -11   1 -18.480 40.4600   1
  -1 -11   1 94.6600 80.6800   1
  -5   4  10 369.940 44.6300   1
  -5   4  10 438.350 64.8400   1
  -5   4  10 429.570 65.1000   1
  -9   6   0 488.640 45.8600   1
  -9   6   0 352.110 53.1200   1
   9  -6   0 290.190 94.3100   1
  -9   6   0 331.780 49.0900   1
  -9  -1   6 338.130 52.6600   1
  -9  -1   6 326.660 51.2800   1
  -6  -6  -7 -33.130 53.1500   1
  -6  -6  -7 -66.510 36.2600   1
  -7   2   9 -49.080 43.6900   1
  -7   2   9 89.8200 59.4900   1
  -3   9  -7 25.9000 69.0400   1
   5   4 -10 44.0800 38.3300   1
  -7  -6   6 341.230 59.4900   1
   7   6  -6 315.810 53.9700   1
  -6  -5  -8 -24.810 32.3900   1
  -6  -5  -8 123.140 56.7600   1
   2  10  -5 -20.860 53.9400   1
  -6  -1 -10 78.2500 32.8400   1
   0  -5 -11 373.980 70.5600   1
   0  -5 -11 312.120 41.5700   1
   0  -5 -11 309.060 51.7000   1
   0   5  11 442.140 78.6500   1
  -3  10  -5 73.5100 72.9100   1
   3   6 -10 269.780 51.9900   1
  -7  -1  -9 63.3300 42.6500   1
  -7  -1  -9 122.610 38.3500   1
   3   8  -8 211.210 49.2000   1
   0   8  -9 10.1500 60.8600   1
  -6   2  10 6.40000 52.7900   1
  -6   2  10 1.69000 26.3900   1
  -5  -7  -7 362.090 75.5500   1
  -5  -7  -7 448.170 43.0300   1
  -5  -9  -3 1460.05 88.0300   1
   5   9   3 1299.90 76.3000   1
  -3   0  12 311.080 52.3800   1
  -3   0  12 300.650 56.2200   1
  -5  -5  -9 -40.890 80.0200   1
  -5  -5  -9 -18.230 75.2200   1
  -9   6  -1 403.710 46.1000   1
   9  -6   1 328.920 71.3000   1
  -9   6  -1 458.180 51.9600   1
  -9   6  -1 359.490 45.5500   1
   3  10  -4 10.8800 56.9900   1
  -3 -10   4 -14.950 46.5600   1
   0   7 -10 178.790 66.0900   1
  -8   5   6 195.020 58.3900   1
  -8   5   6 145.830 50.4500   1
  -9  -5   0 314.260 40.2600   1
   9   5   0 374.760 58.6500   1
  -9  -5   0 270.640 82.2000   1
  -8   0   8 453.480 65.4500   1
  -8   0   8 376.070 43.5900   1
  -8   0   8 396.880 45.5100   1
  -5   0  11 10.3700 56.9100   1
  -9   2  -6 434.340 47.7400   1
  -9   2  -6 474.200 40.9200   1
   8   6   3 8.85000 45.7400   1
  -8  -6  -3 26.9600 49.2900   1
  -8  -6  -3 21.7800 35.7200   1
  -5   8  -7 2533.50 157.600   1
  -8   4  -7 9.71000 48.3500   1
  -1   8  -9 62.4900 67.5000   1
   7   4  -8 694.660 67.9300   1
  -7  -4   8 585.980 63.4500   1
  -5  10   1 409.780 95.1700   1
  -5  10   1 264.100 42.6800   1
  -5  10   1 400.240 55.2300   1
  -4  10  -4 468.010 68.7500   1
  -8  -4  -6 179.630 40.5000   1
  -8  -4  -6 172.600 49.7700   1
  -2  11   1 88.5400 47.8000   1
   2 -11  -1 44.2800 55.6500   1
   2 -11  -1 -88.960 87.7400   1
  -3   7   9 136.290 69.6500   1
   3  -7  -9 125.350 110.240   1
   3  -7  -9 146.360 42.5400   1
   1  -5 -11 314.070 43.0100   1
  -1   5  11 225.730 83.2500   1
   1  -5 -11 225.350 77.6500   1
  -9   2   6 496.980 62.3400   1
  -9   2   6 517.460 52.5200   1
  -9   2   6 637.750 61.9300   1
 -10   3  -2 382.150 39.7300   1
 -10   3  -2 423.660 53.3300   1
   9   3  -5 150.290 52.3900   1
  -9  -3   5 119.030 49.1600   1
  -9  -3   5 157.220 38.9800   1
  -6  -2  10 26.8200 62.8500   1
   6   2 -10 105.500 57.0800   1
   4  10   1 42.2500 55.0800   1
  -4 -10  -1 33.1000 46.7300   1
  -9   6   1 21.7300 49.2700   1
  -9   6   1 60.5900 34.5800   1
   9  -6  -1 93.6400 75.3400   1
  -9   6   1 21.7300 33.1700   1
   9   5  -1 1339.85 83.3200   1
  -9  -5   1 1204.39 84.2200   1
  -1   7 -10 493.810 72.5300   1
  -8   7   3 33.4500 34.1800   1
   8  -7  -3 -23.210 69.0300   1
  -8   7   3 122.700 53.1900   1
  -8   1   8 590.760 50.8600   1
  -8   1   8 447.640 59.9900   1
  -8   1   8 686.860 69.9800   1
 -10   2  -3 395.790 46.4800   1
 -10   2  -3 307.190 40.1700   1
 -10   3   2 51.7200 50.9500   1
 -10   3   2 70.6800 46.5100   1
 -10   2   3 -24.960 38.8000   1
 -10   2   3 8.11000 50.9200   1
  -3  -1  12 235.960 71.1400   1
  -3  -1  12 276.420 56.6300   1
   2 -10  -5 781.610 139.450   1
  -2  10   5 689.010 70.1500   1
 -10  -1   3 1854.77 97.3800   1
 -10  -1   3 1842.41 98.5600   1
  -2  -2 -12 -38.110 34.9300   1
  -1 -11  -1 104.150 63.5000   1
  -1 -11  -1 111.790 44.6500   1
   1  11   1 133.650 42.3500   1
  -7   6  -7 514.840 46.5800   1
  -6   9   3 2076.92 102.670   1
  -6   9   3 1711.72 132.120   1
  -6   9   3 2151.78 174.610   1
  -6   9   3 2229.07 118.880   1
   6  -9  -3 2029.48 129.930   1
  -3   1 -12 -51.860 45.5500   1
  -9   4  -5 1075.00 65.1300   1
  -9   4  -5 1177.54 76.7500   1
  -2  -6 -10 -41.740 71.5300   1
  -2  -6 -10 56.1500 34.8500   1
  -2  -6 -10 83.7700 48.1600   1
  -3   0 -12 85.4900 52.0800   1
  -7  -2   9 1642.03 104.760   1
  -7  -2   9 1785.57 112.080   1
   7   2  -9 1715.00 95.7200   1
   2 -11   2 25.3500 38.7300   1
  -2  11  -2 -41.950 72.3400   1
   2 -11   2 -13.430 93.8500   1
  -4  -6  -9 74.9800 45.8900   1
  -4  -6  -9 -26.350 80.1800   1
  -4  -6  -9 90.2900 58.6300   1
  -1 -10  -5 1.68000 42.3800   1
  -1 -10  -5 -63.210 59.3700   1
  -2  -8  -8 368.310 76.3900   1
  -2  -8  -8 387.220 52.6200   1
  -2  -8  -8 352.340 50.8200   1
 -10  -2   2 188.180 41.3300   1
 -10  -2   2 184.460 53.8000   1
   0  10  -6 861.000 78.3100   1
  -4  -7  -8 141.170 46.3100   1
  -4  -7  -8 140.620 45.4200   1
  -1  10  -6 -13.670 71.4800   1
   0  -3 -12 398.630 60.3400   1
   0   3  12 534.040 82.6500   1
   0  -3 -12 417.400 56.9500   1
   4  10  -2 395.900 58.7300   1
  -4 -10   2 235.170 62.5900   1
  -5  -1  11 215.330 72.4400   1
  -2   3 -12 344.920 57.1500   1
  -1  11   2 58.2800 47.7700   1
   1 -11  -2 -63.390 75.8000   1
   1 -11  -2 -26.230 48.7900   1
  -4   7  -9 -33.220 70.7500   1
  -5  10  -2 -14.940 42.3600   1
  -5  10  -2 15.7100 29.8800   1
  -5  10  -2 63.6000 86.7800   1
  -8   1  -8 158.560 33.8000   1
  -8   1  -8 141.690 46.7300   1
  -5   1 -11 68.1500 32.2600   1
  -5   1  11 1008.71 76.4900   1
   1  11  -2 445.270 66.1500   1
  -1 -11   2 415.610 76.9000   1
  -1 -11   2 316.890 38.5800   1
   0 -11  -2 318.150 53.3000   1
   0 -11  -2 345.370 84.2800   1
   0  11   2 238.430 57.7600   1
  -7   8  -4 50.3900 40.0700   1
  -7   8  -4 -3.8900 39.5500   1
  -7   8  -4 25.0400 51.0400   1
   9   5   1 806.520 62.5200   1
  -9  -5  -1 722.110 70.9500   1
  -9  -5  -1 924.890 60.3000   1
  -6   5  -9 785.650 56.9500   1
  -5   0 -11 396.310 58.6100   1
  -3   1  12 98.3400 41.4500   1
  -3   1  12 46.8200 49.0700   1
  -9  -1  -6 -25.180 58.7500   1
  -9  -1  -6 19.1900 38.8800   1
  -9  -4   4 472.890 57.5400   1
   9   4  -4 593.070 76.2800   1
  -9   5  -4 370.130 45.5700   1
  -9   5  -4 278.020 36.3900   1
  -8  -5  -5 1068.24 72.9600   1
  -8  -5  -5 1248.75 76.4400   1
  -8   0  -8 134.890 36.9600   1
  -8   0  -8 133.080 45.3000   1
  -8   6   5 12.2000 60.8300   1
  -8   6   5 66.9600 48.1600   1
   5   9  -4 762.920 69.0800   1
  -5  -9   4 616.010 67.2000   1
  -1  -9  -7 718.560 101.010   1
   1   9   7 730.460 70.5000   1
  -1  -9  -7 690.570 69.8800   1
   3  -8  -8 13.4900 59.6800   1
   3  -8  -8 -88.300 157.850   1
  -3   8   8 -19.570 73.8000   1
   3  -8  -8 -1.2400 38.6400   1
  -8  -1   8 0.34000 43.6200   1
   8   1  -8 10.3600 43.8400   1
  -8  -1   8 333.500 72.3500   1
   2  -9  -7 5.81000 72.6300   1
  -2   9   7 75.4100 66.7700   1
   2  -9  -7 -20.100 127.950   1
 -10  -1  -3 575.000 62.0300   1
 -10  -1  -3 821.250 61.0900   1
   1  -3 -12 922.470 64.1800   1
   1  -3 -12 762.430 60.4200   1
  -1   3  12 1018.55 97.9900   1
   1   5  11 -59.580 67.0100   1
  -1  -5 -11 27.4200 36.6600   1
  -1  -5 -11 64.5200 53.1900   1
  -1  -5 -11 -3.6100 52.1100   1
 -10  -2  -2 525.220 55.9600   1
 -10  -2  -2 575.380 47.5000   1
   1   8  -9 -22.870 54.9200   1
   1   7 -10 -17.060 48.4300   1
   2   3 -12 61.1800 41.1800   1
  -2  -3  12 -29.120 37.8400   1
  -1  11  -3 239.850 72.5900   1
   6   8   4 -4.4400 39.5500   1
  -6  -8  -4 -30.530 28.1400   1
  -6  -8  -4 29.6800 71.5700   1
   7   7   4 223.650 55.5400   1
  -7  -7  -4 214.930 41.0800   1
  -7  -7  -4 148.300 58.2800   1
  -9   4   5 227.850 37.4400   1
  -9   4   5 252.670 51.0800   1
  -9   4   5 258.760 59.2700   1
  -4   8  -8 1201.47 112.990   1
   0  11  -3 479.070 76.7600   1
   0 -11   3 333.800 59.3800   1
  -8   4   7 156.310 35.1800   1
  -8   4   7 170.940 64.6700   1
  -9   6  -2 451.370 46.5000   1
  -9   6  -2 465.130 41.7500   1
  -9   6  -2 355.090 56.4400   1
  -4  -9  -5 591.440 57.4000   1
  -4  -9  -5 469.320 76.9600   1
  -3  -9  -6 -8.8600 71.6100   1
  -3  -9  -6 16.7500 36.7300   1
  -6   6   8 76.2600 59.7700   1
  -6   6   8 12.1400 33.6900   1
  -6   6   8 23.6200 45.7800   1
  -4   4 -11 408.280 81.4200   1
  -4   4 -11 285.910 48.9300   1
  -3  -4 -11 2840.90 133.680   1
  -3  -4 -11 2556.98 122.440   1
  -3  -4 -11 2492.21 140.040   1
  -3   6  10 54.6300 65.7000   1
   3  -6 -10 112.480 154.290   1
   4  -9  -6 3.11000 75.3300   1
  -4   9   6 5.10000 52.4500   1
  -4   9   6 -48.850 46.4200   1
   9   5  -2 1288.58 75.8400   1
  -9  -5   2 1313.62 80.4500   1
  -7   7  -6 48.3000 41.7900   1
  -8  -3  -7 445.510 63.1100   1
  -8  -3  -7 401.670 45.6300   1
  -7   3  -9 759.410 62.7800   1
  -7   5  -8 375.490 46.9600   1
  -3   5 -11 119.670 50.4500   1
  -3   5 -11 151.560 64.8700   1
  -1  -3 -12 60.4000 52.7800   1
  -1  -3 -12 57.2800 41.2900   1
  -5   9   5 889.270 61.6800   1
  -5   9   5 1059.91 81.7800   1
   5  -9  -5 985.690 96.2400   1
  -6   3 -10 32.3300 50.1400   1
  -8  -6   4 1661.85 98.1300   1
   8   6  -4 1713.68 89.2800   1
  -3   2 -12 671.410 71.5900   1
  -8   2  -8 266.590 43.5200   1
  -8   2  -8 328.040 44.5800   1
  -3  -1 -12 770.060 74.1800   1
  -6   7   7 58.3500 55.7600   1
  -6   7   7 9.34000 57.6500   1
  -6   7   7 17.7200 32.2800   1
  -6  -7  -6 295.810 46.2200   1
  -6  -7  -6 224.820 68.6000   1
   6   7   6 277.920 45.2900   1
  -2   8  -9 -39.700 65.0000   1
  -5   2 -11 -21.170 29.6200   1
  -9   5   4 5.05000 58.2100   1
  -9   5   4 55.6600 47.1900   1
  -9   5   4 176.470 54.2900   1
  -4  -3 -11 46.7100 53.2400   1
  -4  -3 -11 75.0100 55.1600   1
   2  -5 -11 57.6100 52.7200   1
  -2   5  11 5.75000 70.9000   1
   2  -5 -11 27.0100 107.120   1
  -9   6   2 1463.49 93.7200   1
  -9   6   2 1459.80 98.9800   1
   9  -6  -2 1390.53 107.430   1
  -9   6   2 1602.44 86.2400   1
  -8   2   8 454.480 55.2200   1
  -8   2   8 544.310 52.2900   1
  -6   9  -4 761.490 56.3600   1
  -6   9  -4 799.000 58.9700   1
  -6   9  -4 694.880 82.5500   1
  -9  -3  -5 1055.97 80.7200   1
  -9  -3  -5 1172.05 64.5200   1
  -7  -5  -7 41.5300 32.4400   1
  -5  10   2 700.070 58.4600   1
  -5  10   2 553.410 59.4500   1
  10  -4   0 441.620 74.1200   1
 -10   4   0 444.950 41.9100   1
 -10   4   0 513.640 55.5400   1
   9   2  -6 124.740 53.5900   1
  -9  -2   6 35.9700 40.1200   1
  -9  -2   6 44.8900 46.8600   1
  -5   7   8 903.700 77.9600   1
  -5   7   8 1043.23 81.4400   1
  -5   7   8 971.530 88.7900   1
   1  10  -6 -49.240 60.8300   1
   0   4 -12 727.310 77.6100   1
  -6  -4  -9 1116.23 102.420   1
  -6  -4  -9 1133.57 70.0500   1
   2 -11  -2 136.590 125.630   1
   2 -11  -2 70.2400 38.5000   1
  -2  11   2 -37.770 59.7600   1
   7   8   0 970.530 88.0900   1
  -7  -8   0 839.740 92.2200   1
  -2   7 -10 249.260 72.4600   1
  -3  -2  12 575.410 70.3500   1
  -3  -2  12 440.090 75.2200   1
  -2  10  -6 1034.84 108.740   1
   3 -11   0 -166.32 135.710   1
  -3  11   0 38.0500 52.3900   1
   0   9  -8 2174.66 174.750   1
   4  10   2 31.9100 46.4700   1
  -4 -10  -2 -30.830 66.5800   1
   7   8  -1 511.940 68.5200   1
  -7  -8   1 541.330 67.4700   1
  -5  -1 -11 1328.34 116.110   1
   3 -11   1 -39.170 132.930   1
   3 -11   1 29.3300 32.9800   1
  -3  11  -1 -32.050 50.8300   1
  -1   9  -8 -48.710 62.9800   1
   1  11   2 209.310 46.9600   1
  -1 -11  -2 363.330 81.6700   1
  -9   3  -6 594.920 67.0300   1
  -9   3  -6 624.390 56.9800   1
 -10   4  -1 1254.61 90.4300   1
  10  -4   1 817.810 91.7000   1
 -10   4  -1 1199.02 91.9300   1
  -4   6 -10 1132.82 141.160   1
  -4   6 -10 1397.66 131.800   1
  -5   5 -10 62.8900 31.9900   1
  -5   5 -10 79.7400 74.3500   1
  -8  -1  -8 8.84000 51.5700   1
  -8  -1  -8 -2.7500 38.0500   1
  -8   7  -4 163.010 50.8400   1
  -8   7  -4 102.960 49.5300   1
   0   6 -11 56.3300 34.9100   1
   0   6 -11 22.6400 76.7300   1
  -9  -4  -4 107.590 50.8100   1
  -9  -4  -4 77.5800 38.6100   1
  -1   4 -12 65.3300 40.0100   1
  -9  -5  -2 1694.39 127.590   1
  -9  -5  -2 2078.51 135.050   1
   9   5   2 1871.46 132.430   1
  -5  -2  11 129.100 69.7300   1
  -6  -2 -10 243.520 43.9300   1
  -6  -2 -10 182.900 42.0400   1
   2  11   0 -37.680 37.8800   1
  -2 -11   0 74.7200 61.8600   1
  -2 -11   0 48.9300 49.4100   1
 -10   4   1 -11.810 43.8900   1
 -10   4   1 67.2400 36.6800   1
  -5   6   9 155.110 32.6400   1
  -5   6   9 162.510 63.1500   1
  -5   6   9 203.950 73.3200   1
 -10   0   4 163.090 45.2800   1
 -10   0   4 123.480 44.6900   1
 -10   1   4 156.330 45.8500   1
 -10   1   4 167.040 52.0500   1
   2  11  -1 291.640 45.7800   1
  -2 -11   1 290.100 64.1900   1
  -2  11  -3 67.8200 69.2000   1
   2 -11   3 192.840 72.6400   1
  -5   2  11 -20.590 40.2100   1
  -5   2  11 15.2100 36.4700   1
  -5   2  11 75.1900 47.9200   1
  -7  -2  -9 241.720 59.5800   1
  -7  -2  -9 411.130 51.9100   1
  -7   3   9 323.770 51.1400   1
  -7   3   9 419.750 73.2900   1
  -4  -5 -10 -87.050 62.2400   1
  -4  -5 -10 23.4500 48.0000   1
 -10   3  -3 578.880 64.7200   1
 -10   3  -3 707.540 61.5800   1
  -7   8   4 21.5400 36.3000   1
   7  -8  -4 40.7600 61.1600   1
  -7   8   4 0.14000 51.2300   1
  -7   8   4 -22.450 34.8100   1
   4  10  -3 27.2400 47.0500   1
  -4 -10   3 47.9000 60.3600   1
 -10  -3   0 239.570 34.5300   1
 -10  -3   0 190.720 48.8600   1
  -7   6   7 211.900 73.2300   1
  -7   6   7 115.930 34.4400   1
   6   8  -5 894.430 74.6900   1
  -6  -8   5 801.730 87.9100   1
  -4  10   4 795.610 85.2700   1
  -4  10   4 850.360 103.220   1
  -4  -8  -7 577.160 69.5900   1
  -4  -8  -7 597.410 64.1900   1
  -4  -8  -7 464.950 49.6100   1
  -1 -11   3 120.790 61.5400   1
   1  11  -3 181.950 46.0900   1
  -1   6 -11 50.8800 58.0000   1
  -1   6 -11 96.1300 48.5200   1
  -5  10  -3 -32.850 42.2600   1
  -5  10  -3 39.1400 76.1500   1
 -10   1  -4 1713.54 120.760   1
 -10   1  -4 1722.09 117.930   1
  -7  -8  -1 207.640 64.9300   1
  -7  -8  -1 73.5100 35.8900   1
   7   8   1 41.2500 34.7300   1
  -9   3   6 841.530 81.4400   1
  -9   3   6 932.640 75.8000   1
  -9   3   6 858.520 76.8200   1
 -10   3   3 -61.370 50.7500   1
 -10   3   3 35.7800 34.0300   1
  -3   2  12 490.450 70.8000   1
  -3   2  12 484.430 97.2100   1
  -7  -6  -6 -6.0600 48.0300   1
  -7  -6  -6 97.3700 40.8700   1
  -2   3  12 1002.04 106.140   1
   2  -3 -12 878.990 81.3100   1
 -10  -2   3 147.480 47.2100   1
 -10  -2   3 174.770 38.2500   1
   1   4 -12 18.6600 40.2600   1
   3 -11  -1 296.450 146.650   1
  -3  11   1 319.550 67.2400   1
  -6   3  10 -2.2600 44.2500   1
  -6   3  10 86.3000 64.4100   1
   4   9  -6 45.8800 60.4500   1
  -7  -7   5 66.1500 40.2500   1
   7   7  -5 27.9800 33.7300   1
  -3 -10  -4 42.8000 57.6700   1
  -3 -10  -4 -13.770 43.6000   1
   3  10   4 107.140 37.9000   1
 -10  -3   1 644.950 58.3900   1
 -10  -3   1 731.350 79.9200   1
  -6  -9   0 1.92000 44.2500   1
   6   9   0 19.9500 34.2300   1
 -10   0  -4 424.560 47.3600   1
 -10   0  -4 381.040 49.9300   1
   5   7  -8 129.340 47.2700   1
  -8  -2   8 945.770 80.7700   1
  -8  -2   8 933.480 96.5700   1
   8   2  -8 1083.94 90.2900   1
  -5  -8  -6 18.0600 66.7500   1
  -5  -8  -6 25.4200 36.8600   1
  -7  -4  -8 63.3400 43.9900   1
  -7  -4  -8 23.6300 48.5900   1
   6   9  -1 542.060 56.4500   1
  -6  -9   1 422.860 61.1100   1
   4   4 -11 416.770 56.7600   1
  -6   5   9 -24.670 60.4000   1
  -6   5   9 -56.830 37.8800   1
  -6   5   9 -42.070 47.3900   1
   3 -10  -5 227.480 166.870   1
  -3  10   5 67.6900 53.3300   1
  -5  -4 -10 620.720 58.2600   1
  -5  -4 -10 515.480 77.2500   1
   6   6  -8 298.900 44.6500   1
   7   8  -2 61.2300 44.9200   1
  -7  -8   2 -0.5100 46.9600   1
  -3  11  -2 466.720 80.4000   1
   3 -11   2 317.990 48.1200   1
   3 -11   2 441.870 102.050   1
   3   5 -11 770.780 99.5700   1
   3   9  -7 802.760 82.9400   1
 -10  -3  -1 1752.18 119.760   1
 -10  -3  -1 1788.40 122.900   1
   2  11   1 -24.060 48.4000   1
  -2 -11  -1 116.350 34.5100   1
  -2 -11  -1 19.3700 49.1500   1
   1   9  -8 307.810 67.4300   1
  -2 -10  -5 51.8500 91.8100   1
  -2 -10  -5 157.100 38.5100   1
   6   3 -10 187.050 39.4500   1
   8   7   0 14.1100 44.0100   1
  -8  -7   0 96.4600 53.8000   1
  -1  11   3 -17.410 51.0900   1
   1 -11  -3 -10.500 83.1900   1
   1 -11  -3 47.7300 68.3100   1
   1   6 -11 40.8000 60.8600   1
   1   6 -11 44.6500 62.7600   1
  -9  -2  -6 408.250 48.2300   1
  -9  -2  -6 387.010 55.4400   1
  -5   8   7 197.300 46.2400   1
  -5   8   7 176.490 40.5300   1
   5  -8  -7 431.980 80.1600   1
  -5   8   7 360.830 75.8200   1
  -3  -7  -9 193.150 45.8700   1
  -3  -7  -9 52.4000 75.4700   1
  -3  -7  -9 184.510 46.1600   1
   0  11   3 1009.99 96.7000   1
   0 -11  -3 1193.91 89.7800   1
   0 -11  -3 1380.01 145.110   1
  -9   6  -3 1918.66 124.950   1
  -9   6  -3 2200.68 141.670   1
  -2  -5 -11 562.850 75.0300   1
  -2  -5 -11 535.860 67.3100   1
  -2  -5 -11 547.480 60.0100   1
  -2 -11   2 27.8600 44.7900   1
   2  11  -2 30.2200 59.6100   1
  -7   5   8 213.610 67.0200   1
  -7   5   8 307.960 39.1700   1
  -8  -7   1 1521.51 114.170   1
   8   7  -1 1493.64 109.580   1
 -10  -2  -3 546.870 65.0900   1
 -10  -2  -3 595.800 62.2300   1
 -10  -1   4 362.430 71.6500   1
 -10  -1   4 248.100 42.5600   1
  -5  -9  -4 1654.77 147.210   1
   5   9   4 1900.14 133.590   1
   9   5  -3 1179.96 99.0900   1
  -9  -5   3 1037.79 92.4600   1
   8   5  -6 567.880 70.1000   1
  -8  -5   6 628.920 71.7600   1
 -10   4  -2 -42.720 39.2200   1
 -10   4  -2 72.6200 42.2600   1
   7   3  -9 348.060 53.2500   1
   8   6   4 474.060 65.2000   1
  -8  -6  -4 430.440 65.5600   1
  -8  -6  -4 486.830 59.9900   1
  -2   9  -8 -43.730 50.1200   1
  -2  -9  -7 79.0900 51.4400   1
  -2  -9  -7 23.4000 69.1400   1
   2   7 -10 273.940 65.7700   1
 -10   2  -4 1352.06 99.9500   1
 -10   2  -4 1464.57 100.110   1
 -10   2   4 2471.86 159.480   1
 -10   2   4 2164.91 139.690   1
   2   8  -9 85.2800 49.9000   1
  -7   9   0 235.140 35.7300   1
  -7   9   0 212.200 36.1600   1
  -3   9   7 253.010 60.3600   1
   3  -9  -7 364.460 80.0100   1
   3  -9  -7 258.060 161.240   1
   6   9   1 625.350 71.4400   1
  -6  -9  -1 570.580 65.5500   1
  -8   3  -8 822.410 74.0100   1
  -5   9  -6 -28.440 67.5000   1
  -7   7   6 58.8600 46.4200   1
  -7   7   6 27.7900 48.2000   1
  -7   7   6 32.0200 52.6300   1
  -4   4  11 384.320 77.9200   1
  -4   4  11 402.060 54.6900   1
  -4   4  11 449.420 46.4900   1
  -8   7   4 -5.0800 34.8400   1
  -8   7   4 -3.2900 38.2800   1
   8   4  -7 359.540 58.9000   1
  -8  -4   7 312.650 48.1200   1
  -8   8   0 -29.980 46.0000   1
  -8   8   0 27.6600 45.1200   1
 -10   4   2 1070.30 87.6700   1
 -10   4   2 1192.72 108.500   1
   3  10  -5 229.910 60.8600   1
  -2  -3 -12 -7.9400 38.7900   1
  -7   9  -1 424.590 54.5200   1
  -7   9  -1 488.290 58.5900   1
  -3   3 -12 327.010 40.5500   1
  -5   3 -11 60.6900 40.9200   1
  -5   3 -11 121.550 65.3700   1
  -4   9  -7 202.960 94.5400   1
  -6   9   4 22.1500 52.8000   1
  -6   9   4 2.09000 54.8700   1
  -6   9   4 102.530 38.7900   1
   6  -9  -4 5.36000 93.8500   1
  -6   8   6 913.320 78.5800   1
  -6   8   6 742.160 82.9200   1
   6  -8  -6 784.040 112.820   1
  -6   8   6 790.810 69.4300   1
  -3  -2 -12 214.710 41.0700   1
  -4  10  -5 1864.74 152.490   1
   4   7  -9 -49.850 36.0300   1
  -1  11  -4 398.490 78.0200   1
   8   7   1 -54.260 44.3100   1
  -8  -7  -1 17.8900 28.9000   1
  -8  -7  -1 8.45000 42.5900   1
  -6  -9   2 153.420 62.2900   1
   6   9  -2 55.9900 44.5800   1
  -8   8  -1 341.020 41.2600   1
  -8   8  -1 330.370 38.9800   1
  -8   8  -1 356.670 41.6600   1
  10   3  -2 87.9700 61.5500   1
 -10  -3   2 102.340 50.7900   1
 -10  -3   2 49.3700 37.8700   1
   0  11  -4 -4.4000 54.1800   1
   6   7  -7 69.9200 36.2700   1
   6   5  -9 318.910 41.1800   1
  -2   4 -12 238.140 55.4800   1
  -9   6   3 -31.080 34.2800   1
  -9   6   3 7.25000 48.7200   1
  -9   6   3 58.3800 64.3200   1
  -3  -6 -10 58.8900 78.0000   1
  -3  -6 -10 -15.110 43.5900   1
  -3  -6 -10 80.2200 43.7200   1
 -10  -1  -4 1645.95 114.850   1
 -10  -1  -4 1683.40 120.230   1
  -2   6 -11 381.700 56.2100   1
  -2   6 -11 407.990 93.9600   1
  -8   6  -6 420.490 44.0500   1
  -4   7   9 -105.54 72.5700   1
  -4   7   9 76.8100 47.0600   1
  -7  -8  -2 35.8400 59.7800   1
  -7  -8  -2 -42.700 38.9000   1
   7   8   2 40.6900 35.1900   1
  -7   9   1 450.850 51.8200   1
  -7   9   1 369.900 52.6100   1
  -5  10   3 148.180 75.5700   1
  -5  10   3 -28.260 41.6100   1
  -5  10   3 24.4600 35.7300   1
  -8   3   8 -6.1200 40.8700   1
  -8   3   8 -15.450 52.7200   1
  -1  10   6 -13.200 46.6200   1
   1 -10  -6 82.3400 121.580   1
   1 -10  -6 33.9200 57.0700   1
  -3  -8  -8 -25.010 40.9900   1
  -3  -8  -8 -60.950 43.3500   1
  -3  -8  -8 19.8000 78.1400   1
   8  -8  -1 192.760 73.1300   1
  -8   8   1 144.850 47.2000   1
  -8   8   1 161.970 54.4700   1
  -3  11   2 91.3900 68.4100   1
   3 -11  -2 -105.47 153.450   1
  -5  -2 -11 16.8700 46.5900   1
   0 -10  -6 164.500 50.7000   1
   0  10   6 227.200 71.5400   1
   0 -10  -6 195.660 114.470   1
   2  10  -6 216.420 68.7000   1
  -2  11   3 25.0400 59.1700   1
   2 -11  -3 17.8500 156.770   1
   2 -11  -3 41.9500 45.1500   1
  -3   8  -9 18.8200 58.8500   1
  -8   5  -7 29.2400 38.7200   1
  -8  -7   2 988.420 83.8800   1
   8   7  -2 938.450 91.1700   1
  -9   0   7 279.790 77.3300   1
  -9   0   7 337.210 47.7000   1
  -9   0   7 270.080 44.9900   1
  -4   0  12 74.2600 66.9000   1
  -4   0  12 29.7400 61.0500   1
  -3  -3  12 -38.470 71.6100   1
  -3  -3  12 67.2500 38.0700   1
  -7   8  -5 1137.95 98.4200   1
  -3  10  -6 587.350 103.720   1
   0  -7 -10 -86.680 94.1800   1
   0  -7 -10 43.9500 48.5100   1
   0   7  10 55.6400 65.7400   1
   0  -7 -10 -11.220 56.4700   1
   4  10   3 810.100 75.5800   1
  -4 -10  -3 888.620 107.980   1
   5   9  -5 1607.72 130.560   1
   0   8   9 -7.0600 56.7600   1
   0  -8  -9 -21.620 48.2700   1
   0  -8  -9 -47.420 46.5800   1
   0  -8  -9 -33.740 58.4900   1
   0  -8  -9 124.170 84.8400   1
 -10  -3  -2 313.000 46.8500   1
 -10  -3  -2 267.020 47.3900   1
   3  -5 -11 449.610 290.500   1
  -3   5  11 445.880 77.1100   1
  -7   4  -9 207.760 33.5300   1
   9   4  -5 79.8200 43.3400   1
  -9  -4   5 49.9100 47.9600   1
   1  -8  -9 312.580 69.5500   1
   1  -8  -9 139.900 46.8400   1
   1  -8  -9 254.570 47.3900   1
   1  -8  -9 408.290 137.000   1
  -1   8   9 302.440 64.0200   1
  -1   7  10 227.050 72.0500   1
   1  -7 -10 156.300 69.1000   1
   1  -7 -10 143.350 46.4600   1
   1  -7 -10 341.690 100.410   1
   1  -7 -10 212.650 58.0000   1
  -8  -2  -8 78.0100 44.4100   1
  -8  -2  -8 13.0800 44.2400   1
  -9   1   7 226.140 54.5600   1
  -9   1   7 208.380 36.3000   1
  -9   1   7 266.920 37.1900   1
   1  11   3 38.1900 60.4600   1
  -1 -11  -3 39.7800 39.4100   1
  -1 -11  -3 -120.04 73.1600   1
  -9  -5  -3 453.110 49.2700   1
  -9  -5  -3 355.160 48.8500   1
  -3   7 -10 682.340 82.2300   1
  -6   4 -10 343.100 45.2300   1
  -9   5  -5 -15.140 40.1200   1
  -9   5  -5 33.2200 31.0000   1
  -5   5  10 454.620 62.3300   1
  -5   5  10 470.110 56.1100   1
  -5   5  10 429.590 46.5200   1
  -2 -11  -2 -8.7700 31.3300   1
   2  11   2 -16.380 41.5800   1
  -2 -11  -2 25.2600 63.3000   1
   2   4 -12 177.990 59.1800   1
  -7   9  -2 744.970 77.7800   1
  -7   9  -2 656.910 83.3000   1
   4   6 -10 201.940 62.1000   1
   5   5 -10 -2.3500 36.4700   1
  -4   8   8 218.920 63.3200   1
  -4   8   8 232.810 36.8000   1
   4  -8  -8 204.930 76.1000   1
   0  -4 -12 71.6500 51.6700   1
   0   4  12 54.6000 74.3600   1
   0  -4 -12 71.1800 39.4700   1
   3 -11   3 33.1600 134.280   1
  -3  11  -3 -66.100 62.6300   1
  -4  -1  12 71.0900 62.0600   1
  -4  -1  12 -31.590 80.7800   1
   5   8  -7 43.8000 40.4600   1
   7   8  -3 301.410 63.6000   1
  -7  -8   3 402.780 59.9700   1
   4   8  -8 273.830 61.0700   1
  -9   1  -7 202.950 45.8400   1
  -9   1  -7 150.610 44.2200   1
  -4   1 -12 24.7000 39.9200   1
   9   3  -6 1689.86 117.820   1
  -9  -3   6 1655.46 130.350   1
  -8   8  -2 9.53000 44.3000   1
  -8   8  -2 82.4600 35.6500   1
  -8   8  -2 103.630 42.2500   1
  -5  -3  11 228.170 64.1400   1
  -4   0 -12 110.000 53.3100   1
  -2  11  -4 66.6500 74.1700   1
  -4   1  12 71.0400 52.8200   1
  -4   1  12 123.830 50.2300   1
   1  -4 -12 74.1900 38.2800   1
  -1   4  12 148.490 93.2400   1
   1  -4 -12 33.1400 43.6500   1
   1  -4 -12 -28.350 82.1300   1
  -2 -11   3 232.790 65.4400   1
   2  11  -3 218.730 55.0900   1
  -5   3  11 921.700 82.0400   1
  -5   3  11 862.720 78.8200   1
  -5   3  11 938.250 85.0400   1
   6   9   2 98.6900 44.2500   1
  -6  -9  -2 131.820 63.8000   1
  -4 -10   4 225.060 51.9200   1
   4  10  -4 206.480 63.8400   1
  -9   0  -7 -1.7300 38.1900   1
  -9   0  -7 89.6000 52.3100   1
  -9   4  -6 123.870 34.0900   1
  -9   4  -6 46.4200 41.2900   1
   8   6  -5 306.880 52.8400   1
  -8  -6   5 195.020 50.1700   1
   1  11  -4 17.4000 61.2200   1
   7   6  -7 77.1800 53.6300   1
  -5  10  -4 106.620 67.5600   1
  -9  -1   7 54.0200 61.6400   1
  -9  -1   7 -37.370 41.5200   1
   7   5  -8 227.210 48.5700   1
   7   7   5 168.770 50.0800   1
  -7  -7  -5 142.260 46.8800   1
  -7  -7  -5 27.1800 69.5900   1
   6   8   5 14.1800 39.8000   1
  -6  -8  -5 -8.4400 44.1600   1
  -6  -8  -5 -48.820 50.3800   1
  -6   7  -8 1096.51 124.270   1
   0   0 -13 162.540 47.4200   1
   2   6 -11 34.0900 41.0600   1
   2   6 -11 -21.790 31.6700   1
 -10   3  -4 5.86000 29.0000   1
 -10   3  -4 -19.530 63.8800   1
  -4   6  10 -11.820 58.3800   1
  -4   6  10 79.4400 51.2600   1
  -8  -7  -2 2501.62 168.960   1
  -8  -7  -2 2719.84 87.8000   1
   8   7   2 3062.73 98.9500   1
  -6   9  -5 1371.45 101.650   1
  -6   9  -5 1305.06 132.710   1
   2 -10  -6 -37.000 124.210   1
  -2  10   6 -38.050 60.6500   1
 -10   4  -3 2018.17 139.840   1
 -10   4  -3 2099.91 140.280   1
  -3   3  12 195.720 45.8900   1
  -3   3  12 264.370 77.6400   1
 -10  -2   4 897.410 74.9600   1
 -10  -2   4 966.870 83.0300   1
   0   1 -13 188.730 56.1500   1
   2   9  -8 -3.2600 66.1200   1
  -1  -7 -10 78.3200 73.7400   1
  -1  -7 -10 -86.700 44.1700   1
  -1  -7 -10 -1.2100 71.8100   1
   1   7  10 49.3600 54.3400   1
  -1 -10  -6 145.660 80.2300   1
  -1 -10  -6 113.980 73.2900   1
  -4  11   0 89.0200 74.7100   1
   4 -11   0 148.220 170.350   1
 -10   3   4 -15.150 43.3900   1
 -10   3   4 65.7700 40.3900   1
 -10   3   4 59.7100 48.6400   1
  -9   5   5 572.160 62.0900   1
  -9   5   5 715.720 71.6400   1
  -9   5   5 685.650 71.6000   1
  -4   5 -11 80.5900 59.8900   1
  -4   5 -11 4.03000 35.8300   1
  -1  -8  -9 -53.770 47.2000   1
   1   8   9 -41.110 64.9300   1
  -1  -8  -9 12.4300 36.6700   1
  -1  -8  -9 -31.210 80.4400   1
  -7   9   2 56.4100 66.5300   1
  -7   9   2 -28.360 47.5000   1
  -7   9   2 60.7800 55.5900   1
  -6  -3 -10 82.6300 37.8400   1
  -6  -3 -10 17.0200 50.4600   1
   6   9  -3 783.870 70.1700   1
  -6  -9   3 666.900 90.4700   1
  -9   2  -7 656.810 57.8100   1
  -9   2  -7 670.210 60.9400   1
  -4  11  -1 -12.850 50.8500   1
   4 -11   1 -0.1700 128.530   1
  -1  -4 -12 366.070 67.9100   1
  -1  -4 -12 299.760 57.8400   1
  -8   8   2 479.540 52.3400   1
   8  -8  -2 341.190 121.700   1
  -8   8   2 311.380 47.1600   1
  -8   6   6 -60.620 34.2600   1
  -8   6   6 -62.080 55.6000   1
  -6  10   0 17.7100 42.5500   1
  -6  10   0 89.0900 36.6100   1
  -6  10   0 10.8600 71.3300   1
  -8  -5  -6 482.040 83.3600   1
  -8  -5  -6 462.520 42.6800   1
   8   3  -8 241.610 50.4000   1
  -8  -3   8 275.330 47.7600   1
  -7  -3  -9 17.1400 37.4000   1
  -7  -3  -9 132.010 40.0800   1
  -8   5   7 129.900 50.7900   1
  -8   5   7 146.400 65.7300   1
  -9   2   7 -8.2100 53.2100   1
  -9   2   7 -10.380 38.4500   1
  -9   2   7 -79.220 79.7400   1
 -10   4   3 483.450 56.7800   1
 -10   4   3 413.220 41.1400   1
 -10   4   3 496.100 59.8100   1
   0  10  -7 5.42000 59.3900   1
 -10  -3   3 646.450 64.0000   1
  10   3  -3 674.100 75.8400   1
 -10  -3   3 591.970 62.3700   1
   2  -8  -9 117.680 59.8700   1
   2  -8  -9 254.700 107.180   1
  -2   8   9 -14.010 51.2500   1
   2  -8  -9 112.850 46.1900   1
   5  10   0 61.6600 38.2900   1
  -5 -10   0 -53.060 42.3400   1
  -4   2 -12 677.740 68.1000   1
  -1  10  -7 68.6600 70.3700   1
  -8   7  -5 1744.11 122.070   1
   1   0 -13 66.3200 41.7800   1
  -1   0  13 178.050 56.6000   1
  -5   7  -9 -34.640 63.7100   1
  -6  10  -1 58.2100 32.7100   1
  -6  10  -1 59.4300 37.6300   1
  -6  10  -1 135.700 67.6100   1
  -2   7  10 29.7100 67.3600   1
   2  -7 -10 9.53000 95.9200   1
   2  -7 -10 14.4800 77.3400   1
  -5 -10   1 97.5300 63.0700   1
   5  10  -1 60.8800 38.7400   1
  -8  -4  -7 307.990 49.1800   1
  -8  -4  -7 460.810 43.4900   1
  -9   4   6 -11.530 60.0000   1
  -9   4   6 -16.160 46.0200   1
  -9   4   6 2.97000 31.4700   1
  -7   4   9 82.6800 46.5100   1
  -7   4   9 26.5300 56.0600   1
  -3   9  -8 805.240 92.5000   1
  10  -5   0 68.7400 81.2000   1
 -10   5   0 150.230 45.7100   1
  -1   0 -13 1778.75 128.270   1
  -6   6  -9 1048.25 107.510   1
  -6   6  -9 893.220 78.5000   1
 -10   0   5 297.770 58.8700   1
 -10   0   5 309.430 53.2400   1
   3  11   0 68.0500 48.0100   1
  -3 -11   0 107.810 47.4500   1
  -4  -4 -11 763.000 83.3200   1
  -4  -4 -11 780.810 69.2000   1
   1   1 -13 17.0200 47.1700   1
  -7   0  10 83.4600 47.0200   1
  -7   0  10 139.590 72.4900   1
  -9   6  -4 300.230 39.0100   1
  -9   6  -4 202.690 44.6600   1
  -4  -1 -12 54.4000 46.7900   1
  -1   1 -13 100.650 49.3500   1
 -10   1   5 306.930 50.1000   1
 -10   1   5 304.950 45.1200   1
   9   5  -4 1423.30 109.070   1
  -9  -5   4 1283.32 114.360   1
   3  11  -1 279.050 47.1800   1
  -3 -11   1 256.500 85.6900   1
  -8  -7   3 229.190 58.3400   1
   8   7  -3 240.200 44.5100   1
  -9   7   0 -24.620 37.7200   1
  -9   7   0 7.54000 46.3300   1
   9  -7   0 34.1600 84.5600   1
  -9   7   0 60.4900 32.8200   1
   0  -6 -11 287.500 41.2000   1
   0   6  11 184.140 58.4900   1
   0  -6 -11 277.900 53.8000   1
   0  -6 -11 54.5800 78.3300   1
  -9  -4  -5 403.940 52.1900   1
  -9  -4  -5 332.810 45.5700   1
  -4  -9  -6 -61.680 56.2000   1
  -4  -9  -6 28.7800 30.8200   1
   0  -1 -13 -15.140 46.3300   1
   0   5 -12 493.750 56.9700   1
  -4  -2  12 149.590 63.8900   1
   4 -11  -1 161.560 106.540   1
  -4  11   1 -62.490 54.8400   1
 -10   5  -1 1403.11 83.4100   1
  10  -5   1 1358.08 152.870   1
 -10   5  -1 1546.72 82.4600   1
  -5   8  -8 11.9800 61.7300   1
   0   9   8 197.450 72.4400   1
   0  -9  -8 244.090 52.8600   1
   0  -9  -8 328.090 78.9100   1
  -6   4  10 -0.2800 59.1400   1
  -6   4  10 61.5700 45.1100   1
  -6   4  10 54.6800 36.9500   1
   1  -9  -8 248.440 127.840   1
   1  -9  -8 226.230 44.2000   1
  -1   9   8 303.510 71.3700   1
 -10   1  -5 346.200 38.4400   1
 -10   1  -5 379.160 56.6000   1
 -10  -2  -4 57.7600 46.6100   1
  -9  -1  -7 425.660 49.9100   1
  -9  -1  -7 395.820 40.3600   1
  -6  -6  -8 612.420 50.6500   1
  -6  -6  -8 657.460 68.9200   1
  -1   6  11 65.0200 65.6500   1
   1  -6 -11 15.3600 45.9600   1
   1  -6 -11 -5.8600 74.2700   1
   1  -6 -11 -12.410 43.4900   1
  -7   8   5 305.780 66.9600   1
  -7   8   5 306.730 40.8700   1
   7  -8  -5 296.210 65.3900   1
  -7   8   5 204.340 52.2200   1
  -5   9   6 466.030 61.5700   1
  -5   9   6 405.480 57.2300   1
   1 -11  -4 369.350 54.8000   1
   1 -11  -4 380.490 97.9000   1
  -6  10   1 109.360 49.3000   1
  -6  10   1 79.4700 37.1100   1
  -6  10   1 71.5800 57.8400   1
  -9   7  -1 2578.33 126.630   1
  -9   7  -1 2373.86 121.450   1
  -9   7  -1 2364.36 107.680   1
  -7   1  10 20.7000 39.0600   1
  -7   1  10 -100.68 60.3500   1
  -8   4  -8 1627.26 89.3300   1
 -10   5   1 1411.20 81.2500   1
 -10   5   1 1459.03 84.8000   1
  10  -5  -1 1091.74 92.3800   1
 -10   5   1 1350.84 79.5000   1
  -7  -8  -3 85.2700 63.3800   1
  -7  -8  -3 82.6800 34.7800   1
   7   8   3 124.780 69.3700   1
   0 -11  -4 144.980 92.3400   1
   0 -11  -4 125.170 88.8700   1
  -6   8  -7 -12.500 83.4100   1
  -7   9  -3 533.850 73.4300   1
  -7   9  -3 590.270 60.9800   1
  -7   9  -3 510.410 52.6700   1
   2  -4 -12 547.960 61.3800   1
  -2   4  12 680.250 84.9100   1
   2  -4 -12 409.980 119.630   1
  -5  -6  -9 239.340 48.5400   1
  -5  -6  -9 96.4800 54.9900   1
   5  10   1 -10.660 43.3500   1
  -5 -10  -1 -27.060 44.1900   1
  -9  -3  -6 684.580 67.2000   1
  -9  -3  -6 748.450 53.6600   1
  -4  10   5 554.610 70.0200   1
  -4  10   5 553.140 50.6100   1
  -9  -6   0 79.9400 61.1200   1
   9   6   0 198.600 48.1600   1
 -10   0  -5 464.450 45.0100   1
 -10   0  -5 512.090 61.9700   1
   4 -11   2 -61.940 151.740   1
  -4  11  -2 -43.000 66.2200   1
  -1   5 -12 714.940 78.0900   1
  -1   5 -12 893.910 76.4100   1
   0   2 -13 648.960 56.5300   1
  -5  -7  -8 139.590 56.6700   1
  -5  -7  -8 104.050 57.2700   1
  -7   1 -10 57.8900 32.5200   1
   3 -11  -3 126.650 161.090   1
  -3  11   3 182.990 55.3400   1
  -7   6  -8 268.690 44.2400   1
 -10  -3  -3 2313.09 111.900   1
 -10  -3  -3 1896.36 105.070   1
   1  -1 -13 302.700 62.6100   1
  -1   1  13 452.580 67.3400   1
  -4   2  12 136.560 102.560   1
  -4   2  12 62.9800 54.9900   1
  -3  -5 -11 48.6500 44.6700   1
  -3  -5 -11 -75.540 46.9400   1
  -3  -5 -11 21.6700 60.8400   1
  -7  -1  10 66.5100 56.7700   1
  -5   4 -11 2599.12 121.880   1
  -5   4 -11 2984.91 195.950   1
  -7   7  -7 -25.470 43.7700   1
  -9   7   1 1501.82 90.6700   1
  -9   7   1 1491.85 88.9700   1
  -9   7   1 1569.57 95.7800   1
   9  -7  -1 1612.27 121.470   1
   9   6  -1 20.8900 50.2600   1
  -9  -6   1 80.0300 46.7200   1
 -10  -4   0 70.2600 54.8400   1
  10   4   0 168.620 49.0000   1
  -8   8  -3 79.0400 35.2600   1
  -8   8  -3 179.300 45.6800   1
  -8   8  -3 46.0800 31.5300   1
   3  11   1 62.3300 73.0100   1
  -3 -11  -1 239.490 53.7700   1
  -3 -10  -5 550.680 90.1600   1
  -3 -10  -5 523.860 51.9700   1
  -5 -10   2 15.6200 53.4300   1
   5  10  -2 50.2000 80.2100   1
  -3   4 -12 30.4900 31.3700   1
   6   8  -6 496.040 57.4800   1
  -3   6 -11 683.360 79.2600   1
   3   7 -10 79.9600 45.0500   1
  -7   0 -10 579.850 49.1900   1
  -6  10  -2 732.080 100.270   1
  -6  10  -2 778.990 62.7400   1
  -6  10  -2 740.980 59.1600   1
   6   4 -10 900.140 76.6500   1
  -6   0  11 505.180 76.7700   1
   3   8  -9 23.9400 49.0500   1
  -3  -3 -12 14.0000 38.3300   1
  -1  -1 -13 -42.000 35.1600   1
   1  10  -7 126.810 56.7100   1
  -3 -11   2 260.500 74.7300   1
   3  11  -2 183.020 60.0300   1
  10   4  -1 0.55000 38.7200   1
 -10  -4   1 11.4000 45.2500   1
 -10  -1   5 425.280 111.660   1
  -3  -9  -7 87.6700 98.3600   1
  -3  -9  -7 96.9400 46.7000   1
  -2  10  -7 659.290 78.0700   1
   7   7  -6 57.2500 53.9700   1
  -7  -7   6 22.9900 48.5800   1
  -9   6   4 1871.03 108.350   1
  -9   6   4 1577.86 90.5700   1
  -9   6   4 1871.17 101.170   1
  -2 -11  -3 28.8300 57.7200   1
  -2 -11  -3 181.710 49.3800   1
   2  11   3 5.97000 43.1800   1
   1   5 -12 1276.91 100.580   1
   4  -9  -7 719.390 98.2700   1
  -4   9   7 1020.23 86.4400   1
  -4   9   7 796.140 75.0900   1
  -9  -2   7 105.180 59.9500   1
  -9  -2   7 97.5000 42.1600   1
   9   2  -7 62.6000 55.2300   1
 -10   2  -5 2192.02 108.150   1
 -10   2  -5 2006.40 108.880   1
  -1   2 -13 77.1900 50.6900   1
 -10   2   5 913.220 67.0900   1
 -10   2   5 1006.45 69.5700   1
 -10   2   5 926.170 67.2600   1
   9   6   1 -74.420 66.6700   1
  -9  -6  -1 57.8000 41.2100   1
  -9  -6  -1 -58.020 39.8700   1
  -1  11  -5 53.9200 74.5400   1
   7   4  -9 0.53000 41.3100   1
   1   6  11 164.160 87.4800   1
  -1  -6 -11 157.200 38.4100   1
  -1  -6 -11 163.510 76.3800   1
  -1  -6 -11 182.430 50.2100   1
  -6  -5  -9 36.9800 46.4600   1
  -6  -5  -9 34.0100 45.9100   1
  -8   0   9 69.0300 56.9600   1
  -8   0   9 1.06000 32.0700   1
   1   2 -13 625.890 72.5600   1
  -6  -7  -7 637.180 74.6500   1
  -6  -7  -7 482.350 52.0000   1
  -5   6 -10 26.0300 59.9200   1
  -8  -6  -5 1796.54 91.0000   1
  -8  -6  -5 1845.26 107.160   1
  -6   1  11 2047.57 114.960   1
 -10  -4  -1 186.250 37.0600   1
 -10  -4  -1 18.8500 48.6000   1
  -3  11  -4 547.610 95.1500   1
  -5  10   4 1116.68 67.2700   1
  -5  10   4 1092.64 74.4000   1
  -5  -9  -5 -7.7400 56.0100   1
 -10   5  -2 51.8000 39.2900   1
 -10   5  -2 125.110 44.3600   1
  -6  -9  -3 -22.720 41.4000   1
   6   9   3 36.1200 54.8600   1
   7   8  -4 1828.89 118.610   1
  -7  -8   4 1448.08 94.8300   1
  -6  -1  11 653.790 71.5300   1
  -6   1 -11 292.130 39.5700   1
  -8   7   5 14.2500 35.5900   1
  -8   7   5 32.9600 57.8900   1
  -7   2 -10 -72.700 30.7000   1
  -1  -9  -8 394.710 125.020   1
   1   9   8 405.400 73.6500   1
  -1  -9  -8 365.240 46.9900   1
  -9   3  -7 28.5600 30.2800   1
  -9   3  -7 70.8300 34.7700   1
  -5  -3 -11 313.490 50.9500   1
   2 -11  -4 127.870 114.420   1
   2 -11  -4 41.5100 36.5600   1
  -9   7  -2 93.9700 43.8100   1
  -9   7  -2 1.01000 40.8700   1
  -9   7  -2 24.8900 37.4900   1
  -2   9   8 -60.810 60.7300   1
   2  -9  -8 205.920 161.280   1
   2  -9  -8 5.23000 78.0100   1
   4   5 -11 102.480 49.5000   1
  -8   1   9 651.540 59.8600   1
  -8   1   9 822.140 79.1000   1
   2   0 -13 -85.660 39.3000   1
  -2   0  13 41.6300 106.430   1
   2  11  -4 1469.50 103.360   1
  -8   4   8 34.4800 53.1900   1
  -8   4   8 32.3200 47.4200   1
  -6   0 -11 265.530 48.0100   1
  -4 -10  -4 192.990 60.8800   1
   4  10   4 163.720 37.8400   1
  -8  -7  -3 1616.06 84.5700   1
  -8  -7  -3 1405.66 88.8400   1
   8   7   3 1576.94 88.2800   1
  -6   9   5 751.240 64.7800   1
  -6   9   5 846.760 72.2200   1
   6  -9  -5 1001.75 110.280   1
  -6   9   5 718.760 76.6000   1
  -9  -5  -4 153.900 43.3100   1
  -9  -5  -4 294.880 49.6000   1
  -9  -6   2 92.9100 58.4200   1
   9   6  -2 -26.790 57.0500   1
  -2   6  11 20.1000 51.9100   1
   2  -6 -11 257.600 128.120   1
   2  -6 -11 303.810 55.9800   1
   3 -10  -6 473.510 171.820   1
  -3  10   6 407.850 64.9700   1
  -1 -11  -4 103.300 59.6300   1
 -10   5   2 36.2500 35.9100   1
 -10   5   2 48.5400 95.0100   1
 -10   5   2 94.8500 42.9900   1
   0   8 -10 -73.000 62.2400   1
  -2  -4 -12 546.890 61.4700   1
  -2  -4 -12 556.660 66.8400   1
   4 -11  -2 121.700 116.600   1
  -4  11   2 101.820 52.5700   1
   4   9  -7 34.5100 49.0000   1
  -2  -7 -10 20.2500 47.4800   1
  -2  -7 -10 112.780 51.7100   1
  -2  -7 -10 -13.330 63.5600   1
  -4   3 -12 156.740 43.8200   1
  -2  -1  13 211.710 83.2300   1
   2   1 -13 98.3700 38.9500   1
  -8   1  -9 135.560 33.2700   1
  -7   2  10 1.85000 55.4400   1
  -7   2  10 75.4700 60.5200   1
 -10  -1  -5 -27.340 41.2500   1
 -10  -1  -5 46.2500 42.6900   1
  -2   0 -13 110.870 53.3900   1
  -8  -3  -8 222.890 34.6900   1
  -8  -3  -8 185.440 48.6300   1
  -2   1 -13 391.500 59.0700   1
   3  10  -6 878.240 80.8900   1
  -7   9   3 0.26000 46.0400   1
  -7   9   3 43.8900 69.6400   1
  -7   9   3 -42.420 39.9500   1
   7  -9  -3 128.080 99.4500   1
  -6  10   2 65.5700 46.6300   1
  -6  10   2 17.5200 59.1400   1
  -6  10   2 78.4800 56.3100   1
   8  -8  -3 -44.750 88.3100   1
  -8   8   3 67.3500 42.1500   1
  -8   8   3 6.06000 49.5600   1
  -2  -8  -9 0.08000 40.0300   1
  -2  -8  -9 -25.330 119.820   1
  -2  -8  -9 110.570 42.1400   1
  -1   8 -10 63.1100 50.1800   1
  -4  -7  -9 140.140 34.5000   1
  -4  -7  -9 138.550 45.0200   1
  -4  -7  -9 182.780 66.9900   1
  -2 -10  -6 444.630 48.7200   1
  -2 -10  -6 449.730 69.9900   1
  -8  -1   9 818.000 61.5300   1
  -8  -1   9 794.580 78.4800   1
   8   1  -9 819.540 77.5300   1
  -9   3   7 1124.04 79.3100   1
  -9   3   7 1089.21 92.6300   1
  -9   3   7 1109.08 86.2500   1
  -6   7   8 -59.020 55.1400   1
  -6   7   8 -9.0800 47.7200   1
  -6   7   8 13.1100 44.6000   1
  10   4  -2 1179.29 83.2600   1
 -10  -4   2 1048.56 69.8800   1
  -4  10  -6 736.650 79.4100   1
  -8   0  -9 26.4400 40.1900   1
  -7  -1 -10 149.890 33.9200   1
  -4   8  -9 953.510 98.1700   1
   5  10   2 432.320 58.6000   1
  -5 -10  -2 406.690 76.7300   1
  -9   7   2 141.100 41.0000   1
  -9   7   2 133.150 36.1500   1
  -9   7   2 230.950 51.6400   1
   9  -7  -2 67.5600 70.0400   1
   0  -2 -13 752.100 76.8300   1
  -2   5 -12 529.030 48.8600   1
  -2   5 -12 653.460 87.7200   1
  -6  -9   4 10.9200 46.6900   1
   6   9  -4 172.940 41.2000   1
  -4  -2 -12 21.9800 33.8300   1
 -10   4  -4 2.87000 38.1100   1
 -10   4  -4 -55.110 39.3000   1
  -7  -6  -7 297.020 39.3600   1
  -7  -6  -7 195.240 54.4000   1
  -7  -5  -8 265.640 37.1000   1
  -7  -5  -8 170.270 46.1500   1
  -5  -5 -10 130.870 51.8400   1
  -5  -5 -10 109.320 49.7300   1
  -3   8   9 150.100 53.2700   1
   3  -8  -9 252.190 50.9500   1
   3  -8  -9 207.510 115.090   1
   3  -8  -9 162.900 66.2200   1
  -6   2 -11 289.910 48.1700   1
  -4   5  11 48.9900 45.3400   1
  -4   5  11 56.0000 38.9900   1
  -4   5  11 75.4000 71.5100   1
  -4  11  -3 803.260 86.1800   1
  -2   1  13 525.010 92.6400   1
   2  -1 -13 398.870 62.1600   1
   3  11   2 8.86000 55.9400   1
  -3 -11  -2 -1.9200 39.0900   1
  -3 -11  -2 133.090 69.1700   1
  -2  11  -5 775.800 89.4300   1
  -7  -2  10 783.520 78.2600   1
   3  -7 -10 -15.680 104.630   1
  -3   7  10 -23.510 50.8200   1
   3  -7 -10 63.5500 51.2000   1
  -4   7 -10 508.970 104.440   1
   4  10  -5 1079.74 89.0100   1
  -7   5  -9 100.110 29.0800   1
   1  11  -5 750.520 88.9100   1
  -5  -8  -7 806.530 68.0300   1
  -5  -8  -7 750.400 73.9000   1
 -11   1   0 267.540 43.7400   1
 -11   1   0 160.930 47.5800   1
 -10  -3   4 796.450 64.8100   1
  10   3  -4 812.200 77.9600   1
   5  10  -3 332.140 58.4100   1
  -5 -10   3 280.280 63.7200   1
  -8  -5   7 55.1700 35.8700   1
   8   5  -7 -16.660 58.6300   1
   1  -2 -13 419.170 57.2600   1
  -1   2  13 513.300 84.4000   1
  -6   6   9 81.6300 60.0100   1
  -6   6   9 93.0000 43.0500   1
  -6   6   9 10.7600 40.3600   1
  -6   5 -10 280.190 84.5900   1
  -6   5 -10 255.480 38.9300   1
   3   6 -11 292.940 46.0200   1
  -8   2  -9 43.7300 35.7800   1
  -6  10  -3 363.570 68.8600   1
  -6  10  -3 515.140 86.5300   1
  -6  10  -3 336.690 42.9800   1
  -5   9  -7 241.230 69.4000   1
  -5  10  -5 224.290 63.4800   1
  -9  -6  -2 233.190 52.9100   1
  -9  -6  -2 234.400 37.6100   1
   9   6   2 233.430 57.2200   1
 -11   0   0 847.800 60.5700   1
 -11   0   0 936.290 61.2600   1
  -9  -2  -7 945.650 60.2100   1
  -9  -2  -7 707.970 72.1400   1
   5   9  -6 162.360 65.6600   1
  -5   4  11 338.500 68.4100   1
  -5   4  11 382.560 48.9200   1
  -5   4  11 388.900 63.7000   1
   3  11  -3 245.200 64.7800   1
  -3 -11   3 240.350 50.9400   1
  -4  -6 -10 50.5500 42.2800   1
  -4  -6 -10 45.5600 32.2400   1
  -4  -6 -10 55.2700 51.9700   1
 -10   4   4 484.290 55.4400   1
 -10   4   4 470.600 49.4500   1
 -10   4   4 542.900 52.0000   1
   0   7 -11 875.730 82.4000   1
  -4  -3  12 92.6600 60.5100   1
  -7   8  -6 154.960 47.2100   1
  -7   8  -6 257.030 96.8800   1
   0   9  -9 102.120 63.4100   1
   8   7  -4 410.260 56.4200   1
  -8  -7   4 379.030 63.4700   1
 -10  -4  -2 184.760 41.6400   1
 -10  -4  -2 91.5900 36.9200   1
   1   8 -10 -104.47 55.4700   1
   0   3 -13 125.110 37.4200   1
  -6  -1 -11 10.3500 39.3100   1
  -7   6   8 1060.72 68.8200   1
  -7   6   8 1080.29 77.6600   1
  -7   6   8 976.210 78.8100   1
  -1   9  -9 62.2600 52.4100   1
  -6   2  11 98.5200 41.8600   1
  -6   2  11 14.5500 59.9600   1
  -9  -4   6 344.060 48.3900   1
   9   4  -6 382.030 60.4100   1
  -8   2   9 232.540 51.6200   1
  -8   2   9 270.270 51.0500   1
  -2  -1 -13 89.5600 47.5100   1
 -11   1   1 570.880 60.1800   1
 -11   1   1 563.290 59.9800   1
  -2   2 -13 126.640 52.8200   1
  -1  -2 -13 468.110 56.0600   1
  -1   7 -11 221.440 62.8400   1
 -11   1  -1 425.130 52.4600   1
 -11   1  -1 472.810 59.0800   1
   3   9  -8 679.440 80.6600   1
 -10   3  -5 635.960 67.7300   1
 -10   3  -5 566.040 57.2900   1
  -4  -8  -8 67.8100 45.3000   1
  -4  -8  -8 164.110 71.9800   1
  -4  -8  -8 -23.360 35.8200   1
 -11   0   1 254.470 42.2000   1
 -11   0   1 221.240 40.2900   1
 -10  -2   5 87.4200 43.5100   1
 -10  -2   5 86.9000 43.3700   1
  -6  -2  11 103.480 57.2700   1
  -9   5  -6 479.730 45.8400   1
  -5   7   9 958.650 84.1800   1
  -5   7   9 824.990 73.2000   1
  -5   7   9 809.680 65.8000   1
  -7   7   7 475.470 56.1100   1
  -7   7   7 459.490 67.6300   1
  -7   7   7 496.870 63.9400   1
   2   5 -12 488.100 60.4200   1
  -2  -2  13 131.820 48.6200   1
   2   2 -13 196.600 55.6900   1
 -11   0  -1 -17.240 38.3500   1
 -11   0  -1 -2.6700 48.4000   1
  -7   9  -4 75.6000 65.8300   1
  -7   9  -4 46.1000 45.8100   1
  -3   4  12 55.8700 51.4400   1
   3  -4 -12 157.130 175.970   1
   3  -4 -12 161.100 44.9000   1
 -10   3   5 77.6400 54.5800   1
 -10   3   5 -4.5200 38.2100   1
 -10   3   5 20.3700 45.2300   1
  -1   3 -13 399.070 55.3500   1
  -2   8 -10 512.330 89.6400   1
  -8   6  -7 1992.97 119.220   1
   2  10  -7 115.440 54.5100   1
  -8  -1  -9 92.2200 58.0200   1
  -8  -1  -9 81.7600 31.9600   1
  -7   3 -10 260.770 45.4400   1
  -6   8   7 32.0800 65.4600   1
  -6   8   7 22.7500 38.0600   1
  -6   8   7 84.3700 54.3200   1
 -10   5  -3 -21.870 44.0700   1
 -10   5  -3 6.65000 37.1400   1
 -10   5  -3 70.3200 33.2500   1
  -4   3  12 632.180 84.5400   1
  -4   3  12 484.910 62.9600   1
  -9   7  -3 1077.43 72.3600   1
  -9   7  -3 1186.84 89.4300   1
  -9   7  -3 1122.03 77.0400   1
 -11   2   0 154.050 43.6500   1
 -11   2   0 296.560 39.8300   1
  -8  -6   6 1356.34 105.470   1
   8   6  -6 1501.52 85.7100   1
  -2  -6 -11 70.1700 57.2700   1
  -2  -6 -11 221.310 40.8400   1
  -2  -6 -11 104.860 43.2900   1
  -8   8  -4 159.640 44.3000   1
  -8   8  -4 316.680 44.6700   1
  -8   8  -4 254.070 53.1800   1
  -3  10  -7 -8.6400 73.2100   1
   1   3 -13 56.3000 48.6700   1
   9   6  -3 596.120 61.6400   1
  -9  -6   3 357.400 45.1300   1
  -9  -5   5 145.060 52.9400   1
   9   5  -5 199.270 41.8700   1
   8   4  -8 1450.42 89.9500   1
   5   7  -9 0.58000 36.3000   1
  -5   8   8 144.270 46.0100   1
  -5   8   8 -52.590 71.6400   1
  -9   6  -5 1192.58 89.2600   1
  -9   6  -5 1038.01 81.3200   1
  -7  -8  -4 130.180 39.8400   1
   7   8   4 16.8600 55.3800   1
  -7  -8  -4 75.8800 51.9100   1
  -6   9  -6 260.640 87.4800   1
  -4   9  -8 89.5400 82.7500   1
 -10  -3  -4 841.540 58.0600   1
 -10  -3  -4 1031.46 82.5500   1
   1   7 -11 2.68000 56.9000   1
  -5   0  12 57.3200 67.4400   1
  -8  -2   9 143.390 71.1500   1
   8   2  -9 74.7900 73.8100   1
   6   6  -9 11.5300 49.2600   1
   0  -5 -12 471.210 86.4700   1
   0  -5 -12 464.410 53.6000   1
   0  -5 -12 583.660 64.9000   1
   0   5  12 554.920 83.8000   1
 -11   2   1 619.190 55.0400   1
 -11   2   1 781.360 65.1200   1
 -11   2  -1 244.420 47.6500   1
 -11   2  -1 382.550 50.3500   1
   3 -11  -4 17.2400 154.820   1
 -11  -1   0 334.250 48.0300   1
   1   9  -9 580.430 68.0100   1
   6   7  -8 565.060 63.8200   1
   1 -10  -7 210.620 39.4700   1
  -1  10   7 293.920 68.1200   1
  -2  -9  -8 160.280 52.2700   1
  -2  -9  -8 210.430 75.7800   1
  -6  -4 -10 298.620 56.2500   1
  -6  -4 -10 352.800 44.7600   1
   0 -10  -7 66.4500 45.9100   1
   0 -10  -7 49.2600 92.8300   1
   0  10   7 43.4800 65.6400   1
 -10   5   3 15.4300 34.7400   1
 -10   5   3 40.7400 36.9800   1
 -10   5   3 25.7300 34.1600   1
  -3   9   8 96.7400 62.8500   1
   3  -9  -8 100.160 135.010   1
   3  -9  -8 58.8700 83.0900   1
  10   4  -3 214.530 58.6700   1
 -10  -4   3 190.090 56.1200   1
   1  -5 -12 406.150 106.260   1
   1  -5 -12 373.850 65.9400   1
  -1   5  12 472.150 93.6700   1
   1  -5 -12 508.970 54.7800   1
  -7  -7  -6 25.2600 53.8400   1
  -7  -7  -6 4.26000 32.2800   1
  -6  -8  -6 79.3500 36.4500   1
  -6  -8  -6 -53.860 80.3200   1
  -7  -4  -9 654.980 78.8000   1
  -7  -4  -9 568.050 58.5100   1
  -9  -3   7 117.040 45.8200   1
   9   3  -7 119.180 47.8100   1
 -11   1   2 2623.41 127.560   1
 -11   1   2 2651.28 127.930   1
   4 -11  -3 -100.40 172.010   1
  -2   2  13 416.580 71.3900   1
 -11  -1   1 17.7500 46.2500   1
 -11  -1   1 28.0000 42.1000   1
 -10  -2  -5 240.690 53.8500   1
 -10  -2  -5 289.270 48.4800   1
 -11   0   2 232.410 47.3000   1
 -11   0   2 184.120 54.1900   1
  -8   7  -6 -17.930 44.4400   1
;
_shelx_hkl_checksum              82472
#END Tags that were not found in dictionaries
loop_
_space_group_symop_operation_xyz
'x, y, z'
'-x, -y, -z'
loop_
_atom_site_label
_atom_site_type_symbol
_atom_site_fract_x
_atom_site_fract_y
_atom_site_fract_z
_atom_site_U_iso_or_equiv
_atom_site_adp_type
_atom_site_occupancy
_atom_site_site_symmetry_order
_atom_site_calc_flag
_atom_site_refinement_flags_posn
_atom_site_refinement_flags_adp
C1 C -0.22196(19) 0.32903(18) 0.10370(16) 0.0161(3) Uani 1 1 d . .
C2 C -0.10515(19) 0.23847(19) 0.06612(17) 0.0201(4) Uani 1 1 d . .
H2 H -0.1305 0.1460 0.0266 0.024 Uiso 1 1 calc R U
C3 C 0.0486(2) 0.2856(2) 0.08744(18) 0.0228(4) Uani 1 1 d . .
C4 C 0.0895(2) 0.4194(2) 0.14486(18) 0.0257(4) Uani 1 1 d . .
H4 H 0.1961 0.4489 0.1600 0.031 Uiso 1 1 calc R U
C5 C -0.0274(2) 0.5087(2) 0.17963(18) 0.0276(4) Uani 1 1 d . .
H5 H -0.0015 0.6018 0.2178 0.033 Uiso 1 1 calc R U
C6 C -0.1833(2) 0.4639(2) 0.15944(17) 0.0220(4) Uani 1 1 d . .
H6 H -0.2633 0.5263 0.1840 0.026 Uiso 1 1 calc R U
C7 C -0.39158(18) 0.27725(17) 0.08491(16) 0.0155(3) Uani 1 1 d . .
H7 H -0.4592 0.3529 0.1219 0.019 Uiso 1 1 calc R U
C8 C -0.43211(18) 0.25216(18) -0.05659(16) 0.0160(3) Uani 1 1 d . .
Cl1 Cl 0.19613(5) 0.17369(6) 0.03887(6) 0.03961(16) Uani 1 1 d . .
O1 O -0.42271(13) 0.14648(12) 0.15066(11) 0.0169(2) Uani 1 1 d . .
H1 H -0.4525 0.0802 0.0973 0.025 Uiso 1 1 calc R U
O2 O -0.46277(14) 0.13251(13) -0.10438(12) 0.0215(3) Uani 1 1 d . .
O3 O -0.42951(15) 0.37322(13) -0.11971(12) 0.0218(3) Uani 1 1 d . .
H3 H -0.4584 0.3552 -0.1964 0.033 Uiso 1 1 calc R U
C101 C 0.22746(19) 0.18391(19) 0.59550(16) 0.0180(3) Uani 1 1 d . .
C102 C 0.1160(2) 0.26233(19) 0.53422(18) 0.0206(4) Uani 1 1 d . .
H102 H 0.1468 0.3401 0.4803 0.025 Uiso 1 1 calc R U
C103 C -0.0403(2) 0.2247(2) 0.55344(18) 0.0226(4) Uani 1 1 d . .
C104 C -0.0888(2) 0.1141(2) 0.63137(18) 0.0247(4) Uani 1 1 d . .
H104 H -0.1969 0.0906 0.6437 0.030 Uiso 1 1 calc R U
C105 C 0.0231(2) 0.0373(2) 0.6916(2) 0.0301(4) Uani 1 1 d . .
H105 H -0.0084 -0.0400 0.7457 0.036 Uiso 1 1 calc R U
C106 C 0.1808(2) 0.0721(2) 0.67399(18) 0.0252(4) Uani 1 1 d . .
H106 H 0.2567 0.0188 0.7161 0.030 Uiso 1 1 calc R U
C107 C 0.40016(19) 0.22397(18) 0.57927(16) 0.0179(3) Uani 1 1 d . .
H107 H 0.4612 0.1431 0.6115 0.021 Uiso 1 1 calc R U
C108 C 0.43928(18) 0.24489(19) 0.43839(17) 0.0179(3) Uani 1 1 d . .
Cl11 Cl -0.17979(6) 0.32106(6) 0.47604(6) 0.04083(16) Uani 1 1 d . .
O101 O 0.44433(14) 0.35239(13) 0.65213(12) 0.0204(3) Uani 1 1 d . .
H101 H 0.4641 0.4204 0.6018 0.031 Uiso 1 1 calc R U
O102 O 0.46705(14) 0.36254(13) 0.39397(12) 0.0216(3) Uani 1 1 d . .
O103 O 0.43925(15) 0.12119(13) 0.37251(12) 0.0232(3) Uani 1 1 d . .
H103 H 0.4716 0.1360 0.2974 0.035 Uiso 1 1 calc R U
loop_
_atom_site_aniso_label
_atom_site_aniso_U_11
_atom_site_aniso_U_22
_atom_site_aniso_U_33
_atom_site_aniso_U_23
_atom_site_aniso_U_13
_atom_site_aniso_U_12
C1 0.0155(8) 0.0188(8) 0.0139(8) 0.0041(6) -0.0018(6) -0.0020(6)
C2 0.0175(8) 0.0182(9) 0.0244(9) 0.0030(7) -0.0003(7) -0.0019(6)
C3 0.0161(8) 0.0261(9) 0.0267(10) 0.0078(8) 0.0010(7) 0.0002(7)
C4 0.0189(9) 0.0347(11) 0.0225(9) 0.0065(8) -0.0039(7) -0.0108(7)
C5 0.0307(10) 0.0275(10) 0.0227(10) -0.0040(8) 0.0007(8) -0.0124(8)
C6 0.0236(9) 0.0228(9) 0.0191(9) -0.0022(7) 0.0025(7) -0.0025(7)
C7 0.0144(7) 0.0145(8) 0.0175(8) 0.0015(6) 0.0010(6) 0.0003(6)
C8 0.0110(7) 0.0183(8) 0.0188(8) 0.0023(7) -0.0004(6) -0.0005(6)
Cl1 0.0148(2) 0.0358(3) 0.0686(4) 0.0049(3) 0.0064(2) 0.00317(18)
O1 0.0189(6) 0.0147(6) 0.0170(6) 0.0020(5) -0.0002(5) -0.0025(4)
O2 0.0260(6) 0.0177(6) 0.0202(6) -0.0010(5) -0.0013(5) -0.0033(5)
O3 0.0274(7) 0.0186(6) 0.0190(6) 0.0047(5) -0.0077(5) -0.0038(5)
C101 0.0171(8) 0.0209(9) 0.0159(8) -0.0019(7) -0.0001(6) -0.0001(6)
C102 0.0190(8) 0.0193(9) 0.0236(9) 0.0040(7) -0.0007(7) -0.0003(6)
C103 0.0178(8) 0.0240(9) 0.0260(9) -0.0003(7) -0.0047(7) 0.0021(7)
C104 0.0171(8) 0.0297(10) 0.0265(10) -0.0001(8) 0.0020(7) -0.0051(7)
C105 0.0262(10) 0.0351(11) 0.0291(11) 0.0128(9) 0.0025(8) -0.0043(8)
C106 0.0211(9) 0.0318(10) 0.0231(9) 0.0095(8) -0.0016(7) 0.0000(7)
C107 0.0167(8) 0.0177(8) 0.0191(9) -0.0004(7) -0.0011(6) 0.0004(6)
C108 0.0123(7) 0.0215(9) 0.0197(9) -0.0008(7) -0.0004(6) -0.0001(6)
Cl11 0.0193(2) 0.0405(3) 0.0639(4) 0.0177(3) -0.0099(2) 0.00348(19)
O101 0.0238(6) 0.0191(6) 0.0179(6) 0.0022(5) -0.0021(5) -0.0030(5)
O102 0.0242(6) 0.0174(6) 0.0233(7) 0.0040(5) 0.0020(5) -0.0006(5)
O103 0.0320(7) 0.0191(6) 0.0181(6) -0.0001(5) 0.0072(5) -0.0020(5)
loop_
_atom_type_symbol
_atom_type_description
_atom_type_scat_dispersion_real
_atom_type_scat_dispersion_imag
_atom_type_scat_source
C C 0.0033 0.0016 'International Tables Vol C Tables 4.2.6.8 and 6.1.1.4'
H H 0.0000 0.0000 'International Tables Vol C Tables 4.2.6.8 and 6.1.1.4'
Cl Cl 0.1484 0.1585 'International Tables Vol C Tables 4.2.6.8 and 6.1.1.4'
O O 0.0106 0.0060 'International Tables Vol C Tables 4.2.6.8 and 6.1.1.4'
loop_
_geom_angle_atom_site_label_1
_geom_angle_atom_site_label_2
_geom_angle_atom_site_label_3
_geom_angle
C6 C1 C2 120.04(15)
C6 C1 C7 120.56(15)
C2 C1 C7 119.38(15)
C3 C2 C1 118.61(16)
C3 C2 H2 120.7
C1 C2 H2 120.7
C2 C3 C4 122.17(17)
C2 C3 Cl1 118.96(14)
C4 C3 Cl1 118.87(14)
C5 C4 C3 118.51(16)
C5 C4 H4 120.7
C3 C4 H4 120.7
C4 C5 C6 120.56(17)
C4 C5 H5 119.7
C6 C5 H5 119.7
C1 C6 C5 120.09(17)
C1 C6 H6 120.0
C5 C6 H6 120.0
O1 C7 C1 110.05(13)
O1 C7 C8 109.14(13)
C1 C7 C8 111.53(13)
O1 C7 H7 108.7
C1 C7 H7 108.7
C8 C7 H7 108.7
O2 C8 O3 124.76(16)
O2 C8 C7 122.75(15)
O3 C8 C7 112.49(14)
C7 O1 H1 109.5
C8 O3 H3 109.5
C106 C101 C102 119.93(16)
C106 C101 C107 119.82(16)
C102 C101 C107 120.22(16)
C103 C102 C101 118.60(17)
C103 C102 H102 120.7
C101 C102 H102 120.7
C104 C103 C102 122.26(17)
C104 C103 Cl11 118.95(14)
C102 C103 Cl11 118.80(15)
C103 C104 C105 118.48(17)
C103 C104 H104 120.8
C105 C104 H104 120.8
C104 C105 C106 120.66(18)
C104 C105 H105 119.7
C106 C105 H105 119.7
C101 C106 C105 120.06(17)
C101 C106 H106 120.0
C105 C106 H106 120.0
O101 C107 C108 109.57(14)
O101 C107 C101 110.75(13)
C108 C107 C101 110.84(14)
O101 C107 H107 108.5
C108 C107 H107 108.5
C101 C107 H107 108.5
O102 C108 O103 124.90(16)
O102 C108 C107 122.99(15)
O103 C108 C107 112.11(15)
C107 O101 H101 109.5
C108 O103 H103 109.5
loop_
_geom_bond_atom_site_label_1
_geom_bond_atom_site_label_2
_geom_bond_distance
C1 C6 1.380(2)
C1 C2 1.388(2)
C1 C7 1.515(2)
C2 C3 1.380(2)
C2 H2 0.9500
C3 C4 1.381(3)
C3 Cl1 1.7424(19)
C4 C5 1.374(3)
C4 H4 0.9500
C5 C6 1.390(3)
C5 H5 0.9500
C6 H6 0.9500
C7 O1 1.419(2)
C7 C8 1.513(2)
C7 H7 1.0000
C8 O2 1.212(2)
C8 O3 1.312(2)
O1 H1 0.8400
O3 H3 0.8400
C101 C106 1.378(3)
C101 C102 1.393(2)
C101 C107 1.517(2)
C102 C103 1.382(2)
C102 H102 0.9500
C103 C104 1.370(3)
C103 Cl11 1.7376(19)
C104 C105 1.382(3)
C104 H104 0.9500
C105 C106 1.386(3)
C105 H105 0.9500
C106 H106 0.9500
C107 O101 1.419(2)
C107 C108 1.515(2)
C107 H107 1.0000
C108 O102 1.206(2)
C108 O103 1.312(2)
O101 H101 0.8400
O103 H103 0.8400
loop_
_geom_torsion_atom_site_label_1
_geom_torsion_atom_site_label_2
_geom_torsion_atom_site_label_3
_geom_torsion_atom_site_label_4
_geom_torsion
C6 C1 C2 C3 0.9(3)
C7 C1 C2 C3 -178.10(16)
C1 C2 C3 C4 0.1(3)
C1 C2 C3 Cl1 -179.24(13)
C2 C3 C4 C5 -1.1(3)
Cl1 C3 C4 C5 178.22(15)
C3 C4 C5 C6 1.2(3)
C2 C1 C6 C5 -0.8(3)
C7 C1 C6 C5 178.14(17)
C4 C5 C6 C1 -0.2(3)
C6 C1 C7 O1 -121.36(17)
C2 C1 C7 O1 57.6(2)
C6 C1 C7 C8 117.35(17)
C2 C1 C7 C8 -63.7(2)
O1 C7 C8 O2 -10.1(2)
C1 C7 C8 O2 111.69(17)
O1 C7 C8 O3 170.06(13)
C1 C7 C8 O3 -68.12(18)
C106 C101 C102 C103 -0.4(3)
C107 C101 C102 C103 -178.64(15)
C101 C102 C103 C104 0.6(3)
C101 C102 C103 Cl11 -179.41(14)
C102 C103 C104 C105 -0.5(3)
Cl11 C103 C104 C105 179.48(15)
C103 C104 C105 C106 0.3(3)
C102 C101 C106 C105 0.2(3)
C107 C101 C106 C105 178.44(17)
C104 C105 C106 C101 -0.2(3)
C106 C101 C107 O101 -103.75(18)
C102 C101 C107 O101 74.5(2)
C106 C101 C107 C108 134.42(17)
C102 C101 C107 C108 -47.4(2)
O101 C107 C108 O102 -16.4(2)
C101 C107 C108 O102 106.16(18)
O101 C107 C108 O103 163.54(13)
C101 C107 C108 O103 -73.93(18)
