#------------------------------------------------------------------------------
#$Date: 2016-03-24 14:07:12 +0200 (Thu, 24 Mar 2016) $
#$Revision: 179652 $
#$URL: svn://www.crystallography.net/cod/cif/4/51/05/4510579.cif $
#------------------------------------------------------------------------------
#
# This file is available in the Crystallography Open Database (COD),
# http://www.crystallography.net/
#
# All data on this site have been placed in the public domain by the
# contributors.
#
data_4510579
loop_
_publ_author_name
'Cantos, Paula M.'
'Cahill, Christopher L.'
_publ_section_title
;
 A Family of UO22+--5-Nitro-1,3-dicarboxylate Hybrid Materials: Structural
 Variation As a Function of pH and Structure Directing Species
;
_journal_issue                   6
_journal_name_full               'Crystal Growth &amp; Design'
_journal_page_first              3044
_journal_paper_doi               10.1021/cg500304d
_journal_volume                  14
_journal_year                    2014
_chemical_formula_sum            'C8 H7 N O10 U'
_chemical_formula_weight         515.18
_space_group_crystal_system      triclinic
_space_group_IT_number           2
_space_group_name_Hall           '-P 1'
_space_group_name_H-M_alt        'P -1'
_symmetry_cell_setting           triclinic
_symmetry_Int_Tables_number      2
_symmetry_space_group_name_Hall  '-P 1'
_symmetry_space_group_name_H-M   'P -1'
_atom_sites_solution_hydrogens   mixed
_audit_creation_method           SHELXL-2013
_cell_angle_alpha                106.698(2)
_cell_angle_beta                 103.200(2)
_cell_angle_gamma                90.842(2)
_cell_formula_units_Z            2
_cell_length_a                   7.8201(13)
_cell_length_b                   8.1694(14)
_cell_length_c                   10.2669(18)
_cell_measurement_reflns_used    8830
_cell_measurement_temperature    100(2)
_cell_measurement_theta_max      60.053
_cell_measurement_theta_min      5.225
_cell_volume                     609.38(18)
_computing_cell_refinement       'SAINT (Bruker-AXS)'
_computing_data_collection       'SMART V5.05 (Bruker-AXS)'
_computing_data_reduction        'SAINT (Bruker-AXS)'
_computing_molecular_graphics    'SHELXL-2013 (Sheldrick, 1997)'
_computing_publication_material  'WINGX (Farrugia, 1998)'
_computing_structure_refinement  'SHELXL-2013 (Sheldrick, 2013)'
_computing_structure_solution    'SHELXS-2013, G. Sheldrick (1990)'
_diffrn_ambient_temperature      100(2)
_diffrn_measured_fraction_theta_full 1.000
_diffrn_measured_fraction_theta_max 0.913
_diffrn_radiation_probe          x-ray
_diffrn_radiation_type           MoK\a
_diffrn_radiation_wavelength     0.71073
_diffrn_reflns_av_R_equivalents  0.0451
_diffrn_reflns_av_unetI/netI     0.0490
_diffrn_reflns_Laue_measured_fraction_full 1.000
_diffrn_reflns_Laue_measured_fraction_max 0.913
_diffrn_reflns_limit_h_max       10
_diffrn_reflns_limit_h_min       -10
_diffrn_reflns_limit_k_max       11
_diffrn_reflns_limit_k_min       -10
_diffrn_reflns_limit_l_max       13
_diffrn_reflns_limit_l_min       -14
_diffrn_reflns_number            8754
_diffrn_reflns_point_group_measured_fraction_full 1.000
_diffrn_reflns_point_group_measured_fraction_max 0.913
_diffrn_reflns_theta_full        25.500
_diffrn_reflns_theta_max         30.174
_diffrn_reflns_theta_min         2.135
_diffrn_source                   'sealed X-ray tube'
_exptl_absorpt_coefficient_mu    13.371
_exptl_absorpt_correction_T_max  0.7460
_exptl_absorpt_correction_T_min  0.5144
_exptl_absorpt_correction_type   multi-scan
_exptl_absorpt_process_details   'SADABS, G Sheldrick (1999)'
_exptl_crystal_colour            yellow
_exptl_crystal_density_diffrn    2.808
_exptl_crystal_description       plate
_exptl_crystal_F_000             468
_exptl_crystal_size_max          0.03
_exptl_crystal_size_mid          0.03
_exptl_crystal_size_min          0.02
_refine_diff_density_max         1.324
_refine_diff_density_min         -1.669
_refine_diff_density_rms         0.209
_refine_ls_extinction_method     none
_refine_ls_goodness_of_fit_ref   1.035
_refine_ls_hydrogen_treatment    mixed
_refine_ls_matrix_type           full
_refine_ls_number_parameters     197
_refine_ls_number_reflns         3613
_refine_ls_number_restraints     0
_refine_ls_restrained_S_all      1.035
_refine_ls_R_factor_all          0.0244
_refine_ls_R_factor_gt           0.0233
_refine_ls_shift/su_max          0.004
_refine_ls_shift/su_mean         0.000
_refine_ls_structure_factor_coef Fsqd
_refine_ls_weighting_details
'w=1/[\s^2^(Fo^2^)+(0.0173P)^2^+0.1045P] where P=(Fo^2^+2Fc^2^)/3'
_refine_ls_weighting_scheme      calc
_refine_ls_wR_factor_gt          0.0565
_refine_ls_wR_factor_ref         0.0571
_reflns_Friedel_coverage         0.000
_reflns_number_gt                3180
_reflns_number_total             3299
_reflns_threshold_expression     'I > 2\s(I)'
_cod_data_source_file            cg500304d_si_002.cif
_cod_data_source_block           Compound1
_cod_depositor_comments
'Adding full bibliography for 4510579--4510582.cif.'
_cod_database_code               4510579
#BEGIN Tags that were not found in dictionaries:
_shelx_space_group_comment
;
The symmetry employed for this shelxl refinement is uniquely defined
by the following loop, which should always be used as a source of
symmetry information in preference to the above space-group names.
They are only intended as comments.
;
_shelxl_version_number           2013-4
_shelx_res_file
;
TITL Pbar1 in P-1
CELL  0.71073   7.8201   8.1694  10.2669  106.698  103.200   90.842
ZERR     2.00   0.0013   0.0014   0.0018    0.002    0.002    0.002
LATT   1
SFAC  C    N    O    U    H
UNIT  16   2    16   2    6
MERG   2
FMAP   2
PLAN   15
ACTA    51.00
L.S.  22
WGHT    0.017300    0.104500
FVAR       0.12687
C1    1    0.666910    0.102479    0.704497    11.00000    0.01045    0.00943 =
         0.01003    0.00078    0.00413    0.00230
C2    1    0.796349    0.179309    0.842367    11.00000    0.01018    0.00757 =
         0.00602    0.00141    0.00080    0.00199
C3    1    0.749463    0.309110    0.949922    11.00000    0.01194    0.00984 =
         0.01104    0.00251    0.00328    0.00564
AFIX  43
H3    5    0.637367    0.347679    0.936011    11.00000   -1.20000
AFIX   0
C4    1    0.872799    0.378211    1.076477    11.00000    0.01179    0.00582 =
         0.01030    0.00131    0.00565    0.00390
C5    1    1.042545    0.326646    1.096952    11.00000    0.01061    0.00823 =
         0.01017    0.00231    0.00085    0.00154
AFIX  43
H1    5    1.125812    0.375450    1.180941    11.00000   -1.20000
AFIX   0
C6    1    1.084782    0.200782    0.989246    11.00000    0.00901    0.00939 =
         0.01200    0.00288    0.00255    0.00362
C7    1    0.964899    0.123297    0.862999    11.00000    0.00963    0.01053 =
         0.01105    0.00356    0.00569    0.00432
AFIX  43
H2    5    0.996125    0.036142    0.793808    11.00000   -1.20000
AFIX   0
C8    1    0.823891    0.510948    1.193692    11.00000    0.01242    0.00778 =
         0.00749   -0.00154    0.00341    0.00236
N1    2    1.266737    0.147233    1.009654    11.00000    0.01146    0.02268 =
         0.01529    0.00207    0.00195    0.00830
O1    3    0.637319    0.605684    1.472789    11.00000    0.01559    0.01368 =
         0.01888    0.00345    0.00754   -0.00082
O2    3    0.860788    0.915503    1.379164    11.00000    0.01536    0.00962 =
         0.01313    0.00261    0.00271   -0.00032
O3    3    0.684754    0.585083    1.175111    11.00000    0.01265    0.01234 =
         0.01306   -0.00094    0.00340    0.00600
O4    3    0.927724    0.545792    1.316373    11.00000    0.01447    0.01118 =
         0.00792    0.00052    0.00242    0.00600
O5    3    0.997047    0.738568    1.600775    11.00000    0.01249    0.01284 =
         0.01012    0.00432    0.00092    0.00317
O6    3    0.708183   -0.024978    0.619506    11.00000    0.01337    0.01680 =
         0.00976   -0.00287    0.00150    0.00661
O7    3    0.523251    0.167087    0.682358    11.00000    0.01395    0.01867 =
         0.01335   -0.00632   -0.00043    0.00828
O8    3    1.299093    0.027116    0.918110    11.00000    0.02020    0.03059 =
         0.01521   -0.00378    0.00285    0.01304
O9    3    1.373083    0.222170    1.119102    11.00000    0.01597    0.04543 =
         0.02544   -0.01415   -0.00454    0.01461
OW1   3    0.656132    1.224908    1.367810    11.00000    0.01671    0.01895 =
         0.03843    0.00474    0.00493    0.00498
U1    4    0.745269    0.763267    1.425138    11.00000    0.00761    0.00702 =
         0.00652   -0.00042    0.00146    0.00235
H4    5    1.081156    0.772012    1.621747    11.00000    0.09631
H5    5    1.005525    0.646286    1.639192    11.00000    0.02948
H6    5    0.573749    1.184858    1.274621    11.00000    0.04773
H7    5    0.615553    1.304662    1.411046    11.00000    0.03457
HKLF    4

REM  Pbar1 in P-1
REM R1 =  0.0233 for    3180 Fo > 4sig(Fo)  and  0.0244 for all    3299 data
REM    197 parameters refined using      0 restraints

END

WGHT      0.0173      0.1045

REM Highest difference peak  1.324,  deepest hole -1.669,  1-sigma level  0.209
Q1    1   0.8222  0.7744  1.4986  11.00000  0.05    1.32
Q2    1   0.6854  0.7564  1.3444  11.00000  0.05    1.03
Q3    1   1.0658  0.2806  1.0333  11.00000  0.05    0.88
Q4    1   0.7668  0.9956  1.4358  11.00000  0.05    0.84
Q5    1   0.7940  0.8650  1.4130  11.00000  0.05    0.79
Q6    1   0.7346  0.4775  1.3976  11.00000  0.05    0.78
Q7    1   0.7294  1.0736  1.4437  11.00000  0.05    0.74
Q8    1   1.2756  0.1723  0.8757  11.00000  0.05    0.72
Q9    1   1.1681  0.3256  0.9381  11.00000  0.05    0.71
Q10   1   0.8029  0.6530  1.4151  11.00000  0.05    0.70
Q11   1   1.4803  0.1113  0.8888  11.00000  0.05    0.70
Q12   1   0.8718  0.8106  1.3378  11.00000  0.05    0.70
Q13   1   0.7731  1.1824  1.5340  11.00000  0.05    0.70
Q14   1   1.5016  0.1121  0.9754  11.00000  0.05    0.68
Q15   1   0.9783  0.2356  1.1209  11.00000  0.05    0.68
;
_shelx_res_checksum              66054
_shelx_hkl_file
;
  -1   0   0    5.22    0.44
  -1   0   0    5.15    0.44
   1   0   0    5.03    0.39
  -2   0   0  418.23   29.41
  -2   0   0  448.98   30.79
   2   0   0  445.61   26.81
  -3   0   0   72.62    4.98
  -3   0   0   69.58    5.13
   3   0   0   72.85    4.49
  -4   0   0  226.02   15.14
  -4   0   0  215.59   14.56
   4   0   0  200.17   13.20
  -5   0   0   18.64    1.52
  -5   0   0   20.78    1.58
   5   0   0   18.47    1.35
  -6   0   0   92.90    6.82
  -6   0   0  100.19    7.03
   6   0   0   97.30    6.15
  -7   0   0    3.30    0.65
   7   0   0    4.44    0.58
  -8   0   0   91.78    6.66
   8   0   0   92.18    7.99
   8   0   0   92.02    5.93
  -9   0   0    6.55    1.04
   9   0   0    4.53    0.83
   9   0   0    7.69    1.15
   9   0   0    6.60    0.82
 -10   0   0   55.75    4.45
  10   0   0   61.65    5.26
  10   0   0   55.74    3.88
  10   0   0   53.35    4.46
  10  -1   0   11.21    1.21
  10  -1   0   11.98    1.43
  10  -1   0    9.09    1.56
 -10   1   0   16.57    1.57
   9  -1   0   56.23    4.39
   9  -1   0   50.78    5.13
   9  -1   0   58.30    3.84
  -9   1   0   62.98    4.42
   8  -1   0   18.26    1.45
  -8   1   0   17.70    1.61
  -8   1   0   18.77    1.71
   7  -1   0  118.46    6.75
  -7   1   0   97.98    7.44
  -7   1   0  100.27    7.67
   6  -1   0    6.14    0.64
  -6   1   0    6.04    0.66
  -6   1   0    6.29    0.80
   5  -1   0  139.88    8.16
  -5   1   0  120.92    8.98
  -5   1   0  129.75    9.32
   4  -1   0   63.46    3.97
  -4   1   0   63.46    4.55
  -4   1   0   60.60    4.40
   3  -1   0  201.57   11.46
   3  -1   0  162.61   12.35
  -3   1   0  199.44   13.15
  -3   1   0  181.68   12.59
   2  -1   0   25.93    1.60
  -2   1   0   23.72    1.76
  -2   1   0   25.46    1.69
  -2   1   0   22.96    1.82
  -1   1   0  275.59   20.15
  -1   1   0  299.64   18.42
  -1   1   0  321.86   21.14
   0  -1   0   18.12    1.17
   0  -1   0   17.48    1.19
   0  -1   0   16.23    1.24
   0   1   0   15.23    1.23
   0   1   0   15.89    1.08
  -1  -1   0  506.17   33.93
  -1  -1   0  520.00   33.61
   1   1   0  487.28   35.52
   1   1   0  504.45   31.04
  -2  -1   0    8.79    0.63
  -2  -1   0    8.15    0.71
   2   1   0    8.80    0.68
   2   1   0    7.68    0.61
  -3  -1   0  224.98   14.77
  -3  -1   0  224.82   15.02
   3   1   0  214.73   13.65
  -4  -1   0    0.93    0.28
  -4  -1   0    0.60    0.13
   4   1   0    0.55    0.19
  -5  -1   0  213.92   15.00
   5   1   0  211.79   13.59
   5   1   0  216.62   18.27
   5   1   0  235.10   15.57
  -6  -1   0    1.59    0.44
   6   1   0    1.88    0.35
   6   1   0    1.87    0.38
   6   1   0    1.43    0.42
  -7  -1   0  148.91   10.24
   7   1   0  143.86   10.53
   7   1   0  161.23    9.24
   7   1   0  133.28   12.34
  -8  -1   0    4.75    0.85
   8   1   0    5.63    0.91
   8   1   0    6.55    0.84
   8   1   0    5.80    0.73
  -9  -1   0   61.47    4.67
   9   1   0   57.39    4.07
   9   1   0   63.47    5.48
   9   1   0   60.84    4.68
 -10  -1   0    9.70    1.37
  10   1   0    7.06    0.96
  10   1   0    6.91    1.22
  10   1   0    9.42    1.18
  10  -2   0   55.91    3.37
  10  -2   0   38.38    3.70
 -10   2   0   47.84    3.79
   9  -2   0   10.80    1.10
  -9   2   0   10.07    1.20
  -9   2   0    9.03    1.24
   8  -2   0   93.05    6.08
  -8   2   0   94.08    6.97
  -8   2   0   96.29    6.80
   7  -2   0   29.82    2.03
  -7   2   0   29.67    2.32
  -7   2   0   26.64    2.29
   6  -2   0   85.21    5.38
  -6   2   0   83.07    5.96
  -6   2   0   84.56    6.16
   5  -2   0    1.11    0.26
   5  -2   0    1.78    0.21
  -5   2   0    1.72    0.33
  -5   2   0    1.93    0.38
   4  -2   0  284.20   18.39
   4  -2   0  276.64   17.03
  -4   2   0  285.24   19.54
  -4   2   0  258.78   18.67
   3  -2   0   57.46    3.66
   3  -2   0   51.77    3.43
  -3   2   0   51.74    3.92
  -3   2   0   54.50    3.75
   2  -2   0  261.45   17.20
  -2   2   0  267.62   18.20
  -2   2   0  253.84   15.88
  -2   2   0  250.15   17.38
   1  -2   0   12.39    1.03
  -1   2   0   14.92    0.99
  -1   2   0   15.32    1.04
  -1   2   0   14.77    1.09
   0  -2   0  419.24   26.25
   0  -2   0  378.35   26.11
   0   2   0  373.94   27.53
  -1  -2   0    2.89    0.31
  -1  -2   0    3.24    0.35
   1   2   0    2.95    0.31
   1   2   0    3.52    0.33
  -2  -2   0  100.89    6.76
  -2  -2   0  101.52    6.88
   2   2   0   98.67    7.13
   2   2   0  100.82    6.27
  -3  -2   0    5.46    0.48
  -3  -2   0    6.04    0.60
   3   2   0    5.35    0.49
   3   2   0    5.56    0.51
  -4  -2   0  183.06   12.45
  -4  -2   0  187.73   12.20
   4   2   0  181.74   12.91
   4   2   0  183.24   15.14
   4   2   0  174.62   11.29
  -5  -2   0    6.33    0.55
  -5  -2   0    5.69    0.75
   5   2   0    4.94    0.58
   5   2   0    7.32    0.63
   5   2   0    5.08    0.69
  -6  -2   0  174.70   12.86
   6   2   0  183.69   13.30
   6   2   0  182.29   11.64
   6   2   0  204.29   15.62
  -7  -2   0   12.09    1.22
   7   2   0   10.72    1.27
   7   2   0   12.57    1.13
   7   2   0   11.33    1.01
  -8  -2   0  128.82    9.16
   8   2   0  120.08    8.19
   8   2   0  138.97   11.00
   8   2   0  127.54    9.37
  -9  -2   0   -0.05    0.44
   9   2   0    0.10    0.37
   9   2   0    1.26    0.46
  10   2   0   56.24    3.88
  10  -3   0   10.89    1.22
 -10   3   0   12.76    1.54
   9  -3   0   59.71    4.08
  -9   3   0   62.42    4.60
  -9   3   0   60.02    4.69
   8  -3   0   19.64    1.45
  -8   3   0   17.00    1.62
  -8   3   0   16.73    1.60
   7  -3   0  130.87    8.77
  -7   3   0  138.97   10.07
  -7   3   0  148.74    9.71
   6  -3   0   13.55    1.05
  -6   3   0   13.12    1.17
  -6   3   0   12.65    1.18
   5  -3   0  156.27   11.53
   5  -3   0  173.96   10.74
  -5   3   0  184.01   12.32
  -5   3   0  178.16   11.78
   4  -3   0   10.90    0.83
   4  -3   0   10.93    0.85
  -4   3   0   12.05    0.97
  -4   3   0    9.38    0.88
   3  -3   0  263.96   16.87
  -3   3   0  249.14   17.05
  -3   3   0  241.75   15.60
  -3   3   0  256.17   17.86
   2  -3   0    4.20    0.39
  -2   3   0    4.25    0.42
  -2   3   0    3.71    0.42
  -2   3   0    4.39    0.40
   1  -3   0  111.70    7.95
   1  -3   0  111.49    7.89
  -1   3   0  115.28    7.30
  -1   3   0  131.22    8.33
   0  -3   0   31.05    2.53
   0  -3   0   39.09    2.57
   0   3   0   36.91    2.36
   0   3   0   39.07    2.66
  -1  -3   0  123.16    8.82
   1   3   0  131.66    9.31
   1   3   0  139.10    8.16
  -2  -3   0    5.42    0.54
  -2  -3   0    6.54    0.60
   2   3   0    6.64    0.55
   2   3   0    6.66    0.57
  -3  -3   0  106.55    7.64
  -3  -3   0  121.41    7.82
   3   3   0  111.58    7.10
   3   3   0  114.73    8.08
  -4  -3   0    7.48    0.85
  -4  -3   0    7.04    0.65
   4   3   0    7.15    0.69
   4   3   0    7.68    0.68
  -5  -3   0  151.32   10.50
  -5  -3   0  142.42   10.73
   5   3   0  153.88    9.75
   5   3   0  173.84   11.12
  -6  -3   0    1.59    0.48
   6   3   0    2.65    0.46
   6   3   0    2.45    0.44
  -7  -3   0   67.74    5.09
   7   3   0   69.23    4.53
   7   3   0   69.52    5.13
  -8  -3   0    0.21    0.40
   8   3   0    0.24    0.33
   8   3   0    0.12    0.32
  -9  -3   0   61.20    4.71
   9   3   0   61.10    4.16
  10  -4   0   19.15    1.65
   9  -4   0   24.27    1.76
  -9   4   0   18.91    1.91
   8  -4   0   60.01    4.20
  -8   4   0   62.28    4.81
  -8   4   0   67.81    4.67
   7  -4   0   48.07    3.24
  -7   4   0   49.84    3.57
  -7   4   0   46.56    3.70
   6  -4   0  125.90    7.83
  -6   4   0  125.13    8.55
  -6   4   0  120.12    8.94
   5  -4   0   27.54    1.95
  -5   4   0   27.38    2.21
  -5   4   0   29.16    2.10
   4  -4   0  113.79    8.20
  -4   4   0  123.92    8.31
  -4   4   0  127.63    8.73
  -3   4   0   48.08    3.09
  -3   4   0   46.00    3.47
  -3   4   0   47.54    3.30
   2  -4   0  185.62   12.08
   2  -4   0  155.20   11.96
  -2   4   0  179.79   11.09
  -2   4   0  193.44   12.65
   1  -4   0   30.20    2.33
   1  -4   0   35.31    2.35
  -1   4   0   30.08    2.18
  -1   4   0   35.90    2.44
   0  -4   0  192.92   12.53
   0  -4   0  169.91   12.62
   0   4   0  200.79   11.58
   0   4   0  184.25   13.19
  -1  -4   0   34.85    2.28
  -1  -4   0   31.27    2.24
   1   4   0   30.01    2.33
   1   4   0   29.81    2.09
  -2  -4   0  224.09   14.39
  -2  -4   0  212.41   14.21
   2   4   0  189.14   14.97
   2   4   0  223.33   13.14
  -3  -4   0    3.20    0.48
  -3  -4   0    3.22    0.42
   3   4   0    3.71    0.45
   3   4   0    2.30    0.41
  -4  -4   0  199.11   13.99
  -4  -4   0  197.33   13.76
   4   4   0  202.63   12.74
   4   4   0  219.36   14.54
  -5  -4   0    8.26    0.79
  -5  -4   0    7.55    0.94
   5   4   0    8.61    0.78
   5   4   0    8.04    0.82
  -6  -4   0   86.71    6.02
   6   4   0   79.97    6.10
   6   4   0   84.48    5.42
  -7  -4   0    3.85    0.76
   7   4   0    3.18    0.57
  -8  -4   0   51.55    3.89
   8   4   0   47.44    3.40
  -9  -4   0    0.27    0.49
   9   4   0    0.34    0.41
   9  -5   0   41.41    3.12
  -9   5   0   46.90    3.60
   8  -5   0   26.58    1.99
  -8   5   0   25.82    2.23
   7  -5   0   67.88    4.53
  -7   5   0   69.39    5.17
   6  -5   0   45.85    3.12
  -6   5   0   48.24    3.35
  -6   5   0   43.55    3.51
   5  -5   0   67.20    4.90
   5  -5   0   73.49    4.63
  -5   5   0   70.36    5.25
  -5   5   0   74.02    4.98
   4  -5   0   36.44    2.45
  -4   5   0   33.03    2.44
  -4   5   0   34.63    2.34
  -4   5   0   31.46    2.58
   3  -5   0   77.68    5.71
   3  -5   0   84.64    5.70
  -3   5   0   87.84    6.01
  -3   5   0   82.16    5.31
   2  -5   0   46.32    3.21
   2  -5   0   43.03    3.22
  -2   5   0   46.40    3.37
  -2   5   0   47.71    3.05
   1  -5   0  139.69    9.41
   1  -5   0  123.76    9.44
  -1   5   0  139.80    8.71
  -1   5   0  153.11    9.89
   0  -5   0   60.20    4.37
   0  -5   0   66.34    4.40
   0   5   0   65.92    4.55
   0   5   0   59.10    4.06
  -1  -5   0  308.66   20.24
  -1  -5   0  335.26   20.44
   1   5   0  297.69   18.69
   1   5   0  269.20   21.31
  -2  -5   0   43.09    2.85
  -2  -5   0   40.33    2.88
   2   5   0   39.39    2.66
   2   5   0   36.17    2.94
  -3  -5   0  130.44    9.39
  -3  -5   0  137.95    9.28
   3   5   0  139.52    9.77
   3   5   0  138.57    8.61
  -4  -5   0    3.82    0.53
  -4  -5   0    4.21    0.62
   4   5   0    2.80    0.49
  -5  -5   0  133.50    8.54
  -5  -5   0  122.73    8.70
   5   5   0  116.48    7.89
  -6  -5   0    2.84    0.62
   6   5   0    2.61    0.52
  -7  -5   0   45.44    3.71
   7   5   0   49.87    3.33
  -8  -5   0    1.22    0.58
   8   5   0    1.48    0.49
   9  -6   0   17.75    1.58
   8  -6   0   46.64    3.14
  -8   6   0   42.13    3.51
   7  -6   0   38.80    2.85
  -7   6   0   42.23    3.24
   6  -6   0   40.83    2.95
  -6   6   0   44.26    3.33
   5  -6   0   51.93    3.37
  -5   6   0   41.80    3.54
   4  -6   0   45.31    2.84
  -4   6   0   36.12    2.94
  -4   6   0   34.59    2.65
   3  -6   0   97.25    6.16
   3  -6   0   86.08    6.12
  -3   6   0   88.02    5.73
  -3   6   0   85.52    6.44
   2  -6   0   54.74    4.43
  -2   6   0   69.29    4.66
  -2   6   0   67.96    4.20
   1  -6   0   37.84    3.21
  -1   6   0   49.95    3.09
  -1   6   0   50.80    3.37
   0  -6   0  136.24    9.01
   0   6   0  127.31    8.34
   0   6   0  132.66    9.40
  -1  -6   0   48.91    3.32
  -1  -6   0   47.05    3.31
   1   6   0   42.10    3.08
  -2  -6   0  143.34    9.99
  -2  -6   0  160.12   10.11
   2   6   0  137.29    9.25
  -3  -6   0    9.05    0.88
  -3  -6   0    9.32    0.93
   3   6   0    9.15    0.88
  -4  -6   0   78.14    5.22
  -4  -6   0   74.32    5.31
   4   6   0   69.52    4.84
  -5  -6   0   10.62    1.09
  -5  -6   0   11.99    1.18
   5   6   0   11.29    1.06
  -6  -6   0   46.25    3.58
   6   6   0   46.03    3.21
  -7  -6   0    3.52    0.79
   7   6   0    4.38    0.72
  -8  -6   0   51.88    4.37
   8   6   0   60.59    3.96
   8  -7   0   30.64    2.36
  -8   7   0   31.56    2.64
   7  -7   0   54.52    3.97
  -7   7   0   61.69    4.52
   6  -7   0   30.57    2.30
  -6   7   0   32.19    2.58
   5  -7   0   57.00    4.27
  -5   7   0   63.16    4.54
  -5   7   0   60.37    4.07
   4  -7   0    5.10    0.70
  -4   7   0    5.99    0.72
  -4   7   0    4.82    0.71
  -3   7   0  109.38    6.93
  -3   7   0  106.42    7.78
   2  -7   0   54.61    3.99
  -2   7   0   54.77    3.76
  -2   7   0   57.92    4.13
   1  -7   0   90.44    6.06
  -1   7   0   83.16    5.63
   0  -7   0   37.36    2.84
   0  -7   0   38.84    2.89
   0   7   0   42.18    2.75
  -1  -7   0   83.84    5.43
  -1  -7   0   72.48    5.39
   1   7   0   74.50    5.04
  -2  -7   0   23.52    1.67
  -2  -7   0   17.07    1.59
   2   7   0   19.40    1.57
  -3  -7   0   78.42    5.13
  -3  -7   0   67.49    5.12
   3   7   0   70.11    4.75
  -4  -7   0   18.08    1.59
  -4  -7   0   18.32    1.53
   4   7   0   16.63    1.47
  -5  -7   0   51.42    3.85
   5   7   0   50.16    3.52
  -6  -7   0    8.95    1.18
   6   7   0    8.74    1.06
  -7  -7   0   45.45    3.73
   7   7   0   48.99    3.39
   7  -8   0   61.90    4.18
  -7   8   0   59.19    4.68
   6  -8   0   29.25    2.32
  -6   8   0   33.30    2.62
   5  -8   0   41.65    3.43
  -5   8   0   49.83    3.64
  -5   8   0   49.24    3.32
   4  -8   0   83.75    5.44
  -4   8   0   68.52    5.05
   3  -8   0   40.14    2.98
  -3   8   0   39.05    2.82
   2  -8   0  101.19    7.13
  -2   8   0  103.80    6.68
   1  -8   0   30.51    2.40
  -1   8   0   31.86    2.33
   0  -8   0   53.91    4.20
   0   8   0   64.64    4.02
   1   8   0   23.81    1.86
  -2  -8   0   26.88    2.20
   2   8   0   28.80    2.12
  -3  -8   0    9.25    1.09
   3   8   0    9.68    1.09
  -4  -8   0   33.04    2.56
  -4  -8   0   30.25    2.50
   4   8   0   30.80    2.36
  -5  -8   0   20.58    1.86
   5   8   0   20.60    1.72
  -6  -8   0   28.75    2.44
   6   8   0   27.40    2.21
   6  -9   0   46.57    3.32
   5  -9   0   34.12    2.70
  -5   9   0   33.56    2.59
   4  -9   0   37.37    3.15
  -4   9   0   47.04    3.08
   3  -9   0   38.49    2.98
  -3   9   0   38.94    2.84
   2  -9   0   41.43    3.34
  -2   9   0   48.66    3.24
   1  -9   0   46.75    3.78
  -1   9   0   57.61    3.69
   0  -9   0   36.93    2.92
   0   9   0   39.24    2.82
  -1  -9   0   48.96    3.61
   1   9   0   46.39    3.38
  -2  -9   0   20.16    1.80
   2   9   0   21.06    1.76
  -3  -9   0   77.35    5.57
   3   9   0   76.48    5.20
  -4  -9   0   23.59    2.02
   4   9   0   21.13    1.87
   5 -10   0   36.65    2.95
   4 -10   0   32.92    2.62
  -4  10   0   30.49    2.51
   3 -10   0   41.55    3.48
  -3  10   0   50.80    3.40
   2 -10   0   17.01    1.54
  -2  10   0   13.62    1.57
  -1  10   0   42.05    3.15
   0 -10   0   21.00    1.90
   0  10   0   21.49    1.88
  -1 -10   0   35.37    2.93
   1  10   0   39.13    2.85
  -2 -10   0   21.28    1.93
   2  10   0   21.85    1.90
  -3 -10   0   26.51    2.33
  -4 -10   1   10.90    1.41
   3  10  -1   61.34    4.29
  -3 -10   1   61.27    4.63
   2  10  -1    7.50    1.05
  -2 -10   1    7.63    1.09
   1  10  -1   54.31    3.67
  -1 -10   1   47.67    3.84
   0  10  -1   10.24    1.25
   0 -10   1   10.67    1.25
  -1  10  -1   50.08    3.30
   1 -10   1   39.39    3.35
  -2  10  -1    1.61    0.58
   2 -10   1    1.37    0.55
  -3  10  -1   60.46    4.44
   3 -10   1   67.93    4.77
  -4  10  -1    1.23    0.58
   4 -10   1    1.42    0.59
   5   9  -1   11.69    1.32
   4   9  -1   32.59    2.39
  -4  -9   1   29.28    2.55
   3   9  -1    3.08    0.68
  -3  -9   1    4.22    0.76
   2   9  -1   67.34    4.65
  -2  -9   1   70.13    5.02
   1   9  -1    9.31    1.07
  -1  -9   1    8.21    1.06
   0   9  -1   53.66    3.65
   0  -9   1   50.50    3.85
  -1   9  -1    7.90    1.00
   1  -9   1    7.89    0.99
  -2   9  -1   77.06    5.36
   2  -9   1   83.82    5.76
  -3   9  -1    5.89    0.84
   3  -9   1    5.05    0.80
  -4   9  -1   90.51    5.52
   4  -9   1   74.96    5.83
  -5   9  -1    0.87    0.52
   5  -9   1    1.88    0.55
  -7   9  -1    0.25    0.47
  -7  -8   1   37.92    3.12
   6   8  -1   23.60    1.98
  -6  -8   1   26.45    2.21
   5   8  -1   46.06    3.39
  -5  -8   1   50.99    3.71
   4   8  -1   13.63    1.30
  -4  -8   1   15.88    1.45
   3   8  -1   57.42    4.01
  -3  -8   1   61.06    4.34
   2   8  -1   15.85    1.32
  -2  -8   1   13.87    1.34
   1   8  -1   56.98    4.05
  -1  -8   1   63.90    4.39
   0   8  -1   22.80    1.85
   0  -8   1   25.68    1.98
  -1   8  -1  110.41    7.04
   1  -8   1  107.03    7.54
  -2   8  -1   21.33    1.78
   2  -8   1   25.02    1.91
  -3   8  -1  130.69    9.50
  -3   8  -1  137.55    8.44
   3  -8   1  126.94    9.06
  -4   8  -1   25.91    2.03
  -4   8  -1   26.61    2.21
   4  -8   1   27.55    2.13
  -5   8  -1   78.88    5.43
  -5   8  -1   73.96    6.08
   5  -8   1   93.67    5.84
  -6   8  -1    1.06    0.46
   6  -8   1    1.70    0.50
  -7   8  -1   49.59    3.82
   7  -8   1   44.84    3.35
   7   7  -1   28.30    2.27
  -7  -7   1   31.25    2.55
   6   7  -1   35.58    2.62
  -6  -7   1   36.67    2.90
   5   7  -1   35.04    2.47
  -5  -7   1   32.15    2.65
  -5  -7   1   34.81    2.69
   4   7  -1   44.87    3.18
  -4  -7   1   49.95    3.48
  -4  -7   1   44.93    3.45
   3   7  -1   35.44    2.44
  -3  -7   1   32.96    2.57
  -3  -7   1   33.92    2.59
   2   7  -1  106.27    7.22
  -2  -7   1  115.71    7.82
  -2  -7   1  117.07    7.83
   1   7  -1   38.70    2.63
  -1  -7   1   36.82    2.80
   0   7  -1   86.95    5.69
   0   7  -1   87.27    6.39
   0  -7   1   89.74    6.13
  -1   7  -1   18.70    1.42
  -1   7  -1   16.73    1.44
   1  -7   1   17.00    1.44
  -2   7  -1  150.59    9.21
  -2   7  -1  141.54   10.41
   2  -7   1  144.19    9.91
  -3   7  -1    3.71    0.55
  -3   7  -1    3.61    0.56
   3  -7   1    2.26    0.47
  -4   7  -1  110.83    6.97
  -4   7  -1  113.68    7.89
   4  -7   1  100.59    7.45
  -5   7  -1    7.13    0.87
   5  -7   1    5.25    0.74
  -6   7  -1   66.13    5.09
   6  -7   1   68.42    4.52
  -7   7  -1    1.78    0.56
   7  -7   1    3.09    0.62
  -8   7  -1   58.30    4.54
   8  -7   1   57.14    3.99
   8   6  -1   32.75    2.45
  -8  -6   1   32.29    2.73
   7   6  -1   29.58    2.25
  -7  -6   1   31.37    2.57
   6   6  -1   44.54    3.02
  -6  -6   1   42.05    3.33
   5   6  -1   46.21    3.14
  -5  -6   1   47.64    3.42
  -5  -6   1   44.26    3.45
   4   6  -1   34.81    2.51
  -4  -6   1   36.53    2.72
  -4  -6   1   37.30    2.75
   3   6  -1   61.92    4.06
  -3  -6   1   63.96    4.39
  -3  -6   1   59.69    4.40
   2   6  -1   62.01    4.27
   2   6  -1   59.01    3.77
  -2  -6   1   54.26    4.04
  -2  -6   1   53.69    4.03
   1   6  -1  164.87   10.98
   1   6  -1  172.93   12.53
  -1  -6   1  189.42   11.94
  -1  -6   1  174.75   11.90
   0   6  -1  129.00    9.44
   0   6  -1  135.17    8.32
  -1   6  -1   91.83    6.57
  -1   6  -1  101.23    5.85
   1  -6   1   78.79    6.19
   1  -6   1   95.56    6.27
  -2   6  -1   40.58    2.85
  -2   6  -1   40.97    3.17
   2  -6   1   45.33    3.05
  -3   6  -1  155.55    9.24
  -3   6  -1  148.73   10.48
   3  -6   1  135.57    9.91
  -4   6  -1   28.55    2.29
  -4   6  -1   26.45    2.05
   4  -6   1   31.01    2.16
  -5   6  -1   94.11    7.05
   5  -6   1  113.88    6.67
   5  -6   1   80.94    6.16
  -6   6  -1    9.41    0.98
   6  -6   1    7.79    0.92
  -7   6  -1   62.02    4.75
   7  -6   1   62.14    4.19
  -8   6  -1   10.44    1.26
   8  -6   1   10.05    1.12
   9  -6   1   67.59    4.62
   9   5  -1   38.23    2.79
   8   5  -1   12.57    1.18
  -8  -5   1   12.93    1.49
   7   5  -1   42.83    2.98
  -7  -5   1   42.86    3.36
   6   5  -1   40.29    2.75
  -6  -5   1   38.93    3.07
   5   5  -1   92.54    6.08
   5   5  -1   77.60    5.31
  -5  -5   1   77.10    5.85
  -5  -5   1   82.31    5.77
   4   5  -1   96.92    6.97
   4   5  -1  100.61    6.13
  -4  -5   1   90.17    6.61
  -4  -5   1   96.43    6.71
   3   5  -1   81.51    6.62
   3   5  -1   89.58    5.82
  -3  -5   1   91.44    6.30
  -3  -5   1  105.29    6.41
   2   5  -1  148.17   11.18
   2   5  -1  159.31    9.78
  -2  -5   1  162.47   10.68
   1   5  -1   63.71    3.71
   1   5  -1   55.87    4.19
  -1  -5   1   58.44    3.98
  -1  -5   1   51.31    3.94
   0   5  -1  103.14    5.72
   0   5  -1   97.35    6.50
   0  -5   1   83.76    6.14
   0  -5   1   78.29    6.11
  -1   5  -1   66.81    4.40
  -1   5  -1   69.63    4.99
   1  -5   1   67.08    4.74
   1  -5   1   70.61    4.70
  -2   5  -1   81.42    6.54
  -2   5  -1   81.55    5.76
   2  -5   1   99.96    6.19
   2  -5   1   99.58    6.23
  -3   5  -1   53.39    3.87
  -3   5  -1   52.07    3.43
  -3   5  -1   52.46    3.61
   3  -5   1   50.65    3.64
  -4   5  -1   74.84    5.53
  -4   5  -1   73.27    5.20
   4  -5   1   78.82    5.21
  -5   5  -1   52.67    3.66
  -5   5  -1   55.42    3.93
   5  -5   1   47.64    3.61
   5  -5   1   52.02    3.45
  -6   5  -1  106.74    8.01
   6  -5   1  113.13    7.03
  -7   5  -1   26.78    2.28
   7  -5   1   27.90    2.03
  -8   5  -1   58.81    4.98
   8  -5   1   73.55    4.45
  -9   5  -1    5.78    0.92
   9  -5   1    5.24    0.84
   9   4  -1   17.50    1.48
  -9  -4   1   16.19    1.72
   8   4  -1   58.21    3.94
  -8  -4   1   58.33    4.43
   7   4  -1    4.97    0.74
   7   4  -1    5.06    0.68
  -7  -4   1    4.75    0.80
   6   4  -1   42.50    3.11
   6   4  -1   39.30    2.73
  -6  -4   1   37.77    3.06
   5   4  -1   56.61    4.18
   5   4  -1   59.69    3.69
  -5  -4   1   52.42    3.96
  -5  -4   1   56.10    4.09
   4   4  -1   93.79    7.23
   4   4  -1  102.42    6.35
  -4  -4   1   98.92    6.98
  -4  -4   1  107.01    6.89
   3   4  -1   53.81    3.49
   3   4  -1   46.71    3.04
  -3  -4   1   39.33    3.26
  -3  -4   1   47.65    3.35
   2   4  -1  120.47    8.57
   2   4  -1  117.43    7.49
  -2  -4   1  131.89    8.20
  -2  -4   1  109.76    8.11
   1   4  -1  106.86    8.08
   1   4  -1  123.94    7.07
  -1  -4   1  108.35    7.64
   0   4  -1  101.08    6.48
   0   4  -1  101.22    7.42
   0  -4   1  116.26    7.04
   0  -4   1   97.16    7.02
  -1   4  -1   67.20    4.45
  -1   4  -1   62.58    5.05
   1  -4   1   79.88    4.77
   1  -4   1   69.33    4.79
  -2   4  -1  128.38    9.37
  -2   4  -1  125.67    8.21
   2  -4   1  140.29    8.87
  -3   4  -1  134.68    8.29
  -3   4  -1  126.42    9.45
  -3   4  -1  142.38    8.98
   3  -4   1  125.82    8.91
  -4   4  -1   63.92    4.65
  -4   4  -1   66.56    4.39
   4  -4   1   57.32    4.33
   4  -4   1   66.07    4.09
  -5   4  -1  102.59    6.97
  -5   4  -1  108.03    7.36
   5  -4   1   87.99    6.84
   5  -4   1  108.90    6.45
  -6   4  -1   56.84    4.52
  -6   4  -1   65.88    4.33
   6  -4   1   58.56    3.95
  -7   4  -1   73.11    5.08
  -7   4  -1   68.20    5.30
   7  -4   1   71.00    4.65
  -8   4  -1   37.50    3.10
   8  -4   1   39.68    2.75
  -9   4  -1   34.90    3.12
   9  -4   1   42.70    2.81
  10  -4   1   16.87    1.54
  10   3  -1   11.45    1.23
   9   3  -1   44.09    3.12
   9   3  -1   44.47    3.56
  -9  -3   1   45.31    3.58
   8   3  -1   19.65    1.58
   8   3  -1   21.28    1.80
  -8  -3   1   19.14    1.82
   7   3  -1   69.20    4.58
   7   3  -1   72.61    5.23
  -7  -3   1   68.09    5.11
   6   3  -1   41.08    2.57
   6   3  -1   35.14    2.87
  -6  -3   1   36.51    2.88
   5   3  -1  166.63    9.62
   5   3  -1  149.17   10.98
  -5  -3   1  142.47   10.58
  -5  -3   1  156.46   10.39
   4   3  -1  115.14    8.01
   4   3  -1  113.95    7.01
  -4  -3   1  106.88    7.59
  -4  -3   1  110.98    7.73
   3   3  -1  138.48    8.12
   3   3  -1  118.96    9.27
  -3  -3   1  141.00    8.93
  -3  -3   1  124.21    8.79
   2   3  -1   68.06    4.29
   2   3  -1   52.79    3.71
  -2  -3   1   63.62    4.09
  -2  -3   1   51.98    4.02
   1   3  -1  126.19    8.36
   1   3  -1  123.38    7.28
  -1  -3   1  116.29    7.89
  -1  -3   1  104.17    7.93
   0   3  -1   14.86    1.09
   0   3  -1   14.74    0.94
   0  -3   1   11.59    0.95
  -1   3  -1   72.99    5.34
  -1   3  -1   78.46    4.69
   1  -3   1   65.08    5.04
   1  -3   1   81.24    5.04
  -2   3  -1  168.46   11.11
  -2   3  -1  158.89   11.69
  -2   3  -1  167.52   10.22
  -3   3  -1  318.76   23.11
  -3   3  -1  342.79   24.25
   3  -3   1  381.69   22.91
   3  -3   1  332.10   21.15
  -4   3  -1  101.08    7.59
  -4   3  -1  109.73    7.24
   4  -3   1  107.12    7.11
   4  -3   1  104.39    6.64
  -5   3  -1   88.99    6.18
  -5   3  -1   86.93    5.90
   5  -3   1   85.30    5.38
   5  -3   1   78.92    5.72
  -6   3  -1  129.25    8.70
  -6   3  -1  124.26    9.06
   6  -3   1  122.66    7.91
  -7   3  -1   30.25    2.34
  -7   3  -1   26.77    2.36
   7  -3   1   30.99    2.11
  -8   3  -1   57.13    4.44
  -8   3  -1   58.68    4.33
   8  -3   1   58.09    3.89
  -9   3  -1   18.57    1.69
  -9   3  -1   16.70    1.69
   9  -3   1   17.23    1.50
  10  -3   1   38.60    2.84
  10   2  -1   24.19    1.92
  10   2  -1   23.03    2.19
 -10  -2   1   26.94    2.33
   9   2  -1    8.26    0.96
   9   2  -1    9.10    1.15
  -9  -2   1   10.19    1.29
   8   2  -1   84.14    5.27
   8   2  -1   80.80    6.02
  -8  -2   1   77.82    5.90
   7   2  -1    8.33    0.88
   7   2  -1    7.80    0.82
  -7  -2   1    7.67    0.99
   6   2  -1   91.65    5.92
   6   2  -1   97.11    6.78
  -6  -2   1   90.70    6.59
   5   2  -1   39.71    2.83
   5   2  -1   36.74    2.47
  -5  -2   1   37.33    2.60
  -5  -2   1   35.66    2.79
   4   2  -1  160.06   11.55
   4   2  -1  160.89   10.08
  -4  -2   1  167.15   11.13
  -4  -2   1  162.81   10.91
   3   2  -1   46.45    3.15
   3   2  -1   44.17    2.76
  -3  -2   1   39.34    2.98
  -3  -2   1   42.31    3.06
   2   2  -1  213.48   13.84
   2   2  -1  232.90   15.88
  -2  -2   1  232.54   15.20
  -2  -2   1  221.99   15.04
   1   2  -1    4.73    0.51
   1   2  -1    6.63    0.45
  -1  -2   1    5.90    0.48
  -1  -2   1    5.98    0.49
   0   2  -1  103.04    7.49
   0   2  -1  103.17    6.51
   0  -2   1  109.93    7.07
  -1   2  -1   64.37    4.34
  -1   2  -1   62.54    4.08
  -1   2  -1   58.08    3.78
   1  -2   1   56.85    4.09
  -2   2  -1  203.70   14.38
  -2   2  -1  207.46   13.70
   2  -2   1  215.22   12.54
   2  -2   1  188.48   13.56
  -3   2  -1  248.14   15.91
  -3   2  -1  251.54   16.66
   3  -2   1  241.66   14.52
   3  -2   1  203.03   15.68
  -4   2  -1  121.73    8.06
  -4   2  -1  111.75    7.72
   4  -2   1  105.10    7.52
   4  -2   1  112.12    7.02
  -5   2  -1   81.38    5.68
  -5   2  -1   78.41    5.47
   5  -2   1   73.74    4.94
  -6   2  -1   47.53    3.51
  -6   2  -1   47.10    3.59
   6  -2   1   47.82    3.15
  -7   2  -1   59.88    4.45
  -7   2  -1   62.00    4.37
   7  -2   1   55.97    3.88
  -8   2  -1   25.59    2.09
  -8   2  -1   21.19    1.99
   8  -2   1   24.88    1.80
  -9   2  -1   30.07    2.76
  -9   2  -1   38.00    2.89
   9  -2   1   35.05    2.49
 -10   2  -1   29.74    2.64
  10  -2   1   29.86    2.30
  10   1  -1    5.51    0.90
  10   1  -1    4.50    0.73
 -10  -1   1    5.08    1.01
   9   1  -1   57.44    3.98
   9   1  -1   55.30    4.56
   9   1  -1   63.79    5.39
  -9  -1   1   63.12    4.58
   8   1  -1    6.35    0.95
   8   1  -1    5.33    0.80
   8   1  -1    5.78    0.71
  -8  -1   1    5.37    0.87
   7   1  -1   87.07    5.85
   7   1  -1   97.64    6.76
   7   1  -1   86.16    7.87
  -7  -1   1   99.00    6.60
   6   1  -1   13.96    1.16
   6   1  -1   16.00    1.35
   6   1  -1   17.70    1.60
  -6  -1   1   16.10    1.41
   5   1  -1  193.12   17.70
   5   1  -1  220.46   13.16
   5   1  -1  232.62   15.11
  -5  -1   1  204.45   14.51
  -5  -1   1  213.31   14.16
   4   1  -1   58.00    4.00
   4   1  -1   57.10    3.49
   4   1  -1   45.95    4.66
  -4  -1   1   56.88    3.70
  -4  -1   1   56.87    3.90
   3   1  -1   94.33    6.15
   3   1  -1   86.09    7.05
   3   1  -1  109.39    8.29
  -3  -1   1  102.03    6.65
  -3  -1   1  104.11    6.81
   2   1  -1  167.26   10.12
   2   1  -1  185.42   11.63
  -2  -1   1  157.75   11.14
  -2  -1   1  148.11   10.99
   1   1  -1  406.28   23.43
  -1  -1   1  405.42   25.66
  -1  -1   1  334.95   25.38
   0   1  -1  145.05    9.17
   0   1  -1  148.77   10.03
   0   1  -1  154.98   10.55
   0  -1   1  148.96   10.03
   0  -1   1  148.88    9.97
  -1   1  -1  348.46   24.59
   1  -1   1  341.23   21.50
   1  -1   1  354.70   23.15
  -2   1  -1  102.64    7.12
  -2   1  -1  104.63    6.82
   2  -1   1   93.84    6.20
  -3   1  -1  373.18   24.34
  -3   1  -1  370.44   25.43
   3  -1   1  341.01   23.99
  -4   1  -1   88.33    6.60
  -4   1  -1   94.79    6.85
   4  -1   1  103.07    6.00
  -5   1  -1   69.16    5.15
  -5   1  -1   71.02    5.30
   5  -1   1   78.06    4.65
  -6   1  -1   49.89    3.63
  -6   1  -1   49.09    3.67
   6  -1   1   47.75    3.23
  -7   1  -1   41.02    3.14
  -7   1  -1   36.97    3.11
   7  -1   1   44.36    2.80
  -8   1  -1   37.04    2.96
  -8   1  -1   36.52    2.98
   8  -1   1   38.07    2.64
  -9   1  -1   36.37    3.14
   9  -1   1   40.53    2.78
 -10   1  -1   30.76    2.61
  10  -1   1   24.47    2.13
  10  -1   1   26.97    2.92
  10  -1   1   32.75    2.55
  10   0  -1   56.54    3.85
  10   0  -1   53.05    4.42
  10   0  -1   58.16    5.22
 -10   0   1   58.84    4.48
   9   0  -1    2.66    0.64
   9   0  -1    2.33    0.48
   9   0  -1    2.78    0.71
  -9   0   1    3.11    0.72
   8   0  -1  102.90    6.27
   8   0  -1   89.13    7.17
  -8   0   1  102.21    7.04
   7   0  -1   11.37    0.91
   7   0  -1   10.96    1.01
   7   0  -1    8.20    1.13
  -7   0   1   10.69    1.08
   6   0  -1  124.84   10.94
   6   0  -1  133.27    9.32
   6   0  -1  137.44    8.14
  -6   0   1  122.57    9.00
   5   0  -1    7.16    0.60
  -5   0   1    6.34    0.77
   4   0  -1  175.35   12.31
  -4   0   1  210.66   14.15
  -4   0   1  203.11   13.59
  -4   0   1  209.44   13.28
   3   0  -1   22.71    1.43
  -3   0   1   21.74    1.63
  -3   0   1   21.36    1.50
  -3   0   1   22.23    1.65
   2   0  -1  146.99    8.02
  -2   0   1  117.69    8.82
  -2   0   1  126.04    8.68
   1   0  -1   56.47    4.09
  -1   0   1   53.91    3.55
  -1   0   1   60.56    3.87
  -1   0   1   60.07    3.92
   0   0  -1  186.80   13.58
   0   0   1  195.57   11.84
   0   0   1  195.86   12.90
  -1   0  -1  184.79   12.96
  -1   0  -1  180.16   12.37
   1   0   1  177.16   11.27
   1   0   1  191.89   12.25
  -2   0  -1  211.78   15.24
  -2   0  -1  224.62   15.04
  -2   0  -1  224.87   15.91
   2   0   1  233.18   13.89
   2   0   1  234.82   15.03
  -3   0  -1   72.63    4.99
  -3   0  -1   71.35    5.13
   3   0   1   70.93    4.51
  -4   0  -1   97.23    7.01
  -4   0  -1   96.61    7.23
   4   0   1  109.81    6.36
  -5   0  -1   25.83    2.04
  -5   0  -1   25.91    2.08
   5   0   1   28.02    1.84
  -6   0  -1   44.41    3.26
  -6   0  -1   43.50    3.23
   6   0   1   40.74    2.85
  -7   0  -1   43.81    3.37
  -7   0  -1   44.40    3.39
   7   0   1   43.56    2.98
  -8   0  -1   49.38    4.00
   8   0   1   55.20    3.56
  -9   0  -1   19.23    1.83
   9   0   1   18.33    1.51
   9   0   1   16.85    1.98
   9   0   1   17.99    1.70
 -10   0  -1   28.32    2.66
  10   0   1   26.09    2.21
  10   0   1   35.43    3.10
  10   0   1   28.57    2.57
  10  -1  -1    2.17    0.55
  10  -1  -1    2.32    0.66
  10  -1  -1    1.83    0.68
 -10   1   1    1.94    0.71
   9  -1  -1  115.40    7.86
   9  -1  -1  103.99    9.19
   9  -1  -1  104.61    6.80
  -9   1   1   98.06    7.59
   8  -1  -1    0.00    0.28
   8  -1  -1    0.00    0.30
   8  -1  -1    0.52    0.41
  -8   1   1    0.61    0.43
   7  -1  -1  129.84    7.91
  -7   1   1  120.66    8.78
  -7   1   1  124.89    9.06
   6  -1  -1   13.41    0.90
  -6   1   1    9.74    0.98
  -6   1   1    9.91    1.03
   5  -1  -1  162.65   11.05
  -5   1   1  185.17   11.88
  -5   1   1  191.12   12.71
  -5   1   1  174.37   12.21
   4  -1  -1   90.12    5.83
  -4   1   1  100.90    6.25
  -4   1   1   87.17    6.69
  -4   1   1   94.37    6.46
   3  -1  -1  275.91   17.90
  -3   1   1  285.52   19.66
  -3   1   1  314.38   20.55
  -3   1   1  290.97   19.42
  -2   1   1   88.52    5.98
  -2   1   1   91.56    6.34
  -2   1   1   87.66    6.08
  -1   1   1  216.61   14.13
  -1   1   1  202.88   13.50
  -1   1   1  188.11   12.30
  -1   1   1  193.25   13.34
   0  -1  -1   81.33    5.45
   0   1   1   79.47    4.95
   0   1   1   78.99    5.36
  -1  -1  -1  124.44    8.47
  -1  -1  -1  129.74    8.78
   1   1   1  123.95    8.33
   1   1   1  121.01    7.70
  -2  -1  -1   24.44    1.76
  -2  -1  -1   23.25    1.77
   2   1   1   24.81    1.65
   2   1   1   23.51    1.58
  -3  -1  -1  257.23   17.72
  -3  -1  -1  261.93   17.41
  -3  -1  -1  268.84   18.44
   3   1   1  258.75   16.13
  -4  -1  -1   32.99    2.40
  -4  -1  -1   31.68    2.15
  -4  -1  -1   32.05    2.35
   4   1   1   29.51    2.09
  -5  -1  -1   98.41    7.01
  -5  -1  -1  102.84    7.19
   5   1   1   98.10    6.31
  -6  -1  -1   46.87    3.51
   6   1   1   45.91    3.08
  -7  -1  -1  124.58    8.97
   7   1   1  128.73    8.05
  -8  -1  -1   29.75    2.43
   8   1   1   27.11    2.29
   8   1   1   26.27    2.68
   8   1   1   28.89    2.07
  -9  -1  -1   53.22    4.00
   9   1   1   53.44    3.95
   9   1   1   47.46    4.55
   9   1   1   46.44    3.42
  10   1   1   14.14    1.40
  10   1   1   10.97    1.60
  10   1   1   10.77    1.23
  10  -2  -1   76.68    5.23
  10  -2  -1   60.82    4.44
  10  -2  -1   63.95    6.04
 -10   2   1   65.44    5.07
   9  -2  -1    4.77    0.68
   9  -2  -1    4.27    0.93
   9  -2  -1    4.10    0.75
  -9   2   1    4.45    0.84
   8  -2  -1   80.71    5.31
  -8   2   1   82.92    6.12
  -8   2   1   83.54    5.98
   7  -2  -1    3.31    0.49
  -7   2   1    3.04    0.58
  -7   2   1    2.90    0.52
   6  -2  -1  105.61    6.50
  -6   2   1   97.68    7.19
  -6   2   1  105.16    7.46
   5  -2  -1    4.62    0.50
  -5   2   1    5.16    0.55
  -5   2   1    4.81    0.63
  -5   2   1    5.24    0.43
   4  -2  -1  313.15   19.02
  -4   2   1  311.62   21.82
  -4   2   1  304.05   20.57
  -4   2   1  308.20   20.88
  -3   2   1   40.40    2.90
  -3   2   1   36.90    2.79
  -3   2   1   41.06    2.71
  -2   2   1  328.03   21.37
  -2   2   1  326.87   22.34
  -2   2   1  305.30   19.50
  -2   2   1  309.49   21.13
   1  -2  -1   36.62    2.58
  -1   2   1   36.79    2.63
  -1   2   1   36.45    2.34
  -1   2   1   36.78    2.52
   0  -2  -1  347.36   22.52
   0   2   1  331.41   23.51
   0   2   1  315.26   20.52
   0   2   1  344.02   22.26
  -1  -2  -1   28.80    1.99
   1   2   1   27.03    1.96
   1   2   1   27.74    1.80
   1   2   1   26.61    1.90
  -2  -2  -1   67.54    4.74
   2   2   1   72.12    4.31
   2   2   1   68.29    4.84
   2   2   1   65.09    5.67
  -3  -2  -1   32.83    2.18
  -3  -2  -1   31.75    2.33
   3   2   1   32.28    2.31
   3   2   1   31.25    2.09
   3   2   1   29.12    2.70
  -4  -2  -1  156.63   10.56
  -4  -2  -1  166.80   10.86
   4   2   1  154.02   11.19
   4   2   1  152.10   13.13
   4   2   1  161.22    9.84
  -5  -2  -1   17.68    1.55
   5   2   1   20.37    1.72
   5   2   1   18.40    1.34
   5   2   1   16.06    1.43
  -6  -2  -1   42.06    3.30
   6   2   1   46.24    3.83
   6   2   1   40.32    3.24
   6   2   1   44.10    2.92
  -7  -2  -1   51.97    4.08
   7   2   1   49.01    4.02
   7   2   1   57.37    3.61
   7   2   1   56.08    4.73
  -8  -2  -1   72.47    5.51
   8   2   1   72.53    4.88
   8   2   1   77.96    5.52
   8   2   1   71.98    6.44
  -9  -2  -1   15.49    1.81
   9   2   1   16.27    1.40
  10  -3  -1    3.20    0.89
  10  -3  -1    2.38    0.68
 -10   3   1    2.03    0.69
   9  -3  -1   59.34    4.14
  -9   3   1   65.70    4.70
   8  -3  -1    0.74    0.35
  -8   3   1    1.13    0.45
  -8   3   1    0.74    0.37
   7  -3  -1  117.24    7.41
  -7   3   1  115.87    8.50
  -7   3   1  118.12    8.19
   6  -3  -1    2.81    0.43
  -6   3   1    4.11    0.55
  -6   3   1    2.81    0.50
   5  -3  -1  175.84   11.52
   5  -3  -1  205.10   12.44
  -5   3   1  178.54   12.65
  -5   3   1  181.86   13.22
   4  -3  -1    4.82    0.51
  -4   3   1    4.37    0.54
  -4   3   1    4.45    0.44
  -4   3   1    4.71    0.52
  -3   3   1  250.81   16.60
  -3   3   1  239.74   16.40
  -3   3   1  248.07   17.36
  -3   3   1  244.34   15.17
  -2   3   1   23.74    1.61
  -2   3   1   23.97    1.73
  -2   3   1   24.47    1.77
  -2   3   1   22.83    1.69
   1  -3  -1  206.87   14.93
  -1   3   1  240.98   15.57
  -1   3   1  214.58   13.64
   0  -3  -1    6.75    0.61
   0   3   1    6.60    0.57
   0   3   1    6.66    0.52
   0   3   1    6.73    0.56
  -1  -3  -1  193.43   12.73
   1   3   1  177.42   13.20
   1   3   1  183.09   11.60
   1   3   1  196.88   12.55
  -2  -3  -1   22.70    1.65
  -2  -3  -1   22.51    1.74
   2   3   1   23.10    1.69
   2   3   1   22.84    1.58
  -3  -3  -1  365.84   23.53
  -3  -3  -1  347.82   23.87
   3   3   1  352.16   21.75
   3   3   1  345.69   24.83
  -4  -3  -1   32.89    2.36
  -4  -3  -1   32.46    2.54
   4   3   1   35.27    2.50
   4   3   1   33.03    2.28
  -5  -3  -1  178.59   11.56
   5   3   1  156.16   11.84
   5   3   1  167.19   10.44
  -6  -3  -1   35.70    2.79
   6   3   1   34.11    2.69
   6   3   1   36.00    2.47
  -7  -3  -1   63.00    4.91
   7   3   1   68.36    4.39
  -8  -3  -1   21.88    2.02
   8   3   1   20.48    1.70
  -9  -3  -1   26.49    2.47
   9   3   1   27.15    2.10
   9  -4  -1    0.75    0.40
  -9   4   1    0.91    0.45
  -9   4   1    0.57    0.48
   8  -4  -1   62.67    4.26
  -8   4   1   67.53    4.74
  -8   4   1   63.13    4.89
   7  -4  -1    2.65    0.47
  -7   4   1    3.12    0.57
  -7   4   1    3.19    0.58
   6  -4  -1  147.59    9.26
  -6   4   1  146.37   10.60
  -6   4   1  148.23   10.14
   5  -4  -1    0.45    0.22
   5  -4  -1    1.03    0.24
  -5   4   1    0.43    0.24
  -5   4   1    0.58    0.26
   4  -4  -1  263.07   19.10
  -4   4   1  284.42   17.69
  -4   4   1  301.72   19.34
  -4   4   1  295.51   20.23
  -3   4   1   -0.04    0.15
  -3   4   1    0.04    0.18
  -3   4   1    0.62    0.22
   2  -4  -1  168.49   11.70
  -2   4   1  167.66   10.73
  -2   4   1  171.37   12.20
  -2   4   1  182.08   11.59
   1  -4  -1   38.22    3.12
  -1   4   1   46.52    3.10
  -1   4   1   46.03    2.90
  -1   4   1   46.40    3.20
   0  -4  -1  319.03   21.59
   0   4   1  324.96   22.47
   0   4   1  314.86   19.72
  -1  -4  -1    3.58    0.48
  -1  -4  -1    3.13    0.42
   1   4   1    3.56    0.34
   1   4   1    4.06    0.47
  -2  -4  -1  155.36   10.36
  -2  -4  -1  166.71   10.54
   2   4   1  154.90    9.61
   2   4   1  140.03   10.86
  -3  -4  -1   12.02    1.09
  -3  -4  -1   11.04    0.96
   3   4   1   13.18    0.99
   3   4   1   11.84    0.98
  -4  -4  -1  198.29   12.89
  -4  -4  -1  184.12   13.14
   4   4   1  191.35   11.96
  -5  -4  -1   14.89    1.42
   5   4   1   15.39    1.24
  -6  -4  -1   77.25    5.82
   6   4   1   83.18    5.26
  -7  -4  -1    7.27    1.08
   7   4   1    8.24    0.94
  -8  -4  -1   45.58    3.72
   8   4   1   46.54    3.26
   9   4   1    9.46    1.15
   9  -5  -1   63.64    4.56
  -9   5   1   73.22    5.28
   8  -5  -1    7.86    0.94
  -8   5   1   10.06    1.15
   7  -5  -1   99.60    6.61
  -7   5   1   98.56    7.53
  -7   5   1  110.49    7.23
   6  -5  -1    1.00    0.35
  -6   5   1    1.09    0.38
  -6   5   1    1.74    0.39
   5  -5  -1  183.15   13.70
  -5   5   1  214.32   14.55
  -5   5   1  215.21   13.89
   4  -5  -1   30.96    2.22
  -4   5   1   29.54    2.24
  -4   5   1   29.28    2.33
  -4   5   1   31.93    2.14
   3  -5  -1  157.71   10.09
   3  -5  -1  146.41   10.17
  -3   5   1  146.15    9.35
  -3   5   1  145.74   10.60
   2  -5  -1    0.20    0.19
   2  -5  -1    0.40    0.19
  -2   5   1    0.79    0.20
  -2   5   1    0.34    0.22
   1  -5  -1  110.55    7.61
  -1   5   1  113.74    7.07
  -1   5   1  111.34    7.94
   0  -5  -1    0.33    0.21
   0  -5  -1    0.18    0.18
   0   5   1    0.73    0.26
   0   5   1    0.44    0.13
  -1  -5  -1  254.48   15.24
  -1  -5  -1  194.33   15.37
   1   5   1  231.53   14.08
  -2  -5  -1    3.69    0.51
  -2  -5  -1    4.61    0.62
   2   5   1    5.02    0.59
  -3  -5  -1  150.90   10.80
  -3  -5  -1  154.11   10.62
   3   5   1  166.36    9.89
  -4  -5  -1    4.71    0.58
  -4  -5  -1    4.31    0.68
   4   5   1    3.73    0.58
  -5  -5  -1   91.49    6.50
   5   5   1   89.87    5.88
  -6  -5  -1    8.07    1.10
   6   5   1    8.99    0.98
  -7  -5  -1   49.32    3.81
   7   5   1   47.47    3.37
  -8  -5  -1    1.40    0.64
   8   5   1    2.35    0.58
   9  -6  -1    3.96    0.74
  -9   6   1    3.94    0.79
   8  -6  -1   71.05    4.60
  -8   6   1   66.12    5.21
   7  -6  -1   11.95    1.10
  -7   6   1   11.20    1.16
   6  -6  -1   94.61    6.03
  -6   6   1   91.59    6.83
   5  -6  -1    0.39    0.27
  -5   6   1    0.73    0.31
  -5   6   1    0.56    0.35
   4  -6  -1  190.41   13.01
  -4   6   1  189.78   13.58
  -4   6   1  191.91   11.98
   3  -6  -1    4.42    0.60
   3  -6  -1    4.73    0.58
  -3   6   1    4.82    0.58
  -3   6   1    5.11    0.65
   2  -6  -1  164.71   11.01
   2  -6  -1  180.79   11.11
  -2   6   1  153.45   10.20
  -2   6   1  151.31   11.52
   1  -6  -1    2.16    0.41
   1  -6  -1    2.12    0.40
  -1   6   1    2.41    0.44
   0  -6  -1  169.00   10.73
   0  -6  -1  143.86   10.80
   0   6   1  161.92    9.95
  -1  -6  -1    0.41    0.27
  -1  -6  -1    0.39    0.28
   1   6   1    0.35    0.29
  -2  -6  -1  145.75    9.60
  -2  -6  -1  132.47    9.45
   2   6   1  138.26    8.78
  -3  -6  -1    0.22    0.29
  -3  -6  -1    0.12    0.25
   3   6   1    0.33    0.30
  -4  -6  -1   93.35    6.25
  -4  -6  -1   87.42    6.38
   4   6   1   87.97    5.84
  -5  -6  -1    0.70    0.43
   5   6   1    1.08    0.40
  -6  -6  -1   62.10    4.63
   6   6   1   60.92    4.18
  -7  -6  -1    1.96    0.69
   7   6   1    1.42    0.55
   8  -7  -1   16.48    1.48
  -8   7   1   15.79    1.57
   7  -7  -1   65.80    4.25
  -7   7   1   59.38    4.74
   6  -7  -1    9.04    1.04
  -6   7   1   10.37    1.05
   5  -7  -1   91.17    6.47
  -5   7   1   91.74    6.07
  -5   7   1   95.58    6.81
   4  -7  -1   11.27    1.00
  -4   7   1    9.13    0.94
  -4   7   1    9.19    1.04
   3  -7  -1  109.81    7.35
  -3   7   1  102.34    6.84
   2  -7  -1    1.38    0.37
  -2   7   1    1.70    0.46
   1  -7  -1  153.30   10.82
   1  -7  -1  186.70   10.93
  -1   7   1  135.92   10.01
   0  -7  -1    2.96    0.54
   0  -7  -1    4.13    0.62
   0   7   1    4.71    0.66
  -1  -7  -1  145.98    9.32
  -1  -7  -1  126.16    9.21
   1   7   1  131.67    8.58
  -2  -7  -1    4.52    0.70
  -2  -7  -1    5.27    0.72
   2   7   1    5.49    0.74
  -3  -7  -1   58.31    4.47
  -3  -7  -1   68.69    4.60
   3   7   1   61.52    4.21
  -4  -7  -1    0.32    0.43
  -4  -7  -1    1.05    0.41
   4   7   1    0.72    0.41
  -5  -7  -1   56.76    4.28
   5   7   1   56.23    3.90
  -6  -7  -1    0.01    0.47
   6   7   1    1.16    0.49
  -8   8   1   35.19    2.96
   7  -8  -1   10.63    1.22
   5  -8  -1   11.26    1.17
  -5   8   1   12.79    1.31
   4  -8  -1   65.52    4.97
  -4   8   1   74.98    4.73
   3  -8  -1    9.83    1.05
  -3   8   1   12.48    1.13
   2  -8  -1  113.57    7.63
  -2   8   1  105.28    7.12
   1  -8  -1    0.56    0.34
  -1   8   1    0.74    0.42
   0  -8  -1   92.22    6.78
   0   8   1  102.71    6.38
  -1  -8  -1    4.18    0.67
   1   8   1    3.39    0.67
  -2  -8  -1   77.45    5.67
   2   8   1   83.15    5.35
  -3  -8  -1    0.73    0.39
  -3  -8  -1    0.43    0.36
   3   8   1    0.16    0.39
  -4  -8  -1   72.73    5.54
  -4  -8  -1   81.43    5.50
   4   8   1   73.85    5.11
  -5  -8  -1    0.29    0.47
   5   8   1    1.17    0.51
  -6  -8  -1   59.77    4.60
   5  -9  -1   72.15    4.85
  -5   9   1   59.43    4.50
   4  -9  -1   13.40    1.31
  -4   9   1   12.87    1.40
   3  -9  -1   51.50    4.28
  -3   9   1   68.55    4.17
   2  -9  -1   18.12    1.68
  -2   9   1   20.87    1.74
   1  -9  -1   52.54    4.17
  -1   9   1   62.48    4.03
   0  -9  -1    9.59    1.12
   0   9   1    8.66    1.13
  -1  -9  -1   66.05    4.78
   1   9   1   65.07    4.51
  -2  -9  -1   10.72    1.27
   2   9   1   12.38    1.33
  -3  -9  -1   44.99    3.40
   3   9   1   42.55    3.19
  -4  -9  -1    0.16    0.42
   4 -10  -1   79.45    5.79
   3 -10  -1   19.58    1.88
  -3  10   1   22.59    1.88
   2 -10  -1   52.88    4.00
   1 -10  -1    2.45    0.61
  -1  10   1    2.90    0.74
   0 -10  -1   52.45    4.03
   0  10   1   54.34    3.86
  -1 -10  -1    5.70    0.92
  -4 -10   2   -0.01    0.51
   3  10  -2   46.36    3.23
  -3 -10   2   42.21    3.49
   2  10  -2    0.52    0.48
  -2 -10   2    1.46    0.59
   1  10  -2   58.02    3.64
  -1 -10   2   43.67    3.78
   0  10  -2    0.25    0.48
   0 -10   2    0.74    0.47
  -1  10  -2   79.89    5.11
   1 -10   2   70.25    5.43
  -2  10  -2    0.54    0.46
   2 -10   2    0.53    0.47
  -3  10  -2   61.49    4.45
   3 -10   2   67.61    4.82
  -4  10  -2   12.97    1.45
   4 -10   2   14.66    1.49
   5   9  -2    0.13    0.46
  -5  -9   2   -0.39    0.43
   4   9  -2   69.69    4.73
  -4  -9   2   70.71    5.19
   3   9  -2    0.33    0.42
  -3  -9   2    0.46    0.45
   2   9  -2   61.34    3.93
  -2  -9   2   52.65    4.20
   1   9  -2    0.00    0.38
  -1  -9   2    1.21    0.50
   0   9  -2   63.49    4.39
   0  -9   2   65.71    4.72
  -1   9  -2    4.17    0.73
   1  -9   2    5.50    0.82
  -2   9  -2  107.75    7.48
   2  -9   2  123.83    8.12
  -3   9  -2    3.91    0.71
   3  -9   2    4.85    0.77
  -4   9  -2   72.01    4.95
  -4   9  -2   73.44    5.57
   4  -9   2   75.56    5.34
  -5   9  -2    4.32    0.79
  -6   9  -2   76.70    5.86
   6  -9   2   75.98    5.15
   7   8  -2   48.17    3.42
   6   8  -2    1.58    0.52
   5   8  -2   65.61    4.51
  -5  -8   2   68.74    4.95
   4   8  -2    0.64    0.39
  -4  -8   2    1.21    0.50
   3   8  -2   86.77    5.46
  -3  -8   2   79.44    5.91
   2   8  -2    0.35    0.33
  -2  -8   2   -0.01    0.34
   1   8  -2   58.38    4.10
  -1  -8   2   64.35    4.46
   0   8  -2    2.39    0.54
   0  -8   2    3.93    0.62
  -1   8  -2  106.92    7.63
  -1   8  -2   97.06    6.73
   1  -8   2  108.84    7.29
  -2   8  -2    7.38    0.93
  -2   8  -2    7.83    0.92
   2  -8   2    8.20    0.93
  -3   8  -2   75.71    5.23
  -3   8  -2   76.80    5.90
   3  -8   2   86.14    5.66
  -4   8  -2    5.65    0.78
  -4   8  -2    5.98    0.83
   4  -8   2    4.35    0.74
  -5   8  -2   73.82    5.03
   5  -8   2   58.34    4.68
   5  -8   2   64.36    4.37
  -6   8  -2    3.55    0.73
   6  -8   2    4.61    0.72
  -7   8  -2   47.90    3.81
   7  -8   2   45.68    3.34
   8   7  -2   40.42    3.01
  -8  -7   2   42.95    3.36
   7   7  -2    4.57    0.75
  -7  -7   2    4.67    0.82
   6   7  -2   90.92    5.84
  -6  -7   2   87.13    6.39
   5   7  -2    7.27    0.88
  -5  -7   2    8.07    1.03
  -5  -7   2    8.86    1.02
   4   7  -2   68.00    4.55
  -4  -7   2   68.86    4.94
  -4  -7   2   70.28    4.98
   3   7  -2    0.81    0.34
  -3  -7   2    0.60    0.30
  -3  -7   2    0.40    0.32
   2   7  -2  158.44   10.74
  -2  -7   2  184.69   11.72
   1   7  -2    0.90    0.33
   1   7  -2    1.07    0.39
  -1  -7   2    0.47    0.29
   0   7  -2  129.19    7.98
   0   7  -2  122.59    9.07
   0  -7   2  124.88    8.62
  -1   7  -2    1.20    0.36
  -1   7  -2    1.48    0.39
   1  -7   2    1.09    0.36
  -2   7  -2  143.02    9.03
  -2   7  -2  143.57   10.29
   2  -7   2  141.33    9.74
  -3   7  -2    0.25    0.28
  -3   7  -2    0.33    0.29
   3  -7   2    0.53    0.29
  -4   7  -2   72.23    5.52
  -4   7  -2   68.94    4.87
   4  -7   2   81.09    5.25
  -5   7  -2    2.48    0.54
   5  -7   2    2.54    0.50
   5  -7   2    2.33    0.50
  -6   7  -2   69.21    5.04
   6  -7   2   62.25    4.40
  -7   7  -2    1.60    0.55
   7  -7   2    0.74    0.43
  -8   7  -2   57.30    4.58
   8  -7   2   58.60    4.02
   8   6  -2    3.65    0.68
  -8  -6   2    2.91    0.71
   7   6  -2   74.18    4.85
  -7  -6   2   71.99    5.35
   6   6  -2    6.59    0.80
  -6  -6   2    6.12    0.89
   5   6  -2   80.19    4.99
  -5  -6   2   71.36    5.45
  -5  -6   2   77.68    5.43
   4   6  -2    5.29    0.74
   4   6  -2    4.40    0.59
  -4  -6   2    5.02    0.71
  -4  -6   2    4.09    0.62
   3   6  -2  105.33    7.34
   3   6  -2  110.78    8.44
  -3  -6   2  124.36    8.03
  -3  -6   2  125.11    8.04
   2   6  -2    5.03    0.70
   2   6  -2    5.30    0.61
  -2  -6   2    5.42    0.67
  -2  -6   2    4.02    0.53
   1   6  -2  164.28   10.48
   1   6  -2  158.64   12.00
  -1  -6   2  178.71   11.36
   0   6  -2    4.54    0.61
   0   6  -2    4.00    0.52
   0  -6   2    4.26    0.39
   0  -6   2    3.11    0.51
  -1   6  -2  207.78   14.10
  -1   6  -2  230.30   16.16
   1  -6   2  242.87   15.31
  -2   6  -2    1.54    0.35
  -2   6  -2    1.38    0.33
   2  -6   2    0.70    0.30
  -3   6  -2  102.90    5.92
  -3   6  -2   96.70    6.72
   3  -6   2   78.03    6.29
  -4   6  -2    0.08    0.27
   4  -6   2    0.47    0.27
  -5   6  -2  104.57    7.57
   5  -6   2  104.94    6.64
   5  -6   2  100.28    7.10
  -6   6  -2    2.43    0.56
   6  -6   2    1.86    0.48
  -7   6  -2   73.75    5.64
   7  -6   2   75.02    4.94
  -8   6  -2    3.14    0.71
   8  -6   2    3.66    0.68
   9   5  -2   16.34    1.39
  -9  -5   2   15.10    1.75
   8   5  -2   33.02    2.36
  -8  -5   2   31.37    2.65
   7   5  -2    7.68    0.83
  -7  -5   2    5.34    0.86
   6   5  -2   74.15    5.16
   6   5  -2   64.01    4.48
  -6  -5   2   67.87    4.98
   5   5  -2   11.90    1.04
   5   5  -2   12.29    1.22
  -5  -5   2   14.97    1.22
  -5  -5   2   13.42    1.21
   4   5  -2   52.47    3.54
   4   5  -2   54.98    4.08
  -4  -5   2   56.40    3.90
  -4  -5   2   53.25    3.90
   3   5  -2    8.75    0.86
   3   5  -2    7.18    0.69
  -3  -5   2    8.71    0.82
  -3  -5   2    7.29    0.75
   2   5  -2  189.05   11.47
   2   5  -2  188.77   13.19
  -2  -5   2  172.53   12.46
  -2  -5   2  187.50   12.52
   1   5  -2    4.96    0.64
   1   5  -2    4.76    0.53
  -1  -5   2    6.03    0.64
  -1  -5   2    4.19    0.45
   0   5  -2  155.46   11.05
   0   5  -2  158.94    9.63
   0  -5   2  136.45   10.39
   0  -5   2  169.85   10.46
  -1   5  -2   16.21    1.28
  -1   5  -2   15.61    1.12
   1  -5   2   14.43    1.03
   1  -5   2   13.29    1.17
  -2   5  -2  146.43   10.69
  -2   5  -2  139.62    9.33
   2  -5   2  143.03   10.05
   2  -5   2  169.37   10.12
  -3   5  -2    9.32    0.80
  -3   5  -2    9.61    0.71
  -3   5  -2    8.00    0.85
   3  -5   2    8.62    0.81
  -4   5  -2  105.47    7.85
   4  -5   2  122.65    7.42
   4  -5   2   96.50    6.84
  -5   5  -2    3.40    0.58
   5  -5   2    4.13    0.56
   5  -5   2    4.70    0.56
  -6   5  -2  186.90   13.12
   6  -5   2  177.53   11.45
  -7   5  -2    3.01    0.62
   7  -5   2    2.76    0.55
  -8   5  -2  100.52    7.40
   8  -5   2   97.42    6.46
  -9   5  -2    0.54    0.48
   9  -5   2    0.00    0.41
   9   4  -2   62.95    4.24
  -9  -4   2   63.41    4.80
   8   4  -2    2.28    0.59
   8   4  -2    3.00    0.55
  -8  -4   2    2.94    0.66
   7   4  -2   95.21    5.86
   7   4  -2   88.32    6.71
  -7  -4   2   88.84    6.49
   6   4  -2   13.56    1.29
   6   4  -2   14.74    1.14
  -6  -4   2   13.88    1.29
   5   4  -2  102.66    6.74
   5   4  -2  121.01    7.78
  -5  -4   2   96.24    7.43
  -5  -4   2  107.79    7.34
   4   4  -2   14.94    1.16
   4   4  -2   15.46    1.34
  -4  -4   2   15.07    1.31
  -4  -4   2   18.02    1.33
   3   4  -2  139.94   10.97
   3   4  -2  149.44    9.55
  -3  -4   2  160.58   10.49
  -3  -4   2  165.61   10.44
   2   4  -2   53.87    3.14
   2   4  -2   47.55    3.61
  -2  -4   2   42.98    3.41
  -2  -4   2   49.34    3.40
   1   4  -2  262.71   17.66
   1   4  -2  240.23   15.34
  -1  -4   2  260.45   16.75
  -1  -4   2  231.54   16.67
   0   4  -2   11.98    0.98
   0   4  -2   12.87    1.17
   0  -4   2   13.63    1.09
   0  -4   2   14.89    0.98
  -1   4  -2  192.44   12.22
  -1   4  -2  193.44   14.03
   1  -4   2  206.40   13.27
  -2   4  -2    4.69    0.58
  -2   4  -2    4.86    0.38
  -2   4  -2    3.67    0.48
   2  -4   2    4.14    0.51
  -3   4  -2  158.48   11.71
  -3   4  -2  163.32   11.08
   3  -4   2  170.34   11.06
  -4   4  -2    9.65    0.93
  -4   4  -2   10.47    0.83
   4  -4   2   10.73    0.85
   4  -4   2    9.32    0.85
  -5   4  -2  133.94    8.94
  -5   4  -2  128.55    9.41
   5  -4   2  128.63    8.22
  -6   4  -2    0.32    0.26
  -6   4  -2   -0.11    0.25
   6  -4   2    0.08    0.24
  -7   4  -2  134.66    9.81
   7  -4   2  135.02    8.57
  -8   4  -2    1.18    0.48
   8  -4   2    2.80    0.54
  -9   4  -2   63.57    4.62
   9  -4   2   54.00    3.99
   9   3  -2   29.95    2.23
   9   3  -2   31.23    2.60
  -9  -3   2   30.67    2.60
   8   3  -2   40.51    3.12
   8   3  -2   53.05    3.68
  -8  -3   2   46.87    3.59
   7   3  -2   30.10    2.28
   7   3  -2   39.15    2.71
  -7  -3   2   31.12    2.61
   6   3  -2  120.33    7.59
   6   3  -2  123.86    8.73
  -6  -3   2  116.96    8.40
   5   3  -2   63.11    4.52
   5   3  -2   62.27    3.93
  -5  -3   2   58.88    4.37
  -5  -3   2   60.23    4.25
   4   3  -2  208.33   15.50
   4   3  -2  252.18   13.52
  -4  -3   2  193.02   14.65
  -4  -3   2  220.72   14.86
   3   3  -2   44.96    2.68
   3   3  -2   40.67    3.08
  -3  -3   2   38.20    2.93
  -3  -3   2   41.76    2.96
   2   3  -2  348.81   25.85
   2   3  -2  360.81   22.50
  -2  -3   2  365.42   24.67
  -2  -3   2  392.01   24.49
   1   3  -2   31.82    2.37
   1   3  -2   31.94    2.01
  -1  -3   2   32.50    2.17
  -1  -3   2   28.10    2.22
   0   3  -2   83.22    5.28
   0   3  -2   86.35    6.11
   0   3  -2   75.32    5.70
   0  -3   2   91.54    5.69
   0  -3   2   86.77    5.77
  -1   3  -2    1.28    0.27
  -1   3  -2    1.17    0.22
   1  -3   2    0.77    0.21
  -2   3  -2  169.22   12.04
  -2   3  -2  164.43   11.40
  -2   3  -2  181.33   10.51
   2  -3   2  163.16   11.37
  -3   3  -2    1.65    0.24
  -3   3  -2    1.00    0.25
   3  -3   2    0.63    0.21
   3  -3   2    0.64    0.21
  -4   3  -2  157.18   11.12
  -4   3  -2  161.00   11.68
   4  -3   2  161.66   10.19
   4  -3   2  173.92   10.98
  -5   3  -2   10.84    1.01
  -5   3  -2   11.23    0.98
   5  -3   2   10.34    0.88
  -6   3  -2  158.98   11.13
  -6   3  -2  150.83   10.64
   6  -3   2  153.52    9.70
  -7   3  -2    1.03    0.39
  -7   3  -2    1.46    0.46
   7  -3   2    1.35    0.39
  -8   3  -2   66.46    4.63
  -8   3  -2   59.96    4.71
   8  -3   2   59.35    4.13
  -9   3  -2   -0.05    0.48
  -9   3  -2    0.60    0.42
   9  -3   2    0.21    0.41
  10   2  -2   30.94    2.56
 -10  -2   2   26.37    2.53
   9   2  -2   28.42    2.29
   9   2  -2   23.23    1.89
  -9  -2   2   26.79    2.28
   8   2  -2   26.34    1.91
   8   2  -2   28.45    2.26
  -8  -2   2   25.11    2.23
   7   2  -2   76.52    4.58
   7   2  -2   68.60    5.26
  -7  -2   2   66.50    5.12
   6   2  -2   96.90    5.97
   6   2  -2   91.74    6.87
  -6  -2   2   94.82    6.67
   5   2  -2  112.86    8.82
   5   2  -2  132.25    7.68
  -5  -2   2  129.66    8.52
  -5  -2   2  118.35    8.28
   4   2  -2  123.29    7.47
   4   2  -2  112.14    8.59
  -4  -2   2  119.62    8.10
  -4  -2   2  126.18    8.27
   3   2  -2  213.01   13.36
   3   2  -2  217.22   15.37
  -3  -2   2  211.70   14.54
  -3  -2   2  227.64   14.71
   2   2  -2  121.71    8.00
  -2  -2   2  112.78    7.62
  -2  -2   2  101.89    7.56
   1   2  -2  989.92   70.14
   1   2  -2 1000.00   60.97
  -1  -2   2  990.78   66.79
   0   2  -2  153.33    9.24
   0   2  -2  147.59   10.07
   0   2  -2  163.61   10.67
   0  -2   2  136.29   10.07
   0  -2   2  149.32   10.07
  -1   2  -2  356.01   25.89
  -1   2  -2  364.33   27.16
  -1   2  -2  411.47   23.66
   1  -2   2  411.92   25.70
  -2   2  -2    4.44    0.40
  -2   2  -2    3.64    0.46
   2  -2   2    3.77    0.37
   2  -2   2    4.74    0.41
  -3   2  -2  332.43   23.36
  -3   2  -2  309.81   22.32
   3  -2   2  339.97   22.03
   3  -2   2  341.98   20.36
  -4   2  -2    4.21    0.60
  -4   2  -2    4.42    0.62
   4  -2   2    6.83    0.46
   4  -2   2    5.45    0.53
  -5   2  -2  127.90    9.43
  -5   2  -2  134.79    9.08
   5  -2   2  131.82    8.25
  -6   2  -2   12.36    1.18
  -6   2  -2   13.60    1.23
   6  -2   2   13.36    1.07
  -7   2  -2   74.63    5.21
  -7   2  -2   67.87    5.30
   7  -2   2   71.79    4.67
  -8   2  -2    1.24    0.52
  -8   2  -2    1.05    0.44
   8  -2   2    2.05    0.49
  -9   2  -2   64.49    5.19
  -9   2  -2   72.52    5.17
   9  -2   2   68.01    4.59
 -10   2  -2    2.16    0.77
  10  -2   2    2.39    0.62
  10   1  -2   16.12    1.65
 -10  -1   2   16.47    1.71
   9   1  -2   48.74    3.40
   9   1  -2   51.00    3.98
  -9  -1   2   53.40    3.98
   8   1  -2   45.51    4.29
   8   1  -2   46.96    3.69
   8   1  -2   47.99    3.19
  -8  -1   2   51.23    3.69
   7   1  -2   62.86    3.67
   7   1  -2   50.42    4.20
   7   1  -2   57.26    4.95
  -7  -1   2   53.54    4.13
   6   1  -2  129.98    8.29
   6   1  -2  115.58    7.17
   6   1  -2  103.62    9.66
  -6  -1   2  108.96    7.98
   5   1  -2  157.83   13.91
   5   1  -2  175.37   11.88
   5   1  -2  159.76   10.31
  -5  -1   2  178.33   11.44
  -5  -1   2  163.38   11.12
   4   1  -2   44.53    3.93
   4   1  -2   53.89    2.92
   4   1  -2   41.10    3.35
  -4  -1   2   45.92    3.27
  -4  -1   2   43.36    3.11
   3   1  -2   32.60    2.26
  -3  -1   2   38.00    2.47
  -3  -1   2   37.56    2.56
   2   1  -2  116.35    7.78
   2   1  -2  105.54    6.73
  -2  -1   2  104.24    7.43
  -2  -1   2  112.42    7.35
   1   1  -2  134.51   10.31
   1   1  -2  147.50    8.93
  -1  -1   2  157.46    9.83
  -1  -1   2  143.58    9.74
   0   1  -2  210.66   16.66
   0   1  -2  268.78   17.51
   0  -1   2  241.68   15.29
   0  -1   2  273.01   16.53
  -1   1  -2  130.99    9.67
  -1   1  -2  129.15    9.23
   1  -1   2  150.53    9.12
   1  -1   2  135.64    8.41
  -2   1  -2  353.02   23.60
   2  -1   2  350.24   21.52
   2  -1   2  348.49   23.37
  -3   1  -2   91.24    6.49
  -3   1  -2   90.67    6.74
   3  -1   2   98.47    6.29
   3  -1   2   95.57    5.90
  -4   1  -2  163.51   12.87
  -4   1  -2  202.55   13.43
   4  -1   2  200.25   11.73
  -5   1  -2   26.71    2.13
  -5   1  -2   25.36    2.11
   5  -1   2   30.09    1.91
  -6   1  -2  150.46   10.48
  -6   1  -2  147.25   10.81
   6  -1   2  154.29    9.47
  -7   1  -2    9.58    1.14
  -7   1  -2    9.09    0.94
   7  -1   2    8.62    0.93
  -8   1  -2   65.06    4.50
  -8   1  -2   56.26    4.45
   8  -1   2   55.91    3.94
  -9   1  -2    1.03    0.46
  -9   1  -2    0.75    0.52
   9  -1   2    0.37    0.40
 -10   1  -2   78.38    5.96
  10  -1   2   77.28    6.01
  10  -1   2   80.08    7.11
  10   0  -2   41.90    3.32
  10   0  -2   36.09    3.80
 -10   0   2   43.77    3.37
   9   0  -2   42.63    2.89
   9   0  -2   42.75    3.93
   9   0  -2   37.17    3.32
  -9   0   2   47.36    3.42
   8   0  -2   69.39    5.80
   8   0  -2   86.23    6.86
   8   0  -2   76.92    5.03
  -8   0   2   81.48    5.73
   7   0  -2   60.17    4.86
   7   0  -2   67.19    5.72
   7   0  -2   71.40    4.24
  -7   0   2   62.70    4.77
   6   0  -2   45.14    3.32
   6   0  -2   44.41    3.89
   6   0  -2   43.14    2.86
  -6   0   2   42.65    3.26
   5   0  -2   83.88    6.72
   5   0  -2   92.50    5.84
   5   0  -2   88.90    7.90
  -5   0   2  105.70    6.27
  -5   0   2   94.42    6.53
   4   0  -2  110.19    8.46
   4   0  -2   93.00    6.23
  -4   0   2   99.75    6.93
  -4   0   2  100.06    6.74
   3   0  -2   34.08    2.30
   3   0  -2   42.08    2.70
   3   0  -2   34.44    3.13
  -3   0   2   36.95    2.60
  -3   0   2   36.34    2.50
   2   0  -2  115.84    7.62
  -2   0   2  133.58    8.31
  -2   0   2  123.98    8.42
   1   0  -2  273.34   20.79
   1   0  -2  292.40   18.05
  -1   0   2  297.71   19.61
  -1   0   2  314.61   19.83
  -1   0   2  296.61   18.07
   0   0  -2  173.35   13.00
   0   0  -2  205.71   13.60
   0   0   2  198.29   11.83
   0   0   2  193.51   12.85
  -1   0  -2  265.67   17.46
  -1   0  -2  222.59   16.72
   1   0   2  251.02   15.24
   1   0   2  252.74   16.55
  -2   0  -2  169.74   11.78
  -2   0  -2  168.00   12.25
   2   0   2  182.52   11.56
  -3   0  -2  138.16   10.20
  -3   0  -2  158.02    9.86
   3   0   2  144.31    9.58
   3   0   2  136.43    8.93
  -4   0  -2   64.13    4.20
  -4   0  -2   55.94    4.23
   4   0   2   56.06    3.75
  -5   0  -2  118.74    8.59
  -5   0  -2  112.73    8.34
   5   0   2  127.51    7.56
  -6   0  -2   98.31    7.12
  -6   0  -2   97.82    6.99
   6   0   2   98.63    6.28
  -7   0  -2  106.50    8.26
  -7   0  -2  126.33    8.48
   7   0   2  115.12    7.44
  -8   0  -2   23.90    2.26
  -8   0  -2   25.58    2.18
   8   0   2   28.86    2.00
  -9   0  -2   86.73    6.15
   9   0   2   80.84    7.24
   9   0   2   81.81    6.15
   9   0   2   78.55    5.40
  10   0   2    7.43    1.13
  10   0   2    8.85    1.41
  10  -1  -2   36.22    2.72
  10  -1  -2   25.36    2.99
 -10   1   2   32.29    2.72
   9  -1  -2   68.60    6.06
   9  -1  -2   66.49    5.17
   9  -1  -2   64.88    4.45
  -9   1   2   72.44    5.14
   8  -1  -2   55.24    3.57
   8  -1  -2   48.49    4.81
  -8   1   2   59.25    4.12
   7  -1  -2   57.40    3.94
   7  -1  -2   50.13    4.60
   7  -1  -2   48.23    3.37
  -7   1   2   51.88    3.86
   6  -1  -2   92.65    5.80
   6  -1  -2   80.92    6.79
   6  -1  -2   73.95    4.99
  -6   1   2   68.46    5.57
   5  -1  -2   77.87    4.79
  -5   1   2   77.17    5.12
  -5   1   2   72.49    5.34
   4  -1  -2   90.79    5.27
  -4   1   2   83.83    5.68
  -4   1   2   78.61    5.85
   3  -1  -2   48.59    2.98
  -3   1   2   44.93    3.33
  -3   1   2   48.72    3.23
   2  -1  -2  117.19    8.99
  -2   1   2  129.80    7.84
  -2   1   2  128.85    8.64
  -2   1   2  133.44    8.51
   1  -1  -2  298.53   21.52
  -1   1   2  285.28   18.69
  -1   1   2  332.33   20.31
   0  -1  -2  155.94   10.56
   0  -1  -2  149.78   10.96
   0   1   2  161.94    9.60
   0   1   2  156.09   10.40
  -1  -1  -2   84.37    5.98
  -1  -1  -2   82.60    5.82
   1   1   2   86.35    5.28
   1   1   2   85.66    5.69
  -2  -1  -2   78.16    5.41
  -2  -1  -2   71.70    5.28
   2   1   2   77.40    4.79
   2   1   2   77.06    5.12
  -3  -1  -2   97.74    6.87
  -3  -1  -2   99.28    7.04
   3   1   2   97.77    6.21
   3   1   2  100.99    6.63
  -4  -1  -2   51.89    3.70
  -4  -1  -2   48.86    3.69
  -4  -1  -2   49.21    3.43
   4   1   2   53.75    3.32
  -5  -1  -2   31.85    2.33
  -5  -1  -2   31.51    2.43
   5   1   2   28.14    2.09
  -6  -1  -2   77.92    5.73
  -6  -1  -2   78.34    5.77
   6   1   2   80.90    5.12
   7   1   2   27.16    2.00
  -8  -1  -2   75.37    5.91
   8   1   2   83.65    5.93
   8   1   2   73.70    6.93
   8   1   2   85.33    5.27
  -9  -1  -2    9.89    1.49
   9   1   2   12.96    1.23
   9   1   2   13.76    1.35
   9   1   2   13.01    1.55
  10  -2  -2   53.67    4.79
  10  -2  -2   46.35    4.04
 -10   2   2   53.46    4.07
   9  -2  -2   21.73    1.63
   9  -2  -2   24.86    1.96
   9  -2  -2   19.49    2.19
  -9   2   2   17.50    1.86
   8  -2  -2   81.30    5.21
   8  -2  -2   71.04    5.99
  -8   2   2   93.65    5.95
   7  -2  -2   29.75    2.02
  -7   2   2   28.34    2.32
   6  -2  -2   66.86    4.30
  -6   2   2   67.05    4.81
  -6   2   2   68.06    4.96
   5  -2  -2   24.10    1.63
  -5   2   2   25.29    1.90
  -5   2   2   24.44    1.70
  -5   2   2   22.45    1.85
   4  -2  -2  150.33    9.67
  -4   2   2  154.31   10.65
  -4   2   2  166.78   10.46
  -4   2   2  153.13   11.10
  -3   2   2  169.07   11.15
  -3   2   2  156.48   10.69
  -3   2   2  145.85   10.52
  -3   2   2  158.52    9.73
  -2   2   2  341.09   24.45
  -2   2   2  328.40   21.34
  -2   2   2  371.19   23.16
  -2   2   2  350.67   23.42
   1  -2  -2  188.51   11.87
   1  -2  -2  162.55   14.45
   1  -2  -2  174.18   12.31
  -1   2   2  192.78   11.71
  -1   2   2  159.01   10.78
   0  -2  -2  232.99   14.75
   0   2   2  195.99   13.40
   0   2   2  225.10   14.53
  -1  -2  -2  192.44   13.49
   1   2   2  210.48   13.28
   1   2   2  192.99   12.28
  -2  -2  -2   40.25    3.05
   2   2   2   41.92    2.75
   2   2   2   44.23    2.91
  -3  -2  -2  141.31    9.60
   3   2   2  136.64    8.69
   3   2   2  140.02    9.33
  -4  -2  -2   63.79    4.27
  -4  -2  -2   57.36    4.00
   4   2   2   56.66    3.81
  -5  -2  -2   72.82    5.04
   5   2   2   73.07    5.92
   5   2   2   69.19    4.50
   5   2   2   63.50    5.01
  -6  -2  -2   54.54    4.11
   6   2   2   52.74    3.63
   6   2   2   56.08    4.76
   6   2   2   54.51    4.04
  -7  -2  -2   59.52    4.67
   7   2   2   66.19    5.42
   7   2   2   60.82    4.13
   7   2   2   60.00    4.60
  -8  -2  -2   19.98    1.89
   8   2   2   17.48    1.53
  -9  -2  -2   37.04    3.24
   9   2   2   38.84    2.79
  10  -3  -2    7.12    1.16
  10  -3  -2   10.36    1.50
 -10   3   2    9.76    1.31
   9  -3  -2   57.12    5.34
  -9   3   2   60.31    4.46
   8  -3  -2    9.80    0.88
  -8   3   2    7.82    1.06
   7  -3  -2   88.63    5.56
  -7   3   2   85.97    6.18
  -7   3   2   86.19    6.40
   6  -3  -2   22.70    1.53
  -6   3   2   20.16    1.75
  -6   3   2   21.38    1.73
   5  -3  -2  122.53    7.85
  -5   3   2  123.08    8.45
  -5   3   2  128.94    9.01
  -5   3   2  128.44    8.66
  -4   3   2   43.48    3.13
  -4   3   2   39.89    2.92
  -4   3   2   43.75    3.04
  -4   3   2   42.28    2.76
  -3   3   2  172.17   11.77
  -3   3   2  170.92   11.60
  -3   3   2  173.16   10.74
  -3   3   2  176.24   12.25
   2  -3  -2  142.22    9.84
  -2   3   2  154.05    9.70
  -2   3   2  144.37   10.20
  -2   3   2  136.53    8.96
   1  -3  -2  322.49   21.68
  -1   3   2  317.92   19.76
  -1   3   2  319.18   21.42
  -1   3   2  325.52   22.56
   0  -3  -2  132.45    9.38
   0   3   2  142.96    9.23
   0   3   2  136.28    8.54
  -1  -3  -2  120.44    8.12
   1   3   2  117.63    7.38
   1   3   2  116.12    7.95
  -2  -3  -2   89.83    6.34
   2   3   2   92.05    6.16
   2   3   2   91.57    6.43
   2   3   2   89.71    5.75
  -3  -3  -2   70.48    5.08
  -3  -3  -2   71.27    4.88
   3   3   2   68.20    5.10
   3   3   2   77.49    4.61
  -4  -3  -2  128.87    8.50
  -4  -3  -2  124.95    8.77
   4   3   2  124.46    7.95
   4   3   2  125.18    8.95
  -5  -3  -2   52.19    3.74
   5   3   2   46.99    3.30
  -6  -3  -2   58.27    4.46
   6   3   2   60.20    3.97
  -7  -3  -2   34.59    2.97
   7   3   2   37.42    2.61
  -8  -3  -2   35.63    2.94
   8   3   2   32.02    2.47
   9   3   2    4.95    0.83
 -10   4   2   36.52    3.05
   9  -4  -2    7.12    1.00
  -9   4   2    7.14    1.04
   8  -4  -2   53.32    3.99
  -8   4   2   63.03    4.64
  -8   4   2   67.36    4.53
   7  -4  -2   14.64    1.08
  -7   4   2   11.47    1.18
  -7   4   2   11.75    1.18
   6  -4  -2  127.43    7.72
   6  -4  -2  138.97    8.30
  -6   4   2  105.00    8.79
  -6   4   2  116.88    8.46
   5  -4  -2    5.61    0.63
  -5   4   2    5.84    0.57
  -5   4   2    6.65    0.66
  -5   4   2    6.08    0.72
  -4   4   2  224.07   14.80
  -4   4   2  214.11   15.64
  -4   4   2  221.42   13.71
  -4   4   2  224.04   15.01
   3  -4  -2   17.88    1.40
  -3   4   2   17.10    1.38
  -3   4   2   16.73    1.28
  -3   4   2   18.90    1.34
   2  -4  -2  153.14   10.27
  -2   4   2  153.81   10.14
  -2   4   2  153.95   10.64
  -2   4   2  140.54    9.38
   1  -4  -2   26.61    2.17
  -1   4   2   31.93    2.14
  -1   4   2   30.64    2.01
  -1   4   2   29.42    2.14
   0  -4  -2  124.33    9.27
   0   4   2  138.68    8.47
   0   4   2  142.60    9.14
  -1  -4  -2   77.42    5.64
   1   4   2   78.97    5.50
   1   4   2   85.42    5.15
  -2  -4  -2   65.36    4.77
   2   4   2   68.80    4.35
  -3  -4  -2   64.87    4.37
  -3  -4  -2   61.30    4.54
   3   4   2   62.24    4.11
  -4  -4  -2   86.91    6.05
  -4  -4  -2   83.99    5.81
   4   4   2   83.39    5.46
  -5  -4  -2   43.51    3.35
   5   4   2   43.53    3.00
  -6  -4  -2   46.64    3.70
   6   4   2   48.28    3.29
  -7  -4  -2   34.00    2.90
   7   4   2   35.38    2.56
  -8  -4  -2   37.48    3.10
   8   4   2   34.27    2.63
   8  -5  -2   16.41    1.36
  -8   5   2   16.21    1.55
   7  -5  -2   98.12    5.87
  -7   5   2   91.97    6.40
  -7   5   2   81.73    6.64
   6  -5  -2   50.25    3.47
  -6   5   2   55.17    3.94
  -6   5   2   50.43    3.78
   5  -5  -2   49.22    3.78
  -5   5   2   54.30    3.59
  -5   5   2   57.36    3.90
  -5   5   2   55.24    4.01
   4  -5  -2   54.04    3.60
  -4   5   2   48.21    3.65
  -4   5   2   44.54    3.45
  -4   5   2   52.37    3.32
   3  -5  -2  107.91    7.06
  -3   5   2  100.33    6.48
  -3   5   2  100.16    7.28
  -3   5   2   99.22    6.94
   2  -5  -2   18.14    1.44
  -2   5   2   18.57    1.40
  -2   5   2   18.11    1.35
  -2   5   2   17.53    1.38
   1  -5  -2   73.79    5.91
  -1   5   2   90.93    5.46
  -1   5   2   88.35    5.85
  -1   5   2   87.65    6.04
   0  -5  -2   15.70    1.33
   0   5   2   17.12    1.24
   0   5   2   15.04    1.25
  -1  -5  -2   98.60    6.21
  -1  -5  -2   82.21    6.29
   1   5   2   89.22    5.78
  -2  -5  -2   52.17    4.05
  -2  -5  -2   57.00    3.95
   2   5   2   59.17    3.73
  -3  -5  -2  124.68    8.63
  -3  -5  -2  130.04    8.44
   3   5   2  115.41    7.84
  -4  -5  -2   30.79    2.51
  -4  -5  -2   31.87    2.34
   4   5   2   31.60    2.27
  -5  -5  -2   42.64    3.27
   5   5   2   40.61    2.91
  -6  -5  -2   29.52    2.53
   6   5   2   29.80    2.23
  -7  -5  -2   41.00    3.21
   7   5   2   36.25    2.78
   8  -6  -2  113.81    7.59
  -8   6   2  121.84    8.69
   7  -6  -2    5.27    0.75
  -7   6   2    4.96    0.77
   6  -6  -2  102.11    7.36
   6  -6  -2  106.74    6.88
  -6   6   2  112.47    7.82
   5  -6  -2   19.82    1.66
   5  -6  -2   23.83    1.79
  -5   6   2   21.85    1.66
  -5   6   2   19.65    1.72
   4  -6  -2   97.77    6.51
   4  -6  -2   91.98    6.43
  -4   6   2   90.56    6.71
  -4   6   2   91.61    6.00
   3  -6  -2   38.66    2.78
   3  -6  -2   37.43    2.78
  -3   6   2   37.41    2.81
  -3   6   2   37.55    2.63
   2  -6  -2   74.62    5.93
   2  -6  -2   97.18    6.05
  -2   6   2   87.53    5.57
   1  -6  -2   24.37    1.92
   1  -6  -2   27.32    1.99
  -1   6   2   24.02    1.83
   0  -6  -2  106.43    7.31
   0  -6  -2  107.21    7.21
   0   6   2  100.49    6.70
  -1  -6  -2   22.09    1.80
  -1  -6  -2   24.69    1.90
   1   6   2   23.52    1.76
  -2  -6  -2   59.41    4.24
  -2  -6  -2   54.51    4.10
   2   6   2   60.70    3.90
  -3  -6  -2   12.85    1.30
  -3  -6  -2   15.36    1.23
   3   6   2   13.28    1.22
  -4  -6  -2   75.07    5.06
  -4  -6  -2   70.75    5.22
   4   6   2   68.11    4.74
  -5  -6  -2    5.97    0.95
   5   6   2    6.24    0.84
  -6  -6  -2   22.78    2.14
   6   6   2   23.30    1.88
  -7  -6  -2   20.66    1.99
   7   6   2   18.68    1.70
   8  -7  -2    3.22    0.68
  -8   7   2    3.87    0.73
   7  -7  -2   93.14    6.40
  -7   7   2  102.77    7.28
   6  -7  -2    5.90    0.76
  -6   7   2    4.50    0.73
   5  -7  -2   69.00    4.94
  -5   7   2   70.11    4.66
   4  -7  -2    2.57    0.51
  -4   7   2    2.03    0.49
   3  -7  -2   91.06    6.45
  -3   7   2   94.26    6.05
   2  -7  -2   22.80    1.84
   2  -7  -2   20.85    1.83
  -2   7   2   26.65    1.83
   1  -7  -2  177.62   11.27
   1  -7  -2  167.06   11.35
  -1   7   2  149.64   10.41
   0  -7  -2   17.15    1.43
   0  -7  -2   16.23    1.39
   0   7   2   15.18    1.36
  -1  -7  -2   90.16    6.54
  -1  -7  -2   86.25    6.42
   1   7   2  102.64    6.08
  -2  -7  -2   61.53    5.04
  -2  -7  -2   74.87    5.01
   2   7   2   75.05    4.73
  -3  -7  -2   83.75    6.25
  -3  -7  -2   92.43    6.15
   3   7   2   84.82    5.74
  -4  -7  -2   17.43    1.67
  -4  -7  -2   19.09    1.58
   4   7   2   16.95    1.53
  -5  -7  -2   39.80    3.28
   5   7   2   42.88    3.02
  -6  -7  -2   12.51    1.55
   6   7   2   12.23    1.36
   7  -8  -2    0.80    0.48
  -6   8   2   76.14    5.16
   5  -8  -2    1.26    0.45
  -5   8   2    0.96    0.49
   4  -8  -2   91.61    6.37
  -4   8   2   88.46    5.95
   3  -8  -2    0.54    0.39
  -3   8   2    0.91    0.45
   2  -8  -2  133.67    9.07
  -2   8   2  128.10    8.46
   1  -8  -2    3.96    0.67
  -1   8   2    5.57    0.82
   0  -8  -2  114.52    8.11
   0   8   2  119.26    7.60
  -1  -8  -2    3.67    0.65
   1   8   2    3.74    0.70
  -2  -8  -2   60.43    4.64
  -2  -8  -2   65.73    4.59
   2   8   2   63.06    4.33
  -3  -8  -2   15.97    1.42
  -3  -8  -2   12.70    1.42
   3   8   2   14.71    1.40
  -4  -8  -2   61.52    4.20
  -4  -8  -2   49.44    3.99
   4   8   2   52.15    3.79
  -5  -8  -2   14.44    1.68
  -6   9   2    0.85    0.53
   5  -9  -2   68.24    5.61
  -5   9   2   92.00    5.41
   4  -9  -2    0.62    0.43
  -4   9   2    0.99    0.51
   3  -9  -2   98.01    6.73
  -3   9   2   90.43    6.28
   2  -9  -2    2.08    0.55
  -2   9   2    1.82    0.62
   1  -9  -2   85.39    6.46
  -1   9   2   98.69    6.15
   0  -9  -2    0.94    0.46
   0   9   2    2.00    0.61
  -1  -9  -2   81.12    5.46
   1   9   2   68.31    5.08
  -2  -9  -2    6.64    0.97
   2   9   2    8.04    1.07
  -3  -9  -2   51.96    3.94
  -2  10   2   77.25    5.35
  -1  10   2    0.94    0.58
  -5 -10   3   25.61    2.33
   4  10  -3   15.64    1.56
  -4 -10   3   20.38    1.85
   3  10  -3   42.32    3.12
  -3 -10   3   43.74    3.46
   2  10  -3   18.79    1.62
  -2 -10   3   17.74    1.78
   1  10  -3   43.97    3.05
  -1 -10   3   38.38    3.25
   0  10  -3   35.03    2.60
   0 -10   3   32.94    2.78
  -1  10  -3   45.73    3.30
  -2  10  -3   26.03    2.25
   2 -10   3   33.81    2.54
  -3  10  -3   42.65    3.26
   3 -10   3   48.54    3.58
  -4  10  -3   37.86    2.88
   4 -10   3   39.21    3.11
   6   9  -3   43.36    3.14
   5   9  -3    8.30    1.03
  -5  -9   3   10.10    1.26
   4   9  -3   70.91    4.68
  -4  -9   3   67.55    5.13
   3   9  -3   25.55    1.96
  -3  -9   3   24.36    2.16
   2   9  -3   55.16    4.06
  -2  -9   3   65.98    4.52
   1   9  -3   21.67    1.62
  -1  -9   3   16.59    1.68
   0   9  -3   29.23    2.18
   0  -9   3   27.69    2.33
  -1   9  -3   40.87    2.88
   1  -9   3   38.95    3.09
  -2   9  -3   22.71    2.01
  -2   9  -3   19.77    1.76
   2  -9   3   25.65    2.00
  -3   9  -3   47.36    3.80
  -3   9  -3   45.71    3.36
   3  -9   3   52.08    3.69
  -4   9  -3   42.44    3.16
  -4   9  -3   47.26    3.60
   4  -9   3   43.50    3.41
  -5   9  -3   35.48    2.98
   5  -9   3   35.15    2.60
  -6   9  -3   27.10    2.46
   6  -9   3   27.39    2.14
   7   8  -3   51.22    3.58
   6   8  -3    5.78    0.82
   5   8  -3   54.58    3.66
  -5  -8   3   52.21    4.02
   4   8  -3   14.33    1.20
  -4  -8   3   11.47    1.38
   3   8  -3   79.87    5.31
  -3  -8   3   82.61    5.84
   2   8  -3   18.51    1.45
  -2  -8   3   16.97    1.59
   1   8  -3   92.84    6.33
   1   8  -3   97.80    7.25
  -1  -8   3  104.26    6.94
   0   8  -3   13.09    1.22
   0   8  -3   16.15    1.44
   0  -8   3   14.23    1.34
  -1   8  -3   96.78    7.22
  -1   8  -3   88.99    6.30
   1  -8   3  108.03    6.90
  -2   8  -3   43.90    2.87
  -2   8  -3   40.78    3.22
   2  -8   3   36.95    3.04
  -3   8  -3   84.86    6.31
  -3   8  -3   87.54    5.54
   3  -8   3   80.82    5.97
  -4   8  -3   42.49    3.34
  -4   8  -3   43.72    2.96
   4  -8   3   39.07    3.14
  -5   8  -3   46.28    3.63
   5  -8   3   44.10    3.15
  -6   8  -3   21.21    2.05
   6  -8   3   22.77    1.79
  -7   8  -3   25.65    2.32
   7  -8   3   24.13    1.99
  -8  -7   3   48.94    3.80
   7   7  -3    3.63    0.66
  -7  -7   3    3.66    0.73
   6   7  -3   84.65    5.60
  -6  -7   3   87.36    6.16
   5   7  -3   11.05    1.07
  -5  -7   3   12.27    1.16
  -5  -7   3   12.63    1.24
   4   7  -3   89.98    5.86
  -4  -7   3   85.78    6.43
  -4  -7   3   96.76    6.40
   3   7  -3   19.74    1.76
   3   7  -3   19.66    1.46
  -3  -7   3   17.34    1.63
   2   7  -3   73.22    5.28
   2   7  -3   68.46    4.57
  -2  -7   3   68.98    5.02
   1   7  -3   10.84    1.16
   1   7  -3   11.16    0.99
  -1  -7   3   12.47    1.14
   0   7  -3   98.12    6.76
   0   7  -3  100.86    7.75
   0  -7   3  120.12    7.41
  -1   7  -3   16.00    1.47
  -1   7  -3   16.02    1.28
  -2   7  -3  124.87    8.15
  -2   7  -3  108.94    7.07
   2  -7   3   99.30    7.63
  -3   7  -3   17.80    1.62
  -3   7  -3   17.18    1.41
   3  -7   3   18.90    1.53
  -4   7  -3  103.46    7.85
   4  -7   3  110.16    7.42
  -5   7  -3   31.33    2.58
   5  -7   3   30.21    2.24
  -6   7  -3   54.73    4.19
   6  -7   3   51.35    3.64
  -7   7  -3   20.18    1.98
   7  -7   3   22.63    1.77
  -8  -6   3    0.57    0.49
   7   6  -3   58.85    3.84
  -7  -6   3   55.29    4.25
   6   6  -3    2.14    0.47
   6   6  -3    1.32    0.49
  -6  -6   3    2.70    0.54
   5   6  -3   60.74    4.60
   5   6  -3   62.95    3.98
  -5  -6   3   57.04    4.35
  -5  -6   3   60.45    4.36
   4   6  -3    1.00    0.32
   4   6  -3    1.88    0.51
  -4  -6   3    0.91    0.39
  -4  -6   3    0.67    0.30
   3   6  -3   91.43    6.44
   3   6  -3   86.90    5.53
  -3  -6   3   75.47    6.04
  -3  -6   3   92.24    6.02
   2   6  -3    8.78    0.96
   2   6  -3    7.36    0.80
  -2  -6   3    9.88    0.77
  -2  -6   3    7.65    0.93
   1   6  -3  133.60    7.91
   1   6  -3  119.20    9.08
  -1  -6   3  120.12    8.61
  -1  -6   3  128.16    8.50
   0   6  -3   12.70    0.99
   0   6  -3   10.91    1.13
   0  -6   3   11.74    1.07
  -1   6  -3  229.73   16.63
  -1   6  -3  236.30   14.48
  -2   6  -3   19.88    1.58
  -2   6  -3   17.85    1.35
   2  -6   3   15.56    1.42
  -3   6  -3  103.93    7.31
  -3   6  -3   94.23    6.35
   3  -6   3  100.26    6.88
  -4   6  -3   31.16    2.37
   4  -6   3   29.13    2.06
   4  -6   3   26.51    2.18
  -5   6  -3   98.80    7.21
   5  -6   3   96.25    6.29
  -6   6  -3    9.19    1.17
   6  -6   3   11.17    1.11
  -7   6  -3   54.54    4.21
   7  -6   3   52.22    3.66
  -8   6  -3   16.21    1.56
   8  -6   3   12.64    1.39
  -9  -5   3    0.58    0.53
   8   5  -3   71.36    4.50
   8   5  -3   61.06    5.14
  -8  -5   3   70.67    5.03
   7   5  -3    0.70    0.42
   7   5  -3    0.68    0.35
  -7  -5   3    0.57    0.41
   6   5  -3   88.46    6.64
   6   5  -3   87.99    5.75
  -6  -5   3   93.20    6.38
   5   5  -3    2.79    0.46
   5   5  -3    3.88    0.62
  -5  -5   3    3.48    0.56
  -5  -5   3    3.14    0.54
   4   5  -3  126.50    8.66
   4   5  -3  128.99    7.50
  -4  -5   3  103.22    8.16
  -4  -5   3  117.67    8.20
   3   5  -3    0.86    0.25
   3   5  -3    1.06    0.38
  -3  -5   3    1.52    0.31
  -3  -5   3    2.67    0.47
   2   5  -3  173.86   10.99
   2   5  -3  164.29   12.68
  -2  -5   3  173.34   11.98
  -2  -5   3  197.62   12.04
   1   5  -3    3.39    0.43
   1   5  -3    3.32    0.55
  -1  -5   3    3.61    0.34
  -1  -5   3    2.83    0.50
   0   5  -3  192.03   11.44
   0   5  -3  175.30   13.14
   0  -5   3  183.87   12.44
  -1   5  -3   24.57    2.04
  -1   5  -3   25.17    1.74
   1  -5   3   25.63    1.93
  -2   5  -3  262.94   16.13
  -2   5  -3  278.76   18.55
   2  -5   3  240.26   17.48
  -3   5  -3    4.44    0.65
   3  -5   3    4.72    0.60
  -4   5  -3   86.01    6.33
   4  -5   3   83.10    5.93
   4  -5   3   89.39    5.54
  -5   5  -3   35.15    2.93
   5  -5   3   39.71    2.60
  -6   5  -3   75.61    5.79
   6  -5   3   79.09    5.06
  -7   5  -3   17.24    1.63
  -8   5  -3   63.37    4.88
   8  -5   3   62.12    4.28
  10   4  -3    0.68    0.54
   9   4  -3   61.27    4.73
  -9  -4   3   59.49    4.59
   8   4  -3    3.21    0.66
   8   4  -3    2.52    0.50
  -8  -4   3    3.17    0.69
   7   4  -3   64.30    4.23
   7   4  -3   72.29    4.96
  -7  -4   3   58.34    4.71
   6   4  -3    1.01    0.30
   6   4  -3    0.56    0.34
  -6  -4   3    0.95    0.36
   5   4  -3  106.44    7.89
   5   4  -3  103.99    6.83
  -5  -4   3  116.59    7.48
  -5  -4   3  107.93    7.55
   4   4  -3    1.21    0.25
   4   4  -3    0.90    0.33
  -4  -4   3    1.29    0.34
  -4  -4   3    0.60    0.25
   3   4  -3  337.61   23.26
   3   4  -3  319.54   20.19
  -3  -4   3  324.96   22.14
  -3  -4   3  331.47   22.01
   2   4  -3   14.02    1.23
   2   4  -3   13.68    0.99
  -2  -4   3   13.18    1.05
  -2  -4   3   14.67    1.17
   1   4  -3  138.61   10.23
   1   4  -3  145.56    8.85
  -1  -4   3  151.79    9.61
  -1  -4   3  131.70    9.66
   0   4  -3    7.10    0.61
   0   4  -3    6.84    0.75
   0  -4   3    7.64    0.72
  -1   4  -3  236.30   14.74
  -1   4  -3  214.79   16.94
   1  -4   3  265.37   16.06
  -2   4  -3   20.11    1.78
  -2   4  -3   21.98    1.52
  -2   4  -3   20.75    1.54
   2  -4   3   26.11    1.72
  -3   4  -3  100.90    6.97
  -3   4  -3  101.60    7.45
   3  -4   3  108.53    6.50
   3  -4   3  100.40    7.01
  -4   4  -3   19.49    1.64
  -4   4  -3   18.37    1.46
   4  -4   3   19.88    1.44
   4  -4   3   20.79    1.49
  -5   4  -3  122.33    8.12
  -5   4  -3  121.15    8.57
   5  -4   3  110.33    7.46
  -6   4  -3   16.91    1.57
   6  -4   3   18.13    1.39
  -7   4  -3   62.77    4.89
   7  -4   3   65.99    4.31
  -8   4  -3    7.98    1.08
   8  -4   3    8.09    0.99
  -9   4  -3   64.70    4.90
   9  -4   3   60.35    4.29
  10   3  -3   38.87    3.25
   9   3  -3    4.26    0.77
  -9  -3   3    3.98    0.80
   8   3  -3   47.02    3.90
   8   3  -3   51.42    3.36
  -8  -3   3   52.93    3.85
   7   3  -3    5.95    0.65
   7   3  -3    6.51    0.83
  -7  -3   3    4.75    0.77
   6   3  -3  144.98    8.84
   6   3  -3  141.70   10.21
  -6  -3   3  137.23    9.79
   5   3  -3    0.13    0.17
   5   3  -3    0.59    0.27
  -5  -3   3    0.19    0.21
  -5  -3   3    0.21    0.22
   4   3  -3  217.09   16.05
   4   3  -3  236.94   13.94
  -4  -3   3  222.34   15.19
  -4  -3   3  227.15   15.35
   3   3  -3   12.50    0.89
   3   3  -3   12.49    1.11
  -3  -3   3   13.20    1.03
  -3  -3   3   12.07    1.04
   2   3  -3  434.98   28.14
   2   3  -3  444.88   32.38
  -2  -3   3  457.56   30.85
  -2  -3   3  500.54   30.65
   1   3  -3    0.81    0.19
   1   3  -3    1.73    0.36
  -1  -3   3    0.99    0.17
  -1  -3   3    1.33    0.29
   0   3  -3  148.48   10.74
   0   3  -3  159.55   10.09
   0   3  -3  151.98    9.29
   0  -3   3  138.72   10.13
  -1   3  -3    0.68    0.11
  -1   3  -3    0.56    0.18
  -1   3  -3    0.57    0.24
   1  -3   3    0.56    0.21
  -2   3  -3  274.46   21.39
  -2   3  -3  331.26   20.35
   2  -3   3  332.35   20.23
   2  -3   3  271.00   18.62
  -3   3  -3    2.91    0.47
  -3   3  -3    4.29    0.42
   3  -3   3    3.21    0.41
   3  -3   3    2.93    0.39
  -4   3  -3  164.48   11.42
  -4   3  -3  160.15   11.97
   4  -3   3  160.27   10.44
   4  -3   3  184.35   11.24
  -5   3  -3    7.67    0.78
  -5   3  -3    6.58    0.77
   5  -3   3    5.55    0.66
  -6   3  -3  116.01    8.32
  -6   3  -3  124.12    8.69
   6  -3   3  117.93    7.59
  -7   3  -3    7.04    0.94
  -7   3  -3    8.47    1.02
   7  -3   3    8.22    0.89
  -8   3  -3   70.99    5.40
  -8   3  -3   69.65    5.21
   8  -3   3   71.91    4.74
  -9   3  -3    4.62    0.84
   9  -3   3    5.27    0.83
  10   2  -3    6.74    1.05
 -10  -2   3    6.12    1.08
   9   2  -3   46.79    3.96
  -9  -2   3   55.40    3.98
   8   2  -3    0.95    0.33
   8   2  -3    0.49    0.37
  -8  -2   3    0.97    0.44
   7   2  -3  129.99    8.54
   7   2  -3  108.58    7.33
  -7  -2   3  112.83    8.20
   6   2  -3   14.14    0.99
   6   2  -3   11.76    1.17
  -6  -2   3   13.24    1.20
   5   2  -3  162.25   12.00
   5   2  -3  169.37   10.40
  -5  -2   3  169.03   11.29
  -5  -2   3  171.72   11.52
   4   2  -3    1.10    0.28
   4   2  -3    0.60    0.16
  -4  -2   3    0.01    0.15
  -4  -2   3    0.17    0.19
   3   2  -3  148.29   11.78
   3   2  -3  171.24   10.21
  -3  -2   3  168.40   11.15
  -3  -2   3  175.38   11.27
   2   2  -3   10.91    0.72
   2   2  -3    9.98    0.91
  -2  -2   3   10.74    0.83
  -2  -2   3   10.06    0.85
   1   2  -3   63.10    3.95
   1   2  -3   56.37    4.62
  -1  -2   3   62.78    4.33
  -1  -2   3   71.65    4.38
   0   2  -3    8.92    0.71
   0   2  -3    9.34    0.67
   0   2  -3    9.44    0.86
   0  -2   3    9.10    0.77
  -1   2  -3  170.44   12.73
   1  -2   3  204.08   11.65
   1  -2   3  192.57   12.65
  -2   2  -3    0.62    0.23
   2  -2   3    0.26    0.15
   2  -2   3    0.06    0.14
  -3   2  -3  195.56   14.01
  -3   2  -3  180.81   13.39
   3  -2   3  209.57   12.22
   3  -2   3  202.66   13.17
  -4   2  -3    0.70    0.27
  -4   2  -3    1.07    0.31
   4  -2   3    1.03    0.17
   4  -2   3    0.87    0.25
  -5   2  -3  137.43    9.69
  -5   2  -3  137.59   10.06
   5  -2   3  145.33    8.81
  -6   2  -3    4.31    0.62
  -6   2  -3    2.88    0.59
   6  -2   3    3.05    0.50
  -7   2  -3   65.70    4.90
  -7   2  -3   63.59    4.79
   7  -2   3   65.37    4.31
  -8   2  -3    1.49    0.50
  -8   2  -3    0.76    0.47
   8  -2   3    0.74    0.42
  -9   2  -3   60.13    4.37
  -9   2  -3   56.00    4.35
   9  -2   3   51.60    3.84
 -10   2  -3    7.92    1.28
  10   1  -3   49.65    4.29
 -10  -1   3   61.03    4.34
   9   1  -3   16.71    1.72
  -9  -1   3   21.61    1.83
   8   1  -3  108.78    5.99
   8   1  -3   78.25    6.86
  -8  -1   3   93.79    6.73
   7   1  -3    5.67    0.63
   7   1  -3    7.65    0.86
  -7  -1   3    6.25    0.87
   6   1  -3  281.64   18.17
   6   1  -3  252.57   15.75
  -6  -1   3  231.74   17.40
   5   1  -3    0.52    0.24
   5   1  -3    0.56    0.17
  -5  -1   3    0.33    0.17
  -5  -1   3    0.96    0.30
   4   1  -3  206.49   14.44
   4   1  -3  241.70   16.66
  -4  -1   3  258.46   15.72
  -4  -1   3  235.32   15.95
   3   1  -3    4.05    0.30
   3   1  -3    3.81    0.42
  -3  -1   3    2.83    0.38
  -3  -1   3    4.06    0.43
   2   1  -3   85.23    5.39
  -2  -1   3   93.21    6.01
  -2  -1   3   85.05    5.94
   1   1  -3    1.79    0.32
  -1  -1   3    2.13    0.30
  -1  -1   3    2.29    0.27
  -1  -1   3    2.34    0.19
   0   1  -3   77.18    5.56
   0   1  -3   79.94    5.87
   0  -1   3   87.16    5.51
   0  -1   3   80.82    5.04
  -1   1  -3    8.45    0.81
  -1   1  -3   10.25    0.87
   1  -1   3   11.15    0.78
   1  -1   3   10.94    0.73
  -2   1  -3  441.53   31.28
  -2   1  -3  481.20   29.94
   2  -1   3  431.57   27.27
   2  -1   3  424.27   29.60
  -3   1  -3    3.28    0.50
  -3   1  -3    4.16    0.45
   3  -1   3    4.01    0.35
   3  -1   3    4.31    0.46
  -4   1  -3  194.94   13.68
  -4   1  -3  162.09   13.13
   4  -1   3  203.04   11.97
   4  -1   3  207.13   12.82
  -5   1  -3    2.20    0.51
  -5   1  -3    3.53    0.50
   5  -1   3    2.54    0.43
  -6   1  -3  175.98   12.70
  -6   1  -3  189.14   12.33
   6  -1   3  168.48   11.12
  -7   1  -3    0.49    0.31
  -7   1  -3    0.32    0.38
   7  -1   3    0.50    0.34
  -8   1  -3   59.41    4.73
  -8   1  -3   69.33    4.79
   8  -1   3   60.41    4.22
  -9   1  -3   -0.06    0.48
  -9   1  -3    0.84    0.46
   9  -1   3    0.04    0.37
  10   0  -3    7.26    1.03
 -10   0   3    5.28    1.03
   9   0  -3   67.59    5.16
  -9   0   3   67.46    5.08
   8   0  -3    4.26    0.80
   8   0  -3    4.51    0.72
   8   0  -3    5.94    0.63
  -8   0   3    5.95    0.88
   7   0  -3  131.92    8.51
   7   0  -3  114.42    7.33
   7   0  -3  106.89    9.91
  -7   0   3  114.73    8.21
   6   0  -3   20.27    1.89
   6   0  -3   17.32    1.59
  -6   0   3   21.66    1.66
   5   0  -3  176.64   15.37
   5   0  -3  214.55   13.14
   5   0  -3  170.06   11.35
  -5   0   3  181.81   12.59
  -5   0   3  179.87   12.31
   4   0  -3    5.90    0.66
   4   0  -3    5.59    0.44
   4   0  -3    4.77    0.56
  -4   0   3    6.23    0.51
  -4   0   3    6.10    0.60
   3   0  -3  178.94   11.84
   3   0  -3  193.12   13.67
  -3   0   3  205.50   12.92
  -3   0   3  195.92   13.10
   2   0  -3   32.57    1.92
   2   0  -3   29.00    1.92
   2   0  -3   32.34    2.30
  -2   0   3   30.14    2.21
  -2   0   3   31.17    2.17
   1   0  -3  354.93   22.04
  -1   0   3  306.92   21.06
  -1   0   3  267.79   19.20
  -1   0   3  321.73   20.84
   0   0  -3    0.80    0.22
   0   0  -3    1.14    0.23
   0   0   3    1.09    0.16
   0   0   3    1.33    0.20
  -1   0  -3  370.07   24.21
   1   0   3  342.69   22.89
   1   0   3  318.78   21.11
  -2   0  -3    6.82    0.73
  -2   0  -3    7.82    0.67
   2   0   3    7.90    0.61
   2   0   3    7.85    0.63
  -3   0  -3  234.28   15.86
  -3   0  -3  197.38   15.24
   3   0   3  231.10   14.94
   3   0   3  232.34   13.88
  -4   0  -3    0.63    0.22
  -4   0  -3    1.42    0.39
   4   0   3    0.26    0.11
   4   0   3    0.15    0.20
  -5   0  -3   47.97    3.75
  -5   0  -3   50.44    3.75
   5   0   3   52.89    3.36
  -6   0  -3    9.18    0.90
  -6   0  -3    8.43    1.10
   6   0   3    9.19    0.94
  -7   0  -3   87.78    6.34
  -7   0  -3   81.01    6.28
   7   0   3   88.47    5.61
  -8   0  -3    0.77    0.40
  -8   0  -3    0.11    0.45
   8   0   3   -0.16    0.33
  -9   0  -3   65.80    4.98
   9   0   3   62.28    4.35
  10  -1  -3   41.41    4.45
  10  -1  -3   58.96    3.98
 -10   1   3   46.45    3.84
   9  -1  -3   29.37    2.81
   9  -1  -3   25.32    2.37
  -9   1   3   30.96    2.48
   8  -1  -3   86.14    5.33
   8  -1  -3   91.86    7.28
   8  -1  -3   72.51    6.15
  -8   1   3   82.27    6.04
   7  -1  -3   13.53    1.38
   7  -1  -3   16.29    1.18
   7  -1  -3   16.19    1.65
  -7   1   3   18.17    1.50
   6  -1  -3   89.41    8.95
   6  -1  -3  111.57    7.68
   6  -1  -3  104.83    6.63
  -6   1   3  115.02    7.13
  -6   1   3  108.17    7.42
   5  -1  -3   28.19    2.12
   5  -1  -3   29.21    1.79
  -5   1   3   24.82    2.07
  -5   1   3   26.09    1.91
   4  -1  -3  146.71    8.77
   4  -1  -3  146.06   11.87
   4  -1  -3  123.99   10.10
  -4   1   3  143.66    9.72
  -4   1   3  149.25    9.53
   3  -1  -3    7.13    0.73
   3  -1  -3    6.70    0.63
   3  -1  -3    6.75    0.50
  -3   1   3    8.00    0.59
  -3   1   3    6.15    0.63
   2  -1  -3  277.30   20.75
  -2   1   3  312.93   19.65
  -2   1   3  289.18   18.07
  -2   1   3  299.96   19.88
   1  -1  -3  131.60    8.71
   1  -1  -3  123.21    9.02
  -1   1   3  121.37    8.56
  -1   1   3  134.37    7.87
   0  -1  -3  338.77   22.54
   0  -1  -3  347.92   21.64
   0   1   3  319.25   21.34
   0   1   3  276.90   19.66
  -1  -1  -3    6.34    0.51
  -1  -1  -3    6.67    0.64
   1   1   3    5.83    0.52
   1   1   3    6.29    0.52
  -2  -1  -3  644.82   40.25
  -2  -1  -3  611.80   42.05
   2   1   3  588.56   39.74
   2   1   3  545.85   36.62
  -3  -1  -3    9.44    0.96
  -3  -1  -3   10.61    0.85
   3   1   3   10.14    0.78
   3   1   3   10.33    0.83
  -4  -1  -3  175.39   12.58
   4   1   3  174.63   11.85
   4   1   3  183.23   11.07
  -5  -1  -3    4.80    0.74
  -5  -1  -3    3.75    0.51
   5   1   3    4.71    0.57
  -6  -1  -3  111.12    7.95
  -6  -1  -3  111.58    7.87
   6   1   3  107.64    7.03
  -7  -1  -3    2.29    0.48
  -7  -1  -3    2.21    0.63
   7   1   3    2.48    0.51
  -8  -1  -3   56.51    4.34
   8   1   3   53.02    3.73
  -9  -1  -3    0.10    0.54
   9   1   3   -0.49    0.38
  10  -2  -3   20.91    2.23
  10  -2  -3   17.91    1.87
 -10   2   3   21.71    2.00
   9  -2  -3   43.31    3.28
   9  -2  -3   37.58    3.76
  -9   2   3   39.16    3.22
   8  -2  -3   24.56    2.72
   8  -2  -3   35.03    2.43
  -8   2   3   26.26    2.33
   7  -2  -3   68.79    6.24
   7  -2  -3   67.61    4.58
   7  -2  -3   80.71    5.36
  -7   2   3   70.23    5.18
   6  -2  -3   47.78    3.24
   6  -2  -3   49.40    3.77
  -6   2   3   48.89    3.68
  -6   2   3   54.29    3.47
   5  -2  -3  156.21    8.66
   5  -2  -3  134.83   11.69
  -5   2   3  132.26    9.35
  -5   2   3  133.76    9.57
   4  -2  -3   38.18    2.38
   4  -2  -3   33.70    3.22
  -4   2   3   37.12    2.58
  -4   2   3   39.09    2.71
   3  -2  -3  276.38   19.29
   3  -2  -3  270.14   22.64
  -3   2   3  262.51   18.25
  -3   2   3  280.02   18.50
  -3   2   3  278.77   16.82
   2  -2  -3    9.71    0.91
   2  -2  -3   12.15    1.08
  -2   2   3   12.91    0.92
  -2   2   3   12.44    0.84
   1  -2  -3  518.45   35.71
   1  -2  -3  540.74   34.11
  -1   2   3  500.93   33.70
  -1   2   3  467.64   31.04
   0  -2  -3   27.89    1.95
   0  -2  -3   29.54    2.06
   0   2   3   26.68    1.93
   0   2   3   25.02    1.80
  -1  -2  -3  181.49   12.86
  -1  -2  -3  190.55   13.24
   1   2   3  200.86   11.69
   1   2   3  181.07   12.61
  -2  -2  -3   15.24    1.28
  -2  -2  -3   15.93    1.11
   2   2   3   13.72    1.10
   2   2   3   13.94    1.11
  -3  -2  -3  183.10   12.83
  -3  -2  -3  193.38   13.20
   3   2   3  178.76   11.63
   3   2   3  191.06   12.52
  -4  -2  -3    1.50    0.28
  -4  -2  -3    2.53    0.51
   4   2   3    1.24    0.23
   4   2   3    1.97    0.36
  -5  -2  -3  130.64    8.96
  -5  -2  -3  122.66    8.82
   5   2   3  121.15    7.93
  -6  -2  -3    3.99    0.78
   6   2   3    4.11    0.61
  -7  -2  -3   97.88    6.78
   7   2   3   86.95    5.97
  -8  -2  -3    0.48    0.57
   8   2   3    0.56    0.43
  10  -3  -3   33.93    3.48
 -10   3   3   37.26    3.03
   9  -3  -3   42.39    4.32
   9  -3  -3   53.49    3.77
  -9   3   3   44.42    3.64
   8  -3  -3   46.50    4.03
   8  -3  -3   38.11    3.36
  -8   3   3   46.24    3.38
   7  -3  -3   40.66    3.38
   7  -3  -3   34.61    2.42
  -7   3   3   32.87    2.75
   6  -3  -3  145.11    9.06
  -6   3   3  146.97    9.77
  -6   3   3  143.10   10.03
   5  -3  -3  150.24    9.00
  -5   3   3  136.59    9.71
  -5   3   3  147.00    9.93
  -4   3   3  143.73    8.57
  -4   3   3  126.87    9.25
  -4   3   3  142.62    9.44
  -3   3   3   29.98    1.98
  -3   3   3   28.54    2.10
  -3   3   3   29.86    2.19
   2  -3  -3  162.87   12.64
   2  -3  -3  185.36   12.22
   2  -3  -3  173.13   14.85
  -2   3   3  197.98   12.04
  -2   3   3  178.90   11.10
   1  -3  -3   52.53    3.72
   1  -3  -3   52.10    3.72
  -1   3   3   51.25    3.61
  -1   3   3   53.50    3.36
   0  -3  -3  154.46   10.72
   0   3   3  163.08   10.53
   0   3   3  151.91    9.74
  -1  -3  -3   18.08    1.48
   1   3   3   18.81    1.36
   1   3   3   17.21    1.31
  -2  -3  -3  132.38    9.27
   2   3   3  134.95    9.03
  -3  -3  -3   21.55    1.85
   3   3   3   22.43    1.64
   3   3   3   23.69    1.67
  -4  -3  -3  138.97    9.83
  -4  -3  -3  140.53    9.51
   4   3   3  143.37    8.91
  -5  -3  -3    3.88    0.71
   5   3   3    3.03    0.54
  -6  -3  -3  111.72    8.13
   6   3   3  115.02    7.32
  -7  -3  -3    6.43    1.08
   7   3   3    8.00    0.95
  -8  -3  -3   63.93    5.04
   8   3   3   65.29    4.44
 -10   4   3   30.07    2.62
   9  -4  -3   21.97    2.29
   9  -4  -3   20.97    1.94
  -9   4   3   19.60    1.88
   8  -4  -3   37.13    3.59
  -8   4   3   39.03    2.99
   7  -4  -3   57.01    3.93
  -7   4   3   64.15    4.42
   6  -4  -3   30.39    2.19
  -6   4   3   30.07    2.49
  -6   4   3   32.55    2.46
  -6   4   3   34.72    2.32
  -5   4   3  202.16   12.98
  -5   4   3  188.40   13.19
  -5   4   3  186.09   13.73
  -5   4   3  194.82   12.02
  -4   4   3   90.45    6.06
  -4   4   3   89.30    6.20
  -4   4   3   84.80    5.64
  -4   4   3   89.80    6.39
   3  -4  -3  206.21   13.52
  -3   4   3  189.10   13.30
  -3   4   3  196.41   12.32
  -3   4   3  200.71   14.00
   2  -4  -3   19.06    1.79
   2  -4  -3   20.35    1.53
   2  -4  -3   21.25    1.62
  -2   4   3   21.50    1.54
  -2   4   3   20.87    1.46
   1  -4  -3  123.84    8.28
   1  -4  -3  121.32    8.44
  -1   4   3  121.19    8.12
  -1   4   3  112.37    7.51
   0  -4  -3   20.21    1.62
   0   4   3   20.37    1.44
   0   4   3   18.85    1.48
  -1  -4  -3  119.58    7.96
   1   4   3  108.76    7.75
   1   4   3  115.27    7.22
  -2  -4  -3   44.72    3.20
   2   4   3   41.20    3.00
   2   4   3   41.93    2.86
  -3  -4  -3  100.70    7.37
   3   4   3  108.49    6.70
  -4  -4  -3   13.62    1.11
  -4  -4  -3   12.66    1.30
   4   4   3   13.59    1.15
  -5  -4  -3  115.73    8.13
   5   4   3  112.71    7.34
  -6  -4  -3   15.10    1.53
   6   4   3   14.19    1.29
  -7  -4  -3   70.17    5.31
   7   4   3   68.92    4.71
   9  -5  -3   50.43    4.38
   9  -5  -3   63.49    5.27
   8  -5  -3   26.91    2.24
   8  -5  -3   24.83    2.61
  -8   5   3   25.41    2.16
   7  -5  -3   54.32    3.78
  -7   5   3   59.53    4.20
   6  -5  -3  102.10    6.00
  -6   5   3   85.35    6.37
  -6   5   3   93.69    6.80
  -6   5   3   92.40    6.56
  -5   5   3   81.85    6.20
  -5   5   3   87.00    5.51
  -5   5   3   88.35    5.88
  -5   5   3   83.94    6.01
   4  -5  -3   87.66    6.29
  -4   5   3   91.09    6.15
  -4   5   3   88.69    5.75
  -4   5   3   89.67    6.45
   3  -5  -3   42.46    3.11
  -3   5   3   41.35    3.03
  -3   5   3   44.47    2.89
  -3   5   3   42.06    3.12
   2  -5  -3   75.55    5.22
  -2   5   3   70.06    5.10
  -2   5   3   76.32    4.78
   1  -5  -3   47.96    4.08
  -1   5   3   60.97    3.78
  -1   5   3   63.52    4.04
   0  -5  -3   72.59    5.60
   0   5   3   84.28    5.49
   0   5   3   80.82    5.13
  -1  -5  -3   60.92    4.33
   1   5   3   60.21    4.17
   1   5   3   57.16    3.92
  -2  -5  -3   94.90    6.44
   2   5   3   85.96    5.82
  -3  -5  -3   56.70    4.06
  -3  -5  -3   58.34    4.27
   3   5   3   57.57    3.86
  -4  -5  -3   93.75    6.20
  -4  -5  -3   82.73    6.41
   4   5   3   90.47    5.84
  -5  -5  -3    9.94    1.23
   5   5   3    8.30    1.00
  -6  -5  -3   55.34    4.26
   6   5   3   53.90    3.78
  -7  -5  -3    6.34    1.10
   7   5   3    5.29    0.86
   9  -6  -3   16.29    1.90
   9  -6  -3   14.34    1.56
   8  -6  -3   39.86    3.17
   8  -6  -3   37.92    3.72
   7  -6  -3   33.81    2.45
   6  -6  -3   78.10    5.50
   6  -6  -3   72.49    5.32
  -6   6   3   76.93    5.61
   5  -6  -3   40.13    2.76
   5  -6  -3   39.52    2.86
  -5   6   3   33.28    2.81
  -5   6   3   35.06    2.59
   4  -6  -3   74.11    5.15
  -4   6   3   68.75    5.03
  -4   6   3   73.94    4.76
   3  -6  -3   64.83    4.72
  -3   6   3   70.91    4.40
  -3   6   3   63.40    4.63
   2  -6  -3   34.81    2.83
  -2   6   3   40.67    2.67
  -2   6   3   38.99    2.79
   1  -6  -3   69.84    5.05
  -1   6   3   70.33    4.94
  -1   6   3   71.83    4.65
   0  -6  -3   59.52    4.16
   0   6   3   54.05    3.80
  -1  -6  -3  128.65    8.65
  -1  -6  -3  114.33    8.45
   1   6   3  128.90    7.92
  -2  -6  -3   39.61    3.18
  -2  -6  -3   44.04    3.09
   2   6   3   41.81    2.94
  -3  -6  -3   93.57    6.67
  -3  -6  -3   94.97    6.88
   3   6   3  100.02    6.28
  -4  -6  -3   34.67    2.61
  -4  -6  -3   32.32    2.77
   4   6   3   36.05    2.54
  -5  -6  -3   66.75    4.76
   5   6   3   58.35    4.24
  -6  -6  -3   12.63    1.54
   6   6   3   10.66    1.29
   7  -7  -3   44.29    3.13
   6  -7  -3   28.38    2.21
  -6   7   3   26.80    2.14
   5  -7  -3   70.63    4.57
  -5   7   3   54.95    4.23
   4  -7  -3   15.72    1.41
  -4   7   3   16.79    1.42
   3  -7  -3   64.89    4.88
   3  -7  -3   74.93    4.88
  -3   7   3   64.09    4.54
   2  -7  -3   33.17    2.91
   2  -7  -3   43.34    2.95
  -2   7   3   41.13    2.79
   1  -7  -3   79.76    5.49
   1  -7  -3   68.10    5.37
  -1   7   3   83.07    5.09
   0  -7  -3   52.98    3.99
   0  -7  -3   54.20    3.91
   0   7   3   54.53    3.70
  -1  -7  -3   67.71    5.21
  -1  -7  -3   81.41    5.40
   1   7   3   73.57    4.93
  -2  -7  -3   52.85    3.68
  -2  -7  -3   48.57    3.77
   2   7   3   47.86    3.47
  -3  -7  -3   27.33    2.36
  -3  -7  -3   30.18    2.25
   3   7   3   26.29    2.15
  -4  -7  -3   55.59    4.10
   4   7   3   50.38    3.70
  -5  -7  -3   10.22    1.37
   5   7   3    9.75    1.20
   6  -8  -3   70.70    5.11
  -6   8   3   70.41    4.83
   5  -8  -3   32.07    2.35
  -5   8   3   24.89    2.21
   4  -8  -3   63.71    4.81
  -4   8   3   70.12    4.57
   3  -8  -3   39.59    3.03
  -3   8   3   39.46    2.89
   2  -8  -3   38.86    2.86
  -2   8   3   34.45    2.71
   1  -8  -3   56.95    4.16
  -1   8   3   56.49    3.94
   0  -8  -3   48.03    3.64
   0   8   3   50.39    3.49
  -1  -8  -3   28.81    2.53
  -1  -8  -3   36.31    2.67
   1   8   3   33.99    2.51
  -2  -8  -3   31.92    2.56
  -2  -8  -3   28.30    2.42
   2   8   3   32.49    2.40
  -3  -8  -3   19.33    1.82
  -3  -8  -3   19.67    1.72
   3   8   3   17.39    1.65
  -4  -8  -3   17.34    1.74
  -6   9   3   14.45    1.57
   5  -9  -3   35.23    3.00
  -5   9   3   42.14    2.94
   4  -9  -3   24.78    2.13
  -4   9   3   24.67    2.05
   3  -9  -3   69.96    4.97
  -3   9   3   64.80    4.67
   2  -9  -3   39.63    3.02
  -2   9   3   36.86    2.91
   1  -9  -3   45.06    3.46
  -1   9   3   45.36    3.34
   0  -9  -3   27.23    2.22
   0   9   3   24.85    2.15
  -1  -9  -3   24.34    2.20
   1   9   3   29.66    2.24
  -2  -9  -3   26.43    2.25
  -3  -9  -3   25.90    2.22
   1  11  -4   60.84    4.28
   0  11  -4    6.56    1.00
   5  10  -4   12.88    1.34
  -5 -10   4   11.72    1.49
   4  10  -4   45.27    3.32
  -4 -10   4   48.10    3.70
   3  10  -4   19.51    1.73
  -3 -10   4   22.74    2.00
   2  10  -4   33.02    2.51
   1  10  -4    5.67    0.89
  -1 -10   4    5.58    0.96
   0  10  -4   58.84    3.76
   0 -10   4   47.49    4.00
  -1  10  -4    4.36    0.79
   1 -10   4    5.01    0.90
  -2  10  -4   30.52    2.35
  -3  10  -4    1.02    0.49
   3 -10   4    1.31    0.61
  -4  10  -4   47.16    4.02
   4 -10   4   52.35    3.86
  -5  10  -4    4.75    0.96
   6   9  -4   20.33    1.71
   5   9  -4   35.03    2.53
  -5  -9   4   33.02    2.78
   4   9  -4   22.54    1.75
  -4  -9   4   20.32    1.95
   3   9  -4   73.02    5.04
  -3  -9   4   79.76    5.59
   2   9  -4   26.94    2.01
  -2  -9   4   25.41    2.23
   1   9  -4   57.36    3.61
  -1  -9   4   46.24    3.87
   0   9  -4   10.64    1.18
   0   9  -4   12.70    1.29
   0  -9   4   11.06    1.33
  -1   9  -4   56.56    4.54
  -1   9  -4   55.72    3.96
   1  -9   4   63.26    4.38
  -2   9  -4   16.46    1.29
  -2   9  -4   12.99    1.39
   2  -9   4   10.39    1.35
  -3   9  -4   42.98    3.16
  -3   9  -4   49.11    3.69
   3  -9   4   43.26    3.43
  -4   9  -4   10.91    1.36
   4  -9   4    9.62    1.21
  -5   9  -4   50.32    4.12
   5  -9   4   51.39    3.57
  -6   9  -4    8.50    1.27
   6   8  -4   29.40    2.19
   5   8  -4   27.44    2.06
  -5  -8   4   27.76    2.31
   4   8  -4   57.18    4.02
  -4  -8   4   64.06    4.50
   3   8  -4   33.15    2.52
  -3  -8   4   40.05    2.90
   2   8  -4   36.01    2.98
   2   8  -4   39.92    2.61
  -2  -8   4   33.43    2.84
   1   8  -4   25.13    2.10
   1   8  -4   23.78    1.80
  -1  -8   4   21.95    1.97
   0   8  -4   64.74    5.14
   0   8  -4   65.68    4.47
   0  -8   4   72.99    4.94
  -1   8  -4   30.67    2.61
  -1   8  -4   31.34    2.26
   1  -8   4   31.80    2.50
  -2   8  -4   54.12    3.53
  -2   8  -4   48.43    4.02
   2  -8   4   52.09    3.83
  -3   8  -4   24.96    1.79
  -3   8  -4   22.84    2.06
   3  -8   4   20.48    1.89
  -4   8  -4   89.89    6.34
   4  -8   4   87.71    5.48
   4  -8   4   73.61    5.88
  -5   8  -4   13.94    1.46
   5  -8   4   13.07    1.23
  -6   8  -4   50.22    4.00
   6  -8   4   48.10    3.45
  -8  -7   4   26.44    2.26
  -7  -7   4   23.25    1.99
   6   7  -4   49.53    3.26
  -6  -7   4   45.70    3.55
   5   7  -4   20.45    1.60
   5   7  -4   20.90    1.96
  -5  -7   4   21.52    1.82
  -5  -7   4   22.02    1.75
   4   7  -4   37.56    3.03
   4   7  -4   34.16    2.50
  -4  -7   4   38.25    2.84
   3   7  -4   49.69    3.73
   3   7  -4   44.78    3.11
  -3  -7   4   45.50    3.48
   2   7  -4   29.35    2.39
   2   7  -4   26.80    1.99
  -2  -7   4   28.25    2.25
   1   7  -4   57.48    4.08
   1   7  -4   68.12    4.78
  -1  -7   4   62.48    4.52
   0   7  -4   61.41    3.72
   0   7  -4   55.69    4.29
   0  -7   4   50.15    4.03
  -1   7  -4   66.45    4.27
  -1   7  -4   64.18    4.94
   1  -7   4   64.40    4.67
  -2   7  -4   42.36    3.55
  -2   7  -4   45.18    3.06
   2  -7   4   47.81    3.37
  -3   7  -4   77.01    5.54
  -3   7  -4   74.60    4.79
   3  -7   4   67.64    5.16
  -4   7  -4   49.27    3.87
   4  -7   4   47.36    3.31
   4  -7   4   50.19    3.60
  -5   7  -4   80.01    6.12
   5  -7   4   81.67    5.32
  -6   7  -4   25.39    2.35
   6  -7   4   27.68    2.05
  -7   7  -4   52.71    4.23
  -9  -6   4   19.49    1.88
  -8  -6   4   44.29    3.44
   7   6  -4   48.55    4.01
  -7  -6   4   52.72    3.82
   6   6  -4   26.78    2.45
   6   6  -4   29.16    2.07
  -6  -6   4   29.58    2.31
  -6  -6   4   30.85    2.33
   5   6  -4   35.77    2.49
   5   6  -4   34.22    2.96
  -5  -6   4   38.77    2.80
  -5  -6   4   37.50    2.75
   4   6  -4   29.14    2.27
   4   6  -4   25.62    1.83
  -4  -6   4   24.52    1.97
  -4  -6   4   25.96    2.08
   3   6  -4   69.87    4.95
   3   6  -4   61.87    4.16
  -3  -6   4   65.98    4.50
  -3  -6   4   60.68    4.60
   2   6  -4   47.16    3.03
   2   6  -4   41.52    3.56
  -2  -6   4   50.04    3.20
  -2  -6   4   41.82    3.35
   1   6  -4   64.86    5.14
   1   6  -4   66.57    4.43
  -1  -6   4   75.44    4.92
   0   6  -4  131.21    9.09
   0   6  -4  124.94    7.84
   0  -6   4  117.59    8.56
  -1   6  -4   98.33    6.58
  -1   6  -4  109.67    7.65
   1  -6   4  104.09    7.20
  -2   6  -4   97.28    7.19
  -2   6  -4   89.08    6.19
   2  -6   4  106.47    6.79
  -3   6  -4   46.31    3.40
   3  -6   4   39.64    3.12
   3  -6   4   43.23    2.89
  -4   6  -4   67.93    5.36
   4  -6   4   72.06    5.00
   4  -6   4   73.20    4.66
  -5   6  -4   16.46    1.56
   5  -6   4   16.63    1.37
  -6   6  -4   51.99    4.19
   6  -6   4   55.00    3.66
  -7   6  -4   21.26    1.91
   7  -6   4   18.97    1.64
  -8   6  -4   42.18    3.57
   8  -6   4   44.34    3.15
   9   5  -4    9.72    1.33
  -9  -5   4   11.26    1.38
   8   5  -4   57.76    4.75
  -8  -5   4   65.85    4.63
   7   5  -4   21.84    1.67
   7   5  -4   24.93    2.07
  -7  -5   4   22.66    1.94
   6   5  -4   63.26    5.17
   6   5  -4   69.61    4.44
  -6  -5   4   71.85    4.96
  -6  -5   4   70.18    4.90
   5   5  -4   46.38    2.86
   5   5  -4   41.64    3.37
  -5  -5   4   41.72    3.16
  -5  -5   4   41.88    3.16
   4   5  -4  102.02    7.06
   4   5  -4   96.74    6.03
  -4  -5   4   89.65    6.62
  -4  -5   4   94.52    6.62
   3   5  -4   74.71    4.82
   3   5  -4   71.84    5.66
  -3  -5   4   75.14    5.26
  -3  -5   4   83.20    5.37
   2   5  -4   92.94    6.22
   2   5  -4   93.12    7.27
  -2  -5   4  117.00    6.92
  -2  -5   4   96.48    6.75
   1   5  -4   74.43    5.58
   1   5  -4   77.15    4.78
  -1  -5   4   75.71    5.09
  -1  -5   4   72.39    5.26
   0   5  -4   71.54    4.70
   0   5  -4   80.64    5.51
   0  -5   4   70.29    5.17
  -1   5  -4   92.82    5.58
  -1   5  -4   89.96    6.47
   1  -5   4   80.40    6.06
  -2   5  -4   31.97    2.24
  -2   5  -4   29.86    2.60
   2  -5   4   37.03    2.47
  -3   5  -4   47.18    3.69
   3  -5   4   47.12    3.43
   3  -5   4   50.09    3.20
  -4   5  -4   40.90    3.34
   4  -5   4   44.81    3.09
   4  -5   4   43.00    2.91
  -5   5  -4   68.81    5.10
   5  -5   4   66.26    4.43
  -6   5  -4   26.49    2.20
   6  -5   4   24.51    1.90
  -7   5  -4   49.70    3.88
   7  -5   4   47.59    3.37
  -8   5  -4   22.46    2.12
   8  -5   4   23.63    1.88
  10   4  -4    4.80    0.95
   9   4  -4   50.71    3.93
  -9  -4   4   46.35    3.78
   8   4  -4   13.84    1.41
  -8  -4   4   12.87    1.34
   7   4  -4   93.47    6.69
   7   4  -4   88.98    5.71
  -7  -4   4   86.39    6.38
   6   4  -4   13.24    0.97
   6   4  -4   10.59    1.17
  -6  -4   4   11.81    1.12
  -6  -4   4   11.86    1.08
   5   4  -4   80.29    6.47
   5   4  -4   88.33    5.56
  -5  -4   4   97.49    6.15
  -5  -4   4   87.27    6.17
   4   4  -4   69.90    4.54
   4   4  -4   56.43    3.81
  -4  -4   4   56.16    4.23
  -4  -4   4   59.46    4.23
   3   4  -4  274.28   18.41
   3   4  -4  262.37   15.92
  -3  -4   4  250.41   17.46
  -3  -4   4  247.56   17.38
   2   4  -4  246.76   19.89
   2   4  -4  279.93   17.24
  -2  -4   4  280.28   18.87
  -2  -4   4  314.49   18.85
   1   4  -4  303.60   19.66
  -1  -4   4  345.99   21.45
  -1  -4   4  311.73   21.47
   0   4  -4  161.19    9.69
   0   4  -4  151.28   11.20
   0  -4   4  155.35   10.58
  -1   4  -4   78.96    6.27
  -1   4  -4   87.67    5.42
   1  -4   4   90.39    5.92
  -2   4  -4  111.36    7.61
  -2   4  -4  114.62    8.19
   2  -4   4  116.39    7.09
   2  -4   4  109.79    7.69
  -3   4  -4   30.48    2.12
  -3   4  -4   27.63    2.36
   3  -4   4   28.53    2.04
   3  -4   4   32.33    2.19
  -4   4  -4   57.18    4.27
  -4   4  -4   60.08    3.97
   4  -4   4   55.50    3.69
   4  -4   4   53.51    3.92
  -5   4  -4   68.36    4.98
   5  -4   4   64.18    4.33
  -6   4  -4   42.59    3.37
   6  -4   4   42.89    2.95
  -7   4  -4   32.41    2.81
   7  -4   4   36.35    2.50
  -8   4  -4   56.19    4.38
   8  -4   4   55.06    3.82
  10   3  -4   46.95    3.99
 -10  -3   4   51.62    3.92
   9   3  -4    5.30    0.91
  -9  -3   4    6.60    0.99
   8   3  -4   64.94    4.97
  -8  -3   4   64.65    4.80
   7   3  -4   10.62    0.86
   7   3  -4    8.61    1.12
  -7  -3   4   11.20    1.21
   6   3  -4  139.55   10.35
   6   3  -4  150.02    8.92
  -6  -3   4  137.89    9.70
  -6  -3   4  145.03    9.92
   5   3  -4    7.35    0.60
   5   3  -4    7.76    0.82
  -5  -3   4    7.02    0.76
  -5  -3   4    7.22    0.71
   4   3  -4  132.39    9.22
   4   3  -4  134.77    7.93
  -4  -3   4  112.08    8.68
  -4  -3   4  132.57    8.79
   3   3  -4   43.60    3.18
   3   3  -4   41.39    2.65
  -3  -3   4   39.34    2.95
  -3  -3   4   43.16    2.99
   2   3  -4  224.43   16.68
   2   3  -4  233.53   14.42
  -2  -3   4  234.64   15.77
  -2  -3   4  245.38   15.83
   1   3  -4   57.16    3.45
   1   3  -4   50.62    4.07
  -1  -3   4   58.40    3.75
  -1  -3   4   50.94    3.82
   0   3  -4  166.85   11.41
   0   3  -4  167.34    9.84
   0   3  -4  141.00   10.72
   0  -3   4  164.07   10.75
  -1   3  -4   42.63    3.11
  -1   3  -4   36.94    2.80
   1  -3   4   39.11    2.86
   1  -3   4   45.00    2.63
  -2   3  -4  122.01    8.27
   2  -3   4  112.93    7.14
   2  -3   4  108.91    7.73
  -3   3  -4   64.59    5.14
  -3   3  -4   79.90    5.48
   3  -3   4   77.07    5.08
   3  -3   4   77.45    4.74
  -4   3  -4  138.17    9.72
  -4   3  -4  130.42    9.26
   4  -3   4  126.47    9.05
   4  -3   4  146.13    8.48
  -5   3  -4   89.46    5.96
  -5   3  -4   78.22    6.18
   5  -3   4   85.32    5.42
  -6   3  -4   77.40    5.44
  -6   3  -4   78.24    5.66
   6  -3   4   71.53    4.93
  -7   3  -4   42.88    3.51
  -7   3  -4   46.70    3.43
   7  -3   4   44.76    3.10
  -8   3  -4   18.24    1.76
   8  -3   4   20.05    1.63
  -9   3  -4   52.80    4.17
   9  -3   4   51.48    3.68
  10   2  -4    1.52    0.59
 -10  -2   4    2.13    0.70
   9   2  -4   55.49    4.59
  -9  -2   4   63.90    4.54
   8   2  -4    6.78    0.94
  -8  -2   4    7.01    0.96
   7   2  -4   70.04    5.49
  -7  -2   4   77.93    5.35
   6   2  -4   15.45    1.36
   6   2  -4   14.83    1.09
  -6  -2   4   15.04    1.34
  -6  -2   4   15.32    1.19
   5   2  -4  127.39   10.26
  -5  -2   4  148.50    9.68
  -5  -2   4  154.07    9.87
   4   2  -4    9.55    0.89
   4   2  -4    9.21    0.65
  -4  -2   4    8.83    0.79
  -4  -2   4    9.14    0.84
   3   2  -4  234.63   16.45
   3   2  -4  257.52   14.22
  -3  -2   4  227.63   15.68
  -3  -2   4  205.95   15.52
   2   2  -4   30.47    1.94
   2   2  -4   32.63    2.39
  -2  -2   4   29.80    2.19
  -2  -2   4   31.05    2.22
   1   2  -4  158.67   11.64
   1   2  -4  164.98   10.03
  -1  -2   4  168.72   11.03
  -1  -2   4  159.98   10.97
   0   2  -4   31.29    2.27
   0   2  -4   27.62    2.05
   0  -2   4   28.26    2.06
   0  -2   4   29.50    1.86
  -1   2  -4  259.49   17.79
   1  -2   4  253.29   16.75
   1  -2   4  240.17   15.42
  -2   2  -4   29.22    2.08
   2  -2   4   24.69    1.75
   2  -2   4   25.95    1.87
  -3   2  -4  123.00    9.21
   3  -2   4  131.09    8.03
   3  -2   4  130.95    8.62
  -4   2  -4   87.92    6.53
  -4   2  -4   93.79    6.78
   4  -2   4   95.41    6.29
   4  -2   4   95.86    5.94
  -5   2  -4  274.63   20.10
  -5   2  -4  292.37   19.32
  -6   2  -4   40.26    3.35
  -6   2  -4   49.92    3.39
   6  -2   4   42.49    2.98
  -7   2  -4   75.02    5.36
  -7   2  -4   71.41    5.43
   7  -2   4   71.45    4.80
  -8   2  -4   47.10    3.66
  -8   2  -4   45.55    3.63
   8  -2   4   45.59    3.25
  -9   2  -4   35.88    3.01
  -9   2  -4   35.76    2.96
   9  -2   4   34.71    2.66
  10   1  -4   45.35    4.02
 -10  -1   4   58.13    4.10
   9   1  -4    4.23    0.77
  -9  -1   4    3.18    0.76
   8   1  -4   78.72    5.97
  -8  -1   4   81.15    5.83
   7   1  -4   13.60    1.22
  -7  -1   4   10.94    1.30
   6   1  -4  178.75   10.41
   6   1  -4  172.30   12.06
  -6  -1   4  157.04   11.28
  -6  -1   4  164.47   11.58
   5   1  -4   24.13    1.34
   5   1  -4   18.37    1.62
  -5  -1   4   18.44    1.59
  -5  -1   4   17.80    1.47
   4   1  -4  124.11    9.52
  -4  -1   4  140.13    8.99
  -4  -1   4  135.10    9.13
   3   1  -4    4.33    0.28
   3   1  -4    4.02    0.50
  -3  -1   4    3.01    0.42
  -3  -1   4    4.26    0.49
   2   1  -4  232.73   14.43
  -2  -1   4  188.68   13.60
  -2  -1   4  189.15   13.73
   1   1  -4   14.28    1.18
  -1  -1   4   15.36    0.92
  -1  -1   4   12.78    1.08
  -1  -1   4   13.99    1.08
   0   1  -4  135.03    9.23
   0   1  -4  146.30    9.71
   0  -1   4  120.27    8.36
   0  -1   4  142.84    9.12
  -1   1  -4    8.89    0.68
  -1   1  -4    7.19    0.68
   1  -1   4    5.80    0.55
   1  -1   4    6.41    0.53
  -2   1  -4  252.50   17.00
  -2   1  -4  250.74   17.73
   2  -1   4  252.49   16.72
   2  -1   4  246.73   15.45
  -3   1  -4   17.92    1.56
  -3   1  -4   21.19    1.57
   3  -1   4   18.53    1.38
   3  -1   4   19.97    1.40
  -4   1  -4  124.55    9.31
  -4   1  -4  138.32    9.04
   4  -1   4  124.10    8.16
   4  -1   4  133.54    8.70
  -5   1  -4   32.62    2.57
  -5   1  -4   32.77    2.52
   5  -1   4   31.71    2.25
  -6   1  -4   83.07    6.05
  -6   1  -4   84.37    6.14
   6  -1   4   82.70    5.42
  -7   1  -4   37.68    2.78
  -7   1  -4   31.38    2.60
   7  -1   4   29.96    2.33
  -8   1  -4   42.59    3.43
  -8   1  -4   46.27    3.57
   8  -1   4   42.68    3.09
  -9   1  -4   27.31    2.31
  -9   1  -4   25.02    2.38
   9  -1   4   25.45    2.05
  10   0  -4    0.45    0.50
 -10   0   4   -0.05    0.48
   9   0  -4  112.31    7.90
  -9   0   4   99.48    7.63
   8   0  -4    0.77    0.38
  -8   0   4    1.97    0.55
   7   0  -4  145.35    9.56
  -7   0   4  117.29    9.17
   6   0  -4    0.57    0.18
   6   0  -4    0.48    0.27
  -6   0   4    0.50    0.20
  -6   0   4    0.65    0.31
   5   0  -4  149.05   10.42
   5   0  -4  139.92    8.97
  -5   0   4  146.44   10.01
  -5   0   4  147.31    9.79
   4   0  -4   13.62    1.09
   4   0  -4   11.06    0.84
  -4   0   4   15.12    1.01
  -4   0   4   12.42    1.07
   3   0  -4  313.94   23.52
   3   0  -4  333.17   20.40
  -3   0   4  348.02   22.25
  -3   0   4  339.19   22.52
   2   0  -4    1.21    0.24
  -2   0   4    0.92    0.21
  -2   0   4    0.80    0.22
  -2   0   4    0.84    0.10
   1   0  -4  227.80   17.01
   1   0  -4  237.15   16.30
  -1   0   4  231.93   14.77
  -1   0   4  267.34   16.11
   0   0  -4  137.50   10.03
   0   0  -4  128.95    9.61
   0   0   4  156.17    9.48
   0   0   4  140.56    8.70
  -1   0  -4  343.86   23.48
  -1   0  -4  310.28   22.50
   1   0   4  344.23   20.48
   1   0   4  333.29   22.20
  -2   0  -4   66.14    4.66
   2   0   4   60.73    4.10
   2   0   4   66.30    4.39
  -3   0  -4  127.09    9.66
  -3   0  -4  139.80    9.97
   3   0   4  142.58    9.39
   3   0   4  150.31    8.78
  -4   0  -4   21.29    1.69
  -4   0  -4   18.87    1.75
   4   0   4   22.21    1.52
   4   0   4   22.28    1.57
  -5   0  -4  114.43    7.46
  -5   0  -4   86.14    7.25
   5   0   4  106.13    6.58
  -6   0  -4    8.93    1.20
  -6   0  -4   10.13    0.98
   6   0   4   10.06    0.93
  -7   0  -4   46.06    3.41
  -7   0  -4   42.37    3.50
   7   0   4   42.86    3.06
  -8   0  -4   19.12    1.66
  -8   0  -4   17.81    1.84
   8   0   4   16.37    1.49
  -9   0  -4   53.97    4.35
  10  -1  -4   72.10    5.28
 -10   1   4   62.62    5.14
   9  -1  -4    1.54    0.51
  -9   1   4    1.17    0.57
   8  -1  -4  126.33    8.57
   8  -1  -4  105.97    9.96
  -8   1   4  118.68    8.30
   7  -1  -4    1.13    0.42
   7  -1  -4    0.94    0.35
  -7   1   4    1.53    0.45
   6  -1  -4  146.77   10.69
   6  -1  -4  106.55    7.81
  -6   1   4  120.45    8.75
  -6   1   4  132.43    8.50
   5  -1  -4    0.14    0.19
   5  -1  -4    0.51    0.15
   5  -1  -4    0.19    0.21
  -5   1   4    0.28    0.16
  -5   1   4    0.14    0.23
   4  -1  -4  150.65    9.52
   4  -1  -4  115.46    8.20
  -4   1   4  131.49    9.14
  -4   1   4  136.94    8.97
   3  -1  -4   16.89    1.14
  -3   1   4   12.45    1.04
  -3   1   4   11.35    1.10
  -3   1   4   13.84    0.91
   2  -1  -4  424.20   31.33
  -2   1   4  451.82   30.00
  -2   1   4  478.54   29.67
  -2   1   4  427.07   27.32
   1  -1  -4   22.75    1.69
   1  -1  -4   19.47    1.65
  -1   1   4   24.88    1.45
  -1   1   4   21.12    1.59
   0  -1  -4  315.49   22.04
   0  -1  -4  329.48   22.96
   0   1   4  323.52   20.03
   0   1   4  334.87   21.74
  -1  -1  -4   26.06    2.01
  -1  -1  -4   26.31    1.92
   1   1   4   24.54    1.74
   1   1   4   27.12    1.86
  -2  -1  -4  222.48   14.17
  -2  -1  -4  206.06   14.60
   2   1   4  195.70   12.82
   2   1   4  205.52   13.84
  -3  -1  -4   43.62    3.15
  -3  -1  -4   38.62    3.18
   3   1   4   43.70    2.98
   3   1   4   45.81    2.87
  -4  -1  -4  103.29    7.29
  -4  -1  -4   89.06    7.15
   4   1   4  106.80    6.86
   4   1   4  105.49    6.49
  -5  -1  -4    9.53    1.15
  -5  -1  -4    9.53    0.87
   5   1   4    7.98    0.88
  -6  -1  -4   83.96    5.91
  -6  -1  -4   79.30    5.84
   6   1   4   77.21    5.22
  -7  -1  -4   12.08    1.49
   7   1   4   11.71    1.13
  -8  -1  -4   31.21    2.77
   8   1   4   31.03    2.33
  10  -2  -4    1.35    0.64
  10  -2  -4    0.60    0.49
 -10   2   4    2.41    0.75
   9  -2  -4   65.23    5.78
   9  -2  -4   60.15    4.92
  -9   2   4   67.87    4.88
   8  -2  -4    0.42    0.42
   8  -2  -4   -0.17    0.32
  -8   2   4    0.83    0.44
   7  -2  -4   95.40    9.54
   7  -2  -4  131.84    8.25
  -7   2   4  112.41    7.93
   6  -2  -4   27.32    1.77
   6  -2  -4   25.39    2.10
   6  -2  -4   24.57    2.44
  -6   2   4   26.97    2.09
  -6   2   4   26.71    1.90
   5  -2  -4  147.84    9.45
   5  -2  -4  131.98    8.15
  -5   2   4  120.48    9.05
  -5   2   4  125.30    8.85
   4  -2  -4    3.73    0.56
   4  -2  -4    4.82    0.49
  -4   2   4    4.05    0.40
  -4   2   4    2.95    0.42
  -4   2   4    3.61    0.53
   3  -2  -4  227.52   17.58
  -3   2   4  257.79   16.66
  -3   2   4  256.76   16.91
  -3   2   4  254.73   15.34
   2  -2  -4    6.86    0.54
   2  -2  -4    5.04    0.64
  -2   2   4    5.73    0.48
  -2   2   4    4.30    0.50
   1  -2  -4  286.10   21.74
   1  -2  -4  331.64   20.94
  -1   2   4  273.87   19.00
  -1   2   4  347.64   20.66
   0  -2  -4   28.01    2.02
   0  -2  -4   27.16    2.13
   0   2   4   28.52    1.87
   0   2   4   27.28    1.99
  -1  -2  -4  165.81   11.35
  -1  -2  -4  162.04   11.10
   1   2   4  162.90   10.04
   1   2   4  153.95   10.83
  -2  -2  -4    4.08    0.37
  -2  -2  -4    2.78    0.55
   2   2   4    4.54    0.54
   2   2   4    4.31    0.44
  -3  -2  -4   86.33    6.71
  -3  -2  -4  100.51    6.79
   3   2   4   93.33    6.07
   3   2   4   98.49    6.47
  -4  -2  -4    6.72    0.60
  -4  -2  -4    5.19    0.84
   4   2   4    6.13    0.58
   4   2   4    6.05    0.70
  -5  -2  -4  109.26    7.86
   5   2   4  111.36    7.07
  -6  -2  -4    4.08    0.80
   6   2   4    3.60    0.60
  -7  -2  -4   85.61    6.73
   7   2   4   96.48    6.02
  -8  -2  -4   12.95    1.66
   8   2   4   11.07    1.25
  10  -3  -4   70.12    5.97
  10  -3  -4   58.58    5.03
 -10   3   4   66.16    4.98
   9  -3  -4    1.03    0.57
   9  -3  -4    1.04    0.52
  -9   3   4    0.61    0.51
   8  -3  -4   76.43    6.11
   8  -3  -4   85.72    7.19
  -8   3   4   83.80    5.95
   7  -3  -4    4.26    0.77
   7  -3  -4    3.85    0.65
  -7   3   4    5.78    0.78
   6  -3  -4   73.67    5.63
   6  -3  -4   58.88    4.10
   6  -3  -4   59.54    4.75
  -6   3   4   64.47    4.64
  -6   3   4   65.41    4.44
   5  -3  -4    4.02    0.46
   5  -3  -4    4.47    0.65
   5  -3  -4    3.62    0.53
  -5   3   4    3.77    0.48
  -5   3   4    3.78    0.58
   4  -3  -4  133.50   10.55
   4  -3  -4  155.78   12.40
  -4   3   4  155.37   10.02
  -4   3   4  147.93    9.23
  -4   3   4  149.33   10.20
   3  -3  -4    0.61    0.20
   3  -3  -4    0.56    0.23
   3  -3  -4    0.29    0.25
  -3   3   4    0.21    0.19
  -3   3   4    0.20    0.18
   2  -3  -4  176.04   12.41
   2  -3  -4  185.53   12.02
  -2   3   4  175.88   11.81
  -2   3   4  165.26   10.88
   1  -3  -4    4.66    0.64
   1  -3  -4    5.27    0.45
  -1   3   4    4.97    0.52
  -1   3   4    4.87    0.53
   0  -3  -4  145.66   10.19
   0   3   4  153.43    9.98
   0   3   4  143.98    9.23
  -1  -3  -4    1.29    0.41
   1   3   4    1.41    0.32
   1   3   4    1.18    0.27
  -2  -3  -4  138.79    9.73
   2   3   4  141.47    8.81
   2   3   4  139.66    9.46
  -3  -3  -4   -0.13    0.28
   3   3   4    0.75    0.24
   3   3   4    0.69    0.28
  -4  -3  -4   97.34    6.88
   4   3   4   97.33    6.53
   4   3   4   92.46    6.17
  -5  -3  -4    6.22    0.94
   5   3   4    5.30    0.75
  -6  -3  -4  126.92    8.97
   6   3   4  123.40    8.05
  -7  -3  -4    3.02    0.83
   7   3   4    2.48    0.59
 -10   4   4    6.06    1.06
   9  -4  -4   64.45    5.62
   9  -4  -4   82.35    6.67
  -9   4   4   76.63    5.50
   8  -4  -4    5.13    0.83
   8  -4  -4    4.60    0.92
  -8   4   4    5.45    0.85
   7  -4  -4   92.49    9.05
   7  -4  -4  124.64    7.82
  -7   4   4  102.13    7.47
   6  -4  -4    1.17    0.38
   6  -4  -4    1.83    0.50
   6  -4  -4    1.14    0.34
  -6   4   4    1.57    0.34
  -6   4   4    1.38    0.43
  -5   4   4  143.76    8.84
  -5   4   4  141.39    9.54
  -5   4   4  136.61    9.73
   4  -4  -4    1.74    0.39
   4  -4  -4    2.13    0.47
   4  -4  -4    1.62    0.32
  -4   4   4    1.33    0.34
  -4   4   4    1.93    0.34
   3  -4  -4  184.91   13.44
   3  -4  -4  193.83   13.01
  -3   4   4  190.49   12.79
  -3   4   4  190.93   11.84
   2  -4  -4    2.25    0.44
   2  -4  -4    2.21    0.30
  -2   4   4    2.46    0.39
  -2   4   4    3.34    0.43
   1  -4  -4  113.05    7.95
  -1   4   4  112.49    7.20
  -1   4   4  116.93    7.78
   0  -4  -4    0.21    0.27
   0   4   4    0.26    0.22
   0   4   4    0.71    0.24
  -1  -4  -4   75.83    5.57
   1   4   4   77.68    5.38
   1   4   4   80.62    5.05
  -2  -4  -4    4.04    0.72
   2   4   4    4.68    0.62
   2   4   4    5.75    0.62
  -3  -4  -4   96.73    7.24
   3   4   4  103.35    6.57
   3   4   4  105.45    7.00
  -4  -4  -4    1.12    0.33
  -4  -4  -4    0.70    0.45
   4   4   4    1.24    0.41
  -5  -4  -4   77.56    5.72
   5   4   4   77.08    5.13
  -6  -4  -4    1.17    0.59
   6   4   4    1.43    0.48
  -7  -4  -4   70.71    5.53
   7   4   4   72.79    4.89
   9  -5  -4    6.21    1.16
   9  -5  -4    8.24    1.11
  -9   5   4    6.88    1.05
   8  -5  -4   90.90    6.68
   8  -5  -4   87.76    7.81
  -8   5   4   88.80    6.43
   7  -5  -4    7.62    1.07
   7  -5  -4    5.67    0.84
  -7   5   4    5.62    0.87
   6  -5  -4   93.34    8.06
   6  -5  -4  108.89    6.91
   6  -5  -4   87.06    6.00
  -6   5   4   95.58    6.66
  -6   5   4   85.79    6.45
   5  -5  -4   10.33    0.93
   5  -5  -4    8.56    1.06
   5  -5  -4    9.72    1.12
  -5   5   4    9.82    0.89
  -5   5   4    9.30    0.90
   4  -5  -4  123.87   11.26
   4  -5  -4  136.47    9.35
  -4   5   4  134.32    9.16
  -4   5   4  145.33    8.53
   3  -5  -4    1.61    0.42
  -3   5   4    0.64    0.32
  -3   5   4    1.00    0.32
   2  -5  -4  152.06   11.31
  -2   5   4  166.47   10.33
  -2   5   4  175.04   11.17
   1  -5  -4    5.43    0.73
  -1   5   4    4.10    0.59
  -1   5   4    7.73    0.75
   0  -5  -4  125.84    8.82
   0   5   4  122.14    8.62
   0   5   4  131.73    8.04
  -1  -5  -4   24.03    2.06
   1   5   4   25.39    1.85
   1   5   4   24.81    1.89
  -2  -5  -4  196.15   13.21
   2   5   4  190.29   11.99
   2   5   4  186.18   12.88
  -3  -5  -4    0.85    0.32
  -3  -5  -4    0.36    0.41
   3   5   4    0.06    0.31
  -4  -5  -4   98.92    7.21
   4   5   4  100.64    6.52
  -5  -5  -4    0.24    0.44
   5   5   4    0.26    0.39
  -6  -5  -4   48.34    3.90
   6   5   4   48.78    3.46
   9  -6  -4   37.98    3.82
   9  -6  -4   41.61    3.33
   8  -6  -4   21.10    2.14
   8  -6  -4   17.52    1.78
   7  -6  -4   75.82    5.69
   6  -6  -4   20.39    1.83
   5  -6  -4   82.84    6.06
  -5   6   4   79.46    5.89
  -5   6   4   93.56    5.59
   4  -6  -4   15.78    1.56
  -4   6   4   20.36    1.53
  -4   6   4   20.14    1.54
   3  -6  -4  129.45    9.34
  -3   6   4  136.32    8.59
  -3   6   4  137.95    9.21
   2  -6  -4   16.83    1.54
  -2   6   4   18.86    1.48
  -2   6   4   17.16    1.41
   1  -6  -4  122.58    8.65
  -1   6   4  124.74    7.91
   0  -6  -4    5.35    0.83
   0   6   4    7.25    0.85
   0   6   4    6.39    0.77
  -1  -6  -4  111.16    7.95
   1   6   4  109.46    7.76
   1   6   4  117.77    7.28
  -2  -6  -4    0.09    0.40
  -2  -6  -4    0.58    0.35
   2   6   4    0.28    0.36
  -3  -6  -4  104.25    7.74
  -3  -6  -4  109.74    7.52
   3   6   4  110.55    7.06
  -4  -6  -4   -0.09    0.45
   4   6   4    0.63    0.43
  -5  -6  -4   56.95    4.62
   5   6   4   64.39    4.23
   6  -7  -4  113.08    7.89
   5  -7  -4   31.71    2.58
  -5   7   4   35.69    2.52
   4  -7  -4   55.26    4.14
  -4   7   4   56.74    3.86
   3  -7  -4    7.02    0.99
  -3   7   4   11.57    1.14
   2  -7  -4   93.65    6.96
  -2   7   4  103.18    6.43
   1  -7  -4   16.59    1.51
  -1   7   4   16.49    1.43
   0  -7  -4  107.41    8.08
   0  -7  -4  120.14    8.28
   0   7   4  124.61    7.59
  -1  -7  -4    3.00    0.58
  -1  -7  -4    2.37    0.64
   1   7   4    3.81    0.69
  -2  -7  -4   91.53    6.42
  -2  -7  -4   95.19    6.61
   2   7   4   86.42    6.01
  -3  -7  -4    2.99    0.76
  -3  -7  -4    3.51    0.65
   3   7   4    2.74    0.68
  -4  -7  -4   63.81    4.69
   4   7   4   57.86    4.21
   6  -8  -4    6.87    0.98
   5  -8  -4   60.00    4.42
  -5   8   4   59.65    4.17
   4  -8  -4   13.39    1.33
  -4   8   4   13.66    1.43
   3  -8  -4   83.09    5.88
  -3   8   4   80.79    5.50
   2  -8  -4   11.77    1.26
  -2   8   4   14.35    1.31
   1  -8  -4   66.42    4.83
  -1   8   4   66.71    4.57
   0  -8  -4    7.88    1.05
   0  -8  -4    6.12    0.91
   0   8   4    7.86    1.04
  -1  -8  -4   77.56    5.31
  -1  -8  -4   69.37    5.38
   1   8   4   72.53    4.99
  -2  -8  -4   10.35    1.15
  -2  -8  -4    8.74    1.21
   2   8   4    7.03    1.06
  -3  -8  -4   43.45    3.08
  -3  -8  -4   34.39    3.13
   3   8   4   38.56    2.94
  -4   9   4   45.59    3.36
   3  -9  -4   18.70    1.79
  -3   9   4   20.56    1.78
   2  -9  -4   53.50    4.15
  -2   9   4   57.80    3.99
  -1   9   4   14.71    1.60
   0  -9  -4   53.98    4.30
   0   9   4   63.04    4.16
   2  11  -5    1.46    0.63
   1  11  -5   53.35    3.80
   0  11  -5    3.09    0.74
  -5 -10   5    0.02    0.51
   4  10  -5   56.50    4.09
  -4 -10   5   63.11    4.55
   3  10  -5    0.32    0.46
  -3 -10   5    0.87    0.57
   2  10  -5   79.65    5.35
   1  10  -5    0.96    0.49
  -1 -10   5    0.25    0.51
   0  10  -5   72.17    4.87
   0 -10   5   72.17    5.35
  -1  10  -5    1.09    0.54
   1 -10   5    0.93    0.53
  -2  10  -5   65.23    4.44
  -2  10  -5   69.51    5.14
   2 -10   5   60.41    4.81
  -3  10  -5    2.30    0.72
  -3  10  -5    1.50    0.58
   3 -10   5    2.08    0.67
  -4  10  -5   47.65    4.28
   4 -10   5   59.11    4.09
   5   9  -5   65.57    4.13
  -5  -9   5   55.31    4.48
   4   9  -5    1.16    0.49
  -4  -9   5    1.96    0.64
   3   9  -5   69.55    4.61
  -3  -9   5   68.23    5.08
   2   9  -5    0.53    0.41
  -2  -9   5    2.01    0.59
   1   9  -5   71.04    5.59
   1   9  -5   68.61    4.83
  -1  -9   5   80.15    5.39
   0   9  -5    1.14    0.47
   0   9  -5    0.39    0.47
   0  -9   5    0.75    0.47
  -1   9  -5   52.89    3.72
  -1   9  -5   50.65    4.29
   1  -9   5   59.98    4.12
  -2   9  -5    0.18    0.42
  -2   9  -5    0.14    0.36
   2  -9   5   -0.13    0.40
  -3   9  -5   94.14    7.16
  -3   9  -5   93.10    6.19
   3  -9   5   95.92    6.72
  -4   9  -5    0.02    0.48
   4  -9   5    0.27    0.35
   4  -9   5    0.52    0.44
  -5   9  -5   64.98    5.08
   5  -9   5   62.38    4.34
  -6  -8   5   38.46    3.03
   5   8  -5    7.74    0.86
  -5  -8   5    5.91    0.92
   4   8  -5   66.37    4.65
   4   8  -5   83.44    5.61
  -4  -8   5   66.33    5.14
   3   8  -5    3.51    0.59
   3   8  -5    3.32    0.75
  -3  -8   5    3.59    0.70
   2   8  -5   72.50    5.39
   2   8  -5   71.60    4.63
  -2  -8   5   66.44    5.09
   1   8  -5    5.39    0.71
   1   8  -5    3.77    0.77
  -1  -8   5    4.34    0.75
   0   8  -5  103.88    7.22
   0   8  -5   95.52    6.21
   0  -8   5   89.59    6.78
  -1   8  -5    2.68    0.66
  -1   8  -5    2.17    0.49
   1  -8   5    3.88    0.70
  -2   8  -5   81.39    5.62
  -2   8  -5   81.03    6.52
   2  -8   5   97.70    6.19
  -3   8  -5   -0.11    0.34
   3  -8   5    0.58    0.40
  -4   8  -5  114.81    8.82
   4  -8   5  121.11    7.64
   4  -8   5  119.70    8.24
  -5   8  -5    2.06    0.68
   5  -8   5    3.46    0.62
  -6   8  -5   59.64    4.69
   6  -8   5   57.11    4.01
  -8  -7   5    9.87    1.25
  -7  -7   5   55.79    4.16
   6   7  -5    7.78    1.18
  -6  -7   5    9.39    1.12
   5   7  -5  102.13    7.18
   5   7  -5   87.01    6.05
  -5  -7   5   97.31    6.71
   4   7  -5   17.32    1.35
   4   7  -5   17.50    1.73
  -4  -7   5   18.00    1.56
   3   7  -5   62.19    5.29
   3   7  -5   68.47    4.51
  -3  -7   5   77.90    5.04
   2   7  -5    3.07    0.68
   2   7  -5    3.34    0.51
  -2  -7   5    3.17    0.63
   1   7  -5   91.90    6.26
   1   7  -5  105.10    7.31
   0   7  -5    3.23    0.53
   0   7  -5    4.54    0.74
   0  -7   5    3.08    0.60
  -1   7  -5  149.08   10.65
  -1   7  -5  142.79    9.19
  -2   7  -5    6.82    0.99
  -2   7  -5    6.30    0.77
   2  -7   5    6.55    0.86
  -3   7  -5  107.85    7.73
   3  -7   5   90.90    7.17
   3  -7   5  113.65    6.67
  -4   7  -5   -0.09    0.36
   4  -7   5    0.28    0.30
   4  -7   5    0.45    0.34
  -5   7  -5   79.20    5.87
   5  -7   5   73.72    5.04
  -6   7  -5   -0.02    0.40
   6  -7   5    0.04    0.32
  -7   7  -5   56.77    4.43
   7  -7   5   52.14    3.78
  -9  -6   5   18.29    1.79
   8   6  -5   38.36    3.25
  -8  -6   5   38.66    3.07
   7   6  -5   20.61    1.88
  -7  -6   5   17.98    1.67
   6   6  -5   62.58    5.03
  -6  -6   5   64.77    4.72
  -6  -6   5   69.07    4.75
   5   6  -5   15.47    1.59
   5   6  -5   17.27    1.28
  -5  -6   5   18.31    1.42
  -5  -6   5   15.02    1.44
   4   6  -5  105.18    6.73
   4   6  -5  108.07    7.91
  -4  -6   5  107.04    7.36
  -4  -6   5  106.09    7.42
   3   6  -5   44.46    3.05
   3   6  -5   45.85    3.69
  -3  -6   5   49.46    3.45
  -3  -6   5   46.51    3.28
   2   6  -5   46.15    2.88
   2   6  -5   39.40    3.41
  -2  -6   5   43.07    3.20
   1   6  -5    6.85    0.92
   1   6  -5    7.03    0.72
  -1  -6   5    7.24    0.87
   0   6  -5  176.63   10.44
   0   6  -5  182.92   12.11
   0  -6   5  142.55   11.35
  -1   6  -5   10.55    1.13
  -1   6  -5   10.79    0.92
   1  -6   5   11.16    1.04
  -2   6  -5  101.16    8.80
   2  -6   5  141.00    8.35
  -3   6  -5    1.72    0.49
   3  -6   5    1.46    0.36
   3  -6   5    1.05    0.37
  -4   6  -5  115.51    7.81
   4  -6   5  100.48    7.21
   4  -6   5   99.80    6.70
  -5   6  -5    0.30    0.40
   5  -6   5    0.65    0.34
  -6   6  -5   48.97    3.78
   6  -6   5   44.79    3.24
  -7   6  -5    0.84    0.54
   7  -6   5    0.60    0.44
   9   5  -5   27.87    2.63
  -9  -5   5   32.01    2.56
   8   5  -5   37.88    3.13
  -8  -5   5   37.55    2.99
   7   5  -5   46.29    3.85
  -7  -5   5   51.30    3.69
   6   5  -5   20.71    1.74
  -6  -5   5   18.42    1.56
  -6  -5   5   16.10    1.53
   5   5  -5   91.88    6.91
   5   5  -5   87.32    5.87
  -5  -5   5   94.18    6.51
  -5  -5   5  100.22    6.53
   4   5  -5   16.83    1.63
   4   5  -5   18.79    1.28
  -4  -5   5   16.85    1.40
  -4  -5   5   18.72    1.52
   3   5  -5  165.06   10.54
   3   5  -5  179.53   12.30
  -3  -5   5  176.22   11.58
  -3  -5   5  161.36   11.53
   2   5  -5   21.95    1.54
   2   5  -5   23.05    1.96
  -2  -5   5   22.43    1.77
  -2  -5   5   21.78    1.61
   1   5  -5  151.67   11.14
   1   5  -5  155.29    9.58
  -1  -5   5  150.66   10.49
  -1  -5   5  157.05   10.37
   0   5  -5   39.44    2.72
   0   5  -5   38.50    3.23
   0  -5   5   47.23    3.07
  -1   5  -5  193.62   12.55
  -1   5  -5  206.60   14.52
   1  -5   5  206.57   13.68
  -2   5  -5   21.35    1.82
   2  -5   5   18.03    1.62
   2  -5   5   23.70    1.53
  -3   5  -5  102.32    8.11
   3  -5   5  107.72    7.02
   3  -5   5  121.65    7.61
  -4   5  -5   14.30    1.40
   4  -5   5   13.91    1.18
   4  -5   5   14.74    1.17
  -5   5  -5   71.56    5.31
   5  -5   5   68.48    4.59
  -6   5  -5    1.13    0.46
   6  -5   5    1.20    0.41
  -7   5  -5   93.16    6.97
   7  -5   5   91.62    6.08
  -8   5  -5    3.61    0.82
   8  -5   5    3.97    0.73
  10   4  -5   26.40    2.47
   9   4  -5   13.84    1.61
  -9  -4   5   18.33    1.66
   8   4  -5   46.82    3.77
  -8  -4   5   47.27    3.61
   7   4  -5   39.32    3.23
  -7  -4   5   41.13    3.09
   6   4  -5   35.01    2.75
  -6  -4   5   33.51    2.59
  -6  -4   5   32.93    2.54
   5   4  -5   21.10    1.28
   5   4  -5   16.06    1.58
  -5  -4   5   16.56    1.47
  -5  -4   5   17.13    1.47
   4   4  -5   74.73    4.31
   4   4  -5   65.24    5.10
  -4  -4   5   63.39    4.79
  -4  -4   5   67.96    4.78
   3   4  -5   70.18    5.10
   3   4  -5   70.28    4.28
  -3  -4   5   61.78    4.76
  -3  -4   5   68.74    4.71
   2   4  -5   77.37    4.64
  -2  -4   5   75.39    5.05
  -2  -4   5   66.72    5.13
   1   4  -5   33.30    2.15
   1   4  -5   31.23    2.62
  -1  -4   5   32.69    2.44
  -1  -4   5   33.38    2.29
   0   4  -5  159.24   11.39
   0   4  -5  167.12    9.82
   0   4  -5  149.74   10.66
   0  -4   5  157.53   10.73
  -1   4  -5   51.11    3.32
  -1   4  -5   42.42    3.68
   1  -4   5   49.03    3.13
   1  -4   5   49.01    3.46
  -2   4  -5  106.99    7.66
  -2   4  -5   93.91    7.10
   2  -4   5  104.49    6.59
   2  -4   5  115.65    7.17
  -3   4  -5   21.24    1.44
  -3   4  -5   19.29    1.65
   3  -4   5   18.95    1.38
   3  -4   5   15.88    1.42
  -4   4  -5   89.16    6.68
   4  -4   5   84.69    5.78
   4  -4   5   96.77    6.19
  -5   4  -5    8.39    1.07
   5  -4   5   11.22    0.94
  -6   4  -5   61.00    4.68
  -7   4  -5    9.01    1.14
   7  -4   5    8.79    1.03
  -8   4  -5   75.89    5.83
   8  -4   5   76.09    5.12
  10   3  -5   31.19    2.93
 -10  -3   5   38.08    2.95
   9   3  -5   38.18    3.05
  -9  -3   5   33.24    2.89
   8   3  -5   33.32    2.81
  -8  -3   5   34.18    2.72
   7   3  -5   65.16    4.73
  -7  -3   5   58.07    4.50
   6   3  -5   24.00    2.05
  -6  -3   5   23.39    1.86
  -6  -3   5   25.85    1.98
   5   3  -5  119.90    7.40
   5   3  -5  132.98    8.70
  -5  -3   5  120.50    8.27
  -5  -3   5  105.73    8.14
   4   3  -5   49.01    3.49
   4   3  -5   46.36    2.87
  -4  -3   5   42.47    3.24
  -4  -3   5   44.13    3.25
   3   3  -5  101.26    6.31
   3   3  -5  102.03    7.42
  -3  -3   5  104.64    7.00
  -3  -3   5   99.98    6.99
   2   3  -5   23.58    1.57
   2   3  -5   27.14    2.01
  -2  -3   5   23.80    1.76
  -2  -3   5   23.55    1.83
   1   3  -5   86.71    5.24
  -1  -3   5   75.51    5.77
  -1  -3   5   89.13    5.75
   0   3  -5   84.21    6.71
   0   3  -5  106.21    6.30
   0  -3   5   86.37    6.30
   0  -3   5   90.11    5.74
  -1   3  -5  104.21    6.97
  -1   3  -5  100.66    7.43
   1  -3   5   96.12    6.93
   1  -3   5  106.49    6.38
  -2   3  -5   39.28    2.66
  -2   3  -5   30.06    2.40
   2  -3   5   37.93    2.41
   2  -3   5   28.73    2.19
  -3   3  -5  118.22    9.01
  -3   3  -5  133.60    9.52
   3  -3   5  133.98    8.26
   3  -3   5  140.85    8.89
  -4   3  -5   41.30    2.72
  -4   3  -5   32.19    2.79
   4  -3   5   35.44    2.45
   4  -3   5   35.68    2.53
  -5   3  -5  220.90   13.89
  -5   3  -5  184.43   14.46
  -6   3  -5   21.81    1.84
  -6   3  -5   20.98    1.83
   6  -3   5   19.88    1.59
  -7   3  -5   74.02    5.60
  -8   3  -5   14.12    1.44
   8  -3   5   13.72    1.30
  10   2  -5   16.85    1.76
 -10  -2   5   17.01    1.74
   9   2  -5   21.32    1.90
  -9  -2   5   18.04    1.82
   8   2  -5   37.72    3.04
  -8  -2   5   36.59    2.96
   7   2  -5   44.71    3.79
  -7  -2   5   54.59    3.73
   6   2  -5   65.29    4.96
  -6  -2   5   65.39    4.59
  -6  -2   5   67.98    4.77
   5   2  -5   84.76    5.17
   5   2  -5   84.89    6.12
  -5  -2   5   83.36    5.85
  -5  -2   5   79.80    5.72
   4   2  -5  139.91    7.87
   4   2  -5  124.98    9.21
  -4  -2   5  113.50    8.66
  -4  -2   5  131.31    8.79
   3   2  -5  175.90   11.06
   3   2  -5  150.23    9.44
  -3  -2   5  150.90   10.49
  -3  -2   5  141.37   10.39
  -2  -2   5  146.06    9.80
  -2  -2   5  148.90    8.85
  -2  -2   5  136.90    9.74
   1   2  -5   27.85    2.27
   1   2  -5   30.20    2.09
  -1  -2   5   28.29    1.83
  -1  -2   5   29.41    2.10
   0   2  -5  131.04    8.91
   0   2  -5  123.83    9.41
   0  -2   5  125.03    8.08
   0  -2   5  143.65    8.85
  -1   2  -5   53.58    4.48
  -1   2  -5   69.44    4.79
   1  -2   5   72.93    4.09
   1  -2   5   63.39    4.43
  -2   2  -5  106.85    7.27
  -2   2  -5  105.15    6.93
   2  -2   5   97.99    6.77
   2  -2   5   91.46    6.26
  -3   2  -5   16.54    1.45
  -3   2  -5   18.10    1.44
   3  -2   5   17.25    1.27
   3  -2   5   17.31    1.28
  -4   2  -5   70.39    5.18
  -4   2  -5   57.36    4.96
   4  -2   5   73.41    4.54
   4  -2   5   77.72    4.78
  -5   2  -5    7.16    0.85
  -5   2  -5    6.16    0.89
   5  -2   5    7.97    0.82
  -6   2  -5   86.16    6.27
  -6   2  -5   81.79    6.40
   6  -2   5   93.67    5.69
  -7   2  -5   17.21    1.58
  -7   2  -5   12.84    1.38
   7  -2   5   14.76    1.29
  -8   2  -5   47.87    3.74
  -8   2  -5   46.85    3.74
   8  -2   5   46.36    3.33
  -9   2  -5    6.74    1.01
  10   1  -5   42.27    3.54
 -10  -1   5   43.88    3.52
   9   1  -5   18.87    1.77
  -9  -1   5   17.62    1.75
   8   1  -5   56.84    4.46
  -8  -1   5   59.43    4.37
   7   1  -5   48.77    3.32
  -7  -1   5   35.04    3.14
   6   1  -5  103.25    7.11
  -6  -1   5   92.54    6.60
  -6  -1   5   95.75    6.83
   5   1  -5  134.14    9.33
  -5  -1   5  131.54    8.75
  -5  -1   5  121.84    8.91
   4   1  -5  136.03    9.07
  -4  -1   5  126.36    8.66
  -4  -1   5  116.37    8.52
   3   1  -5   93.18    6.66
  -3  -1   5   89.75    6.35
  -3  -1   5   93.21    6.28
   2   1  -5  110.83    8.93
  -2  -1   5  126.84    8.52
  -2  -1   5  136.84    8.45
   1   1  -5   83.43    6.32
   1   1  -5   93.09    6.65
  -1  -1   5   99.17    6.26
   0   1  -5   72.13    5.75
   0   1  -5   81.89    6.05
   0  -1   5   88.43    5.68
   0  -1   5   89.96    5.20
  -1   1  -5  304.20   23.73
  -1   1  -5  372.17   22.73
   1  -1   5  333.10   22.40
   1  -1   5  335.56   20.65
  -2   1  -5  145.25    9.15
  -2   1  -5  132.96    9.48
   2  -1   5  127.26    8.91
   2  -1   5  126.07    8.26
  -3   1  -5  198.34   13.91
  -3   1  -5  216.62   14.46
   3  -1   5  198.39   12.62
   3  -1   5  199.48   13.59
  -4   1  -5   30.17    2.29
  -4   1  -5   27.85    2.30
   4  -1   5   29.34    2.04
  -5   1  -5  110.96    8.53
  -5   1  -5  137.03    8.41
   5  -1   5  110.80    7.51
  -6   1  -5    6.11    0.78
  -6   1  -5    5.43    0.91
   6  -1   5    5.17    0.72
  -7   1  -5   46.21    3.43
  -7   1  -5   40.12    3.46
   7  -1   5   43.84    3.07
  -8   1  -5   11.81    1.25
  -8   1  -5   13.62    1.61
   8  -1   5   11.49    1.24
  -9   1  -5   31.21    2.79
  10   0  -5    5.43    0.96
 -10   0   5    7.25    1.16
   9   0  -5   54.34    4.21
  -9   0   5   52.58    4.15
   8   0  -5   20.07    1.87
  -8   0   5   23.65    1.96
   7   0  -5   95.50    7.65
  -7   0   5  116.02    7.47
  -6   0   5   47.00    3.60
  -6   0   5   50.30    3.43
   5   0  -5   97.71    7.47
  -5   0   5   96.79    7.18
  -5   0   5  114.28    7.04
   4   0  -5  105.92    7.90
   4   0  -5  108.35    6.74
  -4   0   5  117.75    7.47
  -4   0   5  107.67    7.59
   3   0  -5  111.54    7.47
  -3   0   5   99.03    7.03
  -3   0   5  100.72    7.15
   2   0  -5  140.79   10.33
  -2   0   5  146.17    8.90
  -2   0   5  152.49    9.92
  -2   0   5  141.17    9.77
   1   0  -5   90.84    6.37
   1   0  -5   94.57    6.64
  -1   0   5   91.08    6.26
   0   0  -5  125.47    8.84
   0   0  -5  121.57    8.50
   0   0   5  127.13    8.34
   0   0   5  119.80    7.65
  -1   0  -5  167.06   11.26
  -1   0  -5  131.93   10.82
   1   0   5  165.78    9.82
   1   0   5  167.02   10.64
  -2   0  -5  183.52   12.09
   2   0   5  151.88   10.56
   2   0   5  174.84   11.42
  -3   0  -5   67.51    5.03
  -3   0  -5   69.52    5.09
   3   0   5   70.69    4.79
   3   0   5   73.22    4.53
  -4   0  -5  103.03    7.16
  -4   0  -5   97.38    7.04
   4   0   5   96.72    6.32
  -5   0  -5   48.96    3.71
  -5   0  -5   46.50    3.62
   5   0   5   50.38    3.28
  -6   0  -5   55.05    4.18
  -6   0  -5   59.23    4.31
   6   0   5   53.69    3.74
  -7   0  -5    7.97    1.24
  -7   0  -5    9.30    0.97
   7   0   5    8.99    1.01
  -8   0  -5   49.51    3.92
   8   0   5   46.20    3.36
  10  -1  -5   55.61    4.70
 -10   1   5   65.87    4.73
   9  -1  -5   13.51    1.43
  -9   1   5   15.18    1.54
   8  -1  -5  118.10    7.91
  -8   1   5   95.13    7.59
   7  -1  -5   50.59    3.65
  -7   1   5   43.02    3.53
   6  -1  -5  176.94   13.70
  -6   1   5  200.14   12.89
  -6   1   5  198.28   13.20
   5  -1  -5   35.55    2.44
  -5   1   5   28.50    2.22
  -5   1   5   29.60    2.36
   4  -1  -5   61.25    4.75
   4  -1  -5   68.13    4.04
  -4   1   5   66.65    4.50
  -4   1   5   63.25    4.61
   3  -1  -5   38.64    2.74
  -3   1   5   35.77    2.29
  -3   1   5   34.98    2.67
  -3   1   5   36.29    2.58
   2  -1  -5   92.79    7.67
   2  -1  -5  112.65    7.47
  -2   1   5  118.19    6.67
  -2   1   5  107.52    7.30
   1  -1  -5   94.14    6.65
   1  -1  -5   91.47    6.46
  -1   1   5   90.02    6.31
  -1   1   5   95.48    5.79
   0  -1  -5  147.09   10.67
   0   1   5  148.48   10.12
   0   1   5  155.60    9.33
  -1  -1  -5   71.28    4.85
  -1  -1  -5   69.83    4.85
   1   1   5   60.25    4.29
   1   1   5   69.76    4.64
  -2  -1  -5  140.90    9.74
  -2  -1  -5  140.91    9.95
   2   1   5  136.10    8.77
   2   1   5  143.28    9.45
  -3  -1  -5   97.48    7.45
  -3  -1  -5  107.30    7.56
   3   1   5  105.37    7.17
   3   1   5  112.87    6.73
  -4  -1  -5   63.76    4.84
  -4  -1  -5   75.21    4.97
   4   1   5   64.34    4.36
  -5  -1  -5   55.97    4.35
   5   1   5   59.46    3.87
  -6  -1  -5   37.24    3.13
   6   1   5   39.55    2.74
  -7  -1  -5   52.42    4.02
   7   1   5   47.70    3.43
  -8  -1  -5   34.17    3.04
   8   1   5   34.46    2.59
  10  -2  -5    4.71    0.88
 -10   2   5    3.42    0.84
   9  -2  -5   81.41    5.51
  -9   2   5   61.09    5.27
   8  -2  -5   18.84    1.80
  -8   2   5   23.15    1.90
   7  -2  -5   74.44    5.55
  -7   2   5   74.83    5.42
   6  -2  -5   31.75    2.82
  -6   2   5   40.11    2.85
  -6   2   5   39.32    2.64
   5  -2  -5  125.91    9.04
   5  -2  -5  125.38    7.80
  -5   2   5  124.28    8.52
  -5   2   5  127.69    8.74
   4  -2  -5   54.96    4.51
  -4   2   5   63.80    3.90
  -4   2   5   64.74    4.30
  -4   2   5   64.84    4.44
   3  -2  -5  116.31    7.54
  -3   2   5  104.57    6.56
  -3   2   5   94.51    7.13
   2  -2  -5   56.89    4.35
   2  -2  -5   63.98    4.31
  -2   2   5   56.59    4.15
  -2   2   5   64.11    3.81
   1  -2  -5  114.47    8.29
   1  -2  -5  123.36    8.11
  -1   2   5  116.52    7.91
  -1   2   5  113.82    7.28
   0  -2  -5   89.67    6.24
   0  -2  -5   88.00    6.19
   0   2   5   87.37    5.54
   0   2   5   85.92    5.98
  -1  -2  -5  179.75   12.30
  -1  -2  -5  190.88   12.07
   1   2   5  161.76   10.87
   1   2   5  168.01   11.74
  -2  -2  -5   34.63    2.55
   2   2   5   32.72    2.31
   2   2   5   29.71    2.21
  -3  -2  -5   42.86    3.35
   3   2   5   42.79    2.96
   3   2   5   45.23    3.09
  -4  -2  -5   75.34    5.54
   4   2   5   75.60    4.93
  -5  -2  -5   66.84    5.23
   5   2   5   73.61    4.68
  -6  -2  -5   37.58    3.19
   6   2   5   39.83    2.78
  -7  -2  -5   32.74    2.96
   7   2   5   35.13    2.56
 -10   3   5   85.97    6.41
   9  -3  -5    1.47    0.54
  -9   3   5    1.52    0.57
   8  -3  -5   90.36    7.27
   8  -3  -5   77.81    6.17
  -8   3   5   79.48    5.99
   7  -3  -5   12.45    1.16
   7  -3  -5    9.18    1.26
  -7   3   5   12.44    1.20
   6  -3  -5  120.82    9.90
   6  -3  -5  108.95    8.43
  -6   3   5  116.69    7.93
  -6   3   5  119.97    8.18
   5  -3  -5   22.11    1.76
  -5   3   5   20.51    1.78
  -5   3   5   22.00    1.65
   4  -3  -5  122.12    9.20
  -4   3   5  137.32    8.05
  -4   3   5  126.78    8.73
   3  -3  -5   29.88    2.14
   3  -3  -5   29.97    2.22
  -3   3   5   25.95    1.90
  -3   3   5   26.83    2.06
   2  -3  -5  173.97   11.85
   2  -3  -5  159.98   12.20
  -2   3   5  177.80   10.72
  -2   3   5  179.45   11.64
   1  -3  -5   50.77    3.55
   1  -3  -5   52.50    3.47
  -1   3   5   47.31    3.39
  -1   3   5   41.46    3.11
   0  -3  -5  179.65   12.77
   0   3   5  190.98   11.57
   0   3   5  186.07   12.51
  -1  -3  -5   14.62    1.30
   1   3   5   12.84    1.07
   1   3   5   12.93    1.06
  -2  -3  -5  134.17    9.13
   2   3   5  127.58    8.22
   2   3   5  128.87    8.82
  -3  -3  -5   40.70    3.27
   3   3   5   43.78    2.92
   3   3   5   42.32    3.02
  -4  -3  -5   51.60    3.91
   4   3   5   49.84    3.45
  -5  -3  -5   46.70    3.63
   5   3   5   44.69    3.19
  -6  -3  -5   42.32    3.61
   6   3   5   46.92    3.21
  -7  -3  -5   35.50    3.11
   7   3   5   35.19    2.67
   9  -4  -5   52.75    4.79
  -9   4   5   50.29    4.01
   8  -4  -5    0.71    0.48
   8  -4  -5    1.11    0.48
  -8   4   5    0.78    0.47
   7  -4  -5   80.13    5.95
   7  -4  -5   75.36    6.94
  -7   4   5   85.24    5.81
   6  -4  -5    0.88    0.40
   6  -4  -5    0.31    0.30
  -6   4   5    0.49    0.28
  -6   4   5    0.49    0.36
   5  -4  -5  138.20   11.13
   5  -4  -5  179.82   13.12
  -5   4   5  150.46   10.57
   4  -4  -5   30.16    2.33
   4  -4  -5   27.12    2.22
  -4   4   5   29.43    2.03
  -4   4   5   30.07    2.17
   3  -4  -5  182.69   12.16
   3  -4  -5  169.15   12.52
  -3   4   5  178.62   11.94
  -3   4   5  176.94   11.03
   2  -4  -5   17.14    1.43
  -2   4   5   14.89    1.22
  -2   4   5   16.74    1.31
   1  -4  -5  115.06    7.91
  -1   4   5  119.66    7.15
  -1   4   5  104.40    7.68
   0  -4  -5   61.74    4.74
   0   4   5   71.59    4.29
   0   4   5   63.04    4.56
  -1  -4  -5  110.33    7.81
   1   4   5  107.51    7.04
   1   4   5  113.20    7.56
  -2  -4  -5   33.56    2.74
   2   4   5   33.02    2.50
   2   4   5   36.31    2.44
  -3  -4  -5   98.90    6.98
   3   4   5   99.37    6.68
   3   4   5   92.21    6.26
  -4  -4  -5   46.79    3.66
   4   4   5   46.11    3.23
  -5  -4  -5   70.18    5.32
   5   4   5   70.76    4.75
  -6  -4  -5   23.91    2.31
   6   4   5   25.25    2.00
   9  -5  -5    0.58    0.51
   9  -5  -5   -0.13    0.48
  -9   5   5    0.28    0.47
   8  -5  -5   64.69    4.95
   8  -5  -5   62.37    5.77
  -8   5   5   66.88    4.83
   7  -5  -5    0.75    0.40
   7  -5  -5    0.78    0.48
  -7   5   5    0.86    0.47
   6  -5  -5   85.13    6.35
   6  -5  -5   75.84    7.41
   6  -5  -5   87.71    6.26
  -6   5   5   98.53    6.05
   5  -5  -5    0.37    0.40
  -5   5   5    0.95    0.33
   4  -5  -5  139.44   10.17
  -4   5   5  147.92    9.27
  -4   5   5  151.71    9.99
   3  -5  -5    3.94    0.66
  -3   5   5    3.82    0.58
  -3   5   5    3.88    0.58
   2  -5  -5  127.91    8.68
  -2   5   5  125.76    7.87
  -2   5   5  119.04    8.48
   1  -5  -5    2.49    0.56
  -1   5   5    3.04    0.51
  -1   5   5    1.98    0.41
   0  -5  -5  128.58    8.75
   0   5   5  123.10    8.51
   0   5   5  121.71    7.91
  -1  -5  -5    6.77    0.96
   1   5   5    7.47    0.85
   1   5   5    6.16    0.77
  -2  -5  -5   93.23    6.77
   2   5   5   96.47    6.50
   2   5   5   90.98    6.10
  -3  -5  -5   34.64    2.88
   3   5   5   33.66    2.64
   3   5   5   38.92    2.61
  -4  -5  -5   72.04    5.38
   4   5   5   71.10    4.82
  -5  -5  -5   22.51    2.02
   5   5   5   18.14    1.68
  -6  -5  -5   45.61    3.77
   7  -6  -5  134.38    9.54
   6  -6  -5    0.26    0.45
  -6   6   5    0.24    0.33
   5  -6  -5  137.14    9.37
  -5   6   5  129.67    9.14
   4  -6  -5    6.80    0.93
  -4   6   5    7.49    0.88
  -4   6   5    5.73    0.77
   3  -6  -5   64.37    4.90
  -3   6   5   70.28    4.51
  -3   6   5   68.01    4.79
   2  -6  -5    7.07    0.95
  -2   6   5    7.15    0.84
  -2   6   5    8.11    0.91
   1  -6  -5   68.66    5.03
  -1   6   5   72.58    4.61
  -1   6   5   66.06    4.87
   0  -6  -5    5.41    0.84
   0   6   5    4.51    0.69
   0   6   5    4.17    0.64
  -1  -6  -5   81.53    5.69
   1   6   5   78.58    5.15
   1   6   5   73.76    5.45
  -2  -6  -5    1.16    0.55
   2   6   5    1.62    0.53
  -3  -6  -5   74.70    5.66
  -3  -6  -5   79.33    5.43
   3   6   5   74.03    5.11
  -4  -6  -5   20.68    1.94
   4   6   5   18.04    1.64
  -5  -6  -5   56.91    4.56
   5   6   5   59.72    4.11
  -5   7   5    1.30    0.45
   4  -7  -5   86.79    6.48
  -4   7   5   97.07    5.99
  -4   7   5   87.97    6.34
   3  -7  -5    3.19    0.71
  -3   7   5    3.97    0.70
  -3   7   5    4.59    0.67
   2  -7  -5   59.77    4.65
  -2   7   5   65.19    4.55
  -2   7   5   63.97    4.30
   1  -7  -5    4.44    0.77
  -1   7   5    3.08    0.64
  -1   7   5    2.91    0.57
   0  -7  -5   87.57    6.17
   0   7   5   81.77    5.62
  -1  -7  -5    5.75    0.94
  -1  -7  -5    5.25    0.79
   1   7   5    5.22    0.85
  -2  -7  -5   68.58    4.81
  -2  -7  -5   65.45    4.98
   2   7   5   64.20    4.54
  -3  -7  -5    0.31    0.54
  -3  -7  -5    0.58    0.44
   3   7   5    0.70    0.50
  -4  -7  -5   36.95    3.13
   6  -8  -5    0.83    0.53
   5  -8  -5   57.40    4.28
   4  -8  -5    0.79    0.49
  -3   8   5   73.22    5.00
   2  -8  -5    0.57    0.43
  -2   8   5    1.21    0.52
   1  -8  -5   72.32    5.10
   1  -8  -5   65.34    5.15
  -1   8   5   72.24    4.80
   0  -8  -5    1.01    0.49
   0  -8  -5    1.14    0.57
   0   8   5    0.67    0.50
  -1  -8  -5   74.25    5.91
  -1  -8  -5   91.72    6.17
   1   8   5   84.40    5.62
  -2  -8  -5   -0.37    0.44
  -2  -8  -5    0.88    0.50
   2   8   5    1.05    0.55
  -3  -8  -5   50.29    3.83
  -3   9   5    0.60    0.58
  -2   9   5   78.72    5.42
   3  11  -6   30.64    2.42
   2  11  -6   16.05    1.54
   1  11  -6   41.84    3.08
   0  11  -6   17.63    1.63
  -4 -10   6   32.74    2.75
   3  10  -6    5.15    0.84
  -3 -10   6    5.22    0.94
   2  10  -6   55.38    3.42
  -2 -10   6   40.15    3.62
   1  10  -6   11.68    1.23
  -1 -10   6    9.87    1.29
   0  10  -6   53.40    3.70
   0  10  -6   57.33    4.29
   0 -10   6   47.85    4.00
  -1  10  -6   12.35    1.52
  -1  10  -6   10.32    1.19
  -2  10  -6   42.71    3.48
  -2  10  -6   39.57    2.98
  -3  10  -6   22.15    2.00
   3 -10   6   19.74    1.58
   3 -10   6   13.78    1.62
  -4  10  -6   22.27    2.19
  -6  -9   6   -0.13    0.47
  -5  -9   6   43.31    3.39
   4   9  -6    5.70    0.80
  -4  -9   6    6.25    0.96
   3   9  -6   55.37    3.81
   3   9  -6   60.17    4.51
  -3  -9   6   52.53    4.18
   2   9  -6   15.67    1.25
   2   9  -6   11.33    1.50
  -2  -9   6   12.58    1.35
   1   9  -6   77.68    5.35
   1   9  -6   82.05    6.24
  -1  -9   6   85.49    5.92
   0   9  -6    6.47    1.03
   0   9  -6    6.22    0.84
   0  -9   6    6.04    0.94
  -1   9  -6   37.07    2.76
  -1   9  -6   40.55    3.27
   1  -9   6   39.66    3.07
  -2   9  -6   16.87    1.46
  -2   9  -6   16.62    1.74
   2  -9   6   16.73    1.57
  -3   9  -6   72.33    5.42
   3  -9   6   66.95    4.58
   3  -9   6   67.31    4.98
  -4   9  -6   11.78    1.62
   4  -9   6   15.21    1.30
  -5   9  -6   49.42    4.32
   5  -9   6   56.43    3.73
  -6  -8   6   49.78    3.80
   5   8  -6   -0.03    0.56
  -5  -8   6    1.77    0.56
   4   8  -6   83.41    6.07
   4   8  -6   71.66    5.05
  -4  -8   6   79.77    5.62
   3   8  -6    4.99    0.98
   3   8  -6    6.09    0.75
  -3  -8   6    5.65    0.87
   2   8  -6   84.32    6.04
   2   8  -6   81.44    5.15
  -2  -8   6   70.69    5.61
   1   8  -6   11.03    1.38
   1   8  -6   11.13    1.04
  -1  -8   6   13.11    1.23
   0   8  -6   82.00    5.83
   0   8  -6   75.91    4.97
   0  -8   6   70.44    5.42
  -1   8  -6   12.54    1.16
  -1   8  -6   13.22    1.41
   1  -8   6   14.62    1.33
  -2   8  -6   57.32    4.86
  -2   8  -6   58.90    4.16
   2  -8   6   71.42    4.58
  -3   8  -6   16.28    1.79
   3  -8   6   21.08    1.69
   3  -8   6   19.33    1.52
  -4   8  -6   46.06    3.90
   4  -8   6   49.50    3.34
  -5   8  -6   17.20    1.77
   5  -8   6   16.24    1.44
  -6   8  -6   44.83    3.86
   6  -8   6   47.65    3.31
   7   7  -6   66.44    5.24
   6   7  -6    2.62    0.74
  -6  -7   6    2.51    0.63
   5   7  -6  106.96    8.23
  -5  -7   6  112.58    7.73
   4   7  -6    1.97    0.69
   4   7  -6    1.74    0.41
  -4  -7   6    3.02    0.61
   3   7  -6   66.60    4.53
   3   7  -6   71.94    5.44
  -3  -7   6   72.11    5.05
   2   7  -6    6.28    0.71
   2   7  -6    7.62    1.06
  -2  -7   6    5.13    0.79
   1   7  -6   60.81    4.77
   1   7  -6   67.31    4.07
  -1  -7   6   56.64    4.44
   0   7  -6    5.43    0.88
   0   7  -6    5.40    0.67
   0  -7   6    5.08    0.75
  -1   7  -6   47.28    3.28
  -1   7  -6   46.87    3.86
   1  -7   6   52.44    3.63
  -2   7  -6   12.60    1.29
   2  -7   6   10.73    0.98
   2  -7   6   11.72    1.14
  -3   7  -6   93.20    7.58
   3  -7   6  108.81    7.10
   3  -7   6  102.33    6.54
  -4   7  -6   12.55    1.38
   4  -7   6   12.53    1.12
   4  -7   6   11.87    1.16
  -5   7  -6   58.54    4.44
   5  -7   6   52.59    3.76
  -6   7  -6   14.35    1.48
   6  -7   6   10.57    1.22
   9   6  -6   -0.18    0.53
  -9  -6   6    0.46    0.54
   8   6  -6   56.83    5.00
  -8  -6   6   71.02    4.79
   7   6  -6   -0.01    0.43
  -7  -6   6    0.42    0.39
   6   6  -6   89.16    7.02
  -6  -6   6   89.17    6.57
  -6  -6   6  102.49    6.63
   5   6  -6    1.85    0.60
  -5  -6   6    0.57    0.41
  -5  -6   6    2.74    0.47
   4   6  -6  142.76    9.89
   4   6  -6  134.21    8.39
  -4  -6   6  130.46    9.24
  -4  -6   6  129.43    9.17
   3   6  -6   20.79    1.91
   3   6  -6   18.51    1.43
  -3  -6   6   20.91    1.70
   2   6  -6  175.70   12.36
   2   6  -6  164.43   10.57
   1   6  -6    6.80    0.97
   1   6  -6    7.29    0.68
  -1  -6   6    7.23    0.88
   0   6  -6  127.86    9.07
   0   6  -6  133.15    7.80
   0  -6   6  109.67    8.49
  -1   6  -6   21.99    1.93
  -1   6  -6   19.71    1.55
   1  -6   6   22.79    1.76
  -2   6  -6   99.77    7.73
   2  -6   6  106.04    6.65
   2  -6   6  107.39    7.25
  -3   6  -6    6.06    0.93
   3  -6   6    6.65    0.76
   3  -6   6    6.20    0.79
  -4   6  -6   84.68    6.64
   4  -6   6   93.44    6.14
   4  -6   6   85.55    5.71
  -5   6  -6    4.93    0.85
   5  -6   6    4.82    0.69
  -6   6  -6   50.58    4.09
   6  -6   6   50.94    3.53
  -7   6  -6   12.65    1.57
   9   5  -6   73.27    5.45
  -9  -5   6   65.01    5.12
   8   5  -6    2.58    0.74
  -8  -5   6    4.24    0.77
   7   5  -6   88.76    6.90
  -7  -5   6   94.72    6.55
   6   5  -6    2.58    0.64
  -6  -5   6    3.06    0.59
  -6  -5   6    3.36    0.58
   5   5  -6   73.43    5.49
  -5  -5   6   71.25    5.11
  -5  -5   6   72.50    5.15
   4   5  -6    1.23    0.49
   4   5  -6    1.21    0.27
  -4  -5   6    1.43    0.33
  -4  -5   6    0.72    0.38
   3   5  -6   94.50    7.51
   3   5  -6  103.76    6.37
  -3  -5   6  106.73    7.08
  -3  -5   6  100.57    6.97
   2   5  -6    0.30    0.20
   2   5  -6    1.24    0.48
  -2  -5   6    0.51    0.32
  -2  -5   6    0.36    0.18
   1   5  -6  173.49   13.16
   1   5  -6  193.54   11.33
  -1  -5   6  178.79   12.40
   0   5  -6    0.42    0.33
   0   5  -6    0.34    0.21
   0  -5   6    0.48    0.28
  -1   5  -6  152.38   11.97
   1  -5   6  165.75   10.33
   1  -5   6  178.90   11.30
  -2   5  -6    7.22    0.95
   2  -5   6    7.14    0.73
   2  -5   6    6.67    0.79
  -3   5  -6  161.49   11.85
   3  -5   6  164.91   11.08
   3  -5   6  163.25   10.24
  -4   5  -6    3.34    0.68
   4  -5   6    3.13    0.51
  -5   5  -6   72.49    5.30
   5  -5   6   65.95    4.56
  -6   5  -6   10.92    1.31
   6  -5   6   10.13    1.11
  -7   5  -6   52.81    4.22
   7  -5   6   52.26    3.67
   9   4  -6    3.74    0.82
  -9  -4   6    3.40    0.79
   8   4  -6   66.31    5.17
  -8  -4   6   67.25    4.94
   7   4  -6    1.52    0.54
  -7  -4   6    1.65    0.49
   6   4  -6   68.64    5.37
  -6  -4   6   69.97    5.04
  -6  -4   6   74.77    5.11
   5   4  -6    6.26    0.86
  -5  -4   6    5.97    0.77
  -5  -4   6    6.33    0.74
   4   4  -6  107.78    7.45
   4   4  -6  102.28    6.28
  -4  -4   6  101.15    7.00
  -4  -4   6   93.63    6.96
   3   4  -6    1.50    0.45
   3   4  -6    1.50    0.24
  -3  -4   6    1.72    0.32
  -3  -4   6    1.29    0.37
   2   4  -6  229.73   15.99
   2   4  -6  215.31   13.72
  -2  -4   6  219.74   15.04
  -2  -4   6  227.59   15.05
   1   4  -6    4.17    0.43
   1   4  -6    4.79    0.43
   1   4  -6    4.01    0.69
  -1  -4   6    3.59    0.57
   0   4  -6  260.09   18.05
   0  -4   6  259.05   17.01
   0  -4   6  239.79   15.57
  -1   4  -6    0.95    0.37
  -1   4  -6    0.34    0.18
   1  -4   6    0.25    0.19
   1  -4   6    0.67    0.28
  -2   4  -6  125.55    8.96
   2  -4   6  125.55    8.36
   2  -4   6  117.27    7.69
  -3   4  -6    4.84    0.81
   3  -4   6    7.00    0.67
   3  -4   6    7.81    0.68
  -4   4  -6  236.64   17.30
   4  -4   6  246.35   15.04
  -5   4  -6    0.44    0.36
   5  -4   6    0.66    0.34
  -6   4  -6   92.14    7.15
   6  -4   6  100.23    6.27
  -7   4  -6   10.11    1.24
   7  -4   6    8.00    1.00
  -8   4  -6   82.70    6.33
  10   3  -6    4.36    0.93
   9   3  -6   61.99    4.64
  -9  -3   6   54.62    4.41
   8   3  -6    5.62    0.92
  -8  -3   6    5.64    0.89
   7   3  -6   73.25    5.80
  -7  -3   6   81.11    5.58
   6   3  -6    3.39    0.63
  -6  -3   6    3.03    0.53
  -6  -3   6    4.30    0.63
   5   3  -6  108.64    7.64
  -5  -3   6  105.98    7.25
  -5  -3   6   97.89    7.16
   4   3  -6   18.56    1.61
  -4  -3   6   17.88    1.46
  -4  -3   6   18.71    1.50
   3   3  -6  163.54   12.26
   3   3  -6  175.31   10.49
  -3  -3   6  161.01   11.56
  -3  -3   6  181.15   11.63
   2   3  -6    1.67    0.43
  -2  -3   6    1.56    0.29
  -2  -3   6    1.37    0.33
   1   3  -6  246.13   16.91
   1   3  -6  234.91   15.98
  -1  -3   6  224.02   14.53
  -1  -3   6  242.13   15.91
   0   3  -6   28.08    2.10
   0   3  -6   21.39    1.83
   0  -3   6   22.34    1.86
   0  -3   6   29.14    1.68
  -1   3  -6  111.25    8.11
   1  -3   6  115.11    7.58
   1  -3   6  107.14    6.93
  -2   3  -6    0.70    0.32
  -2   3  -6    0.42    0.23
   2  -3   6    1.05    0.26
   2  -3   6    0.62    0.21
  -3   3  -6  100.12    8.02
  -3   3  -6  126.17    7.67
   3  -3   6  110.58    6.97
   3  -3   6  104.99    7.48
  -4   3  -6    0.08    0.27
  -4   3  -6    0.03    0.28
   4  -3   6    0.24    0.24
  -5   3  -6  118.83    8.83
  -5   3  -6  134.66    8.51
   5  -3   6  111.06    7.68
  -6   3  -6    3.01    0.62
   6  -3   6    2.73    0.56
  -7   3  -6   95.54    6.95
   7  -3   6   89.62    6.08
  -8   3  -6    3.25    0.73
   8  -3   6    2.21    0.65
  10   2  -6   44.50    3.95
 -10  -2   6   53.22    3.92
   9   2  -6   12.69    1.38
  -9  -2   6   11.96    1.46
   8   2  -6   45.59    3.64
  -8  -2   6   45.30    3.52
   7   2  -6   15.54    1.53
  -7  -2   6   17.45    1.52
   6   2  -6  103.34    7.21
  -6  -2   6   96.40    6.88
  -6  -2   6   93.94    6.71
   5   2  -6   13.95    1.27
  -5  -2   6   12.99    1.19
  -5  -2   6   13.98    1.16
   4   2  -6  230.36   18.30
  -4  -2   6  268.16   17.49
  -4  -2   6  274.52   17.32
   3   2  -6   45.80    3.79
  -3  -2   6   51.35    3.58
  -3  -2   6   53.92    3.59
   2   2  -6  242.82   15.75
  -2  -2   6  214.54   13.50
  -2  -2   6  202.03   14.81
  -2  -2   6  223.99   14.93
   1   2  -6    3.70    0.48
   1   2  -6    4.98    0.65
  -1  -2   6    3.80    0.33
  -1  -2   6    2.94    0.45
   0   2  -6  219.60   15.34
   0  -2   6  211.96   13.24
   0  -2   6  213.31   14.43
  -1   2  -6    0.78    0.28
  -1   2  -6    0.83    0.33
   1  -2   6    0.24    0.18
   1  -2   6    0.92    0.22
  -2   2  -6   93.34    7.17
  -2   2  -6  101.81    7.52
   2  -2   6  117.02    6.53
   2  -2   6  101.77    7.03
  -3   2  -6    0.23    0.26
  -3   2  -6    0.89    0.35
   3  -2   6    0.63    0.25
   3  -2   6    0.51    0.20
  -4   2  -6  134.97    9.47
  -4   2  -6  139.42    9.85
   4  -2   6  134.45    8.60
  -5   2  -6    2.79    0.61
  -5   2  -6    2.45    0.51
   5  -2   6    2.30    0.47
  -6   2  -6   93.30    6.30
  -6   2  -6   83.57    6.40
   6  -2   6   83.43    5.64
  -7   2  -6    0.32    0.39
  -7   2  -6    0.98    0.54
   7  -2   6    0.07    0.35
  -8   2  -6   73.95    5.64
   8  -2   6   74.21    5.03
  10   1  -6   18.49    1.87
 -10  -1   6   18.63    1.89
   9   1  -6   61.54    4.67
  -9  -1   6   57.28    4.53
   8   1  -6   38.29    3.04
  -8  -1   6   36.04    2.96
   7   1  -6   49.84    4.33
  -7  -1   6   66.09    4.29
   6   1  -6   12.14    1.15
  -6  -1   6   10.71    1.10
  -6  -1   6   11.55    1.01
   5   1  -6  185.91   12.69
  -5  -1   6  173.71   11.94
  -5  -1   6  170.93   12.12
   4   1  -6   18.18    1.62
  -4  -1   6   21.62    1.58
  -4  -1   6   19.03    1.51
  -3  -1   6  245.69   16.60
  -3  -1   6  249.10   16.78
   2   1  -6    5.81    0.74
  -2  -1   6    6.42    0.62
   1   1  -6  154.77   11.85
   1   1  -6  168.24   11.32
  -1  -1   6  154.34   11.16
  -1  -1   6  183.51   10.21
   0   1  -6   10.75    1.04
   0   1  -6   12.58    1.12
   0  -1   6   11.51    0.87
   0  -1   6   13.09    0.99
  -1   1  -6  142.86   10.71
  -1   1  -6  174.29   10.32
   1  -1   6  136.61   10.06
   1  -1   6  147.35    9.30
  -2   1  -6    0.12    0.25
  -2   1  -6    0.86    0.27
   2  -1   6    0.31    0.18
   2  -1   6    0.49    0.23
  -3   1  -6  183.88   13.59
  -3   1  -6  211.33   13.15
   3  -1   6  184.25   12.80
   3  -1   6  186.30   11.89
  -4   1  -6   11.16    1.24
  -4   1  -6   14.32    1.17
   4  -1   6   12.41    1.06
  -5   1  -6  107.62    7.84
  -5   1  -6  111.34    8.00
   5  -1   6  111.36    7.07
  -6   1  -6    0.10    0.30
  -6   1  -6    2.01    0.60
   6  -1   6    0.12    0.29
  -7   1  -6   48.16    4.01
  -7   1  -6   51.71    3.95
   7  -1   6   52.98    3.57
  -8   1  -6    0.55    0.61
   8  -1   6    0.04    0.37
  10   0  -6   28.27    2.53
 -10   0   6   28.34    2.55
   9   0  -6   14.20    1.51
  -9   0   6   15.21    1.56
   8   0  -6   68.50    5.48
  -8   0   6   77.35    5.39
   7   0  -6   79.96    6.02
  -7   0   6   81.75    5.85
   6   0  -6   89.25    6.28
  -6   0   6   84.72    5.85
  -6   0   6   80.89    6.04
   5   0  -6   39.15    3.25
  -5   0   6   44.50    3.06
  -5   0   6   44.77    3.18
   4   0  -6  157.90    9.98
  -4   0   6  127.60    9.53
  -4   0   6  130.87    9.39
   3   0  -6   72.43    5.36
  -3   0   6   77.37    5.18
  -3   0   6   70.70    5.06
   2   0  -6  149.73   10.68
   2   0  -6  140.50   10.25
  -2   0   6  150.79   10.11
  -2   0   6  155.41    9.19
   1   0  -6    7.21    0.76
   1   0  -6    6.37    0.75
  -1   0   6    6.87    0.70
  -1   0   6    9.30    0.60
   0   0  -6  126.85    9.53
   0   0  -6  131.80    9.91
   0   0   6  148.49    8.60
   0   0   6  145.27    9.37
  -1   0  -6   13.31    1.21
  -1   0  -6   14.05    1.29
   1   0   6   15.03    1.15
   1   0   6   15.65    1.09
  -2   0  -6  148.18   10.66
  -2   0  -6  166.46   11.00
   2   0   6  156.21   10.39
   2   0   6  144.94    9.62
  -3   0  -6   13.61    1.13
  -3   0  -6   12.30    1.26
   3   0   6   14.01    1.08
   3   0   6   13.13    1.05
  -4   0  -6  155.20    9.94
  -4   0  -6  136.06   10.09
   4   0   6  134.90    8.90
  -5   0  -6   15.35    1.49
  -5   0  -6   14.95    1.31
   5   0   6   14.24    1.23
  -6   0  -6   88.61    6.43
   6   0   6   86.09    5.71
  -7   0  -6    0.60    0.56
   7   0   6    0.27    0.40
  -8   0  -6   76.28    5.85
  10  -1  -6   15.39    1.57
 -10   1   6   12.38    1.67
   9  -1  -6   61.70    4.97
  -9   1   6   67.59    4.92
   8  -1  -6    9.92    1.13
  -8   1   6   11.58    1.33
   7  -1  -6   60.39    4.45
  -7   1   6   55.94    4.32
   6  -1  -6    6.81    0.88
  -6   1   6    7.76    0.94
  -6   1   6    8.48    0.76
   5  -1  -6   77.70    6.13
  -5   1   6   82.85    5.95
  -5   1   6   91.50    5.81
   4  -1  -6   31.70    2.54
  -4   1   6   34.19    2.51
  -4   1   6   33.34    2.40
   3  -1  -6   54.64    3.97
  -3   1   6   53.06    3.36
  -3   1   6   53.32    3.76
   2  -1  -6   48.85    3.45
   2  -1  -6   46.79    3.39
  -2   1   6   47.63    3.27
  -2   1   6   43.00    2.93
   1  -1  -6  140.75    9.58
   1  -1  -6  146.29    9.91
  -1   1   6  133.09    8.60
  -1   1   6  134.98    9.38
   0  -1  -6   58.21    4.30
   0  -1  -6   56.88    4.33
   0   1   6   62.46    3.81
   0   1   6   59.73    4.12
  -1  -1  -6  156.28   10.90
  -1  -1  -6  160.60   11.18
   1   1   6  152.14   10.61
   1   1   6  161.16    9.84
  -2  -1  -6   21.00    1.62
  -2  -1  -6   19.66    1.78
   2   1   6   23.14    1.55
   2   1   6   20.46    1.57
  -3  -1  -6  150.86    9.93
  -3  -1  -6  133.51   10.03
   3   1   6  141.48    8.90
   3   1   6  141.64    9.53
  -4  -1  -6   11.44    1.36
   4   1   6   12.47    1.07
  -5  -1  -6   95.11    7.15
   5   1   6  102.37    6.42
  -6  -1  -6    6.74    1.08
   6   1   6    4.91    0.75
  -7  -1  -6   54.30    4.25
   7   1   6   50.68    3.63
 -10   2   6   41.82    3.48
   9  -2  -6   35.50    3.05
  -9   2   6   38.64    3.09
   8  -2  -6   82.85    5.45
  -8   2   6   59.71    5.20
   7  -2  -6   30.93    2.58
  -7   2   6   33.20    2.59
   6  -2  -6   59.00    4.44
  -6   2   6   57.13    4.14
  -6   2   6   61.71    4.36
   5  -2  -6   23.88    1.76
  -5   2   6   22.65    1.77
  -5   2   6   17.71    1.59
  -4   2   6   86.68    5.86
  -4   2   6   78.90    5.67
   3  -2  -6   51.72    4.08
   3  -2  -6   58.97    4.07
  -3   2   6   56.98    3.90
  -3   2   6   55.80    3.54
   2  -2  -6  114.37    7.69
   2  -2  -6  106.94    7.88
  -2   2   6  115.64    7.52
  -2   2   6  104.87    6.87
   1  -2  -6   34.01    2.40
   1  -2  -6   30.54    2.44
  -1   2   6   33.44    2.12
  -1   2   6   28.57    2.29
   0  -2  -6  119.46    8.24
   0   2   6  118.48    7.99
   0   2   6  115.11    7.38
  -1  -2  -6   61.74    4.62
   1   2   6   65.77    4.39
   1   2   6   61.43    4.10
  -2  -2  -6   71.32    5.25
   2   2   6   76.41    4.98
   2   2   6   67.37    4.67
  -3  -2  -6   24.15    1.99
   3   2   6   22.97    1.66
   3   2   6   18.83    1.62
  -4  -2  -6   50.20    3.83
   4   2   6   48.40    3.36
  -5  -2  -6   10.51    1.41
   5   2   6   12.49    1.15
  -6  -2  -6   77.37    5.98
   6   2   6   81.60    5.33
  -7  -2  -6    2.29    0.82
   7   2   6    2.54    0.64
   9  -3  -6   52.72    4.22
  -9   3   6   53.63    4.15
   8  -3  -6   46.30    3.67
  -8   3   6   46.11    3.61
   7  -3  -6   36.49    2.60
  -7   3   6   29.68    2.31
  -7   3   6   27.98    2.50
   6  -3  -6   43.51    3.09
  -6   3   6   37.56    3.04
  -6   3   6   37.48    2.86
   5  -3  -6  100.77    6.35
  -5   3   6   79.10    5.95
  -5   3   6   79.12    6.13
   4  -3  -6   55.23    3.89
   4  -3  -6   51.79    3.88
  -4   3   6   49.42    3.69
   3  -3  -6  112.70    8.35
   3  -3  -6  115.29    8.15
  -3   3   6  118.27    7.33
  -3   3   6  120.58    7.98
   2  -3  -6   68.17    5.01
  -2   3   6   69.21    4.85
  -2   3   6   71.64    4.46
   1  -3  -6  166.14   11.46
  -1   3   6  163.57   10.33
  -1   3   6  167.11   11.21
   0  -3  -6    5.31    0.79
   0   3   6    4.09    0.56
   0   3   6    5.29    0.61
  -1  -3  -6  168.04   11.44
   1   3   6  161.72   11.10
   1   3   6  163.41   10.30
  -2  -3  -6   18.67    1.68
   2   3   6   17.01    1.42
   2   3   6   18.97    1.44
  -3  -3  -6   82.79    5.78
   3   3   6   76.15    5.12
   3   3   6   76.32    5.40
  -4  -3  -6   11.95    1.47
   4   3   6   11.82    1.12
  -5  -3  -6   55.24    4.12
   5   3   6   48.66    3.57
  -6  -3  -6    8.83    1.32
   6   3   6    7.12    0.99
   9  -4  -6   46.94    3.89
  -9   4   6   50.34    3.84
   8  -4  -6   28.64    2.40
  -8   4   6   26.73    2.36
   7  -4  -6   50.30    4.19
  -7   4   6   61.15    4.19
   6  -4  -6   27.92    2.42
  -6   4   6   33.12    2.32
   5  -4  -6   75.59    5.21
   5  -4  -6   68.44    5.20
  -5   4   6   69.39    4.95
   4  -4  -6  109.07    7.94
  -4   4   6  116.09    7.75
   3  -4  -6  119.67    8.28
  -3   4   6  123.55    7.47
  -3   4   6  111.12    8.07
   2  -4  -6   99.94    7.09
  -2   4   6   95.85    6.89
  -2   4   6  104.98    6.39
   1  -4  -6   54.48    4.30
  -1   4   6   56.56    4.12
  -1   4   6   64.24    3.87
   0  -4  -6   78.76    5.65
   0   4   6   78.62    5.06
   0   4   6   76.30    5.41
  -1  -4  -6   20.41    1.74
   1   4   6   17.15    1.44
   1   4   6   18.63    1.50
  -2  -4  -6   76.92    5.66
   2   4   6   72.04    5.04
   2   4   6   80.93    5.37
  -3  -4  -6   15.87    1.59
   3   4   6   15.57    1.33
   3   4   6   15.96    1.36
  -4  -4  -6   58.78    4.68
   4   4   6   63.08    4.18
  -5  -4  -6   21.21    2.14
   5   4   6   23.95    1.88
  -6  -4  -6   45.05    3.72
   6   4   6   43.96    3.24
   9  -5  -6   18.75    1.86
  -9   5   6   18.93    1.86
  -8   5   6   44.20    3.51
   7  -5  -6   39.57    3.20
   6  -5  -6   81.48    6.04
  -6   5   6   83.67    5.80
   5  -5  -6   37.27    3.04
  -5   5   6   39.86    2.89
   4  -5  -6   68.50    4.84
  -4   5   6   63.40    4.65
   3  -5  -6   53.35    4.41
  -3   5   6   64.89    4.03
  -3   5   6   62.51    4.31
   2  -5  -6   75.55    5.71
  -2   5   6   83.94    5.17
  -2   5   6   78.02    5.54
   1  -5  -6   63.50    4.76
  -1   5   6   62.85    4.56
  -1   5   6   67.19    4.29
   0  -5  -6   35.47    2.88
   0   5   6   35.63    2.69
   0   5   6   37.34    2.57
  -1  -5  -6   49.41    3.77
   1   5   6   46.85    3.50
   1   5   6   49.49    3.35
  -2  -5  -6   33.12    2.64
   2   5   6   30.55    2.34
   2   5   6   28.33    2.26
  -3  -5  -6   71.94    5.33
   3   5   6   65.05    4.73
   3   5   6   74.53    5.02
  -4  -5  -6   28.25    2.53
   4   5   6   27.27    2.18
  -5  -5  -6   49.93    4.07
   5   5   6   50.34    3.61
   8  -6  -6   24.03    2.23
   7  -6  -6   41.35    3.35
   6  -6  -6   34.40    2.85
  -6   6   6   34.96    2.67
   5  -6  -6   59.45    4.64
  -5   6   6   64.98    4.51
   4  -6  -6   49.37    3.82
  -4   6   6   50.88    3.69
   3  -6  -6   56.43    4.18
  -3   6   6   53.49    4.02
  -3   6   6   57.11    3.80
   2  -6  -6   22.71    2.02
  -2   6   6   24.72    1.92
  -2   6   6   22.80    1.81
   1  -6  -6   39.98    3.13
  -1   6   6   41.66    2.84
  -1   6   6   37.93    2.96
   0  -6  -6   44.67    3.49
   0   6   6   43.24    3.28
   0   6   6   46.07    3.16
  -1  -6  -6   50.13    3.94
   1   6   6   54.41    3.58
   1   6   6   48.98    3.72
  -2  -6  -6   25.47    2.38
   2   6   6   26.91    2.12
   2   6   6   28.04    2.16
  -3  -6  -6   45.35    3.72
  -3  -6  -6   46.33    3.47
   3   6   6   47.32    3.35
  -4  -6  -6   34.69    2.93
   4   6   6   31.28    2.53
  -6   7   6   45.62    3.42
   5  -7  -6   20.76    1.87
  -5   7   6   17.99    1.66
   4  -7  -6   68.13    4.81
  -4   7   6   60.34    4.61
   3  -7  -6   12.78    1.47
  -3   7   6   12.99    1.25
   2  -7  -6   45.41    3.49
  -2   7   6   47.18    3.20
  -2   7   6   41.18    3.30
   1  -7  -6   30.39    2.74
  -1   7   6   33.03    2.63
  -1   7   6   39.14    2.59
   0  -7  -6   57.66    4.56
   0   7   6   61.73    4.17
   0   7   6   60.57    4.37
  -1  -7  -6   37.20    2.98
   1   7   6   33.86    2.67
  -2  -7  -6   44.08    3.24
  -2  -7  -6   38.57    3.35
   2   7   6   42.25    3.09
   2  -8  -6   11.44    1.37
   2  -8  -6    9.82    1.25
  -2   8   6   11.88    1.32
   1  -8  -6   45.60    3.40
   1  -8  -6   41.04    3.44
  -1   8   6   43.53    3.20
   0  -8  -6   36.77    3.04
   0   8   6   36.81    2.83
  -1  -8  -6   49.63    3.96
   2  11  -7   25.13    2.06
   1  11  -7   15.00    1.43
   0  11  -7   33.82    2.58
  -1  11  -7   14.22    1.75
  -4 -10   7   10.84    1.35
  -3 -10   7   37.19    3.04
   2  10  -7   30.82    2.82
   2  10  -7   33.32    2.40
  -2 -10   7   30.51    2.64
   1  10  -7   43.18    2.96
   1  10  -7   43.71    3.47
  -1 -10   7   35.38    3.16
   0  10  -7   17.26    1.54
   0  10  -7   19.49    1.88
   0 -10   7   17.74    1.71
  -1  10  -7   40.58    3.56
  -1  10  -7   40.61    3.02
   1 -10   7   45.64    3.34
  -2  10  -7   14.66    1.68
   2 -10   7   11.27    1.39
  -3  10  -7   43.37    3.94
   3 -10   7   47.17    3.35
   3 -10   7   51.02    3.65
  -6  -9   7   22.40    2.03
  -5  -9   7   36.18    2.94
   4   9  -7   25.23    2.55
  -4  -9   7   29.34    2.35
   3   9  -7   27.36    2.45
  -3  -9   7   24.35    2.18
   2   9  -7   53.18    3.63
   2   9  -7   50.72    4.28
  -2  -9   7   55.57    4.05
   1   9  -7   32.74    2.81
   1   9  -7   32.14    2.33
  -1  -9   7   30.68    2.58
   0   9  -7   48.28    3.85
   0   9  -7   44.89    3.23
   0  -9   7   47.65    3.58
  -1   9  -7   21.40    2.02
  -1   9  -7   22.45    1.68
   1  -9   7   18.06    1.77
  -2   9  -7   36.69    3.15
   2  -9   7   35.79    2.85
   2  -9   7   36.11    2.59
  -3   9  -7   13.43    1.64
   3  -9   7   12.61    1.28
  -4   9  -7   32.25    3.01
   4  -9   7   35.51    2.55
   7   8  -7   12.66    1.70
   6   8  -7   38.80    3.28
  -6  -8   7   34.95    2.91
   5   8  -7   28.72    2.64
  -5  -8   7   27.22    2.34
   4   8  -7   66.71    5.46
  -4  -8   7   71.13    5.06
   3   8  -7   16.19    1.84
   3   8  -7   18.56    1.45
  -3  -8   7   19.54    1.70
   2   8  -7   36.28    2.66
   2   8  -7   41.67    3.27
   1   8  -7   43.68    3.41
   1   8  -7   43.50    2.84
  -1  -8   7   35.74    3.10
   0   8  -7   27.49    2.45
   0   8  -7   28.12    2.01
   0  -8   7   26.54    2.24
  -1   8  -7   33.21    2.55
  -1   8  -7   37.51    3.09
   1  -8   7   39.42    2.86
  -2   8  -7   23.53    2.20
   2  -8   7   24.50    1.97
   2  -8   7   22.32    1.77
  -3   8  -7   51.00    3.81
   3  -8   7   45.63    3.14
   3  -8   7   41.02    3.37
  -4   8  -7   14.22    1.80
   4  -8   7   17.66    1.43
  -5   8  -7   35.66    3.11
   8   7  -7    4.11    0.99
   7   7  -7   31.85    2.87
   6   7  -7   34.98    2.88
  -6  -7   7   29.38    2.54
   5   7  -7   60.07    5.29
  -5  -7   7   75.48    4.99
   4   7  -7   52.21    3.91
  -4  -7   7   42.23    3.49
   3   7  -7   49.06    3.91
   3   7  -7   48.82    3.16
  -3  -7   7   43.55    3.52
   2   7  -7   38.52    2.56
   2   7  -7   34.53    3.13
  -2  -7   7   38.53    2.90
   1   7  -7   46.02    4.00
   1   7  -7   53.44    3.38
  -1  -7   7   51.45    3.76
   0   7  -7   42.86    2.85
   0   7  -7   42.70    3.42
   0  -7   7   39.76    3.14
  -1   7  -7   58.29    4.32
   1  -7   7   50.69    3.95
   1  -7   7   54.10    3.58
  -2   7  -7   47.64    3.52
   2  -7   7   39.49    3.17
   2  -7   7   41.36    2.90
  -3   7  -7   61.69    4.88
   3  -7   7   60.14    4.14
   3  -7   7   64.38    4.48
  -4   7  -7   38.21    3.15
   4  -7   7   35.41    2.61
  -5   7  -7   23.28    2.13
   5  -7   7   20.31    1.72
  -6   7  -7   55.12    4.43
   6  -7   7   53.04    3.77
  -9  -6   7    6.45    1.04
   8   6  -7   41.59    3.68
  -8  -6   7   46.62    3.44
   7   6  -7    6.80    1.07
  -7  -6   7    6.47    0.90
   6   6  -7   49.58    3.84
  -6  -6   7   49.25    3.46
  -6  -6   7   41.19    3.48
   5   6  -7   11.67    1.44
  -5  -6   7   12.26    1.17
  -5  -6   7   10.52    1.05
   4   6  -7   73.47    5.80
  -4  -6   7   77.20    5.41
   3   6  -7    7.45    1.08
   3   6  -7    6.85    0.65
  -3  -6   7    6.66    0.88
   2   6  -7   54.57    3.40
   2   6  -7   47.69    4.12
  -2  -6   7   52.47    3.83
   1   6  -7   26.74    1.89
   1   6  -7   30.16    2.41
  -1  -6   7   25.68    2.16
   0   6  -7   76.72    5.61
   0  -6   7   70.65    5.23
  -1   6  -7   47.22    3.82
   1  -6   7   52.41    3.22
   1  -6   7   44.63    3.51
  -2   6  -7  102.03    7.10
   2  -6   7  100.28    6.06
   2  -6   7   82.38    6.54
  -3   6  -7   33.32    2.84
   3  -6   7   33.53    2.37
   3  -6   7   33.75    2.54
  -4   6  -7   37.18    3.13
   4  -6   7   37.26    2.62
  -5   6  -7   27.98    2.50
   5  -6   7   28.41    2.13
  -6   6  -7   30.26    2.62
   6  -6   7   28.07    2.22
   9   5  -7   41.16    3.94
  -9  -5   7   57.24    3.87
   8   5  -7    9.17    1.30
  -8  -5   7    9.97    1.19
   7   5  -7   51.01    4.31
  -7  -5   7   57.32    4.04
   6   5  -7   19.42    2.05
  -6  -5   7   24.54    1.90
  -6  -5   7   25.29    1.96
   5   5  -7   54.71    4.78
  -5  -5   7   63.55    4.46
  -5  -5   7   69.08    4.56
   4   5  -7   11.06    1.41
  -4  -5   7   12.24    1.08
  -4  -5   7   14.47    1.25
   3   5  -7   37.92    3.09
  -3  -5   7   36.63    2.67
  -3  -5   7   36.97    2.81
   2   5  -7   16.35    1.26
   2   5  -7   22.28    1.81
  -2  -5   7   16.98    1.36
  -2  -5   7   20.36    1.58
   1   5  -7  115.35    6.94
   1   5  -7  104.57    8.16
   0   5  -7   23.68    2.17
   0  -5   7   25.75    1.76
   0  -5   7   26.93    2.02
  -1   5  -7   85.03    7.00
   1  -5   7   95.43    6.58
   1  -5   7  102.13    6.02
  -2   5  -7   58.03    4.57
   2  -5   7   56.17    4.19
   2  -5   7   63.24    3.88
  -3   5  -7  102.03    7.43
   3  -5   7   95.97    6.34
   3  -5   7  100.56    6.86
  -4   5  -7   51.99    3.96
   4  -5   7   47.30    3.34
  -5   5  -7   44.27    3.72
   5  -5   7   48.71    3.24
  -6   5  -7   31.62    2.69
   6  -5   7   29.54    2.30
  -7   5  -7   40.63    3.40
   7  -5   7   39.85    2.93
   9   4  -7    3.86    0.88
  -9  -4   7    4.46    0.85
   8   4  -7   71.46    5.46
  -8  -4   7   69.37    5.17
   7   4  -7    8.01    1.10
  -7  -4   7    7.90    1.00
   6   4  -7   77.86    6.30
  -6  -4   7   91.51    5.97
  -6  -4   7   83.34    5.97
   5   4  -7    4.90    0.81
  -5  -4   7    8.32    0.90
  -5  -4   7    5.22    0.71
   4   4  -7   93.26    7.44
  -4  -4   7  108.88    7.05
  -4  -4   7  100.36    6.99
   3   4  -7   32.63    2.67
  -3  -4   7   32.75    2.35
  -3  -4   7   30.63    2.44
   2   4  -7  118.32    8.42
  -2  -4   7  112.83    7.86
  -2  -4   7  111.59    7.79
   1   4  -7   40.12    2.87
   1   4  -7   42.04    3.25
  -1  -4   7   40.41    2.61
  -1  -4   7   39.24    2.96
   0   4  -7  146.17   10.05
   0   4  -7  136.48    9.38
   0  -4   7  130.89    8.56
   0  -4   7  139.08    9.41
  -1   4  -7   37.64    2.85
   1  -4   7   29.87    2.53
   1  -4   7   37.38    2.32
  -2   4  -7   53.95    4.05
   2  -4   7   52.50    3.41
   2  -4   7   50.26    3.69
  -3   4  -7   13.13    1.37
   3  -4   7   15.57    1.17
   3  -4   7   11.98    1.07
  -4   4  -7   19.11    1.81
   4  -4   7   21.01    1.56
  -5   4  -7   30.79    2.65
   5  -4   7   32.67    2.32
  -6   4  -7   46.71    3.66
   6  -4   7   44.14    3.17
  -7   4  -7   15.83    1.65
   7  -4   7   17.11    1.49
   9   3  -7   67.20    5.15
  -9  -3   7   63.32    4.90
   8   3  -7    0.30    0.43
  -8  -3   7    0.34    0.42
   7   3  -7   67.50    5.09
  -7  -3   7   59.66    4.68
  -7  -3   7   73.12    4.88
   6   3  -7   12.29    1.29
  -6  -3   7   13.59    1.23
  -6  -3   7   13.28    1.20
   5   3  -7  132.56    9.41
  -5  -3   7  124.57    8.85
  -5  -3   7  129.85    8.93
   4   3  -7    4.63    0.75
  -4  -3   7    6.72    0.77
  -4  -3   7    5.30    0.66
   3   3  -7  185.81   11.82
  -3  -3   7  151.50   11.07
  -3  -3   7  154.07   11.10
   2   3  -7   41.17    3.09
  -2  -3   7   40.91    2.43
  -2  -3   7   34.79    2.80
  -2  -3   7   36.46    2.76
   1   3  -7  164.26   12.47
   1   3  -7  161.64   11.76
  -1  -3   7  179.73   10.67
  -1  -3   7  185.82   11.74
   0   3  -7   68.30    4.87
   0  -3   7   65.13    4.51
   0  -3   7   60.91    4.07
  -1   3  -7  141.39   10.58
   1  -3   7  139.08    9.09
   1  -3   7  157.89    9.93
  -2   3  -7   43.51    3.36
   2  -3   7   44.69    3.06
   2  -3   7   40.24    2.82
  -3   3  -7   65.02    4.89
  -3   3  -7   61.52    4.60
   3  -3   7   69.94    4.49
   3  -3   7   60.77    4.19
  -4   3  -7   41.83    3.39
  -4   3  -7   50.62    3.29
   4  -3   7   38.30    2.90
  -5   3  -7   30.50    2.59
   5  -3   7   32.62    2.30
  -6   3  -7   23.74    2.17
   6  -3   7   26.77    1.96
  -7   3  -7   57.28    4.36
   7  -3   7   53.37    3.85
  -8   3  -7    9.79    1.27
   9   2  -7    0.08    0.42
  -9  -2   7    0.30    0.49
   8   2  -7   67.84    4.93
  -8  -2   7   58.70    4.68
   7   2  -7    1.89    0.55
  -7  -2   7    0.86    0.35
  -7  -2   7    1.41    0.48
   6   2  -7  106.67    7.70
  -6  -2   7  103.57    7.20
  -6  -2   7  103.28    7.35
   5   2  -7    7.58    0.93
  -5  -2   7    7.41    0.84
  -5  -2   7    7.34    0.86
   4   2  -7  158.90   12.25
  -4  -2   7  169.47   11.68
  -4  -2   7  183.34   11.59
   3   2  -7   28.14    2.54
  -3  -2   7   34.81    2.41
  -3  -2   7   33.46    2.40
   2   2  -7  178.95   12.35
   2   2  -7  181.79   13.01
  -2  -2   7  182.28   12.24
   1   2  -7    9.96    1.06
   1   2  -7    9.54    0.91
  -1  -2   7    8.42    0.89
  -1  -2   7   12.38    0.77
   0   2  -7  139.72    9.83
   0   2  -7  131.25    9.33
   0  -2   7  136.43    9.21
  -1   2  -7   42.92    2.72
  -1   2  -7   32.93    2.81
   1  -2   7   37.06    2.38
   1  -2   7   31.87    2.56
  -2   2  -7   91.74    7.31
  -2   2  -7  104.36    7.68
   2  -2   7  104.83    6.65
   2  -2   7  119.20    7.19
  -3   2  -7   23.84    1.65
  -3   2  -7   18.41    1.59
   3  -2   7   17.24    1.40
   3  -2   7   15.58    1.35
  -4   2  -7   98.14    6.92
  -4   2  -7   80.90    6.63
   4  -2   7  103.13    6.08
  -5   2  -7   26.65    2.17
  -5   2  -7   25.27    2.17
   5  -2   7   25.26    1.94
  -6   2  -7   58.93    4.42
  -6   2  -7   54.24    4.36
   6  -2   7   59.16    3.94
  -7   2  -7   16.29    1.63
   7  -2   7   18.34    1.54
   9   1  -7   65.56    5.38
  -9  -1   7   74.61    5.29
   8   1  -7    0.36    0.42
  -8  -1   7    0.14    0.40
   7   1  -7  144.63   10.57
  -7  -1   7  140.66   10.14
  -7  -1   7  149.58    9.91
   6   1  -7    0.45    0.33
  -6  -1   7    0.43    0.34
  -6  -1   7    0.07    0.24
   5   1  -7  160.22   10.15
  -5  -1   7  130.20    9.64
  -5  -1   7  129.95    9.50
   4   1  -7    0.99    0.36
  -4  -1   7    0.61    0.29
  -4  -1   7    0.79    0.30
   3   1  -7  131.46    9.63
  -3  -1   7  130.44    9.19
  -3  -1   7  138.46    9.09
   2   1  -7    4.93    0.66
   2   1  -7    4.57    0.60
  -2  -1   7    3.49    0.52
   1   1  -7  113.36    8.94
   1   1  -7  135.46    8.57
  -1  -1   7  120.76    7.66
  -1  -1   7  126.46    8.42
   0   1  -7    0.09    0.24
   0   1  -7    0.63    0.31
   0  -1   7    0.34    0.20
   0  -1   7    0.94    0.22
  -1   1  -7  131.67    9.71
  -1   1  -7  132.45   10.11
   1  -1   7  141.82    9.52
   1  -1   7  155.74    8.80
  -2   1  -7   29.24    1.92
  -2   1  -7   21.44    1.82
   2  -1   7   20.31    1.59
   2  -1   7   21.05    1.67
  -3   1  -7  174.35   12.59
   3  -1   7  190.89   11.87
   3  -1   7  161.82   11.01
  -4   1  -7   12.53    1.35
  -4   1  -7   11.52    1.06
   4  -1   7    9.88    0.97
  -5   1  -7  121.65    7.34
  -5   1  -7   90.54    7.35
   5  -1   7   96.69    6.51
  -6   1  -7   20.91    1.88
  -6   1  -7   23.53    2.06
   6  -1   7   22.58    1.75
  -7   1  -7   93.05    6.47
   7  -1   7   81.07    5.71
  -8   1  -7    8.00    1.29
   9   0  -7   -0.04    0.43
  -9   0   7    1.06    0.54
   8   0  -7   74.96    5.36
  -8   0   7   64.05    5.14
   7   0  -7    1.54    0.48
  -7   0   7    1.57    0.41
  -7   0   7    2.06    0.57
   6   0  -7  175.85   12.58
  -6   0   7  160.52   12.04
  -6   0   7  186.43   11.85
   5   0  -7    1.20    0.39
  -5   0   7    1.16    0.38
  -5   0   7    0.66    0.28
   4   0  -7  149.50    9.43
  -4   0   7  120.43    9.00
  -4   0   7  121.23    8.86
   3   0  -7    3.91    0.59
  -3   0   7    4.25    0.56
   2   0  -7  128.34    8.92
   2   0  -7  119.80    8.56
  -2   0   7  122.65    8.43
   1   0  -7    1.47    0.37
   1   0  -7    1.19    0.35
  -1   0   7    1.50    0.33
  -1   0   7    1.52    0.24
   0   0  -7  159.12   11.74
   0   0  -7  156.80   11.32
   0   0   7  164.65   11.10
   0   0   7  175.31   10.20
  -1   0  -7    1.83    0.46
  -1   0  -7    1.99    0.39
   1   0   7    1.71    0.34
   1   0   7    1.58    0.32
  -2   0  -7  120.61    8.74
  -2   0  -7  129.92    8.95
   2   0   7  126.67    8.47
   2   0   7  120.54    7.86
  -3   0  -7   16.73    1.48
  -3   0  -7   22.00    1.74
   3   0   7   20.32    1.43
   3   0   7   16.64    1.38
  -4   0  -7  182.90   11.88
   4   0   7  158.06   10.66
  -5   0  -7    5.73    0.99
   5   0   7    6.45    0.82
  -6   0  -7   57.78    4.57
   6   0   7   60.26    4.05
  -7   0  -7    3.26    0.89
   7   0   7    5.26    0.82
  -9   1   7   74.42    5.60
   8  -1  -7    1.37    0.51
  -8   1   7    2.53    0.67
   7  -1  -7  152.50   10.23
  -7   1   7  129.47    9.53
  -7   1   7  140.10    9.84
   6  -1  -7    0.65    0.36
  -6   1   7    0.26    0.32
  -6   1   7    0.77    0.31
   5  -1  -7  152.71   10.72
  -5   1   7  143.53   10.30
  -5   1   7  149.41   10.11
   4  -1  -7    4.43    0.63
  -4   1   7    4.36    0.66
  -4   1   7    4.75    0.61
   3  -1  -7  106.43    7.98
   3  -1  -7  131.83    8.28
  -3   1   7  104.50    7.80
   2  -1  -7    2.64    0.49
   2  -1  -7    2.27    0.40
  -2   1   7    1.85    0.36
  -2   1   7    1.90    0.27
   1  -1  -7  235.88   16.01
   1  -1  -7  238.88   16.63
  -1   1   7  239.89   15.75
  -1   1   7  222.44   14.44
   0  -1  -7   14.19    1.26
   0  -1  -7   12.82    1.12
   0   1   7   11.62    0.99
   0   1   7   14.08    1.10
  -1  -1  -7  198.24   13.30
  -1  -1  -7  170.66   12.93
   1   1   7  210.51   12.66
   1   1   7  168.07   11.67
  -2  -1  -7    6.98    0.99
   2   1   7    6.69    0.68
   2   1   7    7.57    0.78
  -3  -1  -7  105.40    8.25
   3   1   7  125.04    7.45
   3   1   7  117.46    7.92
  -4  -1  -7    7.90    1.08
   4   1   7    5.27    0.76
  -5  -1  -7   62.05    4.71
   5   1   7   60.46    4.14
  -6  -1  -7    9.45    1.36
   6   1   7    9.30    1.09
  -7  -1  -7   43.70    3.68
   9  -2  -7    8.98    1.24
  -9   2   7    9.57    1.32
   8  -2  -7   60.52    5.04
  -8   2   7   73.60    5.03
   7  -2  -7   25.69    1.94
  -7   2   7   20.08    1.68
  -7   2   7   18.52    1.85
   6  -2  -7  131.18    9.04
  -6   2   7  120.39    8.72
  -6   2   7  120.40    8.48
   5  -2  -7    4.77    0.67
  -5   2   7    4.62    0.73
  -5   2   7    3.85    0.57
   4  -2  -7  108.94    9.05
   4  -2  -7  130.62    8.85
  -4   2   7  140.30    8.63
   3  -2  -7    3.75    0.52
   3  -2  -7    3.03    0.57
  -3   2   7    3.04    0.48
   2  -2  -7  180.17   12.07
   2  -2  -7  168.28   11.69
  -2   2   7  167.63   10.50
  -2   2   7  160.67   11.45
   1  -2  -7   13.27    1.13
  -1   2   7    9.62    0.90
  -1   2   7    9.33    0.82
   0  -2  -7  216.37   14.57
   0   2   7  213.69   14.24
   0   2   7  204.52   13.13
  -1  -2  -7    0.69    0.42
   1   2   7    0.51    0.28
   1   2   7    0.69    0.27
  -2  -2  -7  142.31   10.72
   2   2   7  153.88    9.67
   2   2   7  161.20   10.39
  -3  -2  -7    4.67    0.85
   3   2   7    3.74    0.53
   3   2   7    4.03    0.62
  -4  -2  -7   92.88    6.48
   4   2   7   82.99    5.72
  -5  -2  -7    2.35    0.73
   5   2   7    1.99    0.57
  -6  -2  -7   58.20    4.69
   6   2   7   60.88    4.15
   9  -3  -7   71.96    5.33
  -9   3   7   64.32    5.17
   8  -3  -7   15.90    1.57
  -8   3   7   15.48    1.60
   7  -3  -7   39.91    3.71
  -7   3   7   55.85    3.54
  -7   3   7   50.23    3.75
   6  -3  -7   11.02    1.10
  -6   3   7   10.62    0.99
  -6   3   7   10.21    1.23
   5  -3  -7  104.43    7.44
   5  -3  -7  108.39    7.61
  -5   3   7  100.19    7.19
   4  -3  -7   19.48    1.69
   4  -3  -7   20.04    1.58
  -4   3   7   16.82    1.49
   3  -3  -7  117.03    8.53
  -3   3   7  125.90    8.35
   2  -3  -7   11.13    1.19
  -2   3   7   11.90    1.08
  -2   3   7   13.37    0.99
   1  -3  -7  193.58   13.18
  -1   3   7  188.42   11.86
  -1   3   7  189.36   12.87
   0  -3  -7   15.85    1.52
   0   3   7   14.94    1.30
   0   3   7   17.04    1.26
  -1  -3  -7  118.56    8.53
   1   3   7  114.17    8.20
   1   3   7  128.05    7.67
  -2  -3  -7    1.32    0.56
   2   3   7    0.75    0.31
   2   3   7    0.77    0.35
  -3  -3  -7  117.49    7.75
   3   3   7  106.96    6.86
   3   3   7   97.32    7.26
  -4  -3  -7   -0.37    0.49
   4   3   7    0.14    0.38
  -5  -3  -7   72.75    5.52
   5   3   7   71.08    4.86
   9  -4  -7    6.35    1.03
   8  -4  -7   74.57    5.74
  -8   4   7   76.70    5.63
  -7   4   7   17.90    1.52
   6  -4  -7   83.50    6.08
  -6   4   7   82.37    5.80
   5  -4  -7    3.71    0.73
  -5   4   7    3.84    0.59
   4  -4  -7   84.08    6.13
  -4   4   7   85.97    5.95
   3  -4  -7    3.50    0.68
  -3   4   7    3.37    0.54
   2  -4  -7  108.23    7.35
  -2   4   7  103.13    7.10
  -2   4   7   97.94    6.54
   1  -4  -7    7.65    1.05
  -1   4   7    9.76    0.85
  -1   4   7    7.06    0.85
   0  -4  -7   61.76    4.64
   0   4   7   61.95    4.38
   0   4   7   61.78    4.11
  -1  -4  -7   14.11    1.47
   1   4   7   13.46    1.21
   1   4   7   14.20    1.22
  -2  -4  -7   73.54    5.60
   2   4   7   75.22    5.28
   2   4   7   76.54    5.00
  -3  -4  -7    0.21    0.48
   3   4   7    1.20    0.46
   3   4   7    0.12    0.30
  -4  -4  -7   89.61    6.60
   4   4   7   87.11    5.86
  -5  -4  -7    0.87    0.68
   5   4   7    0.60    0.48
   8  -5  -7    9.14    1.31
   7  -5  -7   46.30    3.65
  -7   5   7   44.86    3.37
   6  -5  -7    8.80    1.23
  -6   5   7   10.59    1.04
   5  -5  -7  105.60    7.79
  -5   5   7  112.24    7.59
   4  -5  -7    6.41    1.02
  -4   5   7    9.52    0.91
   3  -5  -7   71.11    5.30
  -3   5   7   72.94    5.12
   2  -5  -7    6.94    1.01
  -2   5   7    5.73    0.77
  -2   5   7    7.05    0.82
   1  -5  -7   76.99    6.01
  -1   5   7   87.14    5.42
  -1   5   7   83.17    5.81
   0  -5  -7    8.78    1.22
   0   5   7    9.93    0.97
   0   5   7   10.00    1.07
  -1  -5  -7   46.08    3.66
   1   5   7   47.52    3.39
   1   5   7   43.97    3.21
  -2  -5  -7    9.07    1.25
   2   5   7    7.25    0.90
   2   5   7    7.76    0.98
  -3  -5  -7   57.48    4.61
   3   5   7   63.28    4.15
   3   5   7   58.01    4.29
  -4  -5  -7    4.51    1.00
   4   5   7    3.25    0.73
   7  -6  -7   21.65    2.09
  -7   6   7   22.32    1.87
   6  -6  -7   64.39    4.75
  -6   6   7   60.70    4.52
   5  -6  -7   17.31    1.63
  -5   6   7   14.94    1.42
   4  -6  -7   84.47    5.89
  -4   6   7   75.88    5.65
   3  -6  -7   11.86    1.43
  -3   6   7   11.45    1.14
   2  -6  -7   56.74    4.40
  -2   6   7   59.23    4.23
   1  -6  -7    8.53    1.21
  -1   6   7    8.86    1.04
  -1   6   7   10.32    1.11
   0  -6  -7   63.91    5.13
   0   6   7   69.07    4.95
   0   6   7   73.88    4.69
  -1  -6  -7   14.75    1.46
   1   6   7   11.11    1.18
   1   6   7   11.74    1.29
  -2  -6  -7   71.15    5.07
   2   6   7   64.12    4.47
   2   6   7   61.14    4.66
  -3  -6  -7    0.30    0.60
   3   6   7    1.09    0.54
   5  -7  -7   40.12    3.29
   4  -7  -7   15.65    1.76
  -4   7   7   15.55    1.47
   3  -7  -7   39.70    3.17
  -3   7   7   38.50    3.00
   2  -7  -7   14.85    1.59
  -2   7   7   15.70    1.44
   1  -7  -7   51.64    3.77
  -1   7   7   42.56    3.51
  -1   7   7   49.14    3.40
   0  -7  -7    4.70    0.94
   0   7   7    4.81    0.80
   0   7   7    5.38    0.88
  -1  -7  -7   78.23    5.50
   1   7   7   66.72    4.89
   1   7   7   70.84    5.18
  -2  -7  -7    8.74    1.14
   2  -8  -7   30.47    2.66
   3  10  -8   58.54    4.70
  -3 -10   8   56.10    4.36
   2  10  -8    1.83    0.72
  -2 -10   8    1.10    0.57
   1  10  -8   60.62    4.97
   1  10  -8   58.64    4.20
  -1 -10   8   67.30    4.69
   0  10  -8    0.03    0.39
   0  10  -8   -0.07    0.49
   0 -10   8    0.94    0.52
  -1  10  -8   55.14    4.68
   1 -10   8   61.34    4.41
  -2  10  -8    0.32    0.58
   2 -10   8    0.19    0.45
   2 -10   8    0.21    0.38
   3 -10   8   31.71    2.61
   6   9  -8   43.09    3.80
  -6  -9   8   43.13    3.41
   5   9  -8    5.57    1.16
  -5  -9   8    5.05    0.92
   4   9  -8   47.32    3.57
  -4  -9   8   33.95    3.09
   3   9  -8    3.77    0.95
  -3  -9   8    3.03    0.73
   2   9  -8   64.29    5.09
  -2  -9   8   62.93    4.72
   1   9  -8    4.67    0.71
   1   9  -8    5.78    1.03
  -1  -9   8    4.20    0.82
   0   9  -8   37.87    3.26
   0   9  -8   38.64    2.72
   0  -9   8   37.39    3.00
  -1   9  -8    0.27    0.52
   1  -9   8    0.83    0.37
   1  -9   8    1.00    0.52
  -2   9  -8   47.07    3.97
   2  -9   8   48.27    3.65
   2  -9   8   48.38    3.34
  -3   9  -8   -0.27    0.50
   3  -9   8   -0.32    0.34
   3  -9   8    0.35    0.42
   4  -9   8   49.56    3.48
   7   8  -8   29.80    2.83
   6   8  -8    7.60    1.34
  -6  -8   8    9.67    1.22
   5   8  -8   68.36    5.13
  -5  -8   8   57.87    4.60
   4   8  -8    1.92    0.78
  -4  -8   8    2.68    0.64
   3   8  -8  116.12    8.57
  -3  -8   8  110.20    7.96
   2   8  -8   11.09    1.52
  -2  -8   8   13.55    1.32
   1   8  -8   69.05    5.18
   1   8  -8   67.86    4.33
  -1  -8   8   59.94    4.77
   0   8  -8    0.87    0.40
   0   8  -8    1.30    0.57
   0  -8   8    0.93    0.48
  -1   8  -8   60.24    4.65
   1  -8   8   62.00    3.90
   1  -8   8   52.51    4.26
  -2   8  -8    5.65    0.98
   2  -8   8    4.61    0.70
   2  -8   8    4.62    0.76
  -3   8  -8   45.71    3.95
   3  -8   8   48.81    3.34
   3  -8   8   49.71    3.61
  -4   8  -8    0.85    0.63
   4  -8   8    0.73    0.43
   5  -8   8   60.22    4.14
   8   7  -8   30.22    2.83
   7   7  -8   19.78    2.07
   6   7  -8   33.30    3.11
  -6  -7   8   38.31    2.90
   5   7  -8   20.47    2.12
  -5  -7   8   22.68    1.92
   4   7  -8   57.02    4.57
  -4  -7   8   55.01    4.15
   3   7  -8   21.71    1.99
  -3  -7   8   16.20    1.60
   2   7  -8   60.90    5.03
  -2  -7   8   66.83    4.69
   1   7  -8   15.05    1.57
   1   7  -8   14.89    1.18
  -1  -7   8   13.10    1.35
   0   7  -8   62.83    4.82
   0  -7   8   58.46    3.99
   0  -7   8   63.04    4.47
  -1   7  -8    6.05    0.99
   1  -7   8    6.12    0.88
   1  -7   8    7.98    0.82
  -2   7  -8   97.73    7.61
   2  -7   8   97.91    6.50
   2  -7   8  108.16    7.12
  -3   7  -8    9.61    1.35
   3  -7   8   11.16    1.02
   3  -7   8   10.62    1.08
  -4   7  -8   65.23    5.18
  -5   7  -8    2.12    0.71
   5  -7   8    2.09    0.55
  -9  -6   8   19.02    1.83
   8   6  -8   14.34    1.72
  -8  -6   8   12.98    1.35
   7   6  -8   37.25    3.43
  -7  -6   8   43.51    3.15
   6   6  -8   25.73    2.59
  -6  -6   8   34.26    2.50
   5   6  -8   42.59    3.48
  -5  -6   8   40.50    3.18
   4   6  -8   15.88    1.78
  -4  -6   8   20.13    1.65
   3   6  -8   67.61    5.62
  -3  -6   8   77.09    5.25
   2   6  -8   40.14    3.35
  -2  -6   8   40.13    3.07
   1   6  -8   60.77    5.18
  -1  -6   8   75.40    4.35
  -1  -6   8   64.12    4.85
   0   6  -8   12.46    1.44
   0  -6   8   15.63    1.36
   0  -6   8   15.52    1.16
  -1   6  -8   92.35    7.23
   1  -6   8   95.40    6.16
   1  -6   8  101.75    6.78
  -2   6  -8   12.14    1.45
   2  -6   8   10.90    1.14
   2  -6   8   13.68    1.07
  -3   6  -8  151.63   11.90
   3  -6   8  172.74   11.14
  -4   6  -8   18.64    1.90
   4  -6   8   19.92    1.57
  -5   6  -8   71.00    5.59
   5  -6   8   72.12    4.81
  -6   6  -8    2.16    0.75
   6  -6   8    3.61    0.68
  -9  -5   8   25.02    2.21
   8   5  -8   45.61    3.60
  -8  -5   8   39.43    3.25
   7   5  -8   39.52    3.22
  -7  -5   8   35.69    2.92
  -7  -5   8   38.71    2.96
   6   5  -8   42.80    3.55
  -6  -5   8   44.27    3.32
  -6  -5   8   43.48    3.26
   5   5  -8   40.07    3.40
  -5  -5   8   42.61    3.08
  -5  -5   8   41.47    3.17
   4   5  -8   50.44    4.12
  -4  -5   8   54.57    3.86
  -4  -5   8   50.76    3.72
   3   5  -8   24.66    2.13
  -3  -5   8   20.21    1.83
  -3  -5   8   22.41    1.71
   2   5  -8   71.63    5.45
  -2  -5   8   69.27    5.03
   1   5  -8   62.87    4.87
  -1  -5   8   62.81    4.02
   0   5  -8   57.19    4.60
   0  -5   8   65.56    3.86
   0  -5   8   54.78    4.27
  -1   5  -8   27.47    2.33
   1  -5   8   29.27    2.12
   1  -5   8   24.40    1.85
  -2   5  -8   71.61    5.76
   2  -5   8   76.02    4.91
   2  -5   8   79.70    5.36
  -3   5  -8   23.50    2.23
   3  -5   8   25.22    1.96
   3  -5   8   25.82    1.85
  -4   5  -8   65.16    5.44
   4  -5   8   76.50    4.72
  -5   5  -8    9.59    1.22
   5  -5   8    7.73    0.98
  -6   5  -8   54.06    4.36
   9   4  -8   16.10    1.78
  -9  -4   8   16.94    1.68
   8   4  -8   40.24    3.43
  -8  -4   8   41.91    3.23
   7   4  -8   31.90    2.79
  -7  -4   8   34.23    2.61
  -7  -4   8   31.83    2.56
   6   4  -8   48.40    3.81
  -6  -4   8   46.82    3.52
  -6  -4   8   47.26    3.55
   5   4  -8   47.81    3.81
  -5  -4   8   46.64    3.51
  -5  -4   8   49.65    3.58
   4   4  -8   68.99    5.09
  -4  -4   8   66.55    4.68
  -4  -4   8   62.67    4.73
   3   4  -8   78.45    5.64
  -3  -4   8   73.98    5.15
  -3  -4   8   68.75    5.21
   2   4  -8   34.95    2.68
   2   4  -8   34.90    3.01
  -2  -4   8   41.00    2.82
   1   4  -8  127.99   10.57
   1   4  -8  151.18    9.94
  -1  -4   8  154.46    9.02
  -1  -4   8  144.62    9.96
   0   4  -8   37.54    3.05
   0  -4   8   35.65    2.48
   0  -4   8   40.97    2.83
  -1   4  -8  102.05    7.04
   1  -4   8   91.01    6.51
   1  -4   8   90.38    5.94
  -2   4  -8   29.56    2.51
   2  -4   8   28.59    2.08
   2  -4   8   31.37    2.27
  -3   4  -8   62.62    4.91
   3  -4   8   64.05    4.19
   3  -4   8   63.99    4.47
  -4   4  -8   17.89    1.77
   4  -4   8   18.88    1.47
  -5   4  -8   46.67    3.72
   5  -4   8   45.84    3.21
  -6   4  -8   19.80    1.96
   6  -4   8   21.67    1.73
  -7   4  -8   51.76    4.18
   9   3  -8   52.29    4.51
  -9  -3   8   61.17    4.39
   8   3  -8   13.17    1.47
  -8  -3   8   14.68    1.43
   7   3  -8   31.01    2.45
  -7  -3   8   28.48    2.29
  -7  -3   8   24.55    2.16
   6   3  -8   40.35    3.16
  -6  -3   8   41.46    2.97
  -6  -3   8   34.68    2.89
   5   3  -8   49.24    3.52
  -5  -3   8   44.89    3.24
  -5  -3   8   37.89    3.19
   4   3  -8   62.99    4.88
  -4  -3   8   61.99    4.57
  -4  -3   8   66.72    4.57
   3   3  -8   60.82    4.51
  -3  -3   8   60.50    4.20
  -3  -3   8   54.73    4.14
   2   3  -8   86.35    6.29
   2   3  -8   91.98    6.76
  -2  -3   8   93.41    6.31
   1   3  -8   93.44    6.24
   1   3  -8   86.16    5.79
  -1  -3   8   78.28    5.76
  -1  -3   8   76.52    5.18
   0   3  -8   67.13    5.13
   0   3  -8   70.67    5.49
   0  -3   8   82.08    5.15
  -1   3  -8   38.20    3.02
   1  -3   8   36.01    2.48
   1  -3   8   38.17    2.74
  -2   3  -8   63.53    4.79
  -2   3  -8   62.01    5.06
   2  -3   8   64.72    4.68
   2  -3   8   78.13    4.38
  -3   3  -8   54.70    4.15
   3  -3   8   52.17    3.55
   3  -3   8   53.68    3.77
  -4   3  -8   49.86    3.95
   4  -3   8   51.38    3.43
  -5   3  -8   15.00    1.48
   5  -3   8   15.37    1.33
  -6   3  -8   48.50    3.84
   6  -3   8   48.23    3.40
  -7   3  -8   16.65    1.67
   9   2  -8   13.99    1.56
  -9  -2   8   15.03    1.55
   8   2  -8   62.02    5.09
  -8  -2   8   69.90    4.94
   7   2  -8   11.21    1.17
  -7  -2   8   10.07    1.00
  -7  -2   8    8.29    1.10
   6   2  -8   57.84    4.81
  -6  -2   8   65.99    4.63
  -6  -2   8   66.02    4.53
   5   2  -8   29.30    2.44
  -5  -2   8   30.62    2.31
  -5  -2   8   28.25    2.25
   4   2  -8  134.34    9.16
  -4  -2   8  121.77    8.66
  -4  -2   8  120.08    8.59
   3   2  -8   76.65    5.76
  -3  -2   8   75.19    5.42
  -3  -2   8   79.35    5.41
   2   2  -8   89.83    6.39
   2   2  -8   98.41    6.80
  -2  -2   8   86.86    6.32
   1   2  -8   41.19    3.04
   1   2  -8   42.05    3.27
  -1  -2   8   36.45    2.64
  -1  -2   8   48.03    3.04
   0   2  -8   44.94    3.22
   0   2  -8   43.96    3.40
   0  -2   8   46.25    3.15
   0  -2   8   39.90    2.83
  -1   2  -8   59.16    4.53
  -1   2  -8   55.29    4.30
   1  -2   8   64.44    4.21
  -2   2  -8   61.10    4.43
  -2   2  -8   63.02    4.62
   2  -2   8   59.15    4.27
  -3   2  -8   45.67    3.38
  -3   2  -8   46.22    3.48
   3  -2   8   40.61    3.00
   3  -2   8   46.12    3.19
  -4   2  -8   49.25    3.81
  -4   2  -8   52.32    3.90
   4  -2   8   49.65    3.42
  -5   2  -8   76.35    5.58
  -5   2  -8   75.46    5.69
   5  -2   8   76.14    5.03
  -6   2  -8   35.53    2.90
   6  -2   8   35.88    2.63
   9   1  -8   30.77    2.67
  -9  -1   8   29.71    2.63
   8   1  -8    7.50    1.08
  -8  -1   8    8.09    1.11
   7   1  -8   24.18    2.15
  -7  -1   8   25.05    2.08
  -7  -1   8   23.48    1.93
   6   1  -8   31.53    2.59
  -6  -1   8   31.93    2.40
  -6  -1   8   30.35    2.48
   5   1  -8   84.44    6.26
  -5  -1   8   84.48    5.89
  -5  -1   8   83.97    5.99
   4   1  -8   28.39    2.08
  -4  -1   8   23.75    1.88
  -4  -1   8   20.80    1.89
   3   1  -8  112.34    7.81
   3   1  -8  104.19    8.14
  -3  -1   8  118.69    7.70
   2   1  -8   38.34    3.11
   2   1  -8   40.75    2.97
  -2  -1   8   40.50    2.91
   1   1  -8  114.26    8.33
   1   1  -8  117.33    7.97
  -1  -1   8  111.15    7.81
   0   1  -8   32.49    2.74
   0   1  -8   34.31    2.67
   0  -1   8   40.55    2.34
   0  -1   8   31.84    2.54
  -1   1  -8   48.09    3.83
  -1   1  -8   45.14    3.71
   1  -1   8   52.61    3.59
   1  -1   8   55.26    3.33
  -2   1  -8   69.51    5.28
   2  -1   8   67.35    4.95
   2  -1   8   77.73    4.64
  -3   1  -8   71.21    5.63
  -3   1  -8   75.11    5.75
   3  -1   8   80.34    5.41
   3  -1   8   85.66    5.10
  -4   1  -8   69.11    4.92
  -4   1  -8   61.89    4.88
   4  -1   8   65.85    4.37
  -5   1  -8   43.73    3.45
   5  -1   8   43.33    3.04
  -6   1  -8   36.73    3.09
   6  -1   8   38.12    2.73
  -7   1  -8   16.99    1.96
   9   0  -8    6.20    1.01
  -9   0   8    5.90    1.02
   8   0  -8   48.04    3.92
  -8   0   8   50.98    3.86
   7   0  -8   20.44    1.81
  -7   0   8   19.19    1.60
  -7   0   8   18.46    1.74
   6   0  -8   95.40    6.40
  -6   0   8   84.33    6.12
  -6   0   8   77.42    5.93
   5   0  -8   21.84    1.91
  -5   0   8   23.36    1.90
  -5   0   8   22.00    1.78
   4   0  -8   87.59    7.39
  -4   0   8  109.80    7.04
  -4   0   8  108.43    7.17
   3   0  -8   44.17    3.29
   3   0  -8   45.58    3.37
  -3   0   8   41.47    3.16
   2   0  -8   99.85    6.66
   2   0  -8   99.48    6.92
  -2   0   8   84.69    6.49
   1   0  -8   20.28    1.66
   1   0  -8   18.31    1.66
  -1   0   8   19.55    1.54
   0   0  -8   92.65    6.66
   0   0  -8   95.37    6.85
   0   0   8   93.36    6.47
  -1   0  -8   38.77    2.68
  -1   0  -8   31.53    2.55
   1   0   8   29.15    2.23
   1   0   8   34.26    2.43
  -2   0  -8   83.13    6.00
  -2   0  -8   79.32    6.02
   2   0   8   91.52    5.36
   2   0   8   78.51    5.71
  -3   0  -8   24.59    2.07
   3   0   8   21.90    1.74
   3   0   8   23.65    1.75
  -4   0  -8   56.13    4.29
   4   0   8   55.96    3.79
  -5   0  -8   56.60    4.14
   5   0   8   49.01    3.58
  -6   0  -8   29.46    2.59
   6   0   8   27.77    2.18
  -7   0  -8   27.14    2.55
   9  -1  -8   72.66    5.33
  -9   1   8   62.85    5.14
   8  -1  -8    2.98    0.70
  -8   1   8    2.69    0.71
   7  -1  -8   80.76    5.92
  -7   1   8   72.57    5.71
  -7   1   8   81.13    5.51
   6  -1  -8   27.16    2.22
  -6   1   8   25.07    2.17
  -6   1   8   25.83    2.03
   5  -1  -8  109.14    7.82
  -5   1   8  112.03    7.38
  -5   1   8   98.39    7.52
   4  -1  -8   17.08    1.64
   4  -1  -8   19.29    1.64
  -4   1   8   19.76    1.55
   3  -1  -8   85.41    6.49
   3  -1  -8   98.58    6.72
  -3   1   8   90.58    6.36
   2  -1  -8   55.13    4.32
   2  -1  -8   67.89    4.46
  -2   1   8   54.90    4.19
   1  -1  -8   56.42    3.66
   1  -1  -8   45.98    3.60
  -1   1   8   43.78    3.41
   0  -1  -8   86.41    5.86
   0   1   8   71.84    5.14
   0   1   8   85.83    5.62
  -1  -1  -8   78.75    6.05
   1   1   8   87.55    5.80
  -2  -1  -8   47.52    3.69
   2   1   8   50.35    3.23
   2   1   8   44.87    3.37
  -3  -1  -8   61.49    4.93
   3   1   8   74.32    4.42
   3   1   8   62.35    4.58
  -4  -1  -8   25.00    2.06
   4   1   8   18.31    1.63
  -5  -1  -8   36.13    2.92
   5   1   8   31.26    2.46
   6   1   8   20.37    1.75
   9  -2  -8    1.54    0.62
  -9   2   8    1.23    0.62
   8  -2  -8   73.02    5.80
  -8   2   8   80.01    5.70
   7  -2  -8    3.15    0.68
  -7   2   8    4.19    0.63
  -7   2   8    3.23    0.75
   6  -2  -8   92.83    7.63
  -6   2   8  108.59    7.47
  -6   2   8  112.06    7.23
   5  -2  -8   13.11    1.40
   5  -2  -8   13.47    1.31
  -5   2   8   14.84    1.24
   4  -2  -8  113.53    9.18
   4  -2  -8  132.60    8.99
  -4   2   8  137.97    8.76
   3  -2  -8   16.60    1.53
  -3   2   8   16.97    1.40
   2  -2  -8  118.12    8.49
  -2   2   8  122.96    8.28
   1  -2  -8   26.66    2.32
  -1   2   8   29.70    2.17
   0  -2  -8   72.02    5.43
   0   2   8   75.75    5.16
   0   2   8   73.27    4.77
  -1  -2  -8   47.68    3.81
   1   2   8   51.46    3.33
   1   2   8   48.62    3.53
  -2  -2  -8   83.53    5.81
   2   2   8   76.94    5.43
   2   2   8   74.80    5.10
  -3  -2  -8   11.27    1.51
   3   2   8   15.10    1.25
   3   2   8   12.75    1.14
  -4  -2  -8   46.84    4.08
   4   2   8   56.40    3.65
  -5  -2  -8   18.42    1.92
   5   2   8   18.49    1.62
   9  -3  -8   76.34    5.90
   8  -3  -8    4.78    0.86
  -8   3   8    5.32    0.94
   7  -3  -8   97.07    6.75
  -7   3   8   85.72    6.28
  -7   3   8   87.43    6.56
   6  -3  -8    1.11    0.53
  -6   3   8    2.11    0.48
   5  -3  -8   72.13    5.27
  -5   3   8   70.37    5.03
   4  -3  -8    5.04    0.82
  -4   3   8    4.88    0.68
   3  -3  -8  122.33    8.85
  -3   3   8  128.47    8.64
   2  -3  -8   17.50    1.58
  -2   3   8   15.69    1.37
   1  -3  -8  105.00    7.71
  -1   3   8  110.75    7.47
   0  -3  -8   12.66    1.56
   0   3   8   14.20    1.26
   0   3   8   15.81    1.22
  -1  -3  -8   69.19    5.43
   1   3   8   78.40    5.16
   1   3   8   70.84    4.82
  -2  -3  -8   31.19    2.60
   2   3   8   29.57    2.26
   2   3   8   28.54    2.20
  -3  -3  -8   79.06    5.72
   3   3   8   72.14    5.01
  -4  -3  -8   12.08    1.52
   4   3   8    8.86    1.11
  -5  -3  -8   40.05    3.40
   5   3   8   38.77    2.93
   8  -4  -8   39.93    3.30
   7  -4  -8    1.18    0.59
  -7   4   8    1.07    0.43
   6  -4  -8   77.85    5.75
  -6   4   8   77.06    5.48
   5  -4  -8    3.83    0.78
  -5   4   8    3.79    0.63
   4  -4  -8   90.65    6.50
  -4   4   8   88.77    6.28
   3  -4  -8    4.02    0.77
  -3   4   8    3.23    0.58
   2  -4  -8  122.50    8.07
  -2   4   8  104.43    7.75
   1  -4  -8    8.54    1.17
  -1   4   8    8.28    0.87
   0  -4  -8   79.18    5.81
   0   4   8   84.41    5.17
   0   4   8   72.37    5.48
  -1  -4  -8    3.24    0.78
   1   4   8    2.17    0.53
   1   4   8    3.46    0.58
  -2  -4  -8   79.09    5.81
   2   4   8   74.97    5.42
   2   4   8   77.56    5.14
  -3  -4  -8    3.08    0.84
   3   4   8    5.05    0.82
  -4  -4  -8   71.47    5.39
   4   4   8   67.09    4.72
   7  -5  -8   48.13    3.68
  -7   5   8   43.50    3.40
   6  -5  -8    0.48    0.54
  -6   5   8    0.31    0.40
   5  -5  -8   99.86    7.25
  -5   5   8  100.02    7.01
   4  -5  -8    0.43    0.49
  -4   5   8    0.50    0.35
   3  -5  -8   89.91    6.36
  -3   5   8   84.21    6.11
   2  -5  -8    6.12    0.98
  -2   5   8    6.04    0.81
   1  -5  -8  114.88    8.26
   0  -5  -8    2.62    0.72
   0   5   8    2.06    0.53
   0   5   8    1.72    0.48
  -1  -5  -8   58.20    4.49
   1   5   8   57.92    3.96
   1   5   8   56.22    4.15
  -2  -5  -8   11.05    1.54
   2   5   8   11.41    1.27
   2   5   8   11.33    1.14
  -3  -5  -8   54.95    4.60
   3   5   8   62.36    4.15
   6  -6  -8   86.64    6.31
  -6   6   8   83.26    6.05
   5  -6  -8    0.68    0.55
  -5   6   8    0.72    0.45
  -4   6   8   76.65    5.49
   3  -6  -8   -0.03    0.48
  -3   6   8    0.36    0.37
   2  -6  -8   62.44    4.66
  -2   6   8   58.78    4.39
   1  -6  -8    5.70    1.01
  -1   6   8    4.55    0.76
   0  -6  -8   58.04    4.47
   0   6   8   59.13    3.99
   0   6   8   55.23    4.19
  -1  -6  -8    3.14    0.84
   1   6   8    2.19    0.65
   1   6   8    3.15    0.63
   2   6   8   77.87    5.25
   2   6   8   75.84    5.51
   4  -7  -8    5.06    0.99
   3  -7  -8   75.26    5.68
   2  -7  -8    1.11    0.63
   4  10  -9    0.46    0.72
   3  10  -9   39.82    3.53
   2  10  -9    5.75    1.16
   1  10  -9   43.91    3.58
  -1 -10   9   37.93    3.21
   0  10  -9    5.27    1.02
   0 -10   9    3.72    0.82
  -1  10  -9   39.97    3.45
   1 -10   9   39.44    3.15
   1 -10   9   40.26    2.86
   2 -10   9    8.01    0.99
   5   9  -9    3.49    1.03
  -5  -9   9    3.68    0.80
   4   9  -9   45.43    4.03
  -4  -9   9   49.00    3.70
   3   9  -9    1.91    0.80
  -3  -9   9    2.87    0.73
   2   9  -9   56.92    4.75
  -2  -9   9   59.37    4.39
   1   9  -9    6.90    1.18
  -1  -9   9    5.03    0.87
   0   9  -9   66.40    5.21
   0  -9   9   63.76    4.79
  -1   9  -9    1.10    0.61
   1  -9   9    1.25    0.44
   1  -9   9    1.27    0.52
  -2   9  -9   46.22    3.72
   2  -9   9   38.43    3.29
   2  -9   9   46.09    3.08
   3  -9   9    6.89    0.91
   6   8  -9    1.42    0.83
  -6  -8   9    0.11    0.49
   5   8  -9   46.61    4.23
  -5  -8   9   53.95    3.90
   4   8  -9    1.71    0.80
  -4  -8   9    1.83    0.61
   3   8  -9   62.31    5.35
  -3  -8   9   71.55    4.98
   2   8  -9    0.21    0.52
  -2  -8   9    0.33    0.40
   1   8  -9   60.23    5.09
  -1  -8   9   68.29    4.77
   0   8  -9    2.59    0.75
   0  -8   9    2.60    0.62
   0  -8   9    3.56    0.56
  -1   8  -9   80.84    6.24
   1  -8   9   84.10    5.28
   1  -8   9   76.95    5.78
  -2   8  -9    0.67    0.57
   2  -8   9    0.45    0.35
   2  -8   9    0.63    0.45
  -3   8  -9   33.55    3.13
   3  -8   9   38.83    2.64
   4  -8   9    5.14    0.78
   7   7  -9   -0.11    0.58
  -7  -7   9   -0.34    0.42
   6   7  -9   50.09    4.32
  -6  -7   9   53.67    3.98
   5   7  -9   -0.01    0.62
  -5  -7   9    0.72    0.49
   4   7  -9   55.20    4.59
  -4  -7   9   56.18    4.18
   3   7  -9    0.59    0.61
  -3  -7   9    0.44    0.41
   2   7  -9   67.28    5.45
  -2  -7   9   70.90    5.06
   1   7  -9   -0.31    0.39
  -1  -7   9    0.18    0.38
   0   7  -9   67.04    4.96
   0  -7   9   61.93    4.09
   0  -7   9   59.00    4.54
  -1   7  -9    1.94    0.68
   1  -7   9    3.11    0.61
   1  -7   9    2.17    0.47
  -2   7  -9   94.24    7.35
   2  -7   9  102.42    6.87
   2  -7   9   94.83    6.26
  -3   7  -9    5.31    1.00
   3  -7   9    4.54    0.75
   3  -7   9    4.99    0.71
  -4   7  -9   72.33    5.70
   5  -7   9    2.53    0.63
   8   6  -9    1.79    0.78
   7   6  -9   63.57    5.31
  -7  -6   9   70.12    4.99
   6   6  -9    3.64    0.89
  -6  -6   9    4.28    0.81
   5   6  -9   78.61    6.07
  -5  -6   9   76.95    5.63
   4   6  -9   -0.15    0.50
  -4  -6   9   -0.13    0.37
   3   6  -9   76.74    6.42
  -3  -6   9   89.92    6.02
   2   6  -9    1.28    0.63
  -2  -6   9    0.56    0.39
   1   6  -9   59.31    4.85
  -1  -6   9   64.05    4.53
   0   6  -9    0.69    0.47
   0  -6   9    0.94    0.32
   0  -6   9    1.67    0.50
  -1   6  -9   63.98    4.62
   1  -6   9   50.67    3.78
   1  -6   9   62.02    4.26
  -2   6  -9    0.38    0.43
   2  -6   9    0.48    0.38
   2  -6   9    0.32    0.30
  -3   6  -9   35.70    3.10
   3  -6   9   37.55    2.78
   3  -6   9   35.81    2.58
  -4   6  -9    4.13    0.87
   4  -6   9    3.27    0.64
  -5   6  -9   56.55    4.66
   5  -6   9   59.01    4.01
  -9  -5   9    5.06    0.92
   8   5  -9   55.15    4.70
  -8  -5   9   61.51    4.42
   7   5  -9    3.12    0.79
  -7  -5   9    3.51    0.68
  -7  -5   9    2.75    0.67
   6   5  -9   92.00    7.36
  -6  -5   9  106.93    6.97
  -6  -5   9   94.01    6.87
   5   5  -9    6.20    1.01
  -5  -5   9    4.65    0.70
  -5  -5   9    5.50    0.85
   4   5  -9   78.46    6.32
  -4  -5   9   86.32    5.93
   3   5  -9    0.58    0.52
  -3  -5   9    0.51    0.39
   2   5  -9   85.02    6.63
  -2  -5   9   88.71    6.18
   1   5  -9    0.64    0.48
  -1  -5   9    0.94    0.41
   0   5  -9  137.85   10.25
   0  -5   9  127.78    9.59
   0  -5   9  151.61    8.75
  -1   5  -9    0.54    0.44
   1  -5   9    0.12    0.32
   1  -5   9    0.06    0.25
  -2   5  -9   80.61    6.92
   2  -5   9  107.29    6.00
   2  -5   9   89.40    6.46
  -3   5  -9    2.69    0.72
   3  -5   9    3.58    0.59
   3  -5   9    3.67    0.60
  -4   5  -9   54.42    4.59
   4  -5   9   61.95    3.98
  -5   5  -9    0.86    0.51
   5  -5   9    0.34    0.39
  -6   5  -9   44.11    3.69
  -9  -4   9   40.98    3.31
   8   4  -9    4.79    0.93
  -8  -4   9    3.95    0.79
   7   4  -9   70.66    5.18
  -7  -4   9   64.27    4.78
  -7  -4   9   62.67    4.79
   6   4  -9    9.97    1.24
  -6  -4   9    7.25    0.97
  -6  -4   9    8.41    1.07
   5   4  -9   70.72    5.13
  -5  -4   9   64.91    4.72
  -5  -4   9   62.14    4.75
   4   4  -9    1.34    0.52
  -4  -4   9    0.97    0.35
  -4  -4   9    0.64    0.39
   3   4  -9   95.76    7.60
  -3  -4   9  107.11    7.15
   2   4  -9    7.18    0.77
   2   4  -9    8.78    1.15
  -2  -4   9    7.72    0.96
   1   4  -9  138.53    9.19
   1   4  -9  120.12    9.77
  -1  -4   9  140.80    9.22
   0   4  -9    0.58    0.43
   0  -4   9    0.84    0.36
   0  -4   9    0.49    0.24
  -1   4  -9  153.09   10.92
   1  -4   9  155.63    9.37
   1  -4   9  139.22   10.18
  -2   4  -9    4.19    0.79
   2  -4   9    4.66    0.65
   2  -4   9    4.33    0.60
  -3   4  -9   81.30    6.21
   3  -4   9   89.17    5.34
   3  -4   9   75.82    5.69
  -4   4  -9    1.33    0.54
   4  -4   9    0.90    0.39
  -5   4  -9   60.56    4.64
   5  -4   9   57.01    4.01
  -6   4  -9    0.13    0.48
   6  -4   9   -0.56    0.38
  -9  -3   9   13.62    1.58
   8   3  -9   70.21    5.73
  -8  -3   9   78.25    5.50
   7   3  -9   14.44    1.58
  -7  -3   9   15.44    1.47
  -7  -3   9   17.00    1.46
   6   3  -9   42.33    3.67
  -6  -3   9   48.27    3.48
  -6  -3   9   47.12    3.45
   5   3  -9   11.54    1.29
  -5  -3   9   11.11    1.15
  -5  -3   9   14.25    1.23
   4   3  -9   78.29    5.69
  -4  -3   9   76.60    5.31
  -4  -3   9   69.61    5.28
   3   3  -9   14.47    1.43
   3   3  -9   11.48    1.19
  -3  -3   9   14.54    1.25
   2   3  -9   95.13    6.37
   2   3  -9   83.73    6.78
  -2  -3   9   92.50    6.35
   1   3  -9   21.11    1.75
   1   3  -9   24.18    1.99
  -1  -3   9   20.82    1.75
   0   3  -9  127.34    9.99
   0   3  -9  154.96    9.52
   0  -3   9  129.57    9.38
  -1   3  -9    7.04    0.97
  -1   3  -9    5.16    0.77
   1  -3   9    6.91    0.72
   1  -3   9    6.90    0.79
  -2   3  -9  116.32    8.96
  -2   3  -9  136.81    8.58
   2  -3   9  108.08    7.71
   2  -3   9  128.80    8.38
  -3   3  -9    3.04    0.65
   3  -3   9    3.28    0.56
   3  -3   9    4.22    0.58
  -4   3  -9   84.82    6.52
   4  -3   9   88.90    5.69
  -5   3  -9    0.89    0.47
   5  -3   9    0.18    0.38
  -6   3  -9   92.77    6.99
   6  -3   9   93.10    6.16
   9   2  -9   24.05    2.39
  -9  -2   9   29.25    2.43
   8   2  -9    4.83    0.91
  -8  -2   9    5.55    0.92
   7   2  -9   62.10    4.82
  -7  -2   9   60.10    4.58
  -7  -2   9   62.82    4.47
   6   2  -9   15.21    1.62
  -6  -2   9   17.34    1.56
  -6  -2   9   19.46    1.55
   5   2  -9   61.27    4.39
  -5  -2   9   53.68    4.06
  -5  -2   9   54.17    4.11
   4   2  -9   10.37    1.28
  -4  -2   9   12.60    1.12
  -4  -2   9   10.78    1.09
   3   2  -9  137.04    8.79
   3   2  -9  113.57    9.19
  -3  -2   9  126.79    8.66
   2   2  -9   27.11    2.17
   2   2  -9   26.66    2.34
  -2  -2   9   29.35    2.16
   1   2  -9  104.02    7.66
  -1  -2   9  103.46    7.16
   0   2  -9    8.14    0.98
   0   2  -9    9.55    1.09
   0  -2   9    7.73    0.83
  -1   2  -9   80.52    6.37
  -1   2  -9   82.88    6.11
   1  -2   9   89.22    5.50
   1  -2   9   89.90    5.97
  -2   2  -9    2.35    0.57
  -2   2  -9    2.40    0.57
   2  -2   9    3.83    0.57
   2  -2   9    2.80    0.49
  -3   2  -9   99.77    7.47
  -3   2  -9  117.32    7.28
   3  -2   9   89.59    6.50
  -4   2  -9    4.40    0.79
  -4   2  -9    3.01    0.62
   4  -2   9    2.92    0.59
   5  -2   9   73.23    4.89
   6  -2   9    2.59    0.63
   9   1  -9   16.21    1.79
  -9  -1   9   19.99    1.84
   8   1  -9   56.75    4.31
  -8  -1   9   50.74    4.11
   7   1  -9   22.63    2.27
  -7  -1   9   30.88    2.19
  -7  -1   9   26.82    2.27
   6   1  -9   61.09    5.18
  -6  -1   9   71.53    4.91
  -6  -1   9   72.90    5.03
   5   1  -9   33.16    2.82
  -5  -1   9   36.45    2.65
  -5  -1   9   34.00    2.70
   4   1  -9   91.98    6.48
  -4  -1   9   81.84    6.06
   3   1  -9   20.85    1.86
   3   1  -9   20.64    1.78
  -3  -1   9   22.55    1.74
   2   1  -9  159.39   11.12
   2   1  -9  145.20   10.59
  -2  -1   9  155.43   10.47
   1   1  -9   81.42    5.27
   1   1  -9   66.22    5.43
  -1  -1   9   71.81    5.12
   0   1  -9   89.75    6.93
   0   1  -9  105.82    6.74
   0  -1   9   89.16    6.52
  -1   1  -9    8.34    1.03
  -1   1  -9    8.58    1.09
   1  -1   9   10.12    0.86
   1  -1   9    8.66    0.88
  -2   1  -9   83.21    6.14
  -2   1  -9   75.28    5.96
   2  -1   9   87.03    5.78
   2  -1   9   85.61    5.38
  -3   1  -9    4.51    0.83
   3  -1   9    5.10    0.71
  -4   1  -9   80.81    5.80
   4  -1   9   76.35    5.16
  -5   1  -9    1.27    0.63
   5  -1   9    1.84    0.54
  -6   1  -9   46.74    3.84
   6  -1   9   48.59    3.42
   9   0  -9   13.42    1.69
  -9   0   9   16.50    1.66
   8   0  -9   49.48    3.76
  -8   0   9   41.85    3.59
   7   0  -9   70.49    5.16
  -7   0   9   65.12    4.77
  -7   0   9   64.97    4.96
   6   0  -9   58.83    4.43
  -6   0   9   58.17    4.29
  -6   0   9   54.61    4.11
   5   0  -9   74.96    6.21
  -5   0   9   91.81    5.91
  -5   0   9   84.54    6.03
   4   0  -9   36.91    3.02
   4   0  -9   40.94    3.10
  -4   0   9   38.52    2.90
   3   0  -9  103.01    7.73
   3   0  -9  106.14    7.46
  -3   0   9  107.53    7.32
   2   0  -9    9.97    1.13
   2   0  -9    9.77    1.04
  -2   0   9    9.31    0.95
   1   0  -9  110.81    7.83
   1   0  -9  112.22    8.09
  -1   0   9  109.71    7.64
   0   0  -9   14.35    1.44
   0   0  -9   15.79    1.40
   0   0   9   15.65    1.32
  -1   0  -9  133.61    9.02
   1   0   9  113.67    8.68
   1   0   9  136.52    8.07
  -2   0  -9   13.12    1.42
   2   0   9   13.46    1.20
   2   0   9   15.47    1.22
  -3   0  -9   97.08    6.74
   3   0   9   87.85    5.97
  -4   0  -9    8.01    1.21
   4   0   9    9.54    1.05
  -5   0  -9   70.58    5.48
   5   0   9   74.08    4.88
  -6   0  -9    9.65    1.40
   9  -1  -9   44.55    3.69
  -8   1   9   19.45    1.89
   7  -1  -9   42.49    3.57
  -7   1   9   46.67    3.54
  -7   1   9   45.08    3.31
   6  -1  -9   76.52    5.13
  -6   1   9   60.85    4.92
  -6   1   9   63.34    4.75
   5  -1  -9   66.38    5.22
   5  -1  -9   69.55    5.14
  -5   1   9   72.28    4.95
   4  -1  -9   51.23    3.80
   4  -1  -9   49.38    3.83
  -4   1   9   49.12    3.62
   3  -1  -9   52.90    4.14
   3  -1  -9   56.74    4.09
  -3   1   9   54.89    3.95
   2  -1  -9   69.32    5.12
  -2   1   9   70.65    4.95
   1  -1  -9   65.13    4.86
  -1   1   9   66.28    4.66
   0  -1  -9   76.91    5.67
   0   1   9   77.35    5.40
  -1  -1  -9   25.46    2.19
   1   1   9   22.56    1.80
   1   1   9   26.09    1.93
  -2  -1  -9  115.92    7.55
   2   1   9   97.09    6.67
   2   1   9  100.86    7.13
  -3  -1  -9   20.09    2.16
   3   1   9   27.43    1.91
  -4  -1  -9   75.81    5.34
   4   1   9   64.19    4.64
  -5  -1  -9   14.47    1.78
   5   1   9   12.94    1.39
   8  -2  -9   53.54    4.21
  -8   2   9   51.80    4.14
   7  -2  -9   37.94    3.29
  -7   2   9   42.89    3.32
  -7   2   9   41.95    3.08
   6  -2  -9   37.48    3.04
   6  -2  -9   38.96    3.10
  -6   2   9   37.23    2.85
  -5   2   9   28.49    2.24
   4  -2  -9   21.41    1.93
  -4   2   9   22.41    1.80
   3  -2  -9   49.74    3.43
  -3   2   9   39.34    3.18
   2  -2  -9   50.62    3.65
  -2   2   9   44.21    3.41
   1  -2  -9   24.04    2.18
  -1   2   9   26.76    2.02
   0  -2  -9   55.00    4.20
   0   2   9   54.25    3.92
  -1  -2  -9   70.86    5.46
   1   2   9   73.68    4.83
   1   2   9   75.06    5.18
  -2  -2  -9   33.05    3.06
   2   2   9   41.28    2.81
   2   2   9   36.50    2.68
  -3  -2  -9   62.27    5.03
   3   2   9   68.04    4.46
  -4  -2  -9   20.82    2.13
   4   2   9   21.55    1.80
   5   2   9   72.36    4.95
   7  -3  -9   35.45    3.05
  -7   3   9   36.72    2.79
   6  -3  -9   36.70    3.06
  -6   3   9   37.36    2.83
   5  -3  -9   29.67    2.55
  -5   3   9   30.99    2.39
   4  -3  -9   25.43    2.29
  -4   3   9   27.64    2.13
   3  -3  -9   38.39    3.15
  -3   3   9   40.17    2.96
   2  -3  -9   50.70    3.75
  -2   3   9   45.54    3.48
   1  -3  -9   62.61    4.60
  -1   3   9   58.98    4.34
   0  -3  -9   33.88    2.75
   0   3   9   31.26    2.47
  -1  -3  -9   44.51    3.65
   1   3   9   44.75    3.15
   1   3   9   46.27    3.33
  -2  -3  -9   35.04    3.11
   2   3   9   37.74    2.79
   2   3   9   38.00    2.71
  -3  -3  -9   26.87    2.60
   3   3   9   30.69    2.28
   4   3   9   34.43    2.63
   7  -4  -9   14.18    1.76
  -7   4   9   17.21    1.50
   6  -4  -9   50.19    3.76
  -6   4   9   44.20    3.47
   5  -4  -9   24.40    2.10
  -5   4   9   20.69    1.83
   4  -4  -9   38.34    3.26
  -4   4   9   42.52    3.09
   3  -4  -9   47.00    3.71
  -3   4   9   47.49    3.51
   2  -4  -9   62.24    4.45
  -2   4   9   53.82    4.15
   1  -4  -9   42.57    3.52
  -1   4   9   45.04    3.28
   0  -4  -9   50.90    3.89
   0   4   9   46.86    3.56
  -1  -4  -9   35.38    3.17
   1   4   9   39.83    2.90
  -2  -4  -9   13.23    1.79
   2   4   9   16.54    1.44
   2   4   9   16.86    1.48
   3   4   9   40.27    3.00
   6  -5  -9   11.91    1.51
  -6   5   9   10.40    1.22
   5  -5  -9   51.70    4.01
  -5   5   9   49.85    3.78
   4  -5  -9   16.92    1.76
  -4   5   9   18.67    1.61
   3  -5  -9   63.24    5.01
  -3   5   9   68.10    4.79
   2  -5  -9   31.59    2.62
  -2   5   9   28.26    2.35
   1  -5  -9   32.48    2.81
  -1   5   9   32.83    2.57
   0  -5  -9   35.19    3.02
   0   5   9   35.75    2.77
  -1  -5  -9   38.88    3.30
   1   5   9   39.41    3.00
   2   5   9   36.58    2.80
   2   5   9   37.12    2.86
   3  -6  -9   12.81    1.58
   2  -6  -9   59.94    4.66
   4   9 -10   33.44    3.11
   3   9 -10   12.75    1.79
  -3  -9  10   16.29    1.56
   2   9 -10   29.18    2.82
  -2  -9  10   31.43    2.56
   1   9 -10   27.23    2.60
  -1  -9  10   26.39    2.31
   0   9 -10   40.02    3.39
   0  -9  10   37.32    3.07
  -1   9 -10   25.12    2.36
   1  -9  10   23.36    2.08
   2  -9  10   22.82    1.81
   2  -9  10   21.98    1.98
  -6  -8  10    3.49    0.83
   5   8 -10   27.25    2.71
  -5  -8  10   28.09    2.41
   4   8 -10   20.78    2.16
  -4  -8  10   18.47    1.80
   3   8 -10   71.21    5.40
  -3  -8  10   62.08    4.89
   2   8 -10   16.40    1.84
  -2  -8  10   17.38    1.64
   1   8 -10   38.50    3.38
  -1  -8  10   39.17    3.08
   0   8 -10   35.60    2.99
   0  -8  10   30.70    2.65
  -1   8 -10   34.49    2.86
   1  -8  10   28.61    2.50
  -2   8 -10   59.96    4.63
   2  -8  10   52.30    3.81
   2  -8  10   58.55    4.23
   3  -8  10   34.64    2.55
  -7  -7  10    2.92    0.79
   6   7 -10   36.90    3.54
  -6  -7  10   45.26    3.34
   5   7 -10   15.60    2.00
  -5  -7  10   17.53    1.67
   4   7 -10   59.02    4.91
  -4  -7  10   60.35    4.49
   3   7 -10   16.01    1.91
  -3  -7  10   15.17    1.52
   2   7 -10   66.28    5.05
  -2  -7  10   59.32    4.62
   1   7 -10    8.75    1.29
  -1  -7  10    7.72    1.07
   0   7 -10   36.14    3.17
   0  -7  10   37.22    2.90
  -1   7 -10   10.60    1.44
   1  -7  10   12.27    1.23
  -2   7 -10   35.34    2.99
   2  -7  10   34.30    2.45
   2  -7  10   32.72    2.69
  -3   7 -10   21.28    2.20
   3  -7  10   24.71    1.85
  -4   7 -10   38.92    3.52
   4  -7  10   43.43    3.01
   7   6 -10   52.24    4.38
  -7  -6  10   52.59    4.04
   6   6 -10    6.28    1.10
  -6  -6  10    4.03    0.86
   5   6 -10   80.45    6.55
  -5  -6  10   88.15    6.15
   4   6 -10   10.28    1.47
  -4  -6  10   11.03    1.30
   3   6 -10   64.99    5.16
  -3  -6  10   63.72    4.75
   2   6 -10   23.59    2.20
  -2  -6  10   21.29    1.93
   1   6 -10   43.52    3.58
  -1  -6  10   41.98    3.28
   0   6 -10   16.41    1.75
   0  -6  10   17.87    1.59
  -1   6 -10   51.73    4.00
   1  -6  10   46.40    3.65
  -2   6 -10   18.44    1.97
   2  -6  10   22.55    1.83
   2  -6  10   21.88    1.65
  -3   6 -10   57.32    4.55
   3  -6  10   55.56    3.83
  -4   6 -10   15.77    1.91
   4  -6  10   17.63    1.51
   5  -6  10   51.10    3.60
  -8  -5  10   40.82    3.23
   7   5 -10    4.60    0.99
  -7  -5  10    5.52    0.94
  -7  -5  10    5.56    0.85
   6   5 -10   56.60    4.77
  -6  -5  10   62.12    4.40
  -6  -5  10   60.06    4.47
   5   5 -10   10.84    1.47
  -5  -5  10   11.52    1.35
   4   5 -10   59.90    4.99
  -4  -5  10   65.30    4.65
   3   5 -10    6.14    1.05
  -3  -5  10    3.88    0.75
   2   5 -10   73.53    5.27
  -2  -5  10   60.53    4.81
   1   5 -10   12.73    1.46
  -1  -5  10    9.33    1.17
   0   5 -10   83.46    6.48
   0  -5  10   86.98    6.07
  -1   5 -10   10.52    1.35
   1  -5  10   11.18    1.13
  -2   5 -10   85.43    6.44
   2  -5  10   88.35    5.96
   2  -5  10   79.45    5.47
  -3   5 -10   18.76    1.87
   3  -5  10   17.91    1.48
  -4   5 -10   47.40    4.08
   4  -5  10   52.81    3.51
  -5   5 -10   11.83    1.53
   8   4 -10    0.04    0.49
  -8  -4  10    0.08    0.46
   7   4 -10   63.12    5.16
  -7  -4  10   67.66    4.84
  -7  -4  10   65.90    4.84
   6   4 -10   -0.06    0.48
  -6  -4  10    0.19    0.36
  -6  -4  10    0.64    0.43
   5   4 -10   77.35    6.24
  -5  -4  10   81.93    5.82
  -5  -4  10   85.23    5.88
   4   4 -10    0.86    0.54
  -4  -4  10    3.48    0.57
  -4  -4  10    2.19    0.57
   3   4 -10   62.97    4.73
   3   4 -10   70.74    5.22
  -3  -4  10   65.63    4.79
   2   4 -10    2.69    0.69
  -2  -4  10    1.90    0.52
   1   4 -10   68.84    5.20
  -1  -4  10   65.63    4.83
   0   4 -10   15.50    1.55
   0  -4  10   14.47    1.35
  -1   4 -10  116.60    8.65
   1  -4  10  116.62    8.07
  -2   4 -10    2.25    0.65
   2  -4  10    3.93    0.62
   2  -4  10    3.89    0.59
  -3   4 -10   68.97    5.84
   3  -4  10   84.34    5.09
  -4   4 -10   18.14    1.69
   4  -4  10   14.12    1.36
  -5   4 -10   55.80    4.45
   8   3 -10   39.33    3.44
  -8  -3  10   41.45    3.24
   7   3 -10    0.59    0.56
  -7  -3  10    0.99    0.48
  -7  -3  10    0.10    0.38
   6   3 -10   54.20    4.02
  -6  -3  10   46.33    3.70
  -6  -3  10   48.35    3.69
   5   3 -10    0.07    0.41
  -5  -3  10    0.25    0.36
  -5  -3  10    0.24    0.33
   4   3 -10   81.13    6.00
  -4  -3  10   75.62    5.58
   3   3 -10    0.27    0.42
   3   3 -10    0.58    0.36
  -3  -3  10    0.11    0.33
   2   3 -10  112.57    7.41
   2   3 -10   91.53    7.83
  -2  -3  10  112.16    7.40
   1   3 -10    4.11    0.68
   1   3 -10    5.38    0.84
  -1  -3  10    4.66    0.69
   0   3 -10   97.53    7.00
   0   3 -10  101.48    7.39
   0  -3  10   98.84    6.90
  -1   3 -10    9.39    1.19
   1  -3  10    9.72    0.96
  -2   3 -10   92.12    6.89
   2  -3  10   99.19    5.97
   2  -3  10   85.36    6.38
  -3   3 -10   13.73    1.39
   3  -3  10   11.99    1.16
  -4   3 -10   52.93    4.07
   4  -3  10   49.41    3.53
  -5   3 -10    2.87    0.72
   5  -3  10    4.81    0.79
   8   2 -10    0.90    0.57
  -8  -2  10    0.17    0.47
   7   2 -10   55.42    4.33
  -7  -2  10   51.31    3.98
  -7  -2  10   55.74    4.11
   6   2 -10   -0.03    0.40
  -6  -2  10    0.46    0.41
  -6  -2  10    0.41    0.41
   5   2 -10   69.53    5.50
  -5  -2  10   77.37    5.24
  -5  -2  10   68.58    5.14
   4   2 -10    2.10    0.53
   4   2 -10    1.40    0.56
  -4  -2  10    1.51    0.46
   3   2 -10  141.22   10.37
   3   2 -10  145.67    9.84
  -3  -2  10  137.39    9.73
   2   2 -10    1.82    0.53
   2   2 -10    0.95    0.41
  -2  -2  10    1.27    0.39
   1   2 -10  115.77    7.87
   1   2 -10   95.61    7.43
  -1  -2  10  107.27    7.36
   0   2 -10    1.34    0.46
   0   2 -10    1.13    0.46
   0  -2  10    1.95    0.46
  -1   2 -10   84.85    5.57
  -1   2 -10   71.80    5.73
   1  -2  10   73.72    5.36
  -2   2 -10    0.30    0.42
  -2   2 -10    0.21    0.36
   2  -2  10   -0.01    0.30
   2  -2  10    0.27    0.30
  -3   2 -10   56.88    4.49
  -3   2 -10   64.18    4.43
   3  -2  10   55.54    3.93
   4  -2  10    9.30    1.06
   5  -2  10   55.65    3.86
   8   1 -10   53.53    4.11
  -8  -1  10   46.79    3.90
   7   1 -10    0.46    0.50
  -7  -1  10    0.75    0.46
  -7  -1  10    0.52    0.40
   6   1 -10   82.93    5.73
  -6  -1  10   69.74    5.29
  -6  -1  10   70.37    5.40
   5   1 -10    0.11    0.37
  -5  -1  10    0.54    0.41
   4   1 -10  116.86    8.64
   4   1 -10  113.26    8.27
  -4  -1  10  121.41    8.16
   3   1 -10    2.92    0.64
   3   1 -10    2.31    0.54
  -3  -1  10    2.31    0.51
   2   1 -10   71.26    5.53
   2   1 -10   82.82    5.34
  -2  -1  10   66.68    5.16
   1   1 -10   16.37    1.42
   1   1 -10   14.38    1.38
  -1  -1  10   12.32    1.23
   0   1 -10   96.22    7.06
   0   1 -10   95.76    6.86
   0  -1  10   94.70    6.65
  -1   1 -10    1.03    0.49
   1  -1  10    0.99    0.37
  -2   1 -10   76.76    5.42
   2  -1  10   70.21    4.79
  -3   1 -10    1.07    0.54
   3  -1  10    1.36    0.45
  -4   1 -10   61.01    4.92
   4  -1  10   68.78    4.43
  -5   1 -10    1.73    0.68
   5  -1  10    3.36    0.67
   8   0 -10    4.47    0.88
  -8   0  10    4.25    0.90
   7   0 -10   73.00    6.02
  -7   0  10   86.21    5.91
  -7   0  10   79.98    5.66
   6   0 -10    2.01    0.63
  -6   0  10    3.28    0.62
  -6   0  10    3.35    0.70
   5   0 -10  148.32   10.35
   5   0 -10  133.38    9.94
  -5   0  10  141.83    9.75
   4   0 -10    1.75    0.55
   4   0 -10    1.65    0.54
  -4   0  10    1.51    0.45
   3   0 -10  133.64    9.04
   3   0 -10  123.83    9.37
  -3   0  10  128.02    8.86
   2   0 -10    0.67    0.41
   2   0 -10   -0.05    0.34
  -2   0  10    0.35    0.30
   1   0 -10   65.66    4.96
  -1   0  10   68.42    4.79
   0   0 -10    4.12    0.78
   0   0  10    3.88    0.64
  -1   0 -10   90.15    6.29
   1   0  10   82.35    5.98
  -2   0 -10    1.27    0.58
   2   0  10    1.42    0.39
   2   0  10    0.62    0.39
  -3   0 -10   76.15    5.81
   3   0  10   79.35    5.17
  -4   0 -10    1.72    0.68
   4   0  10    0.92    0.48
  -5   0 -10   67.87    5.45
   5   0  10   74.59    4.88
   8  -1 -10   72.64    5.46
  -8   1  10   67.19    5.30
   7  -1 -10    5.92    0.97
  -7   1  10    5.98    1.02
  -7   1  10    6.49    0.88
   6  -1 -10   65.26    5.18
   6  -1 -10   76.37    5.34
  -6   1  10   66.16    4.95
   5  -1 -10    3.44    0.71
   5  -1 -10    3.61    0.77
  -5   1  10    3.83    0.65
   4  -1 -10   97.97    7.34
  -4   1  10  107.02    7.19
   3  -1 -10    6.20    0.90
  -3   1  10    4.86    0.75
   2  -1 -10   61.96    4.69
  -2   1  10   64.02    4.53
   1  -1 -10    0.86    0.47
  -1   1  10    0.87    0.36
   0  -1 -10   89.21    6.50
   0   1  10   88.85    6.22
  -1  -1 -10    0.35    0.46
   1   1  10    0.98    0.39
  -2  -1 -10   97.84    6.98
   2   1  10   94.00    6.60
   2   1  10   93.49    6.19
  -3  -1 -10    0.21    0.59
   3   1  10    0.51    0.45
  -4  -1 -10   80.98    6.01
   4   1  10   77.19    5.31
   7  -2 -10   67.31    5.28
  -7   2  10   71.29    5.03
   6  -2 -10    6.28    1.07
  -6   2  10    8.32    0.99
   5  -2 -10   60.49    4.62
  -5   2  10   61.38    4.43
   4  -2 -10    7.49    1.04
  -4   2  10    5.44    0.80
   3  -2 -10   81.90    6.30
  -3   2  10   90.80    6.13
   2  -2 -10    6.28    1.00
  -2   2  10    6.62    0.84
   1  -2 -10   68.86    5.14
  -1   2  10   68.31    4.89
   0  -2 -10    4.45    0.89
   0   2  10    4.39    0.68
  -1  -2 -10  107.43    7.74
   1   2  10  105.25    7.38
  -2  -2 -10    5.76    1.10
   2   2  10    8.39    0.94
  -3  -2 -10   77.65    5.95
   3   2  10   78.07    5.25
   4   2  10    1.02    0.55
  -7   3  10   14.18    1.36
   6  -3 -10   46.42    4.00
  -6   3  10   56.00    3.86
   5  -3 -10   19.04    1.90
  -5   3  10   21.22    1.78
   4  -3 -10   55.21    4.38
  -4   3  10   58.92    4.20
   3  -3 -10    7.22    1.06
  -3   3  10    6.00    0.85
  -2   3  10  123.49    8.57
   1  -3 -10    8.89    1.31
  -1   3  10   10.77    1.06
   0  -3 -10   82.00    6.15
   0   3  10   82.64    5.83
  -1  -3 -10    0.70    0.61
   1   3  10    1.71    0.48
  -2  -3 -10   73.64    5.22
   2   3  10   61.59    4.71
   3   3  10    1.42    0.60
  -6   4  10   21.03    1.84
   5  -4 -10   34.74    2.91
  -5   4  10   33.47    2.68
   4  -4 -10   14.42    1.70
  -4   4  10   15.53    1.43
   3  -4 -10   67.81    5.23
  -3   4  10   69.71    4.98
   2  -4 -10    5.27    0.96
  -2   4  10    5.22    0.79
  -1   4  10   66.28    4.79
   0  -4 -10    5.67    1.09
   0   4  10    7.47    0.93
  -1  -4 -10   73.93    5.65
   1   4  10   73.19    5.27
   4   8 -11   33.73    3.18
  -4  -8  11   34.35    2.84
   3   8 -11   14.30    1.94
  -3  -8  11   18.37    1.69
   2   8 -11   40.40    3.30
  -2  -8  11   32.17    2.87
   1   8 -11   11.33    1.53
  -1  -8  11    8.48    1.22
   0   8 -11   28.11    2.63
   0  -8  11   27.88    2.38
  -1   8 -11    9.54    1.42
   1  -8  11   10.70    1.28
   2  -8  11   16.73    1.62
  -6  -7  11   20.45    1.97
   5   7 -11   34.91    3.41
  -5  -7  11   42.33    3.19
   4   7 -11   18.42    2.29
  -4  -7  11   21.11    1.90
   3   7 -11   46.48    3.97
  -3  -7  11   45.85    3.60
   2   7 -11    7.78    1.30
  -2  -7  11    9.43    1.20
   1   7 -11   62.45    4.85
  -1  -7  11   56.92    4.44
   0   7 -11   15.27    1.69
   0  -7  11   15.08    1.52
  -1   7 -11   25.85    2.58
   1  -7  11   31.61    2.43
  -2   7 -11    2.79    0.81
   2  -7  11    2.67    0.66
  -7  -6  11   25.72    2.31
   6   6 -11   24.83    2.39
  -6  -6  11   22.89    2.15
   5   6 -11   20.88    2.16
  -5  -6  11   20.82    1.95
  -4  -6  11   39.57    3.18
   3   6 -11   32.74    3.01
  -3  -6  11   34.29    2.78
   2   6 -11   44.38    3.67
  -2  -6  11   41.80    3.35
   1   6 -11   17.22    1.78
  -1  -6  11   16.51    1.60
   0   6 -11   43.87    3.90
   0  -6  11   51.32    3.66
  -1   6 -11   20.71    2.18
   1  -6  11   25.54    2.04
  -2   6 -11   46.99    3.90
   2  -6  11   47.45    3.56
  -3   6 -11    7.92    1.25
   4  -6  11   49.76    3.51
   7   5 -11   14.54    1.82
  -7  -5  11   15.23    1.58
   6   5 -11   42.14    3.40
  -6  -5  11   34.91    3.05
   5   5 -11   28.87    2.77
  -5  -5  11   31.93    2.57
   4   5 -11   40.20    3.45
  -4  -5  11   39.03    3.13
   3   5 -11   15.18    1.93
  -3  -5  11   18.66    1.67
   2   5 -11   28.60    2.59
  -2  -5  11   28.62    2.37
   1   5 -11   39.78    3.50
  -1  -5  11   45.18    3.30
   0   5 -11   44.45    3.50
   0  -5  11   39.50    3.17
  -1   5 -11   49.95    4.20
   1  -5  11   54.62    3.90
  -2   5 -11   32.47    2.77
   2  -5  11   30.37    2.46
  -3   5 -11   59.90    4.79
  -4   5 -11   16.64    1.79
   4  -5  11   16.22    1.48
  -8  -4  11   18.65    1.79
   7   4 -11   37.24    3.41
  -7  -4  11   40.29    3.15
  -7  -4  11   41.35    3.17
   6   4 -11   17.62    1.82
  -6  -4  11   14.83    1.56
  -6  -4  11   17.47    1.58
   5   4 -11   40.95    3.36
  -5  -4  11   38.87    3.01
  -5  -4  11   37.15    3.06
   4   4 -11   32.42    2.87
   4   4 -11   32.43    2.55
  -4  -4  11   30.85    2.58
   3   4 -11   41.80    3.43
  -3  -4  11   39.04    3.11
   2   4 -11   27.99    2.53
  -2  -4  11   28.64    2.31
   1   4 -11   34.82    2.94
  -1  -4  11   34.13    2.70
   0   4 -11   51.47    3.92
   0  -4  11   45.96    3.59
  -1   4 -11   29.89    2.74
   1  -4  11   34.57    2.54
  -2   4 -11   52.68    4.26
   2  -4  11   54.21    3.91
  -3   4 -11   25.52    2.34
  -4   4 -11   23.13    2.29
   4  -4  11   27.11    2.03
  -5   4 -11   16.05    1.70
   8   3 -11   51.21    4.28
  -8  -3  11   52.76    4.03
   7   3 -11    9.12    1.38
  -7  -3  11   10.50    1.27
  -7  -3  11   11.36    1.29
   6   3 -11   39.58    3.36
  -6  -3  11   40.81    3.11
  -6  -3  11   37.37    3.06
   5   3 -11   22.42    2.19
  -5  -3  11   24.41    2.03
   4   3 -11   50.42    3.78
   4   3 -11   48.78    4.05
  -4  -3  11   50.93    3.77
   3   3 -11   32.97    2.55
   3   3 -11   31.00    2.81
  -3  -3  11   32.72    2.57
   2   3 -11   95.51    7.15
   2   3 -11   95.35    6.72
  -2  -3  11   93.13    6.66
   1   3 -11   32.59    2.67
   1   3 -11   26.85    2.43
  -1  -3  11   33.92    2.46
   0   3 -11   61.69    4.47
   0  -3  11   52.30    4.08
  -1   3 -11   33.56    2.72
   1  -3  11   30.07    2.44
  -2   3 -11   28.03    2.45
   2  -3  11   27.97    2.21
  -3   3 -11   34.30    2.89
   4  -3  11   18.16    1.58
   8   2 -11    9.29    1.36
  -8  -2  11    8.60    1.20
   7   2 -11   68.60    5.06
  -7  -2  11   59.32    4.65
  -7  -2  11   62.81    4.76
   6   2 -11    9.39    1.32
  -6  -2  11    9.93    1.25
  -6  -2  11   10.51    1.24
   5   2 -11   50.58    4.13
   5   2 -11   54.36    3.96
  -5  -2  11   49.05    3.82
   4   2 -11   35.49    2.69
   4   2 -11   34.87    2.88
  -4  -2  11   30.03    2.59
   3   2 -11   39.28    3.42
   3   2 -11   40.59    3.20
  -3  -2  11   45.36    3.20
   2   2 -11   56.95    4.17
   2   2 -11   47.55    3.87
  -2  -2  11   52.65    3.85
   1   2 -11   68.63    5.10
   1   2 -11   59.52    4.84
  -1  -2  11   71.08    4.80
   0   2 -11   42.62    3.28
   0   2 -11   39.57    3.14
   0  -2  11   38.38    3.00
  -1   2 -11   37.62    3.18
   1  -2  11   41.30    2.99
  -2   2 -11   28.97    2.46
   2  -2  11   29.11    2.28
   4  -2  11   30.70    2.35
   8   1 -11   51.14    4.05
  -8  -1  11   45.90    3.83
   7   1 -11    5.22    0.96
  -7  -1  11    6.07    0.97
  -7  -1  11    4.38    0.81
   6   1 -11   76.28    5.77
  -6  -1  11   72.98    5.39
   5   1 -11    6.22    1.00
   5   1 -11    5.70    0.95
  -5  -1  11    5.94    0.90
   4   1 -11   95.00    6.83
   4   1 -11   86.58    6.48
  -4  -1  11   89.01    6.39
   3   1 -11   16.23    1.60
   3   1 -11   17.22    1.70
  -3  -1  11   18.33    1.56
   2   1 -11  108.31    7.77
   2   1 -11  101.38    7.43
  -2  -1  11  103.87    7.31
   1   1 -11   23.17    2.03
   1   1 -11   24.13    2.03
  -1  -1  11   22.29    1.89
   0   1 -11   86.06    5.81
   0  -1  11   73.04    5.55
  -1   1 -11   24.48    2.08
   1  -1  11   22.06    1.87
  -2   1 -11   38.02    3.27
   2  -1  11   43.53    3.09
  -3   1 -11   41.23    3.34
  -4   1 -11   42.94    3.83
   4  -1  11   53.88    3.48
   8   0 -11    3.67    0.87
   7   0 -11   53.26    3.95
  -7   0  11   43.00    3.56
   6   0 -11    2.83    0.75
   6   0 -11    3.43    0.77
  -6   0  11    2.56    0.62
   5   0 -11   56.73    4.63
   5   0 -11   58.08    4.51
  -5   0  11   63.33    4.39
   4   0 -11    8.29    1.13
   4   0 -11    9.64    1.19
  -4   0  11    8.19    1.04
   3   0 -11   76.35    5.36
  -3   0  11   69.14    5.18
   2   0 -11    1.58    0.54
  -2   0  11    1.48    0.46
   1   0 -11   84.78    5.69
  -1   0  11   70.52    5.43
   0   0 -11   11.71    1.45
   0   0  11   13.09    1.21
  -1   0 -11   85.62    5.54
   1   0  11   64.59    5.13
  -2   0 -11   15.31    1.74
   2   0  11   14.56    1.33
  -3   0 -11   50.78    4.04
  -4   0 -11   34.29    2.98
   8  -1 -11   39.11    3.33
   7  -1 -11    3.63    0.87
  -7   1  11    4.26    0.76
   6  -1 -11   51.99    4.03
  -6   1  11   50.11    3.80
   5  -1 -11    5.45    0.95
  -5   1  11    5.97    0.87
   4  -1 -11   80.08    5.66
  -4   1  11   72.84    5.43
   3  -1 -11    2.58    0.68
  -3   1  11    2.96    0.58
   2  -1 -11   64.42    4.64
  -2   1  11   57.87    4.38
   1  -1 -11    3.29    0.78
  -1   1  11    2.84    0.58
   0  -1 -11   74.22    5.70
   0   1  11   78.26    5.44
  -1  -1 -11    4.99    0.99
   1   1  11    5.29    0.77
  -2  -1 -11   62.54    4.96
   2   1  11   65.51    4.62
  -3  -1 -11   12.48    1.65
  -7   2  11   79.68    5.74
   6  -2 -11    0.11    0.47
  -6   2  11    0.20    0.42
   5  -2 -11   52.69    4.40
  -5   2  11   61.67    4.27
   4  -2 -11    7.60    1.14
  -4   2  11    8.17    1.02
   3  -2 -11   81.49    5.60
  -3   2  11   69.01    5.31
   2  -2 -11    2.26    0.70
  -2   2  11    3.60    0.65
   1  -2 -11   66.11    5.06
  -1   2  11   66.36    4.78
   0  -2 -11    8.29    1.29
   0   2  11   10.69    1.08
  -1  -2 -11   50.06    3.99
   1   2  11   48.34    3.63
  -2  -2 -11   14.17    1.80
   5  -3 -11    0.46    0.54
  -5   3  11    0.43    0.44
   4  -3 -11   65.11    5.09
  -4   3  11   68.32    4.89
   3  -3 -11    1.87    0.67
  -3   3  11    1.33    0.51
   2  -3 -11   45.93    3.78
  -2   3  11   48.60    3.58
   1  -3 -11    8.10    1.23
  -1   3  11    7.73    1.00
   0  -3 -11   84.14    6.59
   0   3  11   91.46    6.27
   1   3  11    8.75    1.05
  -1  -8  12    0.52    0.58
   0  -8  12   37.22    3.05
   1  -8  12    1.01    0.61
   4   7 -12    2.29    0.86
  -4  -7  12    3.03    0.78
   3   7 -12   57.99    4.91
  -3  -7  12   61.56    4.59
   2   7 -12    1.70    0.79
  -2  -7  12    1.67    0.64
   1   7 -12   64.96    4.92
  -1  -7  12   55.61    4.50
   0   7 -12    1.93    0.76
   0  -7  12    2.01    0.63
  -1   7 -12   48.06    4.00
   1  -7  12   47.16    3.68
  -6  -6  12   55.95    4.33
   5   6 -12   11.17    1.59
  -5  -6  12    7.85    1.22
   4   6 -12   39.52    3.49
  -4  -6  12   38.20    3.14
   3   6 -12    4.24    0.99
  -3  -6  12    4.71    0.90
   2   6 -12   53.20    4.21
  -2  -6  12   47.65    3.87
   1   6 -12    0.84    0.62
  -1  -6  12    0.62    0.48
   0   6 -12   61.69    4.71
   0  -6  12   54.46    4.31
  -1   6 -12    3.54    0.88
   1  -6  12    3.36    0.73
  -2   6 -12   53.58    4.40
   2  -6  12   53.86    4.03
  -7  -5  12   29.16    2.54
   6   5 -12    6.91    1.26
  -6  -5  12    8.26    1.20
   5   5 -12   56.95    4.95
  -5  -5  12   64.92    4.65
   4   5 -12   17.37    2.07
  -4  -5  12   17.18    1.71
   3   5 -12   38.01    3.29
  -3  -5  12   36.29    2.99
   2   5 -12    1.96    0.72
  -2  -5  12    1.89    0.62
   1   5 -12   48.98    4.07
  -1  -5  12   50.53    3.79
   0   5 -12    1.81    0.69
   0  -5  12    2.21    0.60
  -1   5 -12   55.30    4.56
   1  -5  12   58.63    4.24
  -2   5 -12    0.89    0.57
   2  -5  12    0.20    0.41
  -3   5 -12   62.61    4.99
  -7  -4  12   10.92    1.43
  -7  -4  12   12.82    1.44
   6   4 -12   44.42    3.72
  -6  -4  12   41.82    3.38
   5   4 -12    7.87    1.32
  -5  -4  12    9.52    1.20
   4   4 -12   69.25    4.99
  -4  -4  12   54.10    4.48
   3   4 -12   15.18    1.69
  -3  -4  12   15.39    1.50
   2   4 -12   54.59    4.34
  -2  -4  12   52.77    4.02
   1   4 -12    7.61    1.13
  -1  -4  12    7.88    1.03
   0   4 -12   53.11    4.29
   0  -4  12   54.24    3.99
  -1   4 -12    9.71    1.35
   1  -4  12   11.06    1.22
  -2   4 -12   53.22    4.33
   2  -4  12   54.29    3.97
  -3   4 -12    2.99    0.79
   7   3 -12   28.97    2.82
  -7  -3  12   33.13    2.62
  -7  -3  12   29.81    2.58
   6   3 -12    9.84    1.45
  -6  -3  12   10.74    1.30
   5   3 -12   44.07    3.59
   5   3 -12   44.24    3.34
  -5  -3  12   37.54    3.23
   4   3 -12    8.87    1.06
   4   3 -12    6.69    1.13
  -4  -3  12    5.90    0.95
   3   3 -12   32.74    2.48
   3   3 -12   27.94    2.68
  -3  -3  12   29.74    2.46
   2   3 -12    0.77    0.45
   2   3 -12    1.39    0.62
  -2  -3  12    1.30    0.49
   1   3 -12   81.94    6.08
  -1  -3  12   77.16    5.68
   0   3 -12   11.72    1.46
   0  -3  12   13.16    1.25
  -1   3 -12   52.92    4.14
   1  -3  12   50.83    3.83
   7   2 -12   23.82    2.21
  -7  -2  12   18.84    1.89
   6   2 -12   42.07    3.47
   6   2 -12   46.70    3.69
  -6  -2  12   41.54    3.37
   5   2 -12   27.66    2.45
   5   2 -12   26.59    2.26
  -5  -2  12   23.55    2.17
   4   2 -12   42.13    3.46
   4   2 -12   44.67    3.72
  -4  -2  12   47.77    3.47
   3   2 -12   19.38    1.73
   3   2 -12   16.85    1.83
  -3  -2  12   19.47    1.71
   2   2 -12   62.55    4.72
   2   2 -12   60.78    4.50
  -2  -2  12   57.36    4.41
   1   2 -12   14.28    1.39
   1   2 -12   10.19    1.32
  -1  -2  12   12.18    1.24
   0   2 -12   58.53    4.32
   0  -2  12   55.41    4.16
   1  -2  12   19.48    1.70
   7   1 -12   16.20    1.74
   7   1 -12   19.31    1.89
  -7  -1  12   15.36    1.60
   6   1 -12   16.99    1.82
   6   1 -12   19.20    1.83
  -6  -1  12   16.28    1.61
   5   1 -12   47.10    3.47
   5   1 -12   42.54    3.58
  -5  -1  12   40.11    3.31
   4   1 -12   41.38    3.42
   4   1 -12   52.03    3.71
  -4  -1  12   39.85    3.33
   3   1 -12   32.55    2.67
  -3  -1  12   32.18    2.59
   2   1 -12   24.17    2.11
  -2  -1  12   23.71    2.01
   1   1 -12   85.25    5.78
  -1  -1  12   72.24    5.55
   0   1 -12   19.31    1.78
   0  -1  12   16.53    1.54
  -1   1 -12   58.91    4.11
   1  -1  12   47.04    3.80
  -2   1 -12    8.68    1.29
  -3   1 -12   37.48    3.14
   7   0 -12   21.19    2.18
  -7   0  12   24.18    2.03
   6   0 -12   30.91    2.74
  -6   0  12   32.57    2.61
   5   0 -12   46.42    3.56
  -5   0  12   42.23    3.38
   4   0 -12   48.86    3.81
  -4   0  12   48.82    3.70
   3   0 -12   37.79    3.03
  -3   0  12   36.25    2.88
   2   0 -12   42.96    3.27
  -2   0  12   37.48    3.04
   1   0 -12   24.89    2.36
  -1   0  12   29.13    2.24
   0   0 -12   51.10    3.70
   0   0  12   42.02    3.39
  -1   0 -12   35.35    2.80
   1   0  12   28.94    2.43
  -2   0 -12   40.78    3.41
  -6   1  12   38.11    3.00
   5  -1 -12   35.99    2.96
  -5   1  12   33.78    2.76
   4  -1 -12   46.22    3.65
  -4   1  12   44.68    3.45
   3  -1 -12   47.17    3.93
  -3   1  12   52.96    3.78
   2  -1 -12   44.68    3.30
  -2   1  12   35.64    2.98
  -1   1  12   40.30    3.08
   0  -1 -12   16.11    1.87
   0   1  12   16.17    1.47
  -1  -1 -12   36.99    3.27
   1   1  12   40.19    2.99
   4  -2 -12   23.62    2.18
  -4   2  12   21.79    1.95
   3  -2 -12   21.27    2.09
  -3   2  12   22.29    1.91
   2  -2 -12   29.35    2.56
  -2   2  12   27.82    2.31
   1  -2 -12   39.64    3.14
  -1   2  12   33.77    2.80
   0   2  12   37.25    2.90
   1   2  12   29.65    2.39
   3   6 -13    5.28    1.07
  -3  -6  13    3.54    0.87
   2   6 -13   39.73    3.42
  -2  -6  13   38.34    3.16
   1   6 -13    3.67    0.89
  -1  -6  13    2.77    0.76
   0   6 -13   28.09    2.64
   0  -6  13   28.38    2.41
   1  -6  13    9.92    1.26
   5   5 -13   48.90    4.55
  -5  -5  13   60.74    4.31
   4   5 -13    0.66    0.68
  -4  -5  13    1.34    0.65
   3   5 -13   70.69    5.55
  -3  -5  13   67.69    5.15
   2   5 -13    1.13    0.66
  -2  -5  13    0.47    0.50
   1   5 -13   44.71    3.61
  -1  -5  13   40.69    3.32
   0   5 -13    1.90    0.73
   0  -5  13    3.25    0.69
  -1   5 -13   39.94    3.38
   1  -5  13   39.09    3.09
   5   4 -13    1.58    0.77
  -5  -4  13    0.28    0.54
   4   4 -13   35.08    3.12
  -4  -4  13   33.52    2.81
   3   4 -13    5.58    1.09
  -3  -4  13    6.86    1.01
   2   4 -13   55.46    4.48
  -2  -4  13   55.44    4.19
   1   4 -13    1.09    0.58
  -1  -4  13    2.04    0.59
   0   4 -13   41.20    3.61
   0  -4  13   46.54    3.41
  -1   4 -13    6.32    1.02
   1  -4  13    4.25    0.79
   6   3 -13    3.38    0.86
   6   3 -13    4.47    1.05
  -6  -3  13    3.06    0.77
   5   3 -13   49.20    4.18
   5   3 -13   51.90    3.89
  -5  -3  13   47.90    3.85
   4   3 -13    0.35    0.49
   4   3 -13    0.44    0.58
  -4  -3  13    0.08    0.47
   3   3 -13   74.44    5.42
  -3  -3  13   62.52    4.99
   2   3 -13    0.88    0.56
  -2  -3  13    0.32    0.43
   1   3 -13   76.05    5.70
  -1  -3  13   71.47    5.34
   0  -3  13    0.34    0.42
   1  -3  13   64.11    4.69
   6   2 -13   40.97    3.57
   6   2 -13   41.99    3.41
   5   2 -13    3.45    0.80
   5   2 -13    4.73    1.03
  -5  -2  13    2.68    0.77
   4   2 -13   45.36    3.54
   4   2 -13   39.07    3.23
  -4  -2  13   38.72    3.20
   3   2 -13    4.82    0.93
   3   2 -13    4.98    0.90
  -3  -2  13    3.79    0.79
   2   2 -13   69.34    5.39
  -2  -2  13   76.32    5.33
   1   2 -13    1.57    0.61
  -1  -2  13    1.09    0.52
   0  -2  13   80.32    5.77
   1  -2  13   -0.03    0.38
   5   1 -13   50.96    4.12
  -5  -1  13   55.19    4.07
  -4  -1  13    5.40    0.89
   3   1 -13   57.64    4.10
  -3  -1  13   47.74    3.91
   2   1 -13    4.00    0.87
  -2  -1  13    4.68    0.82
   1   1 -13  104.83    6.65
  -1  -1  13   77.85    6.31
   0   1 -13    3.85    0.87
   0  -1  13    3.91    0.72
  -1   1 -13   50.47    4.04
   1  -1  13   51.09    3.79
   4   0 -13   73.67    5.39
  -4   0  13   68.96    5.20
   3   0 -13    2.80    0.81
  -3   0  13    3.13    0.69
  -2   0  13   60.96    4.50
   1   0 -13    1.42    0.64
  -1   0  13    1.41    0.54
   0   0 -13   33.30    2.86
   0   0  13   32.35    2.60
   1   0  13   -0.20    0.39
   4   4 -14   35.19    3.20
   3   4 -14   13.76    1.73
   2   4 -14   29.31    2.68
   1   4 -14   10.24    1.40
   4   3 -14    2.48    0.87
   3   3 -14   29.52    2.71
   4   2 -14   39.81    3.25
   3   2 -14    7.86    1.17
   2   1 -14   10.79    1.44
   0   0   0    0.00    0.00
;
_shelx_hkl_checksum              95617
#END Tags that were not found in dictionaries
loop_
_space_group_symop_operation_xyz
'x, y, z'
'-x, -y, -z'
loop_
_atom_site_label
_atom_site_type_symbol
_atom_site_fract_x
_atom_site_fract_y
_atom_site_fract_z
_atom_site_U_iso_or_equiv
_atom_site_adp_type
_atom_site_occupancy
_atom_site_site_symmetry_order
_atom_site_calc_flag
_atom_site_refinement_flags_posn
_atom_site_refinement_flags_adp
C1 C 0.6669(5) 0.1025(5) 0.7045(4) 0.0101(6) Uani 1 1 d . .
C2 C 0.7963(4) 0.1793(4) 0.8424(4) 0.0082(6) Uani 1 1 d . .
C3 C 0.7495(5) 0.3091(5) 0.9499(4) 0.0109(6) Uani 1 1 d . .
H3 H 0.6374 0.3477 0.9360 0.013 Uiso 1 1 calc R U
C4 C 0.8728(5) 0.3782(4) 1.0765(4) 0.0090(6) Uani 1 1 d . .
C5 C 1.0425(5) 0.3266(4) 1.0970(4) 0.0100(6) Uani 1 1 d . .
H1 H 1.1258 0.3754 1.1809 0.012 Uiso 1 1 calc R U
C6 C 1.0848(5) 0.2008(5) 0.9892(4) 0.0102(6) Uani 1 1 d . .
C7 C 0.9649(4) 0.1233(4) 0.8630(4) 0.0098(6) Uani 1 1 d . .
H2 H 0.9961 0.0361 0.7938 0.012 Uiso 1 1 calc R U
C8 C 0.8239(5) 0.5109(4) 1.1937(4) 0.0099(6) Uani 1 1 d . .
N1 N 1.2667(4) 0.1472(5) 1.0097(4) 0.0174(7) Uani 1 1 d . .
O1 O 0.6373(4) 0.6057(4) 1.4728(3) 0.0158(6) Uani 1 1 d . .
O2 O 0.8608(4) 0.9155(3) 1.3792(3) 0.0130(5) Uani 1 1 d . .
O3 O 0.6848(3) 0.5851(3) 1.1751(3) 0.0136(5) Uani 1 1 d . .
O4 O 0.9277(3) 0.5458(3) 1.3164(3) 0.0117(5) Uani 1 1 d . .
O5 O 0.9970(4) 0.7386(4) 1.6008(3) 0.0119(5) Uani 1 1 d . .
O6 O 0.7082(4) -0.0250(3) 0.6195(3) 0.0149(5) Uani 1 1 d . .
O7 O 0.5233(4) 0.1671(4) 0.6824(3) 0.0183(6) Uani 1 1 d . .
O8 O 1.2991(4) 0.0271(4) 0.9181(3) 0.0244(7) Uani 1 1 d . .
O9 O 1.3731(4) 0.2222(5) 1.1191(4) 0.0358(9) Uani 1 1 d . .
OW1 O 0.6561(4) 1.2249(4) 1.3678(4) 0.0258(7) Uani 1 1 d . .
U1 U 0.74527(2) 0.76327(2) 1.42514(2) 0.00760(5) Uani 1 1 d . .
H4 H 1.081(13) 0.772(12) 1.622(10) 0.10(4) Uiso 1 1 d . .
H5 H 1.006(7) 0.646(7) 1.639(6) 0.029(14) Uiso 1 1 d . .
H6 H 0.574(8) 1.185(8) 1.275(7) 0.048(18) Uiso 1 1 d . .
H7 H 0.616(8) 1.305(8) 1.411(6) 0.035(16) Uiso 1 1 d . .
loop_
_atom_site_aniso_label
_atom_site_aniso_U_11
_atom_site_aniso_U_22
_atom_site_aniso_U_33
_atom_site_aniso_U_23
_atom_site_aniso_U_13
_atom_site_aniso_U_12
C1 0.0104(15) 0.0094(16) 0.0100(16) 0.0008(13) 0.0041(13) 0.0023(12)
C2 0.0102(15) 0.0076(15) 0.0060(15) 0.0014(12) 0.0008(12) 0.0020(12)
C3 0.0119(16) 0.0098(15) 0.0110(16) 0.0025(13) 0.0033(13) 0.0056(12)
C4 0.0118(15) 0.0058(15) 0.0103(16) 0.0013(12) 0.0056(13) 0.0039(12)
C5 0.0106(15) 0.0082(15) 0.0102(16) 0.0023(12) 0.0009(13) 0.0015(12)
C6 0.0090(15) 0.0094(16) 0.0120(17) 0.0029(13) 0.0025(13) 0.0036(12)
C7 0.0096(15) 0.0105(16) 0.0110(16) 0.0036(13) 0.0057(13) 0.0043(12)
C8 0.0124(16) 0.0078(15) 0.0075(16) -0.0015(12) 0.0034(13) 0.0024(12)
N1 0.0115(14) 0.0227(17) 0.0153(16) 0.0021(13) 0.0020(12) 0.0083(12)
O1 0.0156(13) 0.0137(13) 0.0189(15) 0.0034(11) 0.0075(11) -0.0008(10)
O2 0.0154(13) 0.0096(12) 0.0131(13) 0.0026(10) 0.0027(11) -0.0003(10)
O3 0.0127(12) 0.0123(12) 0.0131(13) -0.0009(10) 0.0034(10) 0.0060(10)
O4 0.0145(12) 0.0112(12) 0.0079(12) 0.0005(9) 0.0024(10) 0.0060(9)
O5 0.0125(13) 0.0128(13) 0.0101(12) 0.0043(10) 0.0009(10) 0.0032(10)
O6 0.0134(12) 0.0168(13) 0.0098(12) -0.0029(10) 0.0015(10) 0.0066(10)
O7 0.0139(13) 0.0187(14) 0.0134(13) -0.0063(11) -0.0004(11) 0.0083(10)
O8 0.0202(14) 0.0306(17) 0.0152(14) -0.0038(12) 0.0029(12) 0.0130(12)
O9 0.0160(15) 0.045(2) 0.0254(18) -0.0141(15) -0.0045(13) 0.0146(14)
OW1 0.0167(14) 0.0189(16) 0.038(2) 0.0047(14) 0.0049(14) 0.0050(12)
U1 0.00761(8) 0.00702(8) 0.00652(8) -0.00042(5) 0.00146(5) 0.00235(5)
loop_
_atom_type_symbol
_atom_type_description
_atom_type_scat_dispersion_real
_atom_type_scat_dispersion_imag
_atom_type_scat_source
C C 0.0033 0.0016 'International Tables Vol C Tables 4.2.6.8 and 6.1.1.4'
N N 0.0061 0.0033 'International Tables Vol C Tables 4.2.6.8 and 6.1.1.4'
O O 0.0106 0.0060 'International Tables Vol C Tables 4.2.6.8 and 6.1.1.4'
U U -9.6767 9.6646 'International Tables Vol C Tables 4.2.6.8 and 6.1.1.4'
H H 0.0000 0.0000 'International Tables Vol C Tables 4.2.6.8 and 6.1.1.4'
loop_
_geom_angle_atom_site_label_1
_geom_angle_atom_site_label_2
_geom_angle_atom_site_label_3
_geom_angle
_geom_angle_site_symmetry_1
_geom_angle_site_symmetry_3
O7 C1 O6 124.1(3) . .
O7 C1 C2 118.2(3) . .
O6 C1 C2 117.7(3) . .
C7 C2 C3 120.2(3) . .
C7 C2 C1 119.1(3) . .
C3 C2 C1 120.6(3) . .
C4 C3 C2 119.2(3) . .
C5 C4 C3 121.1(3) . .
C5 C4 C8 118.8(3) . .
C3 C4 C8 120.1(3) . .
C6 C5 C4 118.3(3) . .
C5 C6 C7 122.9(3) . .
C5 C6 N1 118.5(3) . .
C7 C6 N1 118.6(3) . .
C6 C7 C2 118.2(3) . .
O3 C8 O4 120.1(3) . .
O3 C8 C4 122.0(3) . .
O4 C8 C4 117.9(3) . .
O3 C8 U1 60.53(18) . .
O4 C8 U1 59.62(17) . .
C4 C8 U1 177.5(3) . .
O9 N1 O8 124.3(3) . .
O9 N1 C6 117.8(3) . .
O8 N1 C6 117.9(3) . .
C8 O3 U1 93.4(2) . .
C8 O4 U1 93.8(2) . .
C1 O6 U1 167.1(3) . 1_544
C1 O7 U1 163.0(3) . 2_667
O2 U1 O1 177.57(11) . .
O2 U1 O7 92.34(12) . 2_667
O1 U1 O7 89.98(13) . 2_667
O2 U1 O6 89.88(12) . 1_566
O1 U1 O6 91.09(12) . 1_566
O7 U1 O6 84.04(9) 2_667 1_566
O2 U1 O5 92.56(12) . .
O1 U1 O5 85.44(12) . .
O7 U1 O5 162.24(10) 2_667 .
O6 U1 O5 78.91(10) 1_566 .
O2 U1 O4 88.07(11) . .
O1 U1 O4 89.96(11) . .
O7 U1 O4 126.74(9) 2_667 .
O6 U1 O4 149.21(9) 1_566 .
O5 U1 O4 70.50(9) . .
O2 U1 O3 87.38(11) . .
O1 U1 O3 92.55(12) . .
O7 U1 O3 74.15(9) 2_667 .
O6 U1 O3 157.87(10) 1_566 .
O5 U1 O3 123.14(9) . .
O4 U1 O3 52.66(8) . .
O2 U1 C8 87.08(12) . .
O1 U1 C8 91.79(12) . .
O7 U1 C8 100.17(10) 2_667 .
O6 U1 C8 174.90(10) 1_566 .
O5 U1 C8 97.13(10) . .
O4 U1 C8 26.63(9) . .
O3 U1 C8 26.03(9) . .
loop_
_geom_bond_atom_site_label_1
_geom_bond_atom_site_label_2
_geom_bond_distance
_geom_bond_site_symmetry_2
C1 O7 1.250(4) .
C1 O6 1.251(4) .
C1 C2 1.496(5) .
C2 C7 1.392(5) .
C2 C3 1.415(5) .
C3 C4 1.388(5) .
C4 C5 1.387(5) .
C4 C8 1.498(5) .
C5 C6 1.383(5) .
C6 C7 1.384(5) .
C6 N1 1.481(5) .
C8 O3 1.256(4) .
C8 O4 1.283(4) .
C8 U1 2.857(3) .
N1 O9 1.221(5) .
N1 O8 1.223(4) .
O1 U1 1.769(3) .
O2 U1 1.756(3) .
O3 U1 2.492(3) .
O4 U1 2.470(2) .
O5 U1 2.402(3) .
O6 U1 2.314(3) 1_544
O7 U1 2.300(3) 2_667
U1 O7 2.300(3) 2_667
U1 O6 2.314(3) 1_566
