#------------------------------------------------------------------------------
#$Date: 2016-03-24 14:28:49 +0200 (Thu, 24 Mar 2016) $
#$Revision: 179665 $
#$URL: svn://www.crystallography.net/cod/cif/4/51/18/4511862.cif $
#------------------------------------------------------------------------------
#
# This file is available in the Crystallography Open Database (COD),
# http://www.crystallography.net/
#
# All data on this site have been placed in the public domain by the
# contributors.
#
data_4511862
loop_
_publ_author_name
'Miyake, Ryosuke'
'Nakagawa, Yuki'
'Hase, Mariko'
_publ_section_title
;
 Selective Thermal Elongation of Metal--Metal Distances in the
 Two-Dimensional Assembly of Ag(I) Ions Templated by Assembled Peptide
 Ligands
;
_journal_issue                   10
_journal_name_full               'Crystal Growth &amp; Design'
_journal_page_first              4882
_journal_paper_doi               10.1021/cg5009347
_journal_volume                  14
_journal_year                    2014
_chemical_absolute_configuration ad
_chemical_formula_sum            'C7 H11 Ag2 N3 O5'
_chemical_formula_weight         432.93
_space_group_crystal_system      monoclinic
_space_group_IT_number           4
_space_group_name_Hall           'P 2yb'
_space_group_name_H-M_alt        'P 1 21 1'
_symmetry_space_group_name_Hall  'P 2yb'
_symmetry_space_group_name_H-M   'P 1 21 1'
_atom_sites_solution_hydrogens   geom
_cell_angle_alpha                90
_cell_angle_beta                 103.186(2)
_cell_angle_gamma                90
_cell_formula_units_Z            2
_cell_length_a                   4.8259(7)
_cell_length_b                   19.954(3)
_cell_length_c                   5.5272(8)
_cell_measurement_temperature    223
_cell_volume                     518.21(13)
_computing_cell_refinement       'SAINT V8.32B (Bruker AXS)'
_computing_data_collection       'Bruker SMART APEXII ULTRA'
_computing_data_reduction        'SAINT V8.32B (Bruker AXS)'
_computing_molecular_graphics    'XSHELL V6.3.1 (Bruker AXS)'
_computing_publication_material  'Generate Report (Bruker AXS)'
_computing_structure_refinement  'SHELXL-2013 (Sheldrick, 2013)'
_computing_structure_solution    'SHELXS-97 (Sheldrick, 1997)'
_diffrn_ambient_temperature      223
_diffrn_detector_area_resol_mean 8.333
_diffrn_measured_fraction_theta_full 0.961
_diffrn_measured_fraction_theta_max 0.961
_diffrn_measurement_device_type  'Bruker D8 goniometer'
_diffrn_measurement_method       'omega scans'
_diffrn_radiation_monochromator  'multilayered conforcal mirror'
_diffrn_radiation_type           MoK\a
_diffrn_radiation_wavelength     0.71073
_diffrn_reflns_av_R_equivalents  0.0191
_diffrn_reflns_limit_h_max       6
_diffrn_reflns_limit_h_min       -5
_diffrn_reflns_limit_k_max       24
_diffrn_reflns_limit_k_min       -27
_diffrn_reflns_limit_l_max       7
_diffrn_reflns_limit_l_min       -7
_diffrn_reflns_number            3695
_diffrn_reflns_theta_full        30.50
_diffrn_reflns_theta_max         30.50
_diffrn_reflns_theta_min         2.04
_diffrn_source                   'rotating-anode X-ray tube'
_diffrn_source_type              'Bruker Tourbo X-ray Source'
_exptl_absorpt_coefficient_mu    3.793
_exptl_absorpt_correction_T_max  0.96
_exptl_absorpt_correction_T_min  0.82
_exptl_absorpt_correction_type   empirical
_exptl_absorpt_process_details   'SADABS V2012/1 (Bruker AXS)'
_exptl_crystal_colour            colorless
_exptl_crystal_density_diffrn    2.775
_exptl_crystal_density_method    'not measured'
_exptl_crystal_description       plate
_exptl_crystal_F_000             416
_exptl_crystal_size_max          0.055
_exptl_crystal_size_mid          0.023
_exptl_crystal_size_min          0.010
_refine_diff_density_max         1.455
_refine_diff_density_min         -1.304
_refine_ls_abs_structure_details
;
Flack x determined using 876 quotients [(I+)-(I-)]/[(I+)+(I-)]
(Parsons and Flack (2004), Acta Cryst. A60, s61).
;
_refine_ls_abs_structure_Flack   0.04(3)
_refine_ls_extinction_method     none
_refine_ls_goodness_of_fit_ref   1.050
_refine_ls_hydrogen_treatment    constr
_refine_ls_matrix_type           full
_refine_ls_number_parameters     154
_refine_ls_number_reflns         2536
_refine_ls_number_restraints     1
_refine_ls_restrained_S_all      1.049
_refine_ls_R_factor_all          0.0327
_refine_ls_R_factor_gt           0.0286
_refine_ls_shift/su_max          0.000
_refine_ls_shift/su_mean         0.000
_refine_ls_structure_factor_coef Fsqd
_refine_ls_weighting_details
'w=1/[\s^2^(Fo^2^)+(0.0213P)^2^+0.8124P] where P=(Fo^2^+2Fc^2^)/3'
_refine_ls_weighting_scheme      calc
_refine_ls_wR_factor_gt          0.0608
_refine_ls_wR_factor_ref         0.0623
_reflns_number_gt                2333
_reflns_number_total             2536
_reflns_threshold_expression     'I > 2\s(I)'
_cod_data_source_file            cg5009347_si_001.cif
_cod_data_source_block           p21_223K
_cod_depositor_comments
'Adding full bibliography for 4511859--4511871.cif.'
_cod_database_code               4511862
#BEGIN Tags that were not found in dictionaries:
_shelx_res_file
;
TITL p21(-50) in P2(1)
CELL 0.71073   4.82590  19.95390   5.52720  90.0000 103.1860  90.0000
ZERR    2.00   0.00070   0.00270   0.00080   0.0000   0.0023   0.0000
LATT -1
SYMM -X, 0.5+Y, -Z
SFAC C  H  N  O  Ag
UNIT 14  22  6  10  4
L.S. 10
SHEL 20 0.7
ACTA
BOND $h
FMAP 2
PLAN 20
size 0.055 0.023 0.010
TEMP -50
WGHT    0.021300    0.812400
FVAR       0.18853
AG1   5    0.211641    0.857621    0.431913    11.00000    0.03004    0.01350 =
         0.03357   -0.00307   -0.00144    0.00596
AG2   5   -0.435278    0.867130   -0.008142    11.00000    0.03260    0.01813 =
         0.03036   -0.00339    0.00063    0.00583
C1    1   -0.023878    0.756576    0.027273    11.00000    0.01795    0.01959 =
         0.01602   -0.00157   -0.00025   -0.00026
C2    1    0.141039    0.694325    0.145065    11.00000    0.02385    0.01819 =
         0.02401   -0.00264    0.00162    0.00528
AFIX  23
H2A   2    0.019327    0.654722    0.103762    11.00000   -1.20000
H2B   2    0.307885    0.688015    0.074368    11.00000   -1.20000
AFIX   0
C3    1    0.237803    0.700164    0.425800    11.00000    0.01314    0.01029 =
         0.02159    0.00210    0.00595    0.00364
AFIX  13
H3    2    0.068504    0.703916    0.497841    11.00000   -1.20000
AFIX   0
C4    1    0.403677    0.637268    0.527060    11.00000    0.01452    0.01249 =
         0.02410    0.00337    0.00735    0.00170
C5    1    0.385710    0.524734    0.692487    11.00000    0.01737    0.01074 =
         0.02951    0.00341    0.00703    0.00005
AFIX  13
H5    2    0.563113    0.520339    0.632497    11.00000   -1.20000
AFIX   0
C6    1    0.467838    0.525537    0.975423    11.00000    0.02685    0.01646 =
         0.02533    0.00074    0.00231    0.00033
AFIX  23
H6A   2    0.580043    0.565852    1.031769    11.00000   -1.20000
H6B   2    0.294966    0.527370    1.039970    11.00000   -1.20000
AFIX   0
C7    1    0.195655    0.465387    0.591353    11.00000    0.01872    0.01423 =
         0.02013    0.00071    0.00223    0.00327
N1    3    0.417096    0.760215    0.493357    11.00000    0.01546    0.01465 =
         0.02406    0.00073   -0.00038   -0.00035
AFIX  23
H1A   2    0.567088    0.758932    0.400117    11.00000   -1.20000
H1B   2    0.510495    0.756859    0.670029    11.00000   -1.20000
AFIX   0
N2    3    0.249986    0.587480    0.595098    11.00000    0.01261    0.01602 =
         0.03058    0.01081    0.00486    0.00319
AFIX  43
H2    2    0.068017    0.592732    0.580917    11.00000   -1.20000
AFIX   0
N3    3    0.634874    0.465615    1.075765    11.00000    0.02367    0.02031 =
         0.02324    0.00508    0.00173    0.00083
AFIX  23
H3A   2    0.697808    0.471398    1.256047    11.00000   -1.20000
H3B   2    0.806183    0.465057    1.008767    11.00000   -1.20000
AFIX   0
O1    4    0.059400    0.789406   -0.131342    11.00000    0.04115    0.05024 =
         0.03171    0.01976    0.01616    0.01318
O2    4   -0.242726    0.771172    0.107495    11.00000    0.02554    0.02764 =
         0.05212    0.01500    0.02052    0.00922
O3    4    0.660444    0.632629    0.539305    11.00000    0.01225    0.02153 =
         0.07477    0.02076    0.01473    0.00336
O4    4    0.262585    0.429129    0.433701    11.00000    0.04407    0.05377 =
         0.04820   -0.02892    0.01746   -0.01333
O5    4   -0.022195    0.456151    0.677810    11.00000    0.02111    0.02321 =
         0.04564   -0.00864    0.01515   -0.00916
HKLF 4

REM  p21(-50) in P2(1)
REM R1 =  0.0286 for    2333 Fo > 4sig(Fo)  and  0.0327 for all    2536 data
REM    154 parameters refined using      1 restraints

END

WGHT      0.0215      0.8052

REM Highest difference peak  1.455,  deepest hole -1.304,  1-sigma level  0.131
Q1    1   0.0975  0.8517  0.4935  11.00000  0.05    1.45
Q2    1  -0.2906  0.8748 -0.0594  11.00000  0.05    1.18
Q3    1   0.1618  0.8613  0.3483  11.00000  0.05    0.61
Q4    1   0.3218  0.8567  0.4576  11.00000  0.05    0.57
Q5    1  -0.4569  0.8303 -0.0281  11.00000  0.05    0.56
Q6    1  -0.2880  0.9004  0.1189  11.00000  0.05    0.55
Q7    1   0.3777  0.8604  0.2935  11.00000  0.05    0.55
Q8    1  -0.6237  0.8612 -0.0290  11.00000  0.05    0.54
Q9    1   0.8397  0.4021  1.0488  11.00000  0.05    0.54
Q10   1   0.1110  0.8698 -0.1606  11.00000  0.05    0.53
Q11   1   0.0390  0.8187  0.2935  11.00000  0.05    0.53
Q12   1  -0.3844  0.8613  0.0691  11.00000  0.05    0.52
Q13   1   0.2054  0.8886  0.4034  11.00000  0.05    0.52
Q14   1  -0.1559  0.8476 -0.1641  11.00000  0.05    0.48
Q15   1  -0.4123  0.9111 -0.0049  11.00000  0.05    0.46
Q16   1   0.1867  0.8641  0.0797  11.00000  0.05    0.45
Q17   1  -0.0757  0.7751 -0.1721  11.00000  0.05    0.45
Q18   1   0.9021  0.3908  0.9013  11.00000  0.05    0.45
Q19   1  -0.1226  0.8706 -0.1565  11.00000  0.05    0.44
Q20   1   0.2343  0.8226  0.2653  11.00000  0.05    0.43
;
_shelx_res_checksum              99716
_shelx_hkl_file
;
   1   0   0  129.41    2.67
   1   0   0  130.29    2.86
   2   0   0   18.63    0.70
   2   0   0   17.39    0.73
   3   0   0   33.96    1.29
   3   0   0   34.49    1.19
   4   0   0   18.63    1.08
   4   0   0   18.05    1.19
   5   0   0   62.28    2.22
   5   0   0   67.84    2.55
   6   0   0    9.43    1.13
   0  -1   0   -1.40    0.01
   0  -1   0   -1.40    0.02
   0   1   0   -1.40    0.01
   0   1   0   -1.41    0.02
   1  -1   0   86.46    1.85
   1  -1   0   92.15    2.00
   1   1   0   84.77    1.87
   2  -1   0  220.94    4.58
   2  -1   0  219.68    4.92
   2   1   0  219.34    4.61
   3  -1   0  124.59    3.15
   3  -1   0  120.54    2.91
   3   1   0  119.71    2.93
   3   1   0  124.07    3.19
   4  -1   0    9.58    0.82
   4  -1   0   10.50    0.97
   4   1   0   10.57    0.99
   4   1   0    9.34    0.83
   5  -1   0    8.80    0.94
   5  -1   0    7.92    1.07
   5   1   0    9.22    0.97
   5   1   0    7.70    1.14
   6  -1   0   22.97    1.57
   6   1   0   25.68    1.64
   0  -2   0  931.60   22.30
   1  -2   0   41.82    1.09
   1  -2   0   40.65    1.00
   1   2   0   46.53    1.07
   1   2   0   46.96    1.17
   2  -2   0    1.82    0.30
   2  -2   0    1.49    0.25
   2   2   0    1.24    0.32
   2   2   0    1.34    0.26
   3  -2   0   89.93    2.41
   3  -2   0   85.11    2.23
   3   2   0   87.46    2.46
   3   2   0   87.61    2.29
   4  -2   0   18.35    1.14
   4  -2   0   17.46    1.00
   4   2   0   18.31    1.23
   4   2   0   17.91    1.06
   5  -2   0   35.65    1.87
   5  -2   0   35.11    1.60
   5   2   0   36.36    1.91
   5   2   0   35.38    1.68
   6  -2   0    6.27    0.95
   6   2   0    5.55    0.97
   0  -3   0   -0.50    0.08
   1  -3   0   58.85    1.31
  -1  -3   0   59.68    1.45
   1  -3   0   61.30    1.47
   1   3   0   61.04    1.40
   1   3   0   60.15    1.27
   2  -3   0  168.56    3.60
   2  -3   0  169.13    3.88
   2   3   0  167.79    3.97
   2   3   0  173.22    3.71
   3  -3   0  212.38    5.00
   3  -3   0  215.78    4.65
   3   3   0  212.55    4.74
   3   3   0  211.02    5.11
   4  -3   0    3.54    0.67
   4  -3   0    3.82    0.57
   4   3   0    3.28    0.55
   4   3   0    3.33    0.72
   5  -3   0    5.88    0.81
   5  -3   0    4.47    0.87
   5   3   0    3.75    0.90
   5   3   0    5.04    0.84
   6  -3   0   25.48    1.56
   6   3   0   22.81    1.62
   0  -4   0  403.79    8.62
   1  -4   0  139.91    3.15
   1  -4   0  138.65    2.86
  -1  -4   0  142.80    3.14
   1   4   0  141.22    2.85
   1   4   0  139.67    2.97
   2  -4   0   23.83    0.86
   2  -4   0   23.16    0.77
   2   4   0   25.48    0.88
   3  -4   0   71.71    2.05
   3  -4   0   69.59    1.87
   3   4   0   70.31    1.97
   3   4   0   67.83    2.12
   4  -4   0    5.72    0.72
   4  -4   0    5.54    0.64
   4   4   0    5.70    0.68
   5  -4   0   18.82    1.36
   5  -4   0   17.26    1.18
   5   4   0   18.61    1.27
   6  -4   0    6.39    0.91
   6   4   0    6.34    1.04
   0  -5   0   -0.84    0.15
   1  -5   0   76.47    1.88
   1  -5   0   75.83    1.66
  -1  -5   0   76.55    1.86
   1   5   0   78.39    1.68
   1   5   0   78.90    1.79
   2  -5   0  287.88    5.99
  -2  -5   0  288.30    6.48
   2  -5   0  307.52    6.55
   2   5   0  299.12    6.16
   3  -5   0  293.06    6.19
   3  -5   0  295.97    6.73
   3   5   0  294.14    6.35
   4  -5   0    1.48    0.52
   4  -5   0    0.70    0.37
   4   5   0    1.15    0.44
   5  -5   0    4.42    0.71
   5  -5   0    4.33    0.84
   5   5   0    5.04    0.82
   6  -5   0   19.53    1.38
   6   5   0   19.98    1.59
   0  -6   0  326.69    7.06
  -1  -6   0  140.11    3.25
   1  -6   0  141.89    2.92
   1  -6   0  141.58    3.27
   1   6   0  149.88    3.00
   1   6   0  139.31    3.06
   2  -6   0    5.21    0.48
   2  -6   0    5.07    0.38
  -2  -6   0    4.95    0.40
   2   6   0    5.18    0.28
   2   6   0    6.18    0.49
   3  -6   0  133.52    3.06
  -3  -6   0  128.84    3.24
   3  -6   0  131.03    3.34
   3   6   0  133.88    3.23
   4  -6   0    4.78    0.60
   4  -6   0    4.75    0.69
  -4  -6   0    4.59    0.55
   4   6   0    4.45    0.64
   5  -6   0   20.94    1.21
   5  -6   0   17.76    1.36
   5   6   0   19.15    1.34
   6  -6   0    6.30    0.91
   6   6   0    6.93    1.07
   0  -7   0   -0.05    0.19
  -1  -7   0  229.85    5.19
   1  -7   0  234.25    4.70
   1  -7   0  231.34    5.21
   1   7   0  234.53    4.87
   1   7   0  241.03    4.81
  -2  -7   0  177.83    4.09
   2  -7   0  173.29    3.71
   2  -7   0  179.89    4.14
   2   7   0  179.37    3.93
   2   7   0  170.90    3.65
   3  -7   0  317.79    7.13
   3  -7   0  308.75    6.52
  -3  -7   0  306.25    7.00
   3   7   0  317.27    6.77
   4  -7   0    2.33    0.45
   4  -7   0    1.63    0.54
  -4  -7   0    1.82    0.42
   4   7   0    1.97    0.54
   5  -7   0    3.36    0.63
   5  -7   0    2.77    0.73
   5   7   0    4.39    0.81
   6  -7   0   16.00    1.24
   6   7   0   14.31    1.43
   0  -8   0  649.26   13.81
  -1  -8   0  182.11    4.23
   1  -8   0  189.06    4.25
   1  -8   0  181.25    3.77
   1   8   0  187.88    3.92
   1   8   0  186.74    3.97
  -2  -8   0   45.01    1.35
   2  -8   0   43.02    1.16
   2  -8   0   44.18    1.40
   2   8   0   42.38    1.13
   2   8   0   43.67    1.35
   3  -8   0   52.62    1.51
  -3  -8   0   52.43    1.62
   3  -8   0   53.23    1.74
   3   8   0   51.71    1.71
   4  -8   0    8.88    0.73
   4  -8   0   10.75    0.94
  -4  -8   0   10.10    0.74
   4   8   0   11.76    1.03
   5  -8   0   30.41    1.67
   5  -8   0   32.75    1.47
   5   8   0   36.92    1.78
   6   8   0    3.63    0.89
   0  -9   0   -0.44    0.19
   1  -9   0   45.42    1.13
   1  -9   0   47.25    1.40
  -1  -9   0   49.00    1.39
   1   9   0   44.86    1.30
   2  -9   0   41.01    1.36
   2  -9   0   42.43    1.13
  -2  -9   0   41.81    1.32
   2   9   0   40.14    1.12
   2   9   0   41.61    1.33
   3  -9   0   83.33    2.10
  -3  -9   0   82.70    2.30
   3  -9   0   82.20    2.40
   3   9   0   80.54    2.32
   4  -9   0    8.35    0.89
  -4  -9   0    7.73    0.71
   4  -9   0    7.97    0.69
   4   9   0    9.81    0.96
   5  -9   0    4.85    0.68
   5  -9   0    4.53    0.81
   5   9   0    5.29    0.89
   6   9   0   16.46    1.49
   0 -10   0  726.68   15.51
   1 -10   0   31.15    1.10
   1 -10   0   30.55    0.85
  -1 -10   0   32.19    1.09
   2 -10   0    3.08    0.32
   2 -10   0    3.00    0.46
  -2 -10   0    3.26    0.46
   2  10   0    2.51    0.43
   2  10   0    3.75    0.38
   3 -10   0   33.77    1.39
   3 -10   0   34.15    1.14
  -3 -10   0   35.08    1.29
   3  10   0   33.70    1.01
   3  10   0   35.59    1.37
   4 -10   0   12.04    0.99
  -4 -10   0   12.59    0.86
   4 -10   0   11.83    0.78
   4  10   0   13.73    1.07
   5 -10   0   36.41    1.82
   5  10   0   39.67    1.87
   6  10   0    7.98    1.15
   0 -11   0    0.33    0.24
   1 -11   0   61.36    1.78
   1 -11   0   60.32    1.45
  -1 -11   0   61.10    1.78
   2 -11   0   76.99    2.20
   2 -11   0   76.44    1.84
  -2 -11   0   80.03    2.19
   2  11   0   75.14    2.13
  -3 -11   0  111.73    2.98
   3 -11   0  112.38    2.67
   3 -11   0  110.78    3.09
   3  11   0  114.24    3.01
  -4 -11   0   19.44    1.07
   4 -11   0   22.23    1.02
   4 -11   0   20.46    1.21
   4  11   0   20.81    1.26
   5 -11   0    3.07    0.77
   5  11   0    4.38    0.86
   0 -12   0  685.84   14.77
   1 -12   0   43.94    1.45
  -1 -12   0   44.64    1.46
   1 -12   0   43.13    1.14
   2 -12   0   24.99    0.83
  -2 -12   0   26.10    1.07
   2 -12   0   25.66    1.11
   2  12   0   23.37    1.06
  -3 -12   0   53.56    1.73
   3 -12   0   51.48    1.83
   3 -12   0   51.66    1.49
   3  12   0   50.93    1.81
  -4 -12   0   20.62    1.08
   4 -12   0   17.92    1.18
   4  12   0   16.95    1.21
   5  12   0   23.01    1.57
   0 -13   0    0.28    0.28
   1 -13   0   35.28    1.30
   1 -13   0   34.44    0.99
  -1 -13   0   35.75    1.30
   2 -13   0  125.02    3.28
   2 -13   0  121.45    2.75
  -2 -13   0  125.42    3.22
   2  13   0  121.96    3.10
  -3 -13   0   93.61    2.67
   3 -13   0   95.04    2.79
   3 -13   0   90.45    2.29
   3  13   0   94.91    2.73
   4 -13   0   26.42    1.41
  -4 -13   0   28.98    1.29
   4  13   0   25.05    1.45
   5 -13   0    0.86    0.65
   5  13   0    1.75    0.76
   0 -14   0  237.50    5.60
   1 -14   0   42.79    1.16
   1 -14   0   42.00    1.50
  -1 -14   0   42.24    1.50
  -2 -14   0   46.38    1.60
   2 -14   0   46.86    1.66
   2 -14   0   44.49    1.26
  -3 -14   0   36.52    1.46
   3 -14   0   36.96    1.56
   3  14   0   33.96    1.50
  -4 -14   0    9.10    0.86
   4 -14   0    9.08    1.01
   4  14   0   11.82    1.15
   5  14   0   12.55    1.33
   0 -15   0    0.19    0.29
   1 -15   0   59.45    1.91
  -1 -15   0   58.22    1.90
   1 -15   0   58.48    1.50
   2 -15   0   56.57    1.94
  -2 -15   0   57.22    1.90
   3 -15   0   90.62    2.78
  -3 -15   0   86.53    2.63
   3  15   0   91.26    2.69
   4 -15   0   14.87    1.16
  -4 -15   0   15.09    1.04
   4  15   0   16.51    1.24
   5 -15   0    1.87    0.74
   5  15   0    4.28    0.88
   0 -16   0   77.36    2.32
  -1 -16   0   37.24    1.46
   1 -16   0   34.56    1.06
   1 -16   0   36.46    1.44
   2 -16   0   24.78    1.24
  -2 -16   0   24.93    1.20
   3 -16   0   35.42    1.62
  -3 -16   0   36.14    1.50
   4 -16   0    7.00    0.97
  -4 -16   0    9.46    0.98
   4  16   0    8.56    1.04
   5 -16   0    2.83    0.79
   5  16   0    4.79    0.91
   0 -17   0   -0.04    0.31
   1 -17   0   32.76    1.40
  -1 -17   0   32.22    1.40
   2 -17   0   48.63    1.87
  -2 -17   0   51.17    1.85
  -3 -17   0   65.69    2.21
   3 -17   0   63.81    2.32
  -4 -17   0    1.37    0.51
   4 -17   0    1.45    0.62
   5 -17   0    0.30    0.67
   5  17   0    1.60    0.65
   0 -18   0  291.34    6.92
   1 -18   0   54.58    1.95
  -1 -18   0   54.77    1.95
  -2 -18   0   14.89    1.00
   2 -18   0   14.15    1.06
   3 -18   0   20.04    1.31
  -3 -18   0   22.16    1.23
  -4 -18   0    4.78    0.77
   4 -18   0    2.95    0.75
   0 -19   0    0.53    0.39
   1 -19   0   74.59    2.46
  -1 -19   0   76.41    2.46
  -2 -19   0   21.84    1.21
   2 -19   0   21.97    1.31
   3 -19   0   50.05    2.10
  -3 -19   0   52.61    2.01
   4 -19   0   15.75    1.32
  -4 -19   0   17.56    1.21
   5 -19   0    2.27    0.81
   0 -20   0  113.58    3.31
  -1 -20   0   47.27    1.85
   1 -20   0   46.74    1.87
  -2 -20   0   14.99    1.06
   2 -20   0   15.62    1.17
  -3 -20   0   16.38    1.14
   3 -20   0   18.67    1.31
   4 -20   0    6.06    0.92
  -4 -20   0    9.68    1.16
   0 -21   0    0.55    0.43
   1 -21   0   39.41    1.73
  -1 -21   0   39.69    1.71
  -2 -21   0   10.20    1.07
   2 -21   0   13.72    1.30
  -3 -21   0   25.64    1.42
   3 -21   0   25.76    1.55
   0 -22   0   83.39    2.74
   1 -22   0   17.47    1.20
  -1 -22   0   16.29    1.13
   2 -22   0   12.94    1.16
  -2 -22   0   12.18    1.04
  -3 -22   0   12.12    1.23
   3 -22   0    7.38    1.06
   4 -22   0    3.91    0.87
   0 -23   0    0.54    0.44
   1 -23   0   21.57    1.37
  -1 -23   0   21.51    1.31
   2 -23   0   16.74    1.31
  -2 -23   0   16.78    1.20
  -3 -23   0   23.86    1.45
   3 -23   0   22.83    1.56
   0 -24   0   40.12    1.85
   1 -24   0   10.30    1.13
  -1 -24   0   11.30    1.04
  -2 -24   0   16.56    1.25
   2 -24   0   18.67    1.41
   3 -24   0   17.64    1.47
  -3 -24   0   19.85    1.37
   0 -25   0    0.28    0.49
   1 -25   0   25.98    1.56
  -1 -25   0   25.04    1.52
   2 -25   0   20.96    1.50
  -2 -25   0   17.60    1.30
  -3 -25   0   42.18    1.99
   0 -26   0   34.28    1.83
   1 -26   0   25.39    1.59
  -1 -26   0   25.51    1.57
  -2 -26   0   36.96    1.85
   2 -26   0   36.63    1.98
   0 -27   0    3.83    0.86
   1 -27   0   23.52    1.57
  -1 -27   0   21.47    1.49
  -2 -27   0    2.79    0.75
   6   0  -1   -0.03    0.59
   5   0  -1    7.18    0.87
   4   0  -1   27.94    1.28
   4   0  -1   30.33    1.29
   3   0  -1    1.11    0.31
   2   0  -1  669.21   13.18
   1   0  -1   73.40    1.61
   0   0   1   12.25    0.47
   1   0   1  242.06    5.34
   1   0   1  239.25    4.89
   2   0   1  309.32    6.84
   2   0   1  296.43    6.26
   3   0   1   17.94    0.89
   3   0   1   16.45    1.06
   4   0   1    1.50    0.73
   4   0   1    1.45    0.52
   5   0   1   11.80    1.33
   5   0   1   11.06    1.12
   6   0   1    1.22    0.68
   6  -1  -1    2.15    0.71
   6   1  -1    2.97    0.77
   5  -1  -1   79.87    2.48
   5   1  -1   75.45    2.47
   4  -1  -1   86.40    2.42
   4   1  -1   87.64    2.46
   3  -1  -1   12.06    0.68
   3   1  -1   11.72    0.68
   2  -1  -1   95.16    2.16
   2   1  -1   92.42    2.16
   1  -1  -1  446.91    8.67
   1   1  -1  436.20    8.65
   0  -1   1   82.19    1.88
   0   1   1   82.92    1.94
   1  -1   1  190.59    3.82
   1  -1   1  193.86    4.21
   1   1   1  177.93    3.88
   1   1   1  183.09    4.24
   2  -1   1    2.76    0.46
   2  -1   1    2.69    0.34
   2   1   1    2.20    0.34
   2   1   1    3.10    0.50
   3  -1   1   24.80    1.04
   3  -1   1   24.56    1.23
   3   1   1   24.59    1.29
   3   1   1   24.74    1.07
   4  -1   1  163.91    4.56
   4  -1   1  166.17    4.08
   4   1   1  168.25    4.17
   4   1   1  166.09    4.58
   5  -1   1   16.45    1.23
   5  -1   1   16.16    1.48
   5   1   1   14.77    1.52
   5   1   1   17.07    1.28
   6  -1   1    1.59    0.68
   6   1   1    0.91    0.68
   6  -2  -1    0.84    0.59
   6   2  -1    0.95    0.61
   5  -2  -1    3.05    0.67
   5   2  -1    2.32    0.63
   4  -2  -1   42.52    1.55
   4   2  -1   46.71    1.60
   3  -2  -1    3.50    0.38
   3  -2  -1    4.60    0.46
   3   2  -1    4.56    0.47
   2  -2  -1  282.75    5.90
   2   2  -1  295.12    5.93
   1  -2  -1  285.89    5.78
   1   2  -1  293.74    5.75
   0  -2   1   42.38    1.05
   1  -2   1  524.53   11.21
   1  -2   1  477.21   10.26
   1   2   1  531.07   11.29
   1   2   1  554.04   10.44
  -1   2  -1  542.60   10.30
   2  -2   1  195.87    4.35
   2  -2   1  208.14    4.82
   2   2   1  208.49    4.48
   2   2   1  213.93    4.90
   3  -2   1   43.76    1.67
   3  -2   1   45.97    1.46
   3   2   1   44.97    1.53
   3   2   1   45.82    1.75
   4  -2   1    8.13    0.82
   4  -2   1    8.82    0.99
   4   2   1   10.21    1.18
   4   2   1   10.30    0.95
   5  -2   1    5.59    0.84
   5  -2   1    6.16    1.07
   5   2   1    6.35    1.15
   5   2   1    7.15    0.94
   6  -2   1    7.88    1.07
   6   2   1   12.55    1.33
   6  -3  -1    1.63    0.64
   6   3  -1    0.90    0.62
   5  -3  -1   22.34    1.26
   5   3  -1   21.26    1.31
   4  -3  -1   79.28    2.28
   4   3  -1   81.65    2.35
   3  -3  -1    9.20    0.58
   3  -3  -1    9.33    0.61
   3   3  -1    9.42    0.65
   2  -3  -1  102.78    2.30
   2  -3  -1  101.23    2.33
   2   3  -1   96.96    2.31
   1  -3  -1  389.96    7.59
   1  -3  -1  378.22    8.09
   1   3  -1  384.61    7.59
   1   3  -1  381.03    7.54
   0  -3   1    2.64    0.24
   0  -3  -1    2.63    0.26
   1  -3   1  383.09    7.96
   1  -3   1  365.02    7.23
   1   3   1  356.32    8.04
  -1   3  -1  363.73    7.26
   1   3   1  369.82    7.42
   2  -3   1   11.16    0.55
   2  -3   1   14.07    0.74
   2   3   1   12.59    0.85
   2   3   1   11.93    0.66
   3  -3   1   14.36    0.76
   3  -3   1   14.95    0.97
   3   3   1   13.93    0.85
   3   3   1   13.99    1.10
   4  -3   1  127.74    3.25
   4  -3   1  123.90    3.62
   4   3   1  121.88    3.77
   4   3   1  121.77    3.35
   5  -3   1    5.54    1.03
   5  -3   1    4.69    0.77
   5   3   1    4.02    0.81
   5   3   1    6.60    1.14
   6  -3   1    1.50    0.70
   6   3   1    1.50    0.70
   6  -4  -1   -0.03    0.52
   6   4  -1    0.11    0.56
   5  -4  -1    4.40    0.70
   5   4  -1    4.36    0.74
   4  -4  -1   34.97    1.37
   4  -4  -1   35.40    1.37
   4   4  -1   34.80    1.39
   3  -4  -1    5.54    0.50
   3  -4  -1    5.50    0.48
   3   4  -1    4.32    0.32
   3   4  -1    6.01    0.56
   2  -4  -1  322.95    7.10
   2  -4  -1  325.54    6.70
   2   4  -1  330.81    6.63
   2   4  -1  341.95    6.75
   1  -4  -1   64.89    1.49
   1  -4  -1   62.24    1.53
   1   4  -1   62.98    1.43
   1   4  -1   63.52    1.46
   0  -4   1   30.82    0.86
   1  -4   1  454.00    9.23
   1  -4   1  468.94   10.16
  -1   4  -1  493.10    9.36
   1   4   1  479.33    9.49
   2  -4   1  247.99    5.41
   2  -4   1  270.89    6.03
   2   4   1  269.32    6.15
   2   4   1  267.68    5.63
   3  -4   1    7.85    0.61
   3  -4   1   10.43    0.92
   3   4   1    8.18    0.72
   3   4   1    8.93    0.95
   4  -4   1    7.02    0.92
   4  -4   1    6.70    0.73
   4   4   1    6.53    1.04
   4   4   1    7.57    0.85
   5  -4   1    3.35    0.83
   5  -4   1    2.10    0.61
   5   4   1    3.59    0.75
   6  -4   1   10.14    1.16
   6   4   1   10.80    1.31
   6  -5  -1    0.58    0.55
   6   5  -1    0.56    0.60
   5  -5  -1   28.08    1.39
   5   5  -1   30.07    1.50
   4  -5  -1  118.93    3.02
   4   5  -1  115.57    3.10
   3  -5  -1   10.08    0.63
   3  -5  -1   10.63    0.63
   3   5  -1    9.86    0.70
   3   5  -1    9.34    0.45
   2  -5  -1   63.29    1.65
   2  -5  -1   67.27    1.64
   2   5  -1   65.42    1.66
   2   5  -1   65.61    1.55
   1  -5  -1  279.40    5.64
   1  -5  -1  272.49    6.04
  -1  -5   1  276.41    5.98
   1   5  -1  283.77    5.64
   1   5  -1  284.79    5.58
   0  -5   1   29.67    0.86
   0  -5  -1   28.25    0.88
  -1  -5  -1  267.24    5.87
   1  -5   1  264.73    5.88
   1  -5   1  265.06    5.22
  -1   5  -1  263.76    5.39
   2  -5   1   11.44    0.54
   2  -5   1   10.60    0.67
   2   5   1   11.39    0.69
   3  -5   1   20.92    1.10
   3  -5   1   20.87    0.91
   3   5   1   21.61    1.05
   3   5   1   21.15    1.26
   4  -5   1  120.18    3.55
   4  -5   1  120.03    3.11
   4   5   1  119.89    3.31
   5  -5   1    7.91    1.10
   5  -5   1    8.90    0.96
   5   5   1    9.80    1.08
   6   5   1    1.55    0.78
   6  -6  -1    0.16    0.54
   6   6  -1    0.95    0.64
   5  -6  -1    3.16    0.62
   5   6  -1    2.39    0.64
   4  -6  -1   44.89    1.56
   4   6  -1   43.95    1.65
   3  -6  -1    3.41    0.41
   3  -6  -1    3.80    0.47
   3   6  -1    2.97    0.29
   3   6  -1    2.71    0.44
  -2  -6   1  372.52    8.38
   2  -6  -1  392.72    8.47
   2  -6  -1  389.71    7.92
   2   6  -1  389.64    7.86
   2   6  -1  417.34    7.98
   1  -6  -1   92.00    2.08
  -1  -6   1   92.56    2.17
   1  -6  -1   92.63    2.23
   1   6  -1   92.66    2.03
   1   6  -1   93.65    2.08
   0  -6  -1   42.59    1.21
   0  -6   1   42.97    1.17
   0   6  -1   42.18    1.11
   1  -6   1  658.87   13.97
  -1  -6  -1  649.91   13.95
  -1   6  -1  657.63   12.94
   2  -6   1  135.60    3.42
   2  -6   1  137.49    2.98
  -2  -6  -1  136.01    3.36
   2   6   1  143.31    3.32
   3  -6   1   20.57    1.09
   3  -6   1   18.97    0.85
   3   6   1   20.92    1.05
   4  -6   1    1.09    0.40
   4  -6   1    1.30    0.61
   4   6   1    1.25    0.49
   5  -6   1   11.44    1.00
   5  -6   1   10.89    1.23
  -5  -6  -1   12.67    1.03
   5   6   1   11.13    1.18
   6   6   1    4.25    0.99
   6  -7  -1    0.52    0.53
   6   7  -1    1.35    0.70
   5  -7  -1   42.85    1.69
   5   7  -1   43.77    1.87
   4  -7  -1   71.77    2.21
   4  -7  -1   71.90    2.10
  -4  -7   1   68.87    1.99
   4   7  -1   76.79    2.28
  -3  -7   1   18.98    0.77
   3  -7  -1   22.10    0.89
   3  -7  -1   21.25    0.92
   3   7  -1   19.67    0.70
   3   7  -1   21.16    0.97
  -2  -7   1   53.95    1.47
   2  -7  -1   56.25    1.55
   2  -7  -1   55.56    1.48
   2   7  -1   55.56    1.40
   2   7  -1   58.44    1.53
   1  -7  -1  409.00    8.80
  -1  -7   1  402.33    8.74
   1  -7  -1  411.26    8.14
   1   7  -1  409.55    8.09
   1   7  -1  409.57    8.18
   0  -7   1   50.60    1.39
   0  -7  -1   52.42    1.45
   0   7  -1   52.49    1.33
  -1  -7  -1  353.04    7.95
   1  -7   1  364.84    7.96
  -1   7  -1  370.20    7.37
   2  -7   1   14.85    0.58
   2  -7   1   15.84    0.82
  -2  -7  -1   15.31    0.77
   2   7   1   14.41    0.81
   3  -7   1   11.06    0.66
   3  -7   1   10.18    0.87
  -3  -7  -1   10.65    0.75
   3   7   1   11.41    0.85
   4  -7   1   71.23    2.46
   4  -7   1   70.49    2.09
  -4  -7  -1   67.42    2.24
   4   7   1   75.48    2.42
  -5  -7  -1   15.17    1.14
   5  -7   1   13.39    1.37
   5   7   1   16.19    1.39
   6   7   1    0.19    0.68
   6  -8  -1    2.25    0.65
   6   8  -1    1.64    0.76
   5  -8  -1    1.90    0.53
   5   8  -1    1.57    0.60
  -4  -8   1   35.19    1.25
   4  -8  -1   39.34    1.39
   4  -8  -1   36.08    1.42
   4   8  -1   32.68    1.46
  -3  -8   1   12.24    0.62
   3  -8  -1   12.42    0.70
   3  -8  -1   12.85    0.75
   3   8  -1   12.13    0.55
   3   8  -1   12.16    0.78
   2  -8  -1  244.69    5.07
   2  -8  -1  243.37    5.44
  -2  -8   1  233.83    5.36
   2   8  -1  238.74    5.03
   2   8  -1  247.99    5.12
   1  -8  -1   84.73    2.09
  -1  -8   1   80.83    2.02
   1   8  -1   77.85    1.84
   1   8  -1   79.94    1.91
   0  -8   1   62.96    1.69
   0  -8  -1   62.78    1.72
   0   8  -1   66.95    1.62
  -1  -8  -1  305.92    6.80
   1  -8   1  302.98    6.78
   2  -8   1  125.10    3.24
   2  -8   1  127.21    2.74
  -2  -8  -1  126.59    3.18
   2   8   1  126.95    3.13
   3  -8   1   18.18    0.80
  -3  -8  -1   18.34    0.96
   3  -8   1   19.00    1.08
   3   8   1   18.20    1.05
   4  -8   1    9.70    0.75
   4  -8   1   10.16    1.08
  -4  -8  -1   10.91    0.89
   4   8   1   10.77    1.02
   5  -8   1    8.27    1.15
  -5  -8  -1    9.38    0.99
   5   8   1   11.09    1.18
   6  -8   1    2.91    1.02
   6   8   1    5.39    1.13
   6  -9  -1    1.24    0.56
   6   9  -1    2.14    0.74
   5  -9  -1   39.84    1.62
   5   9  -1   38.15    1.77
   4  -9  -1   31.97    1.38
   4  -9  -1   36.73    1.36
   4   9  -1   37.76    1.55
  -3  -9   1    9.91    0.58
   3  -9  -1   11.13    0.66
   3  -9  -1    9.76    0.71
   3   9  -1    8.43    0.71
   3   9  -1    7.48    0.47
   2  -9  -1   80.49    2.14
   2  -9  -1   78.60    1.98
  -2  -9   1   77.14    2.06
   2   9  -1   82.98    1.95
   2   9  -1   84.14    2.06
  -1  -9   1  295.39    6.51
   1  -9  -1  295.51    6.57
   1   9  -1  298.59    6.09
   1   9  -1  291.89    5.98
   0  -9  -1   18.13    0.78
   0  -9   1   18.02    0.75
   0   9  -1   18.96    0.73
   1  -9   1   79.52    2.15
  -1  -9  -1   81.37    2.18
  -2  -9  -1   15.42    0.83
   2  -9   1   16.28    0.88
   2  -9   1   14.86    0.57
   2   9   1   15.51    0.89
  -3  -9  -1   29.66    1.24
   3  -9   1   30.38    1.35
   3  -9   1   28.64    1.03
   3   9   1   30.24    1.36
   4  -9   1  119.52    3.62
  -4  -9  -1  125.85    3.44
   4   9   1  125.90    3.56
  -5  -9  -1   12.37    1.08
   5  -9   1   12.08    1.33
   5   9   1   12.00    1.23
   6  -9   1    0.64    0.86
   6 -10  -1    0.89    0.57
   6  10  -1    0.91    0.67
   5 -10  -1    2.54    0.60
   5  10  -1    2.03    0.67
   4 -10  -1   17.84    0.97
   4 -10  -1   18.40    1.06
   4  10  -1   20.97    1.18
   3 -10  -1   12.25    0.79
   3 -10  -1   10.67    0.68
  -3 -10   1   10.18    0.63
   3  10  -1   11.22    0.78
   3  10  -1   11.96    0.58
   2 -10  -1  152.16    3.70
   2 -10  -1  153.43    3.40
  -2 -10   1  153.68    3.64
   2  10  -1  151.11    3.39
   2  10  -1  155.49    3.49
  -1 -10   1   93.48    2.39
   1 -10  -1   92.86    2.44
   1  10  -1   95.73    2.26
   1  10  -1   95.89    2.18
   0 -10   1  104.49    2.62
   0 -10  -1  102.45    2.66
   0  10  -1  105.13    2.49
   1 -10   1  191.41    4.52
  -1 -10  -1  191.44    4.52
   2 -10   1   96.74    2.67
  -2 -10  -1   97.26    2.64
   2 -10   1   93.43    2.12
  -3 -10  -1   21.17    1.06
   3 -10   1   22.06    1.17
   3 -10   1   21.00    0.84
   3  10   1   20.13    1.16
   4 -10   1    2.79    0.70
  -4 -10  -1    4.64    0.69
   4  10   1    4.31    0.78
  -5 -10  -1   12.55    1.08
   5  10   1   12.92    1.34
   6 -10   1    3.24    1.03
   6  11  -1    1.97    0.78
   5 -11  -1   48.30    1.83
   5  11  -1   49.85    2.11
   4 -11  -1   38.26    1.39
   4 -11  -1   35.72    1.50
   4  11  -1   33.49    1.55
  -3 -11   1    1.98    0.37
   3 -11  -1    1.67    0.36
   3 -11  -1    1.87    0.47
   3  11  -1    2.94    0.37
   3  11  -1    3.02    0.52
  -2 -11   1   54.27    1.63
   2 -11  -1   55.18    1.52
   2 -11  -1   55.59    1.70
   2  11  -1   55.99    1.53
   2  11  -1   57.47    1.61
   1 -11  -1  287.24    6.50
  -1 -11   1  288.97    6.45
   1  11  -1  282.71    5.90
   1  11  -1  289.46    6.03
   0 -11  -1   39.22    1.34
   0 -11   1   38.47    1.28
   0  11  -1   42.28    1.27
   1 -11   1  157.88    3.88
  -1 -11  -1  159.66    3.91
   2 -11   1    8.41    0.71
  -2 -11  -1    8.33    0.76
   3 -11   1    5.60    0.74
  -3 -11  -1    7.33    0.76
   3  11   1    5.36    0.72
  -4 -11  -1   70.31    2.36
   4 -11   1   67.14    2.50
   4  11   1   75.56    2.57
  -5 -11  -1   12.82    1.15
   5  11   1   13.61    1.34
   6 -11   1    1.67    0.98
   6  12  -1    1.65    0.77
   5 -12  -1    6.52    0.80
   5  12  -1    8.29    1.03
   4 -12  -1   20.21    1.01
   4 -12  -1   17.43    1.12
   4  12  -1   20.19    1.22
  -3 -12   1    8.11    0.59
   3 -12  -1    6.45    0.59
   3 -12  -1    8.68    0.81
   3  12  -1    9.39    0.83
   3  12  -1    7.10    0.51
  -2 -12   1  201.90    4.73
   2 -12  -1  202.41    4.79
   2 -12  -1  204.36    4.35
   2  12  -1  197.14    4.40
   2  12  -1  198.76    4.44
  -1 -12   1   62.32    1.78
   1 -12  -1   58.69    1.81
   1  12  -1   60.82    1.68
   0 -12  -1   46.44    1.53
   0 -12   1   46.57    1.47
   0  12  -1   44.79    1.41
  -1 -12  -1  213.84    5.09
   1 -12   1  212.25    5.05
  -2 -12  -1   89.95    2.55
   2 -12   1   88.83    2.61
   3 -12   1   16.91    1.10
  -3 -12  -1   16.78    1.02
   3  12   1   15.52    1.08
   4 -12   1    3.41    0.77
  -4 -12  -1    2.89    0.67
   4  12   1    3.03    0.71
  -5 -12  -1    9.24    1.07
   5  12   1    8.90    1.19
   6 -12   1    0.88    0.91
   5  13  -1   33.91    1.77
   4 -13  -1   57.09    2.04
   4 -13  -1   56.68    1.81
   4  13  -1   57.20    2.07
  -3 -13   1   25.75    1.08
   3 -13  -1   25.44    1.03
   3 -13  -1   24.88    1.17
   3  13  -1   24.58    0.95
   3  13  -1   24.44    1.14
  -2 -13   1   36.10    1.28
   2 -13  -1   36.98    1.16
   2 -13  -1   35.99    1.35
   2  13  -1   34.18    1.23
   2  13  -1   33.88    1.17
   1 -13  -1  115.85    3.08
  -1 -13   1  121.59    3.05
   1  13  -1  119.13    2.88
   0 -13  -1   24.05    1.06
   0 -13   1   22.70    0.99
   0  13  -1   23.06    0.97
   1 -13   1  103.78    2.83
  -1 -13  -1  103.94    2.83
  -2 -13  -1   38.75    1.49
   2 -13   1   39.13    1.54
  -3 -13  -1   10.85    0.90
   3 -13   1   12.23    0.98
  -4 -13  -1   90.50    2.80
   4 -13   1   80.29    2.90
   4  13   1   89.55    2.93
   5 -13   1    3.95    0.90
  -5 -13  -1    5.19    0.86
   5  13   1    7.79    1.09
   5  14  -1    7.78    0.99
   4 -14  -1   19.44    1.21
   4 -14  -1   19.37    1.00
   4  14  -1   21.13    1.24
   3 -14  -1    6.19    0.76
   3 -14  -1    4.80    0.52
  -3 -14   1    5.23    0.62
   3  14  -1    5.94    0.71
   3  14  -1    5.83    0.59
  -2 -14   1  127.12    3.31
   2 -14  -1  126.40    3.37
   2 -14  -1  129.25    3.00
   2  14  -1  129.01    3.10
   2  14  -1  129.34    3.15
   1 -14  -1   65.57    1.99
  -1 -14   1   63.18    1.92
   1  14  -1   65.10    1.85
   0 -14  -1   71.12    2.11
   0 -14   1   65.78    2.02
  -1 -14  -1  149.26    3.80
   1 -14   1  145.54    3.79
  -2 -14  -1  117.75    3.26
   2 -14   1  119.59    3.33
   3 -14   1   11.55    1.00
  -3 -14  -1   10.03    0.88
   4 -14   1    3.92    0.80
  -4 -14  -1    3.47    0.71
  -5 -14  -1    5.04    0.84
   5 -14   1    2.21    0.80
   5  15  -1    6.50    0.99
   4 -15  -1   32.85    1.56
   4  15  -1   34.13    1.60
   3 -15  -1   39.36    1.58
   3 -15  -1   41.13    1.35
  -3 -15   1   38.95    1.47
   3  15  -1   37.92    1.33
   3  15  -1   39.59    1.54
   2 -15  -1   25.32    0.97
   2 -15  -1   24.47    1.16
  -2 -15   1   24.71    1.10
   2  15  -1   23.43    1.04
   2  15  -1   23.43    1.01
   1 -15  -1   81.95    2.43
  -1 -15   1   85.86    2.40
   1  15  -1   84.84    2.29
   0 -15   1    0.41    0.32
   0 -15  -1    1.56    0.43
  -1 -15  -1   95.86    2.76
   1 -15   1   95.33    2.75
   2 -15   1   39.35    1.63
  -2 -15  -1   38.82    1.59
  -3 -15  -1   10.07    0.91
   3 -15   1    9.33    1.01
  -4 -15  -1   40.99    1.78
   5 -15   1    0.44    0.71
   5  16  -1    5.54    0.91
   4 -16  -1   20.88    1.28
   4  16  -1   20.54    1.30
   3 -16  -1    5.19    0.74
  -3 -16   1    4.27    0.61
   3 -16  -1    4.87    0.54
   3  16  -1    4.46    0.55
   3  16  -1    5.40    0.71
   2 -16  -1   92.35    2.68
  -2 -16   1   89.94    2.60
   2 -16  -1   89.34    2.29
   2  16  -1   89.64    2.44
   1 -16  -1   15.29    0.94
  -1 -16   1   17.00    0.91
   0 -16   1   35.09    1.37
   0 -16  -1   31.44    1.38
   1 -16   1  127.80    3.47
  -1 -16  -1  125.64    3.48
   2 -16   1   78.62    2.56
  -2 -16  -1   78.99    2.49
   3 -16   1   19.34    1.28
  -3 -16  -1   19.91    1.23
   4 -16   1    0.22    0.56
  -4 -16  -1    0.26    0.49
   5 -16   1    2.99    0.86
   5  17  -1   20.68    1.52
   4 -17  -1   34.56    1.65
   4  17  -1   35.37    1.68
  -3 -17   1   21.56    1.11
   3 -17  -1   25.07    1.30
   3  17  -1   20.54    1.15
   3  17  -1   22.17    1.02
   2 -17  -1   28.81    1.10
   2 -17  -1   31.98    1.41
  -2 -17   1   31.42    1.32
   2  17  -1   29.82    1.22
   1 -17  -1   48.94    1.78
  -1 -17   1   48.54    1.71
   0 -17   1   10.01    0.80
   0 -17  -1   10.31    0.88
  -1 -17  -1   35.18    1.51
   1 -17   1   34.15    1.49
   2 -17   1   32.70    1.55
  -2 -17  -1   33.38    1.50
   3 -17   1   21.33    1.36
  -3 -17  -1   19.61    1.25
  -4 -17  -1   43.81    1.95
   5  18  -1    8.15    1.09
   4 -18  -1    9.74    1.09
   4  18  -1   10.86    1.11
  -3 -18   1    2.60    0.54
   3 -18  -1    2.40    0.61
   2 -18  -1  128.25    3.22
  -2 -18   1  130.52    3.55
   2 -18  -1  131.09    3.62
   1 -18  -1   11.17    0.90
  -1 -18   1   11.24    0.82
   0 -18   1   46.59    1.75
   0 -18  -1   47.33    1.81
   1 -18   1   64.15    2.21
  -1 -18  -1   63.04    2.21
   2 -18   1   58.01    2.20
  -2 -18  -1   60.88    2.17
   3 -18   1   15.20    1.22
  -3 -18  -1   12.97    1.08
   4 -18   1    1.00    0.66
  -4 -18  -1    0.97    0.62
   5  19  -1   24.29    1.63
   4 -19  -1   12.72    1.14
   4  19  -1   16.23    1.18
   3 -19  -1   24.16    1.39
  -3 -19   1   28.56    1.35
  -2 -19   1   25.46    1.26
   2 -19  -1   26.82    1.37
   1 -19  -1   70.59    2.37
  -1 -19   1   71.56    2.30
   0 -19  -1   15.06    1.05
   0 -19   1   14.33    1.01
  -1 -19  -1   37.48    1.65
   1 -19   1   34.99    1.60
   2 -19   1   18.74    1.27
  -2 -19  -1   17.11    1.17
  -3 -19  -1   14.22    1.14
   3 -19   1   14.48    1.22
  -4 -19  -1   32.11    1.72
   4 -20  -1    8.08    1.03
  -3 -20   1    4.85    0.76
   3 -20  -1    4.75    0.80
  -2 -20   1   53.73    1.95
   2 -20  -1   52.75    2.04
  -1 -20   1   38.99    1.61
   1 -20  -1   39.04    1.68
   0 -20  -1   50.68    1.99
   0 -20   1   51.54    1.95
  -1 -20  -1   59.42    2.21
   1 -20   1   57.46    2.17
  -2 -20  -1   29.39    1.53
   2 -20   1   27.23    1.53
   3 -20   1   18.11    1.37
  -3 -20  -1   19.27    1.32
   4 -20   1    0.21    0.65
  -4 -20  -1    1.13    0.63
   4 -21  -1    6.49    0.99
  -3 -21   1   14.66    1.04
   3 -21  -1   15.13    1.20
  -2 -21   1   12.59    0.94
   2 -21  -1   12.36    1.07
   1 -21  -1   59.21    2.15
  -1 -21   1   55.78    2.05
   0 -21   1   10.53    0.97
   0 -21  -1    9.47    0.97
  -1 -21  -1   25.86    1.46
   1 -21   1   24.99    1.44
   2 -21   1   21.96    1.43
  -2 -21  -1   21.25    1.34
   3 -21   1   10.30    1.19
  -3 -21  -1   13.16    1.27
  -4 -21  -1   30.75    1.72
   4 -22  -1    1.95    0.72
  -3 -22   1    1.56    0.54
   3 -22  -1    0.66    0.57
   2 -22  -1   29.19    1.57
  -2 -22   1   29.35    1.44
   1 -22  -1   21.37    1.29
  -1 -22   1   19.57    1.20
   0 -22   1   44.91    1.90
   0 -22  -1   46.11    1.95
   1 -22   1   35.16    1.73
  -1 -22  -1   35.29    1.73
  -2 -22  -1   20.90    1.39
   2 -22   1   24.40    1.52
  -3 -22  -1   11.15    1.21
   3 -22   1   11.62    1.37
  -4 -22  -1    3.32    0.83
   4 -23  -1    8.94    1.20
   3 -23  -1   11.73    1.16
  -3 -23   1   12.48    1.03
   2 -23  -1   18.82    1.32
  -2 -23   1   19.40    1.22
   1 -23  -1   39.43    1.81
  -1 -23   1   38.80    1.75
   0 -23   1    7.56    0.94
   0 -23  -1    7.29    0.94
   1 -23   1   29.43    1.64
  -1 -23  -1   31.28    1.66
  -2 -23  -1   13.77    1.21
   2 -23   1   13.35    1.28
   3 -23   1    7.60    1.15
  -3 -23  -1    8.56    1.10
   3 -24  -1    5.46    0.93
  -2 -24   1   36.35    1.70
   2 -24  -1   35.76    1.81
   1 -24  -1   15.45    1.23
  -1 -24   1   15.97    1.20
   0 -24   1   35.49    1.76
   0 -24  -1   36.85    1.81
  -1 -24  -1   45.09    2.06
   1 -24   1   45.52    2.06
  -2 -24  -1   12.77    1.22
   2 -24   1   14.66    1.32
  -3 -24  -1    7.83    1.08
   3 -25  -1   31.67    1.80
   2 -25  -1    9.47    1.19
  -2 -25   1    8.23    0.97
  -1 -25   1   20.95    1.39
   1 -25  -1   19.96    1.42
   0 -25  -1    7.49    1.01
   0 -25   1    8.38    1.03
   1 -25   1   27.24    1.65
  -1 -25  -1   27.09    1.64
   2 -25   1   26.71    1.73
  -2 -25  -1   26.27    1.64
   2 -26  -1   28.60    1.72
  -2 -26   1   27.87    1.57
  -1 -26   1    4.67    0.82
   1 -26  -1    6.42    1.03
   0 -26  -1   41.66    2.03
   0 -26   1   42.16    2.00
  -1 -26  -1   18.24    1.41
   1 -26   1   15.91    1.37
  -2 -26  -1   22.40    1.56
  -2 -27   1   14.56    1.23
   1 -27  -1   12.87    1.38
  -1 -27   1   11.92    1.24
   0 -27   1    1.80    0.66
   0 -27  -1    2.56    0.74
   1 -27   1    6.44    1.06
  -1 -27  -1    6.38    1.00
   6   0  -2   32.62    1.70
   5   0  -2    7.07    0.85
   4   0  -2   10.65    0.80
   3   0  -2    0.19    0.28
   2   0  -2   20.92    0.78
   1   0  -2  672.77   13.19
   0   0   2 1000.00   21.10
   1   0   2    7.24    0.66
  -1   0  -2    5.93    0.31
   2   0   2   10.23    0.85
   2   0   2   10.66    0.68
   3   0   2   96.09    2.99
   3   0   2   92.60    2.60
   4   0   2    0.21    0.45
   4   0   2   -0.54    0.62
   5   0   2   36.42    1.83
   5   0   2   33.52    2.15
   6   0   2    1.47    1.19
   6   0   2    0.53    0.71
   6  -1  -2    9.71    1.10
   6   1  -2   11.80    1.20
   5  -1  -2    1.52    0.55
   5   1  -2    1.58    0.58
   4  -1  -2   14.04    0.89
   4   1  -2   15.83    0.92
   3  -1  -2  165.44    3.75
   3   1  -2  165.88    3.75
   2  -1  -2   35.41    1.07
   2   1  -2   35.01    1.06
   1  -1  -2   30.80    0.91
   1   1  -2   30.90    0.88
   0  -1   2  223.89    5.02
   0   1   2  227.40    5.09
   1  -1   2    0.64    0.34
   1   1   2    0.78    0.36
  -1   1  -2    0.67    0.17
   2  -1   2  153.63    3.89
   2  -1   2  147.06    3.47
   2   1   2  149.29    3.53
   2   1   2  153.76    3.95
   3  -1   2   37.01    1.68
   3  -1   2   35.93    1.40
   3   1   2   39.16    1.50
   3   1   2   36.96    1.74
   4  -1   2    3.32    0.63
   4  -1   2    3.10    0.88
   4   1   2    3.53    0.69
   4   1   2    6.65    1.07
   5  -1   2   43.29    1.98
   5  -1   2   38.21    2.24
   5   1   2   43.79    2.45
   5   1   2   43.46    2.04
   6   1   2   11.31    1.42
   6   1   2   11.72    1.78
   6  -2  -2   23.49    1.48
   6   2  -2   23.29    1.52
   5  -2  -2    5.84    0.81
   5   2  -2    6.27    0.83
   4  -2  -2   22.64    1.08
   4   2  -2   22.93    1.11
   3  -2  -2   17.61    0.85
   3   2  -2   19.47    0.87
   2  -2  -2   23.39    0.85
   2   2  -2   24.28    0.84
   1  -2  -2  426.85    8.35
   1   2  -2  408.72    8.26
   0  -2   2  364.02    7.75
   0   2   2  352.31    7.84
   1  -2   2   27.00    1.04
  -1   2  -2   27.20    0.76
   1   2   2   26.37    1.11
   2  -2   2   33.09    1.35
   2  -2   2   29.27    1.08
   2   2   2   29.66    1.16
   2   2   2   31.78    1.39
   3  -2   2  112.36    3.34
   3  -2   2  115.18    2.97
   3   2   2  115.07    3.08
   3   2   2  115.79    3.45
   4  -2   2    1.38    0.75
   4  -2   2    1.21    0.51
   4   2   2    0.78    0.78
   4   2   2    1.09    0.53
   5  -2   2   28.28    1.97
   5  -2   2   32.25    1.70
   5   2   2   26.22    2.04
   5   2   2   27.27    1.69
   6  -2   2    0.13    1.06
   6   2   2    0.51    1.04
   6   2   2    0.22    0.76
   6  -3  -2    7.77    1.02
   6   3  -2    9.92    1.13
   5  -3  -2    1.47    0.56
   5   3  -2    0.80    0.53
   4  -3  -2   21.22    1.05
   4   3  -2   21.88    1.10
   3  -3  -2  258.56    5.61
   3   3  -2  264.19    5.62
   2  -3  -2   63.49    1.66
   2   3  -2   63.68    1.61
   1  -3  -2   25.43    0.83
   1   3  -2   25.36    0.74
   0  -3   2   96.54    2.36
   0   3  -2   98.32    2.19
   1  -3   2    5.98    0.58
   1   3   2    3.87    0.58
  -1   3  -2    4.16    0.31
   2  -3   2  221.75    4.85
   2  -3   2  229.26    5.42
   2   3   2  224.88    5.54
   3  -3   2   32.02    1.27
   3  -3   2   34.05    1.59
   3   3   2   33.80    1.43
   3   3   2   32.88    1.72
   4  -3   2    0.98    0.47
   4  -3   2    0.75    0.68
   4   3   2    1.32    0.81
   4   3   2    2.22    0.64
   5  -3   2   16.68    1.65
   5  -3   2   20.10    1.37
   5   3   2   17.99    1.85
   5   3   2   20.65    1.53
   6  -3   2    4.19    1.30
   6   3   2    7.26    1.24
   6  -4  -2   14.17    1.24
   6   4  -2   14.93    1.40
   5  -4  -2   20.16    1.21
   5   4  -2   19.48    1.22
   4  -4  -2   24.96    1.14
   4   4  -2   23.30    1.15
   3  -4  -2    6.33    0.58
   3   4  -2    5.35    0.53
   2  -4  -2   19.78    0.79
   2   4  -2   19.05    0.73
   1  -4  -2  208.10    4.74
   1  -4  -2  216.91    4.53
   1   4  -2  225.28    4.54
   1   4  -2  216.80    4.40
   0  -4  -2  396.41    8.48
   0  -4   2  379.17    8.44
   0   4  -2  400.42    7.87
   0   4  -2  391.14    7.65
   1  -4   2   15.64    0.78
   1   4   2   16.02    0.90
  -1   4  -2   14.61    0.56
   2  -4   2   36.04    1.39
   2  -4   2   33.44    1.11
   2   4   2   31.70    1.48
   3  -4   2   77.01    2.57
   3  -4   2   77.88    2.19
   3   4   2   79.27    2.76
   3   4   2   80.34    2.43
   4  -4   2    7.17    1.03
   4  -4   2    5.39    0.70
   4   4   2    6.97    1.14
   4   4   2    4.75    0.80
   5  -4   2    7.98    1.27
   5   4   2    8.94    1.16
   5   4   2   10.05    1.46
   6  -4   2    0.36    1.05
   6  -5  -2    5.46    0.90
   6   5  -2    6.41    0.98
   5  -5  -2    0.56    0.48
   5   5  -2    1.65    0.60
   4  -5  -2   57.14    1.81
   4   5  -2   53.58    1.54
   4   5  -2   53.78    1.83
   3  -5  -2  267.30    5.71
   3   5  -2  267.40    5.71
   3   5  -2  260.10    5.56
   2  -5  -2    6.56    0.49
   2   5  -2    5.25    0.45
   2   5  -2    5.83    0.42
   1  -5  -2   23.94    0.78
   1   5  -2   21.79    0.67
   1   5  -2   23.53    0.79
   0  -5   2   67.70    1.78
   0  -5  -2   69.61    1.81
   0   5  -2   69.51    1.69
   1  -5   2    8.38    0.61
  -1  -5  -2    8.36    0.56
  -1   5  -2    8.90    0.45
   2  -5   2  306.10    6.75
   2  -5   2  342.45    7.59
   2   5   2  339.87    7.75
   3  -5   2   34.85    1.28
   3  -5   2   32.29    1.55
   3   5   2   35.41    1.77
   3   5   2   36.24    1.52
   4  -5   2    0.29    0.61
   4  -5   2    1.38    0.45
   4   5   2    1.60    0.64
   4   5   2    0.05    0.74
   5   5   2   18.66    1.55
   6  -6  -2   13.71    1.20
   6   6  -2   11.85    1.23
   5  -6  -2    4.10    0.70
   5   6  -2    4.02    0.73
   4  -6  -2   60.38    1.90
   4   6  -2   61.81    1.96
   4   6  -2   58.44    1.65
   3  -6  -2    1.70    0.38
   3   6  -2    1.63    0.39
   3   6  -2    2.08    0.33
   2  -6  -2    6.77    0.41
   2  -6  -2    5.45    0.48
   2   6  -2    5.68    0.46
   2   6  -2    5.81    0.44
   1  -6  -2  111.47    2.64
  -1  -6   2  110.98    2.54
   1   6  -2  105.17    2.35
   1   6  -2  114.76    2.54
   0  -6  -2  246.34    5.52
   0  -6   2  239.84    5.47
   0   6  -2  250.13    5.11
   1  -6   2    7.62    0.58
  -1  -6  -2    7.75    0.60
  -1   6  -2    7.67    0.46
   2  -6   2   33.07    1.36
   3  -6   2  136.16    3.28
   3  -6   2  135.24    3.81
   3   6   2  141.54    3.64
   4  -6   2    0.48    0.63
   4   6   2    0.86    0.58
  -5  -6  -2   13.86    1.17
   5   6   2   15.89    1.50
  -6  -6  -2    1.07    0.70
   6  -7  -2    8.29    1.04
   6   7  -2    7.03    1.03
   5  -7  -2    4.36    0.71
   5   7  -2    2.93    0.70
   4  -7  -2   35.74    1.35
   4   7  -2   29.20    1.05
   4   7  -2   31.54    1.37
   3  -7  -2  224.28    5.18
   3  -7  -2  233.58    5.07
   3   7  -2  234.27    5.07
   3   7  -2  228.32    4.93
   2  -7  -2   13.81    0.63
   2  -7  -2   15.09    0.72
   2   7  -2   15.56    0.67
   2   7  -2   14.72    0.66
   1  -7  -2   29.46    0.98
  -1  -7   2   27.24    0.87
   1   7  -2   29.16    0.80
   1   7  -2   30.20    0.97
   0  -7  -2  121.61    3.02
   0  -7   2  123.33    2.98
   0   7  -2  125.20    2.80
   1  -7   2   39.54    1.33
  -1  -7  -2   39.64    1.32
  -1   7  -2   37.89    1.14
  -2  -7  -2  239.45    5.68
   2  -7   2  244.18    5.81
  -3  -7  -2   45.21    1.68
   3  -7   2   47.26    1.87
   4  -7   2    7.01    1.04
  -4  -7  -2    4.24    0.68
   4   7   2    5.22    0.85
  -5  -7  -2   25.29    1.54
   5   7   2   23.92    1.70
   6  -8  -2   15.17    1.21
   6   8  -2   13.30    1.29
   5  -8  -2   19.91    1.17
   5   8  -2   19.16    1.29
   4  -8  -2   14.61    0.84
   4  -8  -2   14.58    0.91
   4   8  -2   13.61    0.97
   4   8  -2   13.96    0.71
   3  -8  -2    8.90    0.61
   3  -8  -2    8.10    0.66
   3   8  -2    8.47    0.70
   3   8  -2    8.75    0.56
   2  -8  -2   15.23    0.74
   2  -8  -2   15.51    0.69
   2   8  -2   14.01    0.68
   2   8  -2   14.76    0.67
   1  -8  -2  191.60    4.41
  -1  -8   2  187.33    4.30
   1   8  -2  200.17    4.15
   1   8  -2  185.26    3.90
   0  -8  -2  360.15    8.08
   0  -8   2  371.18    8.06
   0   8  -2  368.11    7.51
   1  -8   2   13.96    0.78
  -1  -8  -2   15.22    0.79
  -1   8  -2   14.00    0.66
  -2  -8  -2   45.52    1.58
   2  -8   2   44.95    1.65
  -3  -8  -2   55.16    1.91
   3  -8   2   53.25    2.04
  -4  -8  -2    1.84    0.60
   4  -8   2    3.79    0.81
   4   8   2    1.24    0.64
  -5  -8  -2   14.29    1.26
   5   8   2   17.03    1.55
   6  -9  -2    4.87    0.86
   6   9  -2    6.84    1.03
   5  -9  -2    3.97    0.71
   5   9  -2    3.38    0.73
   4  -9  -2   12.29    0.86
   4  -9  -2   11.91    0.81
   4   9  -2   11.51    0.66
   4   9  -2   11.57    0.95
   3  -9  -2  157.14    3.63
   3  -9  -2  150.92    3.71
   3   9  -2  153.61    3.52
   3   9  -2  156.40    3.65
   2  -9  -2    6.67    0.52
   2  -9  -2    6.60    0.56
   2   9  -2    7.11    0.53
   2   9  -2    7.36    0.52
  -1  -9   2   24.41    0.85
   1  -9  -2   24.98    0.97
   1   9  -2   26.16    0.93
   1   9  -2   22.36    0.72
   0  -9  -2  101.36    2.66
   0  -9   2  103.71    2.63
   0   9  -2  104.27    2.48
  -1  -9  -2    2.53    0.45
   1  -9   2    3.01    0.46
  -1   9  -2    2.56    0.37
   2  -9   2  147.62    3.83
  -2  -9  -2  144.68    3.74
   3  -9   2   13.28    1.07
  -3  -9  -2   13.72    0.97
   4  -9   2    7.54    1.04
  -4  -9  -2    9.19    0.97
  -5  -9  -2   21.72    1.47
   6 -10  -2   21.13    1.40
   6  10  -2   20.55    1.51
   5 -10  -2   12.75    1.01
   5  10  -2   12.94    1.13
   4 -10  -2    9.81    0.79
   4 -10  -2    9.87    0.80
   4  10  -2    8.77    0.61
   4  10  -2   10.30    0.92
   3 -10  -2    2.70    0.45
   3 -10  -2    3.70    0.50
   3  10  -2    3.62    0.52
   3  10  -2    2.84    0.41
   2 -10  -2   10.58    0.65
   2 -10  -2    9.51    0.64
   2  10  -2    9.08    0.60
   2  10  -2    9.80    0.59
  -1 -10   2  221.59    4.97
   1 -10  -2  222.63    5.09
   1  10  -2  206.41    4.46
   1  10  -2  224.07    4.75
   0 -10   2  275.04    6.18
   0 -10  -2  277.60    6.25
   0  10  -2  264.37    5.76
   1 -10   2   21.93    1.02
  -1 -10  -2   21.34    1.02
  -1  10  -2   21.32    0.89
   2 -10   2   11.58    0.87
  -2 -10  -2   12.07    0.83
  -3 -10  -2   56.04    1.97
   3 -10   2   55.07    2.12
   4 -10   2    2.16    0.75
  -4 -10  -2    2.53    0.62
  -5 -10  -2   19.98    1.41
   6  11  -2   12.25    1.28
   5 -11  -2    0.92    0.50
   5  11  -2    0.18    0.51
   4 -11  -2   26.04    1.21
   4 -11  -2   25.67    1.20
   4  11  -2   28.77    1.35
   4  11  -2   26.29    1.04
   3 -11  -2  111.81    2.95
   3 -11  -2  112.52    2.85
   3  11  -2  111.63    2.76
   3  11  -2  114.16    2.87
  -2 -11   2   17.71    0.76
   2 -11  -2   18.46    0.85
   2 -11  -2   19.05    0.89
   2  11  -2   18.90    0.79
   2  11  -2   18.42    0.84
  -1 -11   2   25.73    0.95
   1 -11  -2   24.83    1.05
   1  11  -2   24.88    0.97
   1  11  -2   23.76    0.76
   0 -11  -2   68.04    2.03
   0 -11   2   66.46    1.95
   0  11  -2   70.43    1.88
  -1 -11  -2   11.74    0.80
   1 -11   2   12.10    0.80
  -1  11  -2   12.94    0.74
   2 -11   2   71.55    2.30
  -2 -11  -2   72.47    2.26
   3 -11   2   48.96    2.01
  -3 -11  -2   48.34    1.83
  -4 -11  -2    7.28    0.91
   4 -11   2    5.88    1.01
  -5 -11  -2   23.95    1.52
   6  12  -2   17.08    1.49
   5 -12  -2    0.20    0.41
   5  12  -2   -0.28    0.46
   4 -12  -2   44.84    1.64
   4 -12  -2   42.74    1.61
   4  12  -2   44.70    1.74
   4  12  -2   44.81    1.44
   3 -12  -2    0.20    0.36
   3 -12  -2    0.26    0.29
   3  12  -2   -0.02    0.25
   3  12  -2    0.05    0.32
   2 -12  -2   18.74    0.92
  -2 -12   2   19.57    0.82
   2 -12  -2   18.64    0.87
   2  12  -2   19.18    0.83
   2  12  -2   20.73    0.90
   1 -12  -2  197.68    4.74
  -1 -12   2  201.71    4.64
   1  12  -2  203.25    4.43
   1  12  -2  187.12    4.10
   0 -12   2  184.19    4.40
   0 -12  -2  182.71    4.45
   0  12  -2  178.97    4.13
   1 -12   2   36.47    1.43
  -1 -12  -2   36.86    1.42
  -1  12  -2   38.13    1.33
   2 -12   2    9.57    0.88
  -2 -12  -2    9.35    0.84
  -3 -12  -2   92.31    2.84
   3 -12   2   90.83    2.98
   4 -12   2   -0.19    0.56
  -4 -12  -2   -0.11    0.49
  -5 -12  -2   16.87    1.39
   6  13  -2    5.34    1.06
   5 -13  -2    3.08    0.62
   5  13  -2    2.52    0.70
   4 -13  -2   26.54    1.24
   4 -13  -2   24.39    1.23
   4  13  -2   25.13    1.05
   4  13  -2   27.69    1.37
   3 -13  -2   92.29    2.62
   3 -13  -2   92.84    2.50
   3  13  -2   91.99    2.43
   3  13  -2   94.11    2.53
   2 -13  -2   20.46    0.99
   2 -13  -2   20.50    0.92
  -2 -13   2   20.64    0.87
   2  13  -2   18.68    0.85
   2  13  -2   19.79    0.93
  -1 -13   2   18.71    0.87
   1 -13  -2   18.99    0.99
   1  13  -2   19.74    0.91
   0 -13   2   47.23    1.60
   0 -13  -2   45.17    1.63
   0  13  -2   48.75    1.54
  -1 -13  -2    8.38    0.76
   1 -13   2    7.60    0.75
  -1  13  -2    9.20    0.77
  -2 -13  -2  100.43    2.93
   2 -13   2  100.74    3.01
   3 -13   2   33.23    1.64
  -3 -13  -2   30.27    1.52
   4 -13   2   14.11    1.31
  -4 -13  -2   15.52    1.22
   5 -13   2    5.71    1.04
   5 -14  -2    3.99    0.69
   5  14  -2    2.41    0.70
   4 -14  -2   18.45    1.05
   4 -14  -2   17.35    1.08
   4  14  -2   17.42    1.15
   4  14  -2   17.71    0.89
   3 -14  -2    8.29    0.71
   3 -14  -2    8.38    0.77
   3  14  -2    8.19    0.73
   3  14  -2    7.91    0.65
  -2 -14   2   25.09    1.03
   2 -14  -2   24.84    1.04
   2 -14  -2   25.72    1.16
   2  14  -2   26.13    0.99
   2  14  -2   27.25    1.10
   1 -14  -2  124.26    3.24
  -1 -14   2  117.41    3.09
   1  14  -2  115.28    2.97
   0 -14   2  130.90    3.37
   0 -14  -2  129.27    3.43
   0  14  -2  123.59    3.17
   1 -14   2   49.25    1.81
  -1 -14  -2   52.11    1.84
   2 -14   2   18.16    1.17
  -2 -14  -2   18.76    1.12
  -3 -14  -2   54.47    2.08
   3 -14   2   54.34    2.18
  -4 -14  -2    1.66    0.63
   4 -14   2    0.90    0.67
  -5 -14  -2    9.51    1.16
   5 -14   2    4.36    1.03
   5 -15  -2    4.33    0.75
   5  15  -2    3.69    0.78
   4 -15  -2   20.81    1.21
   4 -15  -2   22.62    1.16
   4  15  -2   21.77    1.26
   3 -15  -2  101.63    2.65
   3 -15  -2   97.84    2.82
   3  15  -2   96.13    2.61
   3  15  -2   98.08    2.67
   2 -15  -2   21.92    1.08
   2 -15  -2   20.35    0.95
  -2 -15   2   21.89    0.96
   2  15  -2   18.29    0.87
   2  15  -2   21.31    1.01
  -1 -15   2   37.89    1.39
   1 -15  -2   38.48    1.51
   1  15  -2   36.45    1.37
   0 -15   2   23.63    1.14
   0 -15  -2   22.85    1.18
   0  15  -2   24.63    1.13
  -1 -15  -2    6.08    0.76
   1 -15   2    6.04    0.73
   2 -15   2   85.35    2.77
  -2 -15  -2   85.33    2.68
   3 -15   2   23.85    1.46
  -3 -15  -2   21.63    1.33
  -4 -15  -2   13.12    1.23
   4 -15   2    8.01    1.10
  -5 -15  -2    5.16    0.92
   5  16  -2    2.21    0.65
   4 -16  -2   19.84    1.10
   4 -16  -2   20.84    1.24
   4  16  -2   19.26    1.18
   3 -16  -2    8.43    0.73
   3 -16  -2    8.40    0.84
   3  16  -2    8.00    0.70
   3  16  -2    7.80    0.71
  -2 -16   2   24.22    1.06
   2 -16  -2   23.88    1.05
   2 -16  -2   23.35    1.17
   2  16  -2   24.07    1.10
  -1 -16   2   68.16    2.09
   1 -16  -2   67.33    2.19
   1  16  -2   64.45    2.02
   0 -16  -2   79.14    2.54
   0 -16   2   84.79    2.50
   0  16  -2   80.75    2.37
   1 -16   2   33.16    1.51
  -1 -16  -2   34.48    1.51
  -2 -16  -2   15.27    1.14
   2 -16   2   13.26    1.11
  -3 -16  -2   32.32    1.61
   3 -16   2   33.40    1.74
   4 -16   2    0.56    0.68
  -4 -16  -2    0.14    0.54
  -5 -16  -2    5.36    0.96
   5  17  -2    2.98    0.74
   4 -17  -2   13.46    0.98
   4 -17  -2   12.35    1.06
   4  17  -2   12.79    1.04
   3 -17  -2   63.84    2.01
   3 -17  -2   66.21    2.23
   3  17  -2   67.31    2.07
   3  17  -2   68.19    2.11
   2 -17  -2   10.76    0.74
   2 -17  -2   10.73    0.86
  -2 -17   2   10.56    0.74
   2  17  -2   11.00    0.80
  -1 -17   2   26.48    1.22
   1 -17  -2   29.67    1.37
   1  17  -2   26.94    1.23
   0 -17   2   52.17    1.86
   0 -17  -2   51.55    1.92
   0  17  -2   47.43    1.75
   1 -17   2    5.30    0.77
  -1 -17  -2    3.27    0.64
   2 -17   2   78.56    2.72
  -2 -17  -2   80.72    2.69
  -3 -17  -2   11.90    1.12
   3 -17   2   13.35    1.21
  -4 -17  -2    5.18    0.86
   4 -17   2    3.33    0.86
   5  18  -2    4.84    0.88
   4 -18  -2   11.06    1.13
   4  18  -2   11.67    1.09
   3 -18  -2    2.99    0.62
   3 -18  -2    3.02    0.53
   3  18  -2    2.69    0.55
   2 -18  -2   21.10    1.15
  -2 -18   2   19.30    1.01
   2 -18  -2   20.97    1.01
   2  18  -2   16.93    1.02
   1 -18  -2   58.22    2.08
  -1 -18   2   57.01    1.96
   1  18  -2   54.28    1.90
   0 -18  -2  132.33    3.79
   0 -18   2  138.27    3.74
   1 -18   2   23.68    1.36
  -1 -18  -2   24.11    1.36
  -2 -18  -2   11.92    1.07
   2 -18   2   10.84    1.07
   3 -18   2   28.42    1.67
  -3 -18  -2   28.66    1.62
  -4 -18  -2    0.85    0.61
   4 -18   2    0.97    0.75
   5  19  -2    6.83    0.98
   4 -19  -2    8.73    1.03
   3 -19  -2   45.26    1.81
   3  19  -2   39.57    1.59
  -2 -19   2    8.66    0.76
   2 -19  -2    9.47    0.89
   2 -19  -2    8.38    0.71
   2  19  -2    9.15    0.80
  -1 -19   2   39.29    1.59
   1 -19  -2   36.27    1.66
   1  19  -2   39.48    1.59
   0 -19   2   34.20    1.56
   0 -19  -2   34.61    1.64
  -1 -19  -2    9.34    1.01
   1 -19   2   10.19    1.04
   2 -19   2   43.63    1.99
  -2 -19  -2   44.13    1.92
   3 -19   2   10.51    1.23
  -3 -19  -2   12.37    1.21
  -4 -19  -2   21.39    1.54
   4 -20  -2   11.49    1.13
   3 -20  -2    1.05    0.53
   3  20  -2    0.69    0.39
  -2 -20   2   16.59    1.01
   2 -20  -2   15.18    1.10
   2 -20  -2   15.10    0.90
   2  20  -2   15.57    1.03
   1 -20  -2   52.71    2.04
  -1 -20   2   50.83    1.93
   0 -20   2   62.92    2.25
   0 -20  -2   61.63    2.33
  -1 -20  -2   36.43    1.75
   1 -20   2   33.43    1.69
  -2 -20  -2    8.55    1.03
   2 -20   2    7.21    0.99
   3 -20   2   23.69    1.63
  -3 -20  -2   27.80    1.66
  -4 -20  -2   -0.18    0.61
   4 -21  -2    5.30    0.90
   3 -21  -2   35.96    1.72
   3  21  -2   35.98    1.56
   2 -21  -2   13.38    1.09
  -2 -21   2   13.42    0.98
   2  21  -2   12.23    0.96
   1 -21  -2   25.09    1.43
  -1 -21   2   26.62    1.39
   0 -21   2   20.97    1.31
   0 -21  -2   20.83    1.40
   1 -21   2   10.03    1.10
  -1 -21  -2    9.26    1.09
  -2 -21  -2   31.23    1.73
   2 -21   2   35.21    1.83
  -3 -21  -2    9.50    1.13
   3 -21   2    8.11    1.14
   4 -22  -2   12.42    1.21
   3 -22  -2    0.38    0.53
   2 -22  -2   15.98    1.21
  -2 -22   2   14.89    1.07
   1 -22  -2   43.75    1.91
  -1 -22   2   41.89    1.81
   0 -22  -2   43.61    1.98
   0 -22   2   39.22    1.83
  -1 -22  -2   35.50    1.81
   1 -22   2   32.76    1.76
  -2 -22  -2    1.98    0.70
   2 -22   2    1.43    0.67
   3 -22   2   15.16    1.42
  -3 -22  -2   16.20    1.38
   4 -23  -2   21.49    1.50
   3 -23  -2   23.40    1.51
  -2 -23   2    6.90    0.85
   2 -23  -2    5.61    0.91
   1 -23  -2   21.36    1.41
  -1 -23   2   19.82    1.32
   0 -23  -2    5.28    0.90
   0 -23   2    5.10    0.82
  -1 -23  -2   10.26    1.19
   1 -23   2    7.57    1.05
   2 -23   2   19.39    1.49
  -2 -23  -2   21.94    1.53
  -3 -23  -2   19.47    1.57
   3 -24  -2    0.25    0.55
  -2 -24   2   11.56    1.08
   2 -24  -2   13.45    1.34
   1 -24  -2   26.75    1.60
  -1 -24   2   25.88    1.50
   0 -24   2   11.95    1.18
   0 -24  -2   13.25    1.27
   1 -24   2   30.30    1.79
  -1 -24  -2   32.72    1.84
  -2 -24  -2    5.75    1.01
   2 -24   2    5.19    0.96
   3 -25  -2   25.47    1.68
   2 -25  -2   11.44    1.27
  -2 -25   2   10.48    1.09
  -1 -25   2   16.18    1.27
   1 -25  -2   13.88    1.28
   0 -25  -2    9.58    1.17
   0 -25   2    9.36    1.12
   1 -25   2    8.01    1.14
  -1 -25  -2    7.41    1.11
   2 -26  -2   15.96    1.41
   1 -26  -2   19.01    1.45
  -1 -26   2   19.04    1.41
   0 -26   2   22.58    1.55
   0 -26  -2   23.68    1.61
  -1 -26  -2   27.04    1.83
   1 -26   2   26.27    1.74
  -1 -27   2   18.70    1.47
   0 -27   2   11.06    1.28
   6   0  -3    1.16    0.63
   5   0  -3    4.11    0.73
   4   0  -3   11.85    0.88
   3   0  -3   25.19    1.05
   2   0  -3  147.14    3.35
   1   0  -3    0.09    0.23
   0   0   3   30.61    1.19
   1   0   3  285.99    6.71
  -1   0  -3  283.47    5.81
   2   0   3   41.80    1.79
   3   0   3   12.25    1.30
   4   0   3   17.52    1.60
   5   0   3   -0.84    0.96
   6  -1  -3    1.38    0.64
   6   1  -3    1.22    0.65
   5  -1  -3   46.04    1.85
   5   1  -3   45.68    1.84
   4  -1  -3    6.89    0.77
   4   1  -3    7.14    0.74
   3  -1  -3    6.08    0.62
   3   1  -3    4.86    0.54
   2  -1  -3  206.21    4.51
   2   1  -3  207.84    4.48
   1  -1  -3  130.45    2.94
   1   1  -3  128.60    2.89
   0  -1   3   59.93    1.80
   0   1   3   59.85    1.86
   1  -1   3    9.61    0.83
   1   1   3    8.70    0.86
  -1   1  -3    9.04    0.50
   2  -1   3   14.22    1.11
   2   1   3   14.26    1.13
   3  -1   3   99.77    3.34
   3   1   3  104.38    3.39
   4  -1   3   80.47    3.11
   4   1   3   75.01    3.12
   5  -1   3   -0.01    0.95
   5   1   3   -0.87    0.93
   6  -2  -3    0.92    0.60
   6   2  -3    1.78    0.67
   5  -2  -3   13.19    1.11
   5   2  -3   15.11    1.14
   4  -2  -3   43.59    1.57
   4   2  -3   42.93    1.58
   3  -2  -3   24.51    1.05
   3   2  -3   24.56    1.02
   2  -2  -3  116.11    2.77
   2   2  -3  116.14    2.72
   1  -2  -3    4.48    0.38
   1  -2  -3    5.13    0.47
   1   2  -3    5.31    0.45
   0  -2   3   94.73    2.52
   0   2   3   97.21    2.64
   1  -2   3  314.01    7.07
   1   2   3  297.09    7.13
  -1   2  -3  299.34    6.20
   2  -2   3   26.36    1.37
   2   2   3   25.80    1.45
   3  -2   3   12.08    1.25
   3   2   3   15.53    1.51
   4  -2   3   12.86    1.51
   4   2   3   15.81    1.74
   5  -2   3    0.48    0.97
   5   2   3    1.01    1.06
   6  -3  -3    0.37    0.55
   6   3  -3    0.42    0.56
   5  -3  -3   41.13    1.74
   5   3  -3   41.05    1.73
   4  -3  -3   21.86    1.12
   4   3  -3   21.83    1.13
   3  -3  -3    6.09    0.61
   3   3  -3    5.04    0.55
   2  -3  -3  125.23    2.95
   2   3  -3  124.58    2.88
   1  -3  -3   46.54    1.35
   1  -3  -3   47.27    1.30
   1   3  -3   46.21    1.25
   0  -3   3   56.30    1.71
   0   3  -3   58.48    1.53
   1  -3   3   11.93    0.87
  -1   3  -3    9.59    0.55
   1   3   3   10.89    1.02
   2  -3   3   11.92    1.02
   2   3   3   14.22    1.30
   3  -3   3   35.14    1.77
   3   3   3   33.71    1.92
   4  -3   3   31.67    1.98
   4   3   3   34.09    2.15
   5  -3   3    0.12    0.94
   5   3   3   -0.82    0.83
   6  -4  -3    1.52    0.64
   6   4  -3    0.68    0.57
   5  -4  -3    5.91    0.81
   5   4  -3    7.91    0.92
   4  -4  -3   28.58    1.27
   4   4  -3   28.13    1.27
   3  -4  -3   37.52    1.35
   3   4  -3   39.26    1.33
   2  -4  -3   74.10    2.00
   2   4  -3   76.26    1.91
   1  -4  -3   12.06    0.60
   1   4  -3   13.04    0.57
   0  -4  -3   24.82    0.97
   0  -4   3   23.25    0.98
   0   4  -3   26.13    0.90
   1  -4   3  308.28    7.13
   1   4   3  302.50    7.26
  -1   4  -3  313.01    6.35
   2  -4   3   14.70    1.07
   2   4   3   13.23    1.15
  -2   4  -3   11.68    0.55
   3  -4   3    2.70    0.71
   3   4   3    2.45    0.88
   4  -4   3    8.34    1.23
   4   4   3    9.90    1.44
   5  -4   3   -0.42    0.90
   6  -5  -3    2.18    0.69
   6   5  -3    3.19    0.78
   5  -5  -3   34.33    1.56
   5   5  -3   32.62    1.56
   4  -5  -3    9.80    0.86
   4   5  -3    9.60    0.86
   3  -5  -3    3.28    0.49
   3   5  -3    3.94    0.50
   2  -5  -3  136.86    3.24
   2   5  -3  137.48    3.09
   1  -5  -3  108.70    2.63
   1   5  -3  107.61    2.56
   1   5  -3  104.39    2.36
   0  -5  -3   57.54    1.72
   0  -5   3   56.70    1.73
   0   5  -3   59.08    1.39
   0   5  -3   62.41    1.61
   1  -5   3   10.49    0.83
  -1   5  -3    8.35    0.56
   2  -5   3   11.05    1.07
   2   5   3   10.18    1.14
  -2   5  -3    7.91    0.50
   3  -5   3   45.44    2.03
   3   5   3   43.19    2.14
   4  -5   3   47.24    2.31
   5  -5   3   -1.87    0.83
   6  -6  -3    0.77    0.58
   6   6  -3    0.31    0.60
   5  -6  -3   10.48    1.00
   5   6  -3    9.31    0.97
   4  -6  -3   39.53    1.54
   4   6  -3   39.39    1.37
   4   6  -3   39.44    1.53
   3  -6  -3   26.17    1.11
   3   6  -3   24.54    1.06
   3   6  -3   25.05    1.02
   2  -6  -3  110.25    2.73
   2   6  -3  108.53    2.57
   2   6  -3  112.93    2.70
   1  -6  -3    3.79    0.42
   1   6  -3    3.42    0.30
   1   6  -3    3.81    0.44
   0  -6   3   73.60    2.05
   0  -6  -3   72.08    2.03
   0   6  -3   70.19    1.61
   0   6  -3   72.76    1.88
  -1  -6  -3  470.94   10.71
   1  -6   3  500.86   10.84
  -1   6  -3  486.45    9.84
   2  -6   3   18.11    1.15
  -2   6  -3   17.10    0.73
   3  -6   3   12.78    1.30
   4  -6   3    7.16    1.14
   5  -6   3    1.25    0.98
  -5  -6  -3    2.23    0.70
   6  -7  -3    1.26    0.64
   6   7  -3    0.73    0.63
   5  -7  -3   30.56    1.48
   5   7  -3   27.54    1.45
   4  -7  -3   10.40    0.88
   4   7  -3   10.16    0.70
   4   7  -3    9.64    0.88
   3  -7  -3   30.63    1.24
   3   7  -3   30.89    1.16
   3   7  -3   31.25    1.19
   2  -7  -3  126.93    3.00
   2  -7  -3  115.95    2.95
   2   7  -3  125.93    2.97
   2   7  -3  125.54    2.82
  -1  -7   3   94.97    2.36
   1  -7  -3   99.17    2.46
   1   7  -3   95.54    2.35
   1   7  -3   89.59    2.09
   0  -7   3   83.81    2.32
   0  -7  -3   83.69    2.33
   0   7  -3   87.72    2.17
  -1  -7  -3   12.01    0.86
   1  -7   3   13.13    0.90
  -1   7  -3   12.13    0.68
   2  -7   3   27.09    1.38
  -2  -7  -3   26.41    1.23
  -2   7  -3   25.15    0.95
  -3  -7  -3   36.79    1.60
   3  -7   3   34.71    1.78
  -4  -7  -3   45.54    2.00
  -5  -7  -3    3.02    0.80
   5  -7   3    3.01    1.04
   6  -8  -3   -0.31    0.49
   6   8  -3    0.08    0.61
   5  -8  -3    4.17    0.71
   5   8  -3    3.53    0.70
   4  -8  -3   15.01    1.00
   4   8  -3   13.70    1.00
   4   8  -3   13.35    0.80
   3  -8  -3   13.24    0.85
   3   8  -3   13.42    0.82
   3   8  -3   13.79    0.78
   2  -8  -3   87.37    2.31
   2  -8  -3   91.92    2.35
   2   8  -3   88.89    2.30
   2   8  -3   89.22    2.17
   1  -8  -3    7.13    0.61
  -1  -8   3    7.86    0.53
   1   8  -3    8.12    0.62
   0  -8  -3   47.37    1.57
   0  -8   3   46.12    1.54
   0   8  -3   47.88    1.45
  -1  -8  -3  141.14    3.67
   1  -8   3  145.67    3.77
  -1   8  -3  143.29    3.32
   2  -8   3   18.99    1.19
  -2  -8  -3   18.37    1.08
  -2   8  -3   18.44    0.83
   3  -8   3   12.94    1.31
  -3  -8  -3    9.64    0.97
  -4  -8  -3   12.43    1.19
   4  -8   3    8.08    1.15
  -5  -8  -3    2.01    0.75
   5  -8   3    0.95    0.93
   6  -9  -3    2.74    0.71
   6   9  -3    3.54    0.83
   5  -9  -3   39.79    1.72
   5   9  -3   41.34    1.78
   4  -9  -3    4.15    0.66
   4   9  -3    4.71    0.67
   4   9  -3    3.42    0.49
   3  -9  -3   24.88    1.13
   3   9  -3   23.99    1.02
   3   9  -3   24.24    1.06
   2  -9  -3  143.74    3.47
   2  -9  -3  144.59    3.55
   2   9  -3  147.87    3.28
   2   9  -3  151.24    3.47
  -1  -9   3   81.18    2.18
   1  -9  -3   83.03    2.27
   1   9  -3   83.59    2.19
   0  -9  -3   55.74    1.78
   0  -9   3   56.66    1.76
   0   9  -3   54.50    1.64
   1  -9   3    1.74    0.48
  -1  -9  -3    1.69    0.46
  -1   9  -3    2.08    0.39
  -2  -9  -3   13.35    0.95
   2  -9   3   13.05    1.05
  -2   9  -3   12.65    0.74
  -3  -9  -3   38.64    1.71
   3  -9   3   38.83    1.87
  -4  -9  -3   59.75    2.38
  -5  -9  -3    3.44    0.88
   5  -9   3    1.84    0.94
   6 -10  -3    1.58    0.64
   6  10  -3    3.01    0.75
   5 -10  -3    5.24    0.78
   5  10  -3    4.33    0.76
   4 -10  -3   13.61    0.98
   4  10  -3   12.50    0.98
   4  10  -3   13.72    0.82
   3 -10  -3    9.55    0.64
   3 -10  -3    9.41    0.78
   3  10  -3    7.27    0.65
   3  10  -3    8.16    0.70
   2 -10  -3   80.59    2.20
   2 -10  -3   81.15    2.23
   2  10  -3   79.96    2.19
   2  10  -3   80.11    2.01
  -1 -10   3   48.01    1.48
   1 -10  -3   47.67    1.57
   1  10  -3   47.31    1.52
   0 -10  -3   39.12    1.45
   0 -10   3   40.59    1.45
   0  10  -3   39.22    1.34
   1 -10   3   91.56    2.67
  -1 -10  -3   88.61    2.62
  -1  10  -3   89.63    2.36
  -2 -10  -3   13.07    0.94
   2 -10   3   12.07    1.04
  -2  10  -3   10.98    0.75
  -3 -10  -3    9.89    1.00
   3 -10   3    9.81    1.19
  -4 -10  -3   10.30    1.13
   4 -10   3    5.94    1.03
  -5 -10  -3    2.44    0.80
   6 -11  -3    3.38    0.76
   6  11  -3    4.33    0.87
   5 -11  -3   21.91    1.29
   5  11  -3   23.37    1.40
   4 -11  -3    6.18    0.76
   4  11  -3    5.92    0.73
   4  11  -3    4.50    0.56
   3 -11  -3    3.18    0.45
   3 -11  -3    3.81    0.57
   3  11  -3    4.00    0.53
   3  11  -3    3.84    0.53
   2 -11  -3  105.56    2.73
   2 -11  -3  104.75    2.80
   2  11  -3  107.07    2.72
   2  11  -3  105.76    2.50
   1 -11  -3   53.40    1.75
  -1 -11   3   54.82    1.67
   1  11  -3   54.45    1.69
   0 -11  -3   51.91    1.76
   0 -11   3   52.69    1.76
   0  11  -3   53.69    1.66
   1 -11   3    6.24    0.75
  -1 -11  -3    5.91    0.75
  -1  11  -3    6.75    0.65
   2 -11   3    7.03    0.94
  -2 -11  -3    5.54    0.74
   3 -11   3   38.23    1.92
  -3 -11  -3   42.44    1.78
  -4 -11  -3   38.25    1.89
  -5 -11  -3    0.64    0.68
   6 -12  -3    2.65    0.71
   6  12  -3    4.35    0.88
   5 -12  -3    8.32    0.94
   5  12  -3    9.09    1.00
   4 -12  -3   19.05    1.12
   4  12  -3   17.45    0.96
   4  12  -3   17.93    1.15
   3 -12  -3   14.86    0.94
   3 -12  -3   14.17    0.83
   3  12  -3   15.35    0.91
   3  12  -3   15.36    0.89
  -2 -12   3   70.68    1.94
   2 -12  -3   68.51    2.04
   2 -12  -3   70.35    2.09
   2  12  -3   67.34    1.82
   2  12  -3   72.87    2.06
   1 -12  -3   14.48    0.91
  -1 -12   3   14.24    0.81
   1  12  -3   14.26    0.83
   0 -12  -3   36.40    1.47
   0 -12   3   37.36    1.44
   0  12  -3   34.80    1.33
   1 -12   3  216.44    5.27
  -1 -12  -3  204.22    5.19
  -1  12  -3  206.92    4.78
  -2 -12  -3   17.98    1.16
   2 -12   3   19.13    1.29
  -3 -12  -3   11.07    1.10
   3 -12   3    9.01    1.13
   4 -12   3    7.31    1.09
  -4 -12  -3   12.56    1.24
   6 -13  -3    1.46    0.67
   5 -13  -3   25.44    1.39
   5  13  -3   25.03    1.48
   4 -13  -3    4.95    0.70
   4  13  -3    5.40    0.71
   4  13  -3    4.54    0.59
   3 -13  -3    5.97    0.69
   3 -13  -3    4.75    0.57
   3  13  -3    5.77    0.65
   3  13  -3    5.08    0.58
   2 -13  -3   88.08    2.45
   2 -13  -3   89.52    2.55
  -2 -13   3   91.63    2.41
   2  13  -3   88.15    2.45
  -1 -13   3   41.75    1.46
   1 -13  -3   38.90    1.53
   1  13  -3   40.00    1.45
   0 -13  -3   55.70    1.94
   0 -13   3   57.00    1.90
   0  13  -3   53.24    1.77
  -1 -13  -3    8.02    0.85
   1 -13   3    7.31    0.84
  -1  13  -3    6.65    0.73
  -2 -13  -3   25.16    1.37
   2 -13   3   26.98    1.48
   3 -13   3   35.36    1.88
  -3 -13  -3   38.92    1.79
  -4 -13  -3   41.50    2.05
   5  14  -3    4.96    0.80
   4 -14  -3   13.79    1.02
   4  14  -3   16.41    1.11
   4  14  -3   14.79    0.91
   3 -14  -3   28.15    1.22
   3 -14  -3   27.25    1.25
   3  14  -3   27.02    1.20
   3  14  -3   25.49    1.15
  -2 -14   3   34.76    1.26
   2 -14  -3   33.06    1.34
   2 -14  -3   34.35    1.40
   2  14  -3   33.07    1.34
  -1 -14   3   33.40    1.30
   1 -14  -3   31.06    1.39
   1  14  -3   30.27    1.28
   0 -14  -3   66.23    2.25
   0 -14   3   69.35    2.22
   0  14  -3   71.02    2.13
   1 -14   3  171.14    4.51
  -1 -14  -3  166.08    4.41
  -1  14  -3  168.96    4.12
   2 -14   3   13.61    1.15
  -2 -14  -3   14.71    1.12
   3 -14   3    8.95    1.20
  -3 -14  -3   12.23    1.23
   4 -14   3    1.46    0.80
  -4 -14  -3    5.22    0.96
   5  15  -3   18.49    1.38
   4 -15  -3    9.09    0.92
   4  15  -3    8.18    0.78
   4  15  -3    7.61    0.83
   3 -15  -3   16.25    0.99
   3 -15  -3   15.36    0.98
   3  15  -3   16.60    0.98
   2 -15  -3   35.43    1.44
   2 -15  -3   33.98    1.38
  -2 -15   3   32.48    1.27
   2  15  -3   34.63    1.40
   1 -15  -3   10.57    0.93
  -1 -15   3   11.34    0.81
   1  15  -3   10.69    0.84
   0 -15   3   19.27    1.12
   0 -15  -3   18.91    1.14
   0  15  -3   18.68    1.09
  -1 -15  -3    4.68    0.77
   1 -15   3    4.44    0.74
  -1  15  -3    4.79    0.71
   2 -15   3   17.42    1.27
  -2 -15  -3   20.13    1.26
   3 -15   3    8.84    1.16
  -3 -15  -3   11.27    1.18
  -4 -15  -3    8.83    1.14
   4 -15   3    4.82    1.01
   5  16  -3    6.46    0.92
   4 -16  -3   18.28    1.15
   4  16  -3   17.04    1.03
   3 -16  -3   21.68    1.17
   3 -16  -3   22.55    1.17
   3  16  -3   24.31    1.19
   2 -16  -3   24.71    1.21
  -2 -16   3   26.66    1.18
   2 -16  -3   29.33    1.33
   2  16  -3   27.10    1.26
  -1 -16   3    0.52    0.36
   1 -16  -3    0.78    0.51
   1  16  -3    1.18    0.43
   0 -16  -3   16.34    1.14
   0 -16   3   17.67    1.11
   0  16  -3   16.48    1.08
   1 -16   3  129.59    3.71
  -1 -16  -3  120.15    3.62
  -1  16  -3  127.68    3.40
  -2 -16  -3   11.36    1.05
   2 -16   3   11.02    1.21
   3 -16   3    3.72    0.83
  -3 -16  -3    5.24    0.88
  -4 -16  -3    3.85    0.86
   4 -16   3    1.66    0.86
   4 -17  -3    7.38    0.86
   4  17  -3    6.19    0.73
   3 -17  -3   24.07    1.26
   3 -17  -3   24.42    1.24
   3  17  -3   25.00    1.24
   2 -17  -3   33.23    1.47
   2 -17  -3   32.00    1.36
   2  17  -3   31.12    1.41
   1 -17  -3   27.00    1.42
  -1 -17   3   29.74    1.32
   1  17  -3   26.61    1.31
   0 -17  -3   27.89    1.48
   0 -17   3   28.00    1.41
   0  17  -3   29.24    1.41
  -1 -17  -3    1.88    0.64
   1 -17   3    2.63    0.67
   2 -17   3   21.10    1.42
  -2 -17  -3   20.84    1.37
  -3 -17  -3   21.45    1.45
  -4 -17  -3   27.04    1.79
   4 -18  -3    3.99    0.71
   4  18  -3    4.04    0.64
   3 -18  -3   13.59    0.97
   3 -18  -3   13.46    1.03
   3  18  -3   12.96    0.97
   2 -18  -3   34.52    1.44
   2 -18  -3   32.94    1.52
   2  18  -3   33.73    1.50
  -1 -18   3    9.87    0.85
   1 -18  -3    9.50    1.01
   1  18  -3   11.62    1.03
   0 -18   3   22.37    1.32
   0 -18  -3   22.79    1.39
   0  18  -3   23.33    1.30
  -1 -18  -3   73.42    2.57
   1 -18   3   70.93    2.60
   2 -18   3   12.02    1.16
  -2 -18  -3    9.63    1.13
   3 -18   3    5.90    0.99
  -3 -18  -3   11.74    1.24
   4 -19  -3    1.67    0.55
   4  19  -3    1.87    0.52
   3 -19  -3   21.29    1.19
   3 -19  -3   18.65    1.22
   3  19  -3   21.52    1.21
   2 -19  -3   47.85    1.92
   2 -19  -3   50.33    1.81
   2  19  -3   49.66    1.88
   1 -19  -3   29.19    1.56
  -1 -19   3   26.59    1.35
   1  19  -3   28.40    1.44
   0 -19   3   30.63    1.56
   0 -19  -3   28.47    1.58
   0  19  -3   31.42    1.55
   1 -19   3    1.68    0.62
  -1 -19  -3    2.47    0.68
  -2 -19  -3   20.45    1.45
   2 -19   3   21.60    1.48
  -3 -19  -3   22.05    1.58
   4  20  -3    8.04    0.88
   3 -20  -3    5.69    0.80
   3 -20  -3    5.58    0.74
   3  20  -3    6.56    0.82
   2 -20  -3   31.76    1.43
   2 -20  -3   30.54    1.54
   2  20  -3   27.11    1.44
  -1 -20   3   34.13    1.55
   1 -20  -3   28.58    1.61
   1  20  -3   30.60    1.54
   0 -20   3   30.77    1.60
   0 -20  -3   29.04    1.63
   0  20  -3   30.06    1.55
  -1 -20  -3   35.52    1.81
   1 -20   3   37.23    1.86
   2 -20   3   12.98    1.41
  -2 -20  -3   14.59    1.40
  -3 -20  -3   16.97    1.50
   4  21  -3    5.77    0.84
   3 -21  -3   13.51    1.15
   3 -21  -3   12.18    1.02
   3  21  -3   12.77    1.03
   2 -21  -3   28.05    1.53
   2 -21  -3   29.62    1.42
   2  21  -3   28.30    1.50
  -1 -21   3    7.60    0.89
   1 -21  -3    7.15    0.98
   1  21  -3    7.00    0.94
   0 -21  -3   33.83    1.78
   0 -21   3   33.43    1.73
  -1 -21  -3    0.39    0.59
   1 -21   3    0.69    0.55
  -2 -21  -3   18.37    1.41
   2 -21   3   21.76    1.56
   3 -22  -3    4.74    0.85
   3  22  -3    4.89    0.76
   2 -22  -3   15.33    1.23
   2 -22  -3   16.90    1.13
   2  22  -3   14.20    1.16
   1 -22  -3   23.63    1.53
  -1 -22   3   23.42    1.40
   1  22  -3   22.83    1.42
   0 -22   3   14.92    1.27
   0 -22  -3   14.99    1.32
  -1 -22  -3   17.55    1.44
   1 -22   3   20.69    1.49
   2 -22   3    4.87    0.96
  -2 -22  -3    4.85    0.95
   3 -23  -3    7.24    0.98
   3  23  -3    6.26    0.87
   2 -23  -3   24.48    1.49
   2  23  -3   24.63    1.48
  -1 -23   3    6.09    0.89
   1 -23  -3    6.77    0.99
   0 -23   3   15.17    1.33
   0 -23  -3   16.27    1.41
  -1 -23  -3    1.49    0.72
   1 -23   3    1.00    0.66
   2 -23   3    4.96    1.04
   3 -24  -3    5.76    0.91
   3  24  -3    6.87    0.93
   2 -24  -3   16.37    1.29
  -1 -24   3   13.69    1.21
   1 -24  -3   12.36    1.10
   1 -24  -3   12.59    1.30
   0 -24  -3   21.49    1.59
   0 -24   3   19.19    1.48
  -1 -24  -3   58.90    2.60
   1 -24   3   61.35    2.62
   2 -25  -3   14.56    1.33
  -1 -25   3    3.80    0.79
   1 -25  -3    2.48    0.78
   0 -25   3   25.26    1.68
   0 -25  -3   25.47    1.74
   1 -25   3    2.12    0.77
  -1 -26   3   10.53    1.17
   0 -26   3   15.94    1.44
   6   0  -4    9.51    1.12
   5   0  -4    0.15    0.50
   4   0  -4   -0.17    0.42
   3   0  -4   20.67    1.07
   2   0  -4   27.80    1.12
   1   0  -4  331.43    6.92
   0   0   4   30.89    1.41
  -1   0  -4    0.96    0.27
   1   0   4    1.03    0.57
   2   0   4   77.73    2.82
   3   0   4   20.63    1.64
   4   0   4    5.11    1.26
   6  -1  -4    0.29    0.58
   6   1  -4    0.04    0.56
   5  -1  -4    0.32    0.47
   5   1  -4    0.13    0.50
   4  -1  -4   22.35    1.19
   4   1  -4   21.79    1.17
   3  -1  -4  109.63    2.86
   3   1  -4  109.01    2.85
   2  -1  -4    6.87    0.63
   2   1  -4    7.02    0.63
   1  -1  -4   16.45    0.85
  -1  -1   4   15.24    0.89
   1   1  -4   16.12    0.82
   0  -1   4   61.99    2.05
   0   1   4   61.11    2.11
   1  -1   4   10.49    1.10
  -1   1  -4    6.80    0.52
   1   1   4    7.26    0.97
   2  -1   4   72.74    2.71
   2   1   4   73.99    2.78
   3  -1   4    2.89    0.91
   3   1   4    3.69    1.03
   4  -1   4    2.14    1.01
   4   1   4    1.18    0.99
   6  -2  -4   11.18    1.18
   6   2  -4   11.01    1.19
   5  -2  -4    0.29    0.49
   5   2  -4   -0.04    0.50
   4  -2  -4    5.49    0.73
   4   2  -4    6.19    0.75
   3  -2  -4   17.87    0.98
   3   2  -4   15.63    0.95
   2  -2  -4    4.54    0.56
   2   2  -4    4.59    0.53
   1  -2  -4  171.46    3.95
   1  -2  -4  179.78    4.12
  -1  -2   4  171.77    4.20
   1   2  -4  176.15    3.88
   0  -2   4   34.66    1.45
   0   2   4   32.93    1.50
   1  -2   4    0.97    0.56
  -1   2  -4    0.16    0.23
   1   2   4    1.22    0.64
   2  -2   4   62.30    2.44
   2   2   4   55.62    2.44
   3  -2   4   33.97    2.03
   3   2   4   36.17    2.16
   4  -2   4    3.65    1.08
   4   2   4    4.45    1.20
   6  -3  -4   -0.65    0.52
   6   3  -4    0.62    0.56
   5  -3  -4    0.19    0.45
   5   3  -4   -0.34    0.44
   4  -3  -4   36.41    1.52
   4   3  -4   34.82    1.48
   3  -3  -4   49.31    1.67
   3   3  -4   47.65    1.63
   2  -3  -4    7.74    0.69
   2   3  -4    7.88    0.65
   1  -3  -4   19.02    0.91
   1  -3  -4   18.31    0.86
   1   3  -4   18.74    0.84
   0  -3   4   77.07    2.33
   0   3  -4   74.97    2.01
   1  -3   4   12.73    1.18
  -1   3  -4   11.09    0.63
   1   3   4   12.03    1.19
   2  -3   4   49.33    2.13
   2   3   4   45.94    2.21
   3  -3   4    0.22    0.69
   3   3   4    0.94    0.83
   4  -3   4    4.80    1.16
   4   3   4    2.92    1.11
   6  -4  -4    8.69    1.07
   6   4  -4   10.11    1.16
   5  -4  -4    0.61    0.51
   5   4  -4    1.27    0.55
   4  -4  -4    1.80    0.54
   4   4  -4    1.81    0.56
   3  -4  -4   14.88    0.94
   3   4  -4   16.28    0.94
   2  -4  -4    0.56    0.36
   2   4  -4    0.49    0.32
   1  -4  -4  122.14    3.06
   1   4  -4  123.88    2.83
   0  -4   4   45.89    1.67
   0  -4  -4   47.29    1.57
   0   4  -4   45.43    1.31
   0   4  -4   45.43    1.43
   1  -4   4    2.32    0.63
  -1   4  -4    1.69    0.36
   2  -4   4   63.49    2.41
   2   4   4   56.65    2.47
   3  -4   4   31.45    1.91
   3   4   4   32.27    2.02
   4  -4   4    4.65    1.15
   4   4   4    8.93    1.47
   6  -5  -4    0.87    0.65
   6   5  -4    0.05    0.55
   5  -5  -4   -0.39    0.42
   5   5  -4   -0.09    0.46
   5   5  -4   -0.55    0.30
   4  -5  -4   94.81    2.79
   4   5  -4   97.79    2.75
   3  -5  -4   41.24    1.53
   3   5  -4   40.97    1.45
   2  -5  -4    1.45    0.40
   2   5  -4    1.10    0.34
   1  -5  -4    7.46    0.65
  -1  -5   4    6.27    0.63
   1   5  -4    8.75    0.57
   1   5  -4    8.51    0.67
   0  -5   4   74.35    2.30
   0  -5  -4   73.52    2.22
   0   5  -4   77.01    1.85
   0   5  -4   75.80    2.04
   1  -5   4   41.33    1.77
  -1   5  -4   42.53    1.34
   2  -5   4   57.76    2.32
   3  -5   4    1.01    0.71
   4  -5   4    1.13    0.97
   6  -6  -4   15.76    1.37
   6   6  -4   17.86    1.36
   5  -6  -4    0.94    0.51
   5   6  -4    0.66    0.52
   5   6  -4    0.00    0.36
   4  -6  -4   16.23    1.11
   4   6  -4   18.36    1.03
   4   6  -4   16.08    1.08
   3  -6  -4    7.43    0.74
   3   6  -4    5.32    0.61
   3   6  -4    6.90    0.68
   2  -6  -4    1.57    0.42
   2   6  -4    1.52    0.36
   2   6  -4    1.27    0.39
   1  -6  -4  143.45    3.49
  -1  -6   4  136.42    3.45
   1   6  -4  139.30    3.10
   1   6  -4  140.52    3.36
   0  -6   4   46.92    1.67
   0  -6  -4   45.33    1.62
   0   6  -4   46.29    1.47
  -1  -6  -4    2.37    0.55
   1  -6   4    3.21    0.69
  -1   6  -4    2.89    0.45
   2  -6   4   60.09    2.39
   3  -6   4   27.55    1.75
   4  -6   4    4.60    1.16
  -4  -6  -4    5.77    0.93
   6  -7  -4   -0.12    0.50
   6   7  -4    0.18    0.57
   5  -7  -4    2.49    0.61
   5   7  -4    2.30    0.62
   5   7  -4    1.44    0.45
   4  -7  -4   65.30    2.18
   4   7  -4   67.65    2.14
   4   7  -4   61.38    2.03
   3  -7  -4   30.63    1.33
   3   7  -4   31.86    1.23
   3   7  -4   30.38    1.28
   2  -7  -4    8.15    0.72
   2   7  -4    8.65    0.71
   2   7  -4    8.75    0.60
   1  -7  -4   15.78    0.87
  -1  -7   4   15.24    0.82
   1   7  -4   14.16    0.86
   0  -7   4   93.57    2.70
   0  -7  -4   95.48    2.66
   0   7  -4   93.32    2.46
   1  -7   4   23.21    1.32
  -1  -7  -4   22.54    1.22
  -1   7  -4   25.23    1.02
  -2  -7  -4   64.32    2.26
   2  -7   4   64.36    2.49
   3  -7   4    0.52    0.67
  -3  -7  -4    0.83    0.55
   4  -7   4    4.18    1.05
  -4  -7  -4    4.53    0.87
   6  -8  -4   11.79    1.19
   6   8  -4   10.37    1.15
   5  -8  -4    1.62    0.58
   5   8  -4    0.88    0.42
   5   8  -4    1.69    0.62
   4  -8  -4    5.95    0.77
   4   8  -4    5.01    0.70
   4   8  -4    4.52    0.62
   3  -8  -4    9.17    0.81
   3   8  -4    9.35    0.76
   3   8  -4    9.10    0.77
   2  -8  -4    6.78    0.69
   2  -8  -4    7.08    0.61
   2   8  -4    7.81    0.69
   2   8  -4    7.06    0.56
   1  -8  -4   96.85    2.64
  -1  -8   4   96.56    2.59
   1   8  -4   97.46    2.55
   0  -8   4   58.27    1.95
   0  -8  -4   56.79    1.94
   0   8  -4   59.57    1.77
  -1  -8  -4   10.32    0.90
   1  -8   4   10.06    0.96
  -1   8  -4   10.79    0.73
   2  -8   4   53.70    2.24
  -2  -8  -4   52.79    2.04
   3  -8   4   15.85    1.46
  -3  -8  -4   18.20    1.33
  -4  -8  -4    4.64    0.93
   4  -8   4    3.05    1.02
   6  -9  -4    0.12    0.57
   6   9  -4   -0.28    0.55
   5  -9  -4    1.85    0.59
   5   9  -4    1.13    0.52
   5   9  -4    1.71    0.46
   4  -9  -4   20.06    1.22
   4   9  -4   18.60    1.05
   4   9  -4   18.38    1.13
   3  -9  -4   46.07    1.68
   3   9  -4   43.55    1.58
   3   9  -4   46.69    1.53
   2  -9  -4    5.46    0.56
   2  -9  -4    5.65    0.63
   2   9  -4    5.92    0.53
   2   9  -4    7.11    0.68
   1  -9  -4    8.09    0.76
  -1  -9   4    7.20    0.65
   1   9  -4    8.48    0.74
   0  -9   4   58.68    1.97
   0  -9  -4   58.36    1.99
   0   9  -4   56.88    1.80
  -1  -9  -4    0.27    0.42
   1  -9   4    0.41    0.48
  -1   9  -4    0.29    0.32
   2  -9   4   51.95    2.18
  -2  -9  -4   51.46    2.01
   3  -9   4    3.12    0.87
  -3  -9  -4    6.88    0.99
  -4  -9  -4    2.38    0.79
   4  -9   4    0.00    0.76
   6  10  -4    9.33    1.13
   5 -10  -4    0.81    0.52
   5  10  -4    0.63    0.54
   5  10  -4    0.37    0.39
   4 -10  -4    3.12    0.65
   4  10  -4    1.20    0.50
   4  10  -4    2.15    0.49
   3 -10  -4    7.75    0.78
   3  10  -4    7.55    0.67
   3  10  -4    8.53    0.76
   2 -10  -4    7.33    0.67
   2 -10  -4    8.44    0.77
   2  10  -4    8.21    0.75
   2  10  -4    5.71    0.55
  -1 -10   4   91.24    2.53
   1 -10  -4   93.60    2.64
   1  10  -4   88.08    2.48
   0 -10   4   25.83    1.25
   0 -10  -4   25.14    1.25
   0  10  -4   22.14    1.10
  -1 -10  -4   15.75    1.07
   1 -10   4   15.91    1.17
  -1  10  -4   15.97    0.91
   2 -10   4   45.47    2.05
  -2 -10  -4   42.81    1.84
  -2  10  -4   49.20    1.64
   3 -10   4   14.25    1.41
  -3 -10  -4   16.94    1.29
   4 -10   4    3.04    0.97
  -4 -10  -4    5.57    0.97
   6  11  -4    1.33    0.71
   5 -11  -4    0.56    0.52
   5  11  -4    0.38    0.41
   5  11  -4    0.18    0.53
   4 -11  -4   18.32    1.20
   4  11  -4   18.21    1.10
   4  11  -4   14.47    0.97
   3 -11  -4   49.37    1.77
   3  11  -4   46.91    1.68
   3  11  -4   47.85    1.57
   2 -11  -4    5.37    0.64
   2 -11  -4    5.37    0.61
   2  11  -4    6.81    0.74
   1 -11  -4   24.28    1.20
  -1 -11   4   24.49    1.11
   1  11  -4   23.79    1.16
   0 -11  -4   44.55    1.75
   0 -11   4   46.27    1.77
   0  11  -4   49.24    1.66
  -1 -11  -4    4.28    0.74
   1 -11   4    5.02    0.83
  -1  11  -4    3.67    0.57
   2 -11   4   44.17    2.02
  -2 -11  -4   40.46    1.79
  -2  11  -4   42.03    1.55
  -3 -11  -4    7.02    1.00
   3 -11   4    7.34    1.08
   4 -11   4    2.75    0.98
  -4 -11  -4    4.02    0.88
   5 -12  -4    1.49    0.58
   5  12  -4    1.82    0.65
   5  12  -4    1.35    0.46
   4 -12  -4    9.57    0.93
   4  12  -4    9.36    0.89
   4  12  -4    8.45    0.82
   3 -12  -4    9.29    0.85
   3  12  -4    8.62    0.79
   2 -12  -4    7.48    0.76
   2 -12  -4    7.27    0.74
   2  12  -4    6.50    0.72
   1 -12  -4  137.86    3.70
  -1 -12   4  141.90    3.64
   1  12  -4  140.26    3.54
   0 -12  -4   16.20    1.08
   0 -12   4   13.73    1.02
   0  12  -4   14.37    0.96
   1 -12   4   19.09    1.29
  -1 -12  -4   20.49    1.27
  -1  12  -4   19.16    1.07
   2 -12   4   39.21    1.95
  -2 -12  -4   41.99    1.86
  -2  12  -4   38.32    1.52
  -3 -12  -4   17.65    1.36
   3 -12   4   16.48    1.49
  -4 -12  -4    7.86    1.15
   5 -13  -4    3.85    0.75
   5  13  -4    5.15    0.79
   5  13  -4    4.47    0.72
   4 -13  -4   38.86    1.68
   4  13  -4   37.82    1.55
   3 -13  -4   43.65    1.68
   3  13  -4   40.99    1.61
   2 -13  -4   12.00    0.92
   2 -13  -4   10.92    0.90
   2  13  -4   11.79    0.90
   1 -13  -4    7.30    0.82
  -1 -13   4    6.42    0.69
   1  13  -4    8.86    0.86
   0 -13  -4   26.65    1.39
   0 -13   4   28.34    1.37
   0  13  -4   26.80    1.27
  -1 -13  -4   12.05    1.06
   1 -13   4   12.49    1.12
  -1  13  -4   12.16    0.91
   2 -13   4   34.89    1.85
  -2 -13  -4   32.79    1.69
  -2  13  -4   35.36    1.46
  -3 -13  -4   11.39    1.29
   3 -13   4    7.27    1.09
   5 -14  -4    1.81    0.62
   4 -14  -4    2.53    0.61
   4  14  -4    2.02    0.55
   3 -14  -4   14.31    1.03
   3  14  -4   13.81    0.98
   2 -14  -4    4.84    0.70
   2 -14  -4    5.62    0.72
   2  14  -4    5.90    0.75
  -1 -14   4   78.00    2.39
   1 -14  -4   78.80    2.52
   1  14  -4   73.67    2.33
   0 -14   4   15.62    1.09
   0 -14  -4   13.35    1.11
   0  14  -4   13.88    0.99
   1 -14   4   20.31    1.37
  -1 -14  -4   19.96    1.30
  -1  14  -4   22.73    1.22
  -2 -14  -4   25.57    1.54
   2 -14   4   27.43    1.67
  -3 -14  -4   20.87    1.49
   5 -15  -4    3.26    0.72
   4 -15  -4   25.26    1.39
   4  15  -4   25.07    1.29
   3 -15  -4   14.65    1.04
   3  15  -4   14.50    1.00
   2 -15  -4   11.11    0.96
   2 -15  -4   10.42    0.93
   2  15  -4   10.23    0.90
  -1 -15   4   13.84    0.97
   1 -15  -4   13.58    1.10
   1  15  -4   13.64    1.03
   0 -15  -4   29.91    1.55
   0 -15   4   28.37    1.47
   0  15  -4   30.82    1.42
  -1 -15  -4   10.92    1.15
   1 -15   4    9.57    1.13
  -1  15  -4    7.89    0.88
   2 -15   4   15.64    1.38
  -2 -15  -4   17.50    1.35
   3 -15   4    5.01    1.00
  -3 -15  -4   10.05    1.23
   5 -16  -4    1.99    0.63
   4 -16  -4    7.54    0.88
   4  16  -4    8.99    0.90
   3 -16  -4    6.09    0.77
   3  16  -4    6.09    0.77
   2 -16  -4    1.07    0.51
   2 -16  -4    0.77    0.50
   2  16  -4    1.76    0.55
   1 -16  -4   47.67    1.97
  -1 -16   4   49.52    1.86
   1  16  -4   49.60    1.87
   0 -16   4   23.79    1.37
   0 -16  -4   23.19    1.41
   0  16  -4   23.55    1.30
   1 -16   4   12.74    1.29
  -1 -16  -4   13.86    1.31
  -1  16  -4   13.26    1.09
   2 -16   4   21.07    1.56
  -2 -16  -4   19.57    1.43
   3 -16   4    8.79    1.21
  -3 -16  -4   14.64    1.37
   5 -17  -4    0.99    0.57
   4 -17  -4   19.55    1.29
   4  17  -4   21.26    1.24
   3 -17  -4   18.47    1.17
   3  17  -4   17.75    1.16
   2 -17  -4    8.68    0.93
   2 -17  -4   10.49    0.98
   2  17  -4   10.23    0.98
   1 -17  -4    9.52    1.05
  -1 -17   4    9.19    0.93
   1  17  -4    9.05    0.97
   0 -17  -4   28.28    1.56
   0 -17   4   26.28    1.49
   0  17  -4   30.43    1.51
   1 -17   4   12.18    1.28
  -1 -17  -4   12.65    1.22
  -1  17  -4   12.37    1.18
   2 -17   4   23.06    1.65
  -2 -17  -4   23.10    1.53
  -3 -17  -4    1.59    0.71
   3 -17   4    1.59    0.83
   4 -18  -4    5.67    0.80
   4  18  -4    4.61    0.72
   3 -18  -4    2.31    0.58
   3  18  -4    3.35    0.66
   2 -18  -4    9.19    0.94
   2 -18  -4   11.40    1.05
   2  18  -4   10.03    1.00
  -1 -18   4   69.89    2.45
   1 -18  -4   69.19    2.54
   1  18  -4   70.05    2.40
   0 -18  -4   18.61    1.34
   0 -18   4   19.83    1.33
   0  18  -4   20.63    1.34
   1 -18   4   13.00    1.36
  -1 -18  -4   11.95    1.25
  -1  18  -4   12.94    1.22
  -2 -18  -4   24.77    1.62
   2 -18   4   23.22    1.70
   4 -19  -4   13.72    1.15
   4  19  -4   14.53    1.15
   3 -19  -4   13.38    1.08
   3  19  -4   12.37    1.08
   2 -19  -4   25.25    1.40
   2 -19  -4   22.94    1.40
   2  19  -4   24.99    1.40
   1 -19  -4    6.05    0.92
   1  19  -4    6.53    0.89
   0 -19   4   25.49    1.54
   0 -19  -4   24.11    1.55
   0  19  -4   23.65    1.47
   1 -19   4    5.70    0.97
  -1 -19  -4    7.03    1.07
  -2 -19  -4   22.96    1.61
   2 -19   4   21.24    1.65
   4 -20  -4    7.28    0.88
   4  20  -4    7.73    0.91
   3 -20  -4    5.39    0.77
   3  20  -4    4.32    0.77
   2 -20  -4   10.08    1.06
   2 -20  -4    9.83    1.01
   2  20  -4   10.83    1.13
   1 -20  -4   35.73    1.85
   1  20  -4   34.79    1.74
   0 -20  -4   15.49    1.37
   0 -20   4   15.07    1.32
   0  20  -4   17.60    1.33
   1 -20   4   19.21    1.46
  -1 -20  -4   19.85    1.48
   2 -20   4    9.72    1.33
  -2 -20  -4   10.08    1.32
   4 -21  -4    6.17    0.87
   3 -21  -4    8.14    0.91
   3  21  -4    8.76    1.01
   2 -21  -4   19.08    1.34
   2 -21  -4   17.89    1.26
   2  21  -4   18.34    1.32
   1 -21  -4    5.57    1.00
   1  21  -4    5.95    0.91
   0 -21  -4   15.30    1.39
   0 -21   4   15.50    1.37
   0  21  -4   17.38    1.38
   1 -21   4   -0.01    0.55
  -1 -21  -4    0.64    0.63
   3 -22  -4    3.04    0.66
   3  22  -4    3.56    0.74
   2 -22  -4    3.30    0.78
   2 -22  -4    3.40    0.70
   2  22  -4    3.30    0.78
   1 -22  -4   21.91    1.58
   1  22  -4   22.18    1.48
   0 -22  -4    4.90    0.98
   0 -22   4    5.29    0.97
   0  22  -4    6.10    0.96
   1 -22   4   16.48    1.44
  -1 -22  -4   17.73    1.54
   3 -23  -4    8.97    0.99
   2 -23  -4    9.71    1.04
   2 -23  -4    8.90    1.09
   2  23  -4   11.11    1.19
   1 -23  -4    9.85    1.23
   1  23  -4   13.05    1.31
   0 -23  -4    6.90    1.10
   0 -23   4    7.80    1.17
   1 -23   4    3.43    0.93
   2 -24  -4    1.86    0.72
   2 -24  -4    2.22    0.65
   1 -24  -4   27.95    1.65
   1 -24  -4   27.55    1.79
   0 -24   4    6.08    1.10
   5   0  -5    9.29    1.03
   4   0  -5   -0.12    0.44
   3   0  -5   49.43    1.78
   2   0  -5    0.67    0.41
   1   0  -5    1.99    0.44
   0   0   5   53.72    2.15
   1   0   5   62.44    2.54
  -1   0  -5   61.99    1.90
   2   0   5    1.09    0.81
   3   0   5    1.75    1.06
   5  -1  -5   10.51    1.12
   5   1  -5   11.76    1.17
   4  -1  -5    0.76    0.50
   4   1  -5    0.42    0.48
   3  -1  -5   28.00    1.31
   3   1  -5   25.42    1.28
   2  -1  -5   61.79    1.94
   2   1  -5   63.37    1.94
  -1  -1   5    9.08    0.87
   1  -1  -5    8.55    0.75
   1  -1  -5    8.65    0.70
   1   1  -5    8.60    0.73
   0  -1   5    8.64    1.02
   0   1   5    9.57    1.09
   1  -1   5   10.59    1.24
   1   1   5    9.45    1.23
  -1   1  -5    7.13    0.66
   2  -1   5    0.68    0.75
   2   1   5   -0.27    0.70
   5  -2  -5   18.11    1.31
   5   2  -5   16.41    1.27
   4  -2  -5   11.51    1.05
   4   2  -5   10.09    0.97
   3  -2  -5   15.60    1.06
   3   2  -5   15.48    1.06
   2  -2  -5    7.97    0.77
   2   2  -5    7.08    0.71
   1  -2  -5    1.97    0.50
   1  -2  -5    2.70    0.48
  -1  -2   5    3.05    0.60
   1   2  -5    2.41    0.45
   0  -2   5   53.95    2.10
   0   2  -5   56.25    1.72
   1  -2   5   81.47    2.83
  -1   2  -5   74.77    2.09
   1   2   5   74.73    2.86
   2  -2   5   -0.51    0.65
   2   2   5    0.23    0.74
   3  -2   5    3.23    1.04
   3   2   5    2.66    1.10
   5  -3  -5    8.37    0.99
   5   3  -5    8.10    1.02
   4  -3  -5    2.08    0.63
   4   3  -5    2.02    0.58
   3  -3  -5   16.92    1.08
   3   3  -5   15.49    1.03
   2  -3  -5   75.16    2.29
   2   3  -5   78.38    2.19
   1  -3  -5    4.31    0.61
   1  -3  -5    3.90    0.55
  -1  -3   5    3.69    0.62
   1   3  -5    4.10    0.53
   0  -3   5   16.01    1.19
   0   3  -5   17.74    0.88
   0   3  -5   18.29    0.95
   1  -3   5   12.91    1.34
  -1   3  -5    9.04    0.72
   2  -3   5   -0.40    0.69
   2   3   5   -0.63    0.70
   3  -3   5   32.38    2.13
   3   3   5   32.76    2.25
   5  -4  -5    8.88    1.00
   5   4  -5    9.48    1.05
   4  -4  -5    1.53    0.56
   4   4  -5    2.04    0.58
   3  -4  -5   11.91    0.96
   3   4  -5   14.76    0.98
   2  -4  -5    6.78    0.74
   2   4  -5    5.58    0.64
   1  -4  -5    1.28    0.41
   1  -4  -5    1.66    0.48
  -1  -4   5    1.12    0.47
   1   4  -5    0.94    0.41
   1   4  -5    1.31    0.37
   0  -4   5   65.00    2.37
   0  -4  -5   70.22    2.25
   0   4  -5   69.96    2.03
   1  -4   5   78.70    2.84
  -1   4  -5   77.25    2.16
   2  -4   5    0.45    0.73
   3  -4   5    1.13    0.88
   5  -5  -5    9.50    1.05
   5   5  -5    6.40    0.81
   5   5  -5    8.39    1.00
   4  -5  -5   -0.06    0.45
   4   5  -5    0.49    0.46
   3  -5  -5    8.99    0.86
   3   5  -5    7.87    0.79
   2  -5  -5   77.82    2.35
   2   5  -5   80.69    2.20
   2   5  -5   78.54    2.35
   1  -5  -5    0.71    0.40
   1  -5  -5    1.10    0.47
   1   5  -5    0.40    0.39
   1   5  -5    0.86    0.34
   0  -5   5    7.14    0.90
   0  -5  -5    7.25    0.80
   0   5  -5    7.38    0.74
   1  -5   5    9.64    1.17
  -1  -5  -5   10.99    0.99
  -1   5  -5    7.79    0.74
   2  -5   5   -0.01    0.69
   3  -5   5   24.29    1.96
   5  -6  -5   11.60    1.14
   5   6  -5    9.13    0.92
   5   6  -5   10.77    1.09
   4  -6  -5    2.03    0.59
   4   6  -5    1.63    0.53
   4   6  -5    1.97    0.58
   3  -6  -5   16.93    1.12
   3   6  -5   17.85    1.10
   3   6  -5   19.66    1.06
   2  -6  -5    4.32    0.63
   2   6  -5    4.51    0.65
   2   6  -5    3.78    0.54
   1  -6  -5    0.71    0.44
   1   6  -5    0.31    0.41
   0  -6  -5   71.26    2.29
   0  -6   5   65.49    2.34
   0   6  -5   68.25    2.04
  -1  -6  -5   71.11    2.45
   1  -6   5   69.74    2.61
  -1   6  -5   70.05    2.06
  -2  -6  -5    4.11    0.78
   2  -6   5    3.45    0.91
   3  -6   5    1.06    0.92
  -3  -6  -5    1.49    0.69
   5  -7  -5    6.20    0.91
   5   7  -5    6.12    0.90
   5   7  -5    5.83    0.79
   4  -7  -5    1.11    0.54
   4   7  -5    1.46    0.55
   4   7  -5    1.31    0.52
   3  -7  -5   14.90    1.09
   3   7  -5   17.26    0.99
   3   7  -5   16.76    1.08
   2  -7  -5   67.44    2.13
   2   7  -5   64.02    1.91
   2   7  -5   65.07    2.09
   1  -7  -5    0.35    0.40
   1   7  -5    0.15    0.38
   0  -7  -5   12.99    1.00
   0  -7   5   10.25    1.06
   0   7  -5   12.75    0.87
  -1  -7  -5    7.58    0.94
   1  -7   5    6.76    1.00
  -1   7  -5    7.86    0.77
   2  -7   5    4.69    1.01
  -2  -7  -5    4.57    0.88
  -3  -7  -5   31.66    1.86
   3  -7   5   25.25    2.00
   5  -8  -5    8.25    0.98
   5   8  -5    6.16    0.87
   5   8  -5    6.66    0.81
   4  -8  -5    2.49    0.62
   4   8  -5    2.61    0.60
   4   8  -5    2.12    0.57
   3  -8  -5   18.39    1.15
   3   8  -5   18.19    1.02
   3   8  -5   17.31    1.09
   2  -8  -5    6.56    0.77
   2   8  -5    8.39    0.85
   1  -8  -5    0.96    0.45
   1   8  -5    1.76    0.47
   0  -8  -5   54.31    1.99
   0  -8   5   52.83    2.04
   0   8  -5   49.96    1.74
   1  -8   5   39.78    1.94
  -1  -8  -5   39.10    1.75
  -1   8  -5   38.66    1.47
  -2  -8  -5    9.74    1.15
   2  -8   5    8.65    1.26
  -3  -8  -5    1.29    0.71
   3  -8   5    1.31    0.89
   5  -9  -5    6.59    0.89
   5   9  -5    7.12    0.82
   5   9  -5    7.60    0.94
   4  -9  -5    1.64    0.56
   4   9  -5    1.32    0.48
   4   9  -5    0.74    0.48
   3  -9  -5   15.19    1.11
   3   9  -5   16.69    1.07
   2  -9  -5   69.80    2.25
   2   9  -5   70.16    2.20
   1  -9  -5   13.61    0.98
   1   9  -5   14.57    0.98
   0  -9   5    6.97    0.92
   0  -9  -5    6.93    0.85
   0   9  -5    7.05    0.78
  -1  -9  -5    4.44    0.79
   1  -9   5    4.49    0.87
  -1   9  -5    3.35    0.57
   2  -9   5    2.21    0.84
  -2  -9  -5    3.27    0.79
  -3  -9  -5   34.23    1.93
   5 -10  -5    9.35    1.03
   5  10  -5    9.14    0.98
   5  10  -5    8.76    0.90
   4 -10  -5    4.41    0.77
   4  10  -5    5.00    0.72
   3 -10  -5   18.11    1.15
   3  10  -5   15.82    1.06
   2 -10  -5    3.71    0.64
   2  10  -5    2.76    0.60
   1 -10  -5    6.84    0.80
   1  10  -5    7.75    0.81
   0 -10  -5   41.80    1.79
   0 -10   5   41.04    1.79
   0  10  -5   42.33    1.61
  -1 -10  -5   29.32    1.56
   1 -10   5   29.64    1.69
  -1  10  -5   29.98    1.33
  -2 -10  -5    2.42    0.70
   2 -10   5    2.18    0.84
   3 -10   5    2.07    0.93
  -3 -10  -5    1.96    0.78
   5 -11  -5    4.70    0.80
   5  11  -5    4.46    0.71
   4 -11  -5    0.76    0.53
   4  11  -5    0.84    0.45
   3 -11  -5   19.01    1.21
   3  11  -5   19.64    1.16
   2 -11  -5   46.00    1.79
   2  11  -5   45.19    1.73
   1 -11  -5    2.37    0.62
   1  11  -5    2.58    0.59
   0 -11   5   13.34    1.09
   0 -11  -5   13.38    1.11
   0  11  -5   12.36    0.97
   1 -11   5    4.27    0.87
  -1 -11  -5    7.59    1.03
  -1  11  -5    4.92    0.70
  -2 -11  -5    0.36    0.57
   2 -11   5   -0.18    0.70
  -3 -11  -5   27.58    1.75
   5 -12  -5    6.77    0.90
   5  12  -5    7.46    0.86
   4 -12  -5    0.97    0.54
   4  12  -5    0.85    0.50
   3 -12  -5   20.10    1.25
   3  12  -5   18.53    1.15
   2 -12  -5    2.07    0.58
   2  12  -5    0.48    0.49
   1 -12  -5   10.00    0.99
   1  12  -5   10.37    0.95
   0 -12   5   32.43    1.63
   0 -12  -5   34.78    1.65
   0  12  -5   33.74    1.49
  -1 -12  -5   43.27    1.98
   1 -12   5   42.40    2.04
  -1  12  -5   45.89    1.74
  -2 -12  -5    1.09    0.64
   2 -12   5    0.88    0.79
   3 -12   5    1.53    0.95
  -3 -12  -5    2.69    0.83
   5  13  -5    3.34    0.65
   4 -13  -5    2.59    0.66
   4  13  -5    2.25    0.59
   3 -13  -5    5.88    0.81
   3  13  -5    5.25    0.77
   2 -13  -5   34.02    1.58
   2  13  -5   32.72    1.51
   1 -13  -5    4.46    0.76
   1  13  -5    4.81    0.75
   0 -13   5   12.43    1.22
   0 -13  -5   11.94    1.16
   0  13  -5    9.62    0.99
  -1 -13  -5    7.33    1.01
   1 -13   5    6.74    1.03
  -1  13  -5    7.43    0.85
   2 -13   5    0.64    0.71
  -2 -13  -5    0.60    0.65
   5  14  -5    4.60    0.74
   4 -14  -5    0.56    0.52
   4  14  -5    0.22    0.45
   3 -14  -5    8.15    0.90
   3  14  -5   10.79    1.06
   2 -14  -5    2.03    0.58
   2  14  -5    1.40    0.54
   1 -14  -5   12.69    1.11
   1  14  -5   12.53    1.06
   0 -14   5   39.38    1.84
   0 -14  -5   36.03    1.77
   0  14  -5   38.22    1.64
   1 -14   5   48.72    2.25
  -1 -14  -5   52.52    2.22
  -1  14  -5   53.65    2.00
   2 -14   5    3.68    0.92
  -2 -14  -5    3.21    0.85
   4 -15  -5    1.89    0.63
   4  15  -5    1.49    0.56
   3 -15  -5    8.85    0.97
   3  15  -5    7.26    0.88
   2 -15  -5   28.54    1.53
   2  15  -5   27.45    1.42
   1 -15  -5    1.63    0.64
   1  15  -5    2.71    0.68
   0 -15  -5    9.27    1.11
   0 -15   5    9.09    1.10
   0  15  -5   10.90    1.07
  -1 -15  -5   11.23    1.37
   1 -15   5    8.08    1.15
  -1  15  -5    7.63    0.96
  -2 -15  -5    1.61    0.78
   2 -15   5    0.58    0.73
   4 -16  -5    1.90    0.65
   4  16  -5    1.83    0.59
   3 -16  -5    6.91    0.88
   3  16  -5    7.12    0.90
   2 -16  -5    1.93    0.60
   2  16  -5    2.30    0.60
   1 -16  -5    5.74    0.91
   1  16  -5    6.55    0.89
   0 -16  -5   33.05    1.77
   0 -16   5   28.68    1.69
   0  16  -5   28.22    1.52
  -1 -16  -5   36.09    1.88
   1 -16   5   32.02    1.90
  -1  16  -5   36.48    1.74
  -2 -16  -5   10.38    1.32
   2 -16   5    9.12    1.28
   4 -17  -5    1.24    0.59
   4  17  -5    2.00    0.60
   3 -17  -5   16.03    1.24
   3  17  -5   14.68    1.16
   2 -17  -5   25.26    1.47
   2  17  -5   21.05    1.33
   1 -17  -5    2.54    0.73
   1  17  -5    1.99    0.67
   0 -17  -5    9.89    1.15
   0 -17   5    7.38    1.07
   0  17  -5    9.86    1.12
  -1 -17  -5    1.90    0.80
   1 -17   5    1.79    0.79
  -1  17  -5    2.35    0.70
   3 -18  -5   20.26    1.38
   3  18  -5   20.76    1.36
   2 -18  -5    0.57    0.55
   2  18  -5    0.14    0.49
   1 -18  -5    4.59    0.88
   1  18  -5    4.49    0.83
   0 -18  -5   27.79    1.68
   0 -18   5   25.89    1.67
   0  18  -5   27.65    1.60
   1 -18   5   13.81    1.49
  -1 -18  -5   14.65    1.45
  -1  18  -5   12.78    1.28
   3 -19  -5    7.16    0.92
   3  19  -5    8.44    1.03
   2 -19  -5   25.87    1.54
   2  19  -5   21.43    1.40
   1 -19  -5    2.99    0.82
   1  19  -5    2.60    0.76
   0 -19  -5    8.16    1.20
   0  19  -5    9.35    1.15
  -1 -19  -5    4.34    1.00
   1 -19   5    3.61    0.95
  -1  19  -5    3.52    0.79
   3 -20  -5    9.76    1.16
   2 -20  -5    2.55    0.67
   2  20  -5    2.26    0.67
   1 -20  -5    5.57    1.00
   1  20  -5    4.68    0.92
   0 -20  -5   15.41    1.63
   0  20  -5   13.05    1.33
   1 -20   5   12.16    1.51
   2 -21  -5   17.90    1.38
   1 -21  -5    3.74    0.92
   1  21  -5    2.64    0.80
   0 -21  -5   16.23    1.74
   0  21  -5   12.84    1.42
   1 -22  -5    8.41    1.17
   5   0  -6    0.31    0.53
   4   0  -6    4.06    0.73
   3   0  -6   10.97    0.99
   2   0  -6   30.01    1.40
   1   0  -6   37.24    1.51
   0   0   6    1.14    0.70
   0   0  -6    0.70    0.42
   0   0  -6    0.50    0.44
   1   0   6    3.40    1.02
   2   0   6   75.34    3.32
   5  -1  -6    2.13    0.71
   5   1  -6    2.21    0.68
   4  -1  -6   15.46    1.24
   4   1  -6   15.75    1.25
   3  -1  -6    5.95    0.80
   3   1  -6    6.18    0.79
   2  -1  -6    2.81    0.59
   2   1  -6    3.11    0.61
   1  -1  -6   22.74    1.23
   1   1  -6   25.72    1.24
   0  -1   6    8.98    1.15
   0   1  -6    8.35    0.81
   1  -1   6    6.01    1.18
   1   1   6    8.44    1.30
   2  -1   6    6.87    1.38
   2   1   6    6.69    1.38
   5  -2  -6    0.61    0.56
   5   2  -6    1.11    0.63
   4  -2  -6    1.27    0.61
   4   2  -6    1.00    0.57
   3  -2  -6    5.02    0.76
   3   2  -6    4.57    0.73
   2  -2  -6   14.83    1.08
   2   2  -6   13.57    1.01
   1  -2  -6   23.61    1.27
   1   2  -6   23.35    1.19
   0  -2   6    0.53    0.63
   0  -2  -6    0.78    0.53
   0   2  -6    0.57    0.42
   1  -2   6    4.09    1.07
   2  -2   6   26.85    2.06
   2   2   6   25.52    2.07
   5  -3  -6    1.12    0.62
   5   3  -6    1.76    0.67
   4  -3  -6   23.12    1.44
   4   3  -6   24.76    1.44
   3  -3  -6    5.73    0.81
   3   3  -6    4.95    0.74
   2  -3  -6    4.36    0.70
   2   3  -6    3.66    0.62
   1  -3  -6   26.81    1.39
   1   3  -6   26.04    1.31
   0  -3   6    7.60    1.12
   0  -3  -6    8.67    0.94
   0   3  -6    9.11    0.86
   1  -3   6   11.29    1.47
   2  -3   6    2.45    0.98
   5  -4  -6   -0.69    0.48
   5   4  -6    0.70    0.61
   5   4  -6    0.25    0.55
   4  -4  -6    2.93    0.70
   4   4  -6    3.05    0.71
   3  -4  -6    6.54    0.83
   3   4  -6    6.45    0.80
   2  -4  -6    5.24    0.77
   2   4  -6    5.96    0.78
   1  -4  -6   28.88    1.46
   1   4  -6   29.72    1.40
   0  -4  -6    0.39    0.51
   0  -4   6    0.53    0.58
   0   4  -6    0.59    0.40
   1  -4   6    6.19    1.14
  -1  -4  -6    9.04    1.11
   2  -4   6   22.41    1.92
   5  -5  -6    3.73    0.81
   5   5  -6    3.78    0.76
   5   5  -6    3.87    0.79
   4  -5  -6   23.43    1.45
   4   5  -6   25.64    1.43
   3  -5  -6    2.60    0.63
   3   5  -6    3.45    0.71
   3   5  -6    3.69    0.65
   2  -5  -6    2.26    0.60
   2   5  -6    2.62    0.63
   1  -5  -6   19.86    1.26
   1   5  -6   19.04    1.18
   0  -5  -6    9.89    1.01
   0  -5   6    8.32    1.06
   0   5  -6    9.99    0.86
   1  -5   6   17.59    1.56
  -1  -5  -6   20.71    1.47
  -2  -5  -6    2.85    0.83
   2  -5   6    1.61    0.98
   5  -6  -6    0.86    0.60
   5   6  -6    1.15    0.60
   5   6  -6    1.42    0.66
   4  -6  -6    1.70    0.61
   4   6  -6    2.18    0.65
   4   6  -6    2.11    0.64
   3  -6  -6    1.87    0.58
   3   6  -6    1.92    0.63
   2  -6  -6    3.69    0.70
   2   6  -6    2.46    0.62
   1  -6  -6   32.70    1.57
   1   6  -6   31.92    1.49
   0  -6   6    3.63    0.85
   0  -6  -6    2.93    0.70
   0   6  -6    3.28    0.61
   1  -6   6    7.45    1.24
  -1  -6  -6    7.35    1.04
  -2  -6  -6   30.40    1.80
   2  -6   6   26.25    2.04
   5   7  -6    3.78    0.76
   5   7  -6    2.72    0.72
   4  -7  -6   15.84    1.24
   4   7  -6   13.38    1.16
   3  -7  -6    2.33    0.61
   3   7  -6    2.33    0.62
   2  -7  -6    0.62    0.51
   2   7  -6   -0.66    0.43
   1  -7  -6   30.79    1.54
   1   7  -6   29.20    1.43
   0  -7  -6   14.49    1.18
   0   7  -6   15.24    1.03
   1  -7   6   18.14    1.63
  -1  -7  -6   19.11    1.37
  -2  -7  -6    4.07    0.94
   2  -7   6    3.54    1.10
   5   8  -6    3.32    0.76
   4  -8  -6    1.60    0.62
   4   8  -6    1.08    0.60
   3  -8  -6    3.86    0.71
   3   8  -6    3.49    0.69
   2  -8  -6    9.62    0.97
   2   8  -6    9.67    0.99
   1  -8  -6   25.49    1.45
   1   8  -6   25.45    1.35
   0  -8  -6   10.40    1.09
   0   8  -6    9.62    0.94
  -1  -8  -6   10.42    1.13
   1  -8   6   10.60    1.41
   4  -9  -6   11.63    1.15
   4   9  -6   12.51    1.12
   3  -9  -6    5.13    0.79
   3   9  -6    7.64    0.92
   2  -9  -6    0.40    0.51
   2   9  -6    0.21    0.45
   1  -9  -6   15.00    1.19
   1   9  -6   14.45    1.11
   0  -9  -6    4.80    0.87
   0   9  -6    5.31    0.78
  -1  -9  -6    5.40    0.92
   1  -9   6    5.75    1.12
  -2  -9  -6    2.29    0.77
   2  -9   6   -0.10    0.82
   4 -10  -6   -0.29    0.48
   4  10  -6    0.31    0.47
   3 -10  -6    2.94    0.66
   3  10  -6    1.86    0.62
   2 -10  -6   15.09    1.18
   2  10  -6   13.28    1.07
   1 -10  -6   14.51    1.21
   1  10  -6   15.15    1.14
   0 -10  -6    0.58    0.61
   0  10  -6    1.23    0.53
  -1 -10  -6    4.26    0.89
   1 -10   6    2.81    0.92
  -2 -10  -6   24.82    1.66
   4 -11  -6   10.10    1.09
   4  11  -6   10.04    1.04
   3 -11  -6    1.42    0.54
   3  11  -6    1.71    0.58
   2 -11  -6    5.24    0.81
   2  11  -6    7.08    0.87
   1 -11  -6   19.77    1.33
   1  11  -6   19.18    1.24
   0 -11  -6    8.55    1.07
   0  11  -6   10.49    1.02
   1 -11   6    7.19    1.19
  -1 -11  -6    7.40    1.19
  -2 -11  -6    5.08    1.10
   2 -11   6    4.56    1.10
   4 -12  -6    1.44    0.60
   4  12  -6    1.47    0.59
   3 -12  -6    2.22    0.65
   3  12  -6    3.14    0.68
   2 -12  -6   13.54    1.20
   2  12  -6   13.07    1.08
   1 -12  -6   19.22    1.38
   1  12  -6   18.59    1.27
   0 -12  -6    2.39    0.73
   0  12  -6    2.60    0.65
  -1 -12  -6    5.67    1.11
   1 -12   6    6.05    1.16
   4  13  -6   15.43    1.28
   3 -13  -6    1.09    0.56
   3  13  -6    1.57    0.59
   2 -13  -6    7.07    0.94
   2  13  -6    7.36    0.95
   1 -13  -6   10.81    1.10
   1  13  -6   11.18    1.14
   0 -13  -6    5.89    0.96
   0  13  -6    3.43    0.73
  -1 -13  -6    8.26    1.12
   1 -13   6    3.86    1.04
   3 -14  -6    3.94    0.75
   3  14  -6    3.41    0.72
   2 -14  -6    6.46    0.93
   2  14  -6    7.48    0.99
   1 -14  -6   14.84    1.33
   1  14  -6   14.56    1.24
   0 -14  -6    2.07    0.76
   0  14  -6    3.60    0.76
   1 -14   6    5.17    1.08
  -1 -14  -6    7.09    1.13
   3 -15  -6    2.40    0.67
   3  15  -6    2.89    0.69
   2 -15  -6    4.29    0.81
   2  15  -6    5.50    0.86
   1 -15  -6   15.35    1.36
   1  15  -6   13.55    1.23
   0 -15  -6    2.51    0.88
   0  15  -6    3.08    0.72
   1 -15   6    5.73    1.17
  -1 -15  -6    7.27    1.14
   2 -16  -6    2.73    0.73
   2  16  -6    2.15    0.67
   1  16  -6   11.37    1.19
   0 -16  -6    4.91    1.02
   0  16  -6    5.35    0.90
   1 -16   6    2.52    0.95
   2  17  -6    2.03    0.70
   1 -17  -6    6.37    0.95
   1  17  -6    8.39    1.03
   0 -17  -6    1.22    0.71
   0  17  -6    2.65    0.77
   0 -18  -6    3.37    0.90
   4   0  -7    2.36    0.73
   3   0  -7    4.29    0.78
   2   0  -7    0.06    0.49
   4  -1  -7    0.66    0.59
   4   1  -7    0.58    0.58
   3  -1  -7   16.48    1.27
   3   1  -7   16.57    1.28
   2  -1  -7    9.55    0.98
   1   1  -7    0.23    0.48
   1  -1   7    5.82    1.32
   4  -2  -7   -0.36    0.53
   4   2  -7    0.38    0.55
   3  -2  -7    0.49    0.54
   2  -2  -7    0.93    0.55
   2   2  -7    0.54    0.57
   1  -2  -7    0.68    0.55
   1   2  -7    1.05    0.56
   1  -2   7    5.79    1.31
   4  -3  -7    0.12    0.54
   4   3  -7   -0.15    0.63
   3  -3  -7    6.34    0.91
   3   3  -7    7.16    0.94
   2  -3  -7    8.62    0.95
   2   3  -7   10.32    1.11
   1  -3  -7    0.46    0.56
   1   3  -7    0.97    0.53
  -1  -3  -7    3.96    0.88
   1  -3   7    4.77    1.22
   4  -4  -7   -0.23    0.52
   3  -4  -7    1.60    0.63
   3   4  -7    1.76    0.69
   2  -4  -7    0.27    0.51
   2   4  -7    0.35    0.59
   1  -4  -7    2.19    0.68
   1   4  -7    3.02    0.68
   0  -4  -7   19.97    1.38
  -1  -4  -7    6.45    1.11
   4  -5  -7    0.42    0.58
   3  -5  -7    6.45    0.89
   3   5  -7    5.40    0.86
   2  -5  -7   13.47    1.21
   2   5  -7   14.49    1.25
   1  -5  -7    2.16    0.68
   1   5  -7    1.93    0.62
  -1  -5  -7    5.59    1.05
   3  -6  -7    2.48    0.68
   3   6  -7    3.13    0.76
   2  -6  -7   -0.03    0.52
   2   6  -7    0.00    0.56
   1  -6  -7    6.36    0.92
   1   6  -7    5.30    0.80
  -1  -6  -7    5.41    1.07
   3  -7  -7   11.50    1.14
   2  -7  -7   10.08    1.07
   2   7  -7   10.03    1.07
   1  -7  -7    3.06    0.75
   1   7  -7    4.01    0.74
   0   7  -7    0.28    0.49
  -1  -7  -7    5.51    1.03
   3  -8  -7    3.59    0.77
   3   8  -7    2.71    0.73
   2  -8  -7    2.67    0.70
   2   8  -7    1.68    0.63
   1  -8  -7    1.79    0.68
   1   8  -7    2.12    0.65
   0   8  -7   13.39    1.13
  -1  -8  -7    2.69    0.91
   3  -9  -7    9.68    1.10
   3   9  -7   11.30    1.19
   2  -9  -7    5.04    0.86
   2   9  -7    6.34    0.90
   1  -9  -7    1.00    0.66
   1   9  -7    0.98    0.55
   0   9  -7    2.17    0.66
  -1  -9  -7    3.10    0.97
   2 -10  -7    0.40    0.54
   2  10  -7    0.06    0.54
   1 -10  -7   -0.31    0.56
   1  10  -7   -0.06    0.48
   0  10  -7   13.96    1.20
   2 -11  -7    5.99    0.92
   2  11  -7    6.84    0.94
   1 -11  -7    0.68    0.64
   1  11  -7    1.35    0.63
   0  11  -7    1.50    0.65
   1  12  -7    1.54    0.69
   0  12  -7   21.79    1.51
   0  13  -7    0.61    0.59
   1   1  -8    7.31    1.04
   1   2  -8    1.06    0.61
   0   0   0    0.00    0.00
;
_shelx_hkl_checksum              95344
#END Tags that were not found in dictionaries
loop_
_space_group_symop_operation_xyz
'x, y, z'
'-x, y+1/2, -z'
loop_
_atom_site_type_symbol
_atom_site_label
_atom_site_fract_x
_atom_site_fract_y
_atom_site_fract_z
_atom_site_U_iso_or_equiv
_atom_site_adp_type
_atom_site_calc_flag
_atom_site_refinement_flags_adp
_atom_site_refinement_flags_posn
_atom_site_occupancy
Ag Ag1 0.21164(10) 0.85762(2) 0.43191(9) 0.02710(13) Uani d . . 1
Ag Ag2 -0.43528(11) 0.86713(2) -0.00814(9) 0.02808(13) Uani d . . 1
C C1 -0.0239(14) 0.7566(3) 0.0273(12) 0.0185(12) Uani d . . 1
C C2 0.1410(16) 0.6943(3) 0.1451(13) 0.0226(14) Uani d . . 1
H H2A 0.0193 0.6547 0.1038 0.027 Uiso calc U R 1
H H2B 0.3079 0.688 0.0744 0.027 Uiso calc U R 1
C C3 0.2378(13) 0.7002(3) 0.4258(11) 0.0147(12) Uani d . . 1
H H3 0.0685 0.7039 0.4978 0.018 Uiso calc U R 1
C C4 0.4037(12) 0.6373(3) 0.5271(12) 0.0166(11) Uani d . . 1
C C5 0.3857(14) 0.5247(3) 0.6925(13) 0.0189(12) Uani d . . 1
H H5 0.5631 0.5203 0.6325 0.023 Uiso calc U R 1
C C6 0.4678(16) 0.5255(4) 0.9754(14) 0.0235(14) Uani d . . 1
H H6A 0.58 0.5659 1.0318 0.028 Uiso calc U R 1
H H6B 0.295 0.5274 1.04 0.028 Uiso calc U R 1
C C7 0.1957(13) 0.4654(3) 0.5914(12) 0.0181(12) Uani d . . 1
N N1 0.4171(11) 0.7602(3) 0.4934(11) 0.0188(11) Uani d . . 1
H H1A 0.5671 0.7589 0.4001 0.023 Uiso calc U R 1
H H1B 0.5105 0.7569 0.67 0.023 Uiso calc U R 1
N N2 0.2500(11) 0.5875(3) 0.5951(11) 0.0197(11) Uani d . . 1
H H2 0.068 0.5927 0.5809 0.024 Uiso calc U R 1
N N3 0.6349(13) 0.4656(3) 1.0758(11) 0.0230(12) Uani d . . 1
H H3A 0.6978 0.4714 1.256 0.028 Uiso calc U R 1
H H3B 0.8062 0.4651 1.0088 0.028 Uiso calc U R 1
O O1 0.0594(12) 0.7894(3) -0.1313(10) 0.0398(14) Uani d . . 1
O O2 -0.2427(11) 0.7712(3) 0.1075(11) 0.0332(13) Uani d . . 1
O O3 0.6604(10) 0.6326(3) 0.5393(12) 0.0354(13) Uani d . . 1
O O4 0.2626(14) 0.4291(3) 0.4337(12) 0.0476(17) Uani d . . 1
O O5 -0.0222(10) 0.4562(3) 0.6778(10) 0.0288(12) Uani d . . 1
loop_
_atom_site_aniso_label
_atom_site_aniso_U_11
_atom_site_aniso_U_22
_atom_site_aniso_U_33
_atom_site_aniso_U_12
_atom_site_aniso_U_13
_atom_site_aniso_U_23
Ag1 0.0300(2) 0.0135(2) 0.0336(3) 0.0060(2) -0.0014(2) -0.0031(2)
Ag2 0.0326(3) 0.0181(2) 0.0304(3) 0.0058(2) 0.0006(2) -0.0034(2)
C1 0.018(3) 0.020(3) 0.016(3) 0.000(2) 0.000(3) -0.002(2)
C2 0.024(3) 0.018(3) 0.024(3) 0.005(3) 0.002(3) -0.003(2)
C3 0.013(3) 0.010(3) 0.022(3) 0.004(2) 0.006(2) 0.002(2)
C4 0.015(3) 0.012(3) 0.024(3) 0.002(2) 0.007(2) 0.003(2)
C5 0.017(3) 0.011(3) 0.030(3) 0.000(2) 0.007(3) 0.003(2)
C6 0.027(3) 0.016(3) 0.025(4) 0.000(3) 0.002(3) 0.001(2)
C7 0.019(3) 0.014(3) 0.020(3) 0.003(2) 0.002(3) 0.001(2)
N1 0.015(3) 0.015(3) 0.024(3) 0.000(2) 0.000(2) 0.001(2)
N2 0.013(2) 0.016(2) 0.031(3) 0.0032(18) 0.005(2) 0.011(2)
N3 0.024(3) 0.020(3) 0.023(3) 0.001(2) 0.002(2) 0.005(2)
O1 0.041(3) 0.050(4) 0.032(3) 0.013(3) 0.016(3) 0.020(3)
O2 0.026(3) 0.028(3) 0.052(3) 0.009(2) 0.021(3) 0.015(3)
O3 0.012(2) 0.022(2) 0.075(4) 0.0034(19) 0.015(2) 0.021(3)
O4 0.044(4) 0.054(4) 0.048(4) -0.013(3) 0.017(3) -0.029(3)
O5 0.021(2) 0.023(3) 0.046(3) -0.009(2) 0.015(2) -0.009(2)
loop_
_atom_type_symbol
_atom_type_description
_atom_type_scat_dispersion_real
_atom_type_scat_dispersion_imag
_atom_type_scat_source
C C 0.0033 0.0016 'International Tables Vol C Tables 4.2.6.8 and 6.1.1.4'
H H 0.0000 0.0000 'International Tables Vol C Tables 4.2.6.8 and 6.1.1.4'
N N 0.0061 0.0033 'International Tables Vol C Tables 4.2.6.8 and 6.1.1.4'
O O 0.0106 0.0060 'International Tables Vol C Tables 4.2.6.8 and 6.1.1.4'
Ag Ag -0.8971 1.1015 'International Tables Vol C Tables 4.2.6.8 and 6.1.1.4'
loop_
_geom_angle_atom_site_label_1
_geom_angle_atom_site_label_2
_geom_angle_atom_site_label_3
_geom_angle_site_symmetry_1
_geom_angle_site_symmetry_3
_geom_angle
N1 Ag1 O5 . 2_556 172.3(2)
N1 Ag1 Ag2 . 1_656 77.12(15)
O5 Ag1 Ag2 2_556 1_656 108.21(15)
N1 Ag1 Ag2 . 1_655 82.64(15)
O5 Ag1 Ag2 2_556 1_655 89.85(13)
Ag2 Ag1 Ag2 1_656 1_655 117.70(2)
O2 Ag2 N3 . 2_556 172.6(2)
O2 Ag2 Ag1 . 1_454 109.50(17)
N3 Ag2 Ag1 2_556 1_454 76.67(16)
O2 Ag2 Ag1 . 1_455 89.45(13)
N3 Ag2 Ag1 2_556 1_455 84.00(16)
Ag1 Ag2 Ag1 1_454 1_455 117.70(2)
O1 C1 O2 . . 124.0(7)
O1 C1 C2 . . 120.6(6)
O2 C1 C2 . . 115.4(6)
C3 C2 C1 . . 112.3(5)
C3 C2 H2A . . 109.1
C1 C2 H2A . . 109.1
C3 C2 H2B . . 109.1
C1 C2 H2B . . 109.1
H2A C2 H2B . . 107.9
N1 C3 C2 . . 110.3(5)
N1 C3 C4 . . 110.3(5)
C2 C3 C4 . . 109.0(5)
N1 C3 H3 . . 109.1
C2 C3 H3 . . 109.1
C4 C3 H3 . . 109.1
O3 C4 N2 . . 122.9(6)
O3 C4 C3 . . 121.4(5)
N2 C4 C3 . . 115.7(5)
N2 C5 C6 . . 111.1(5)
N2 C5 C7 . . 110.5(5)
C6 C5 C7 . . 112.3(5)
N2 C5 H5 . . 107.6
C6 C5 H5 . . 107.6
C7 C5 H5 . . 107.6
N3 C6 C5 . . 111.6(6)
N3 C6 H6A . . 109.3
C5 C6 H6A . . 109.3
N3 C6 H6B . . 109.3
C5 C6 H6B . . 109.3
H6A C6 H6B . . 108.0
O4 C7 O5 . . 123.9(7)
O4 C7 C5 . . 118.9(6)
O5 C7 C5 . . 117.2(6)
C3 N1 Ag1 . . 117.8(4)
C3 N1 H1A . . 107.9
Ag1 N1 H1A . . 107.9
C3 N1 H1B . . 107.9
Ag1 N1 H1B . . 107.9
H1A N1 H1B . . 107.2
C4 N2 C5 . . 120.5(5)
C4 N2 H2 . . 119.7
C5 N2 H2 . . 119.7
C6 N3 Ag2 . 2_546 118.9(5)
C6 N3 H3A . . 107.6
Ag2 N3 H3A 2_546 . 107.6
C6 N3 H3B . . 107.6
Ag2 N3 H3B 2_546 . 107.6
H3A N3 H3B . . 107.0
C1 O2 Ag2 . . 115.9(4)
C7 O5 Ag1 . 2_546 110.9(4)
loop_
_geom_bond_atom_site_label_1
_geom_bond_atom_site_label_2
_geom_bond_site_symmetry_2
_geom_bond_distance
Ag1 N1 . 2.173(5)
Ag1 O5 2_556 2.195(5)
Ag1 Ag2 1_656 3.1799(8)
Ag1 Ag2 1_655 3.2781(8)
Ag2 O2 . 2.160(5)
Ag2 N3 2_556 2.183(6)
Ag2 Ag1 1_454 3.1799(8)
Ag2 Ag1 1_455 3.2782(8)
C1 O1 . 1.233(8)
C1 O2 . 1.269(8)
C1 C2 . 1.537(9)
C2 C3 . 1.519(9)
C2 H2A . 0.98
C2 H2B . 0.98
C3 N1 . 1.475(8)
C3 C4 . 1.525(8)
C3 H3 . 0.99
C4 O3 . 1.229(7)
C4 N2 . 1.344(8)
C5 N2 . 1.458(8)
C5 C6 . 1.523(10)
C5 C7 . 1.524(9)
C5 H5 . 0.99
C6 N3 . 1.478(9)
C6 H6A . 0.98
C6 H6B . 0.98
C7 O4 . 1.231(8)
C7 O5 . 1.264(8)
N1 H1A . 0.98
N1 H1B . 0.98
N2 H2 . 0.87
N3 Ag2 2_546 2.183(6)
N3 H3A . 0.98
N3 H3B . 0.98
O5 Ag1 2_546 2.195(5)
