#------------------------------------------------------------------------------
#$Date: 2016-03-24 14:30:41 +0200 (Thu, 24 Mar 2016) $
#$Revision: 179666 $
#$URL: svn://www.crystallography.net/cod/cif/4/51/19/4511941.cif $
#------------------------------------------------------------------------------
#
# This file is available in the Crystallography Open Database (COD),
# http://www.crystallography.net/
#
# All data on this site have been placed in the public domain by the
# contributors.
#
data_4511941
loop_
_publ_author_name
'Wharmby, Michael T.'
'Snoyek, Malte'
'Rhauderwiek, Timo'
'Ritter, Knut'
'Stock, Norbert'
_publ_section_title
;
 Group 13 Metal Carboxylates: Using Molecular Clusters As Hybrid Building
 Units in a MIL-53 Type Framework
;
_journal_issue                   10
_journal_name_full               'Crystal Growth &amp; Design'
_journal_page_first              5310
_journal_paper_doi               10.1021/cg501189n
_journal_volume                  14
_journal_year                    2014
_chemical_formula_moiety         'C8 In N O8'
_chemical_formula_sum            'C8 In N O8'
_chemical_formula_weight         352.9063
_space_group_IT_number           60
_symmetry_cell_setting           orthorhombic
_symmetry_space_group_name_Hall  '-P 2n 2ab'
_symmetry_space_group_name_H-M   'P b c n'
_cell_angle_alpha                90
_cell_angle_beta                 90
_cell_angle_gamma                90
_cell_formula_units_Z            4
_cell_length_a                   9.60049(12)
_cell_length_b                   9.03411(12)
_cell_length_c                   11.17851(15)
_cell_measurement_temperature    100
_cell_volume                     969.53(2)
_diffrn_ambient_temperature      100
_diffrn_measurement_device_type  'P08, PETRA III, DESY, Hamburg, Germany'
_diffrn_radiation_probe          x-ray
_diffrn_radiation_type           synchrotron
_diffrn_radiation_wavelength     0.827164
_exptl_crystal_density_diffrn    2.41772
_exptl_crystal_density_meas      ?
_exptl_crystal_density_method    'Not measured'
_pd_char_colour                  white
_pd_meas_number_of_points        8099
_pd_proc_2theta_range_inc        0.005
_pd_proc_2theta_range_max        44.49018
_pd_proc_2theta_range_min        4.00018
_pd_proc_ls_prof_R_factor        0.0493
_pd_proc_ls_prof_wR_expected     0.0592
_pd_proc_ls_prof_wR_factor       0.0678
_refine_ls_goodness_of_fit_all   1.14400
_refine_ls_number_parameters     50
_refine_ls_number_restraints     0
_refine_ls_R_I_factor            0.0355
_refine_ls_shift/su_max          0.001
_reflns_d_resolution_high        6.57920
_reflns_d_resolution_low         1.08102
_reflns_number_total             404
_cod_data_source_file            cg501189n_si_005.cif
_cod_data_source_block           InPTC
_cod_depositor_comments
;Adding full bibliography for 4511941--4511944.cif.

The following automatic conversions were performed:

'_exptl_crystal_density_meas' value 'Not measured' was changed to '?'
- the value is perceived as not measured.

Automatic conversion script
Id: cif_fix_values 3008 2015-01-20 13:52:24Z robertas 
;
_cod_database_code               4511941
loop_
_symmetry_equiv_pos_as_xyz
'x, y, z '
'-x, y, -z+1/2 '
'-x+1/2, -y+1/2, z+1/2 '
'-x+1/2, y+1/2, z '
'x, -y, z+1/2 '
'-x, -y, -z '
'x+1/2, -y+1/2, -z '
'x+1/2, y+1/2, -z+1/2 '
loop_
_atom_site_label
_atom_site_type_symbol
_atom_site_symmetry_multiplicity
_atom_site_fract_x
_atom_site_fract_y
_atom_site_fract_z
_atom_site_occupancy
_atom_site_B_iso_or_equiv
In1 In 0 0 -0.26824(15) 0.25 1 0.91(5)
O1 O 0 0.1275(8) -0.2001(10) 0.4024(7) 1 1.38(14)
O2 O 0 0.1981(6) 0.0038(15) 0.5190(9) 1 1.38(14)
O3 O 0 0.0873(8) 0.5077(9) 0.3170(7) 1 1.38(14)
O4 O 0 0.1882(7) -0.2647(12) 0.1321(6) 1 1.2(2)
N1 N 0 0 -0.0198(13) 0.25 1 0.70(16)
C1 C 0 0.1384(12) -0.0665(15) 0.4269(12) 1 0.70(16)
C2 C 0 0.0647(12) 0.0467(14) 0.3371(10) 1 0.70(16)
C3 C 0 0.0684(10) 0.2051(14) 0.3399(9) 1 0.70(16)
C4 C 0 0 0.267(2) 0.25 1 0.70(16)
C5 C 0 0 0.4387(17) 0.25 1 0.70(16)
loop_
_geom_angle_atom_site_label_1
_geom_angle_atom_site_label_2
_geom_angle_atom_site_label_3
_geom_angle
_geom_angle_site_symmetry_1
_geom_angle_site_symmetry_2
_geom_angle_site_symmetry_3
O1 In1 O1 147.3(5) 1_555 1_555 2_555
O4 In1 O1 90.2(3) 1_555 1_555 1_555
O4 In1 O1 89.4(3) 1_555 1_555 2_555
O4 In1 O4 178.4(5) 2_555 1_555 1_555
O4 In1 O1 89.4(3) 2_555 1_555 1_555
O4 In1 O1 90.2(3) 2_555 1_555 2_555
N1 In1 O4 89.2(3) 1_555 1_555 2_555
N1 In1 O4 89.2(3) 1_555 1_555 1_555
N1 In1 O1 73.6(2) 1_555 1_555 1_555
N1 In1 O1 73.6(2) 1_555 1_555 2_555
O3 In1 N1 151.0(2) 1_545 1_555 1_555
O3 In1 O4 96.6(3) 1_545 1_555 2_555
O3 In1 O4 84.9(3) 1_545 1_555 1_555
O3 In1 O1 78.0(3) 1_545 1_555 1_555
O3 In1 O1 134.5(3) 1_545 1_555 2_555
O3 In1 O3 58.1(4) 2_545 1_555 1_545
O3 In1 N1 151.0(2) 2_545 1_555 1_555
O3 In1 O4 84.9(3) 2_545 1_555 2_555
O3 In1 O4 96.6(3) 2_545 1_555 1_555
O3 In1 O1 134.5(3) 2_545 1_555 1_555
O3 In1 O1 78.0(3) 2_545 1_555 2_555
In1 O1 C1 119.5(8) 1_555 1_555 1_555
In1 O3 C5 90.0(7) 1_565 1_555 1_555
C2 N1 C2 125.0(14) 1_555 1_555 2_555
In1 N1 C2 117.5(7) 1_555 1_555 1_555
In1 N1 C2 117.5(7) 1_555 1_555 2_555
O2 C1 O1 131.8(12) 1_555 1_555 1_555
C2 C1 O2 111.7(11) 1_555 1_555 1_555
C2 C1 O1 116.5(11) 1_555 1_555 1_555
C3 C2 N1 119.3(11) 1_555 1_555 1_555
C1 C2 C3 127.9(10) 1_555 1_555 1_555
C1 C2 N1 112.7(11) 1_555 1_555 1_555
C2 C3 C4 113.1(11) 1_555 1_555 1_555
C3 C4 C3 130.1(18) 2_555 1_555 1_555
C5 C4 C3 115.0(9) 1_555 1_555 2_555
C5 C4 C3 115.0(9) 1_555 1_555 1_555
O3 C5 O3 122.0(14) 1_555 1_555 2_555
C4 C5 O3 119.0(7) 1_555 1_555 1_555
C4 C5 O3 119.0(7) 1_555 1_555 2_555
C3 C5 C4 29.6(3) 1_555 1_555 1_555
C3 C5 O3 90.2(6) 1_555 1_555 1_555
C3 C5 O3 147.1(9) 1_555 1_555 2_555
loop_
_geom_bond_atom_site_label_1
_geom_bond_atom_site_label_2
_geom_bond_distance
_geom_bond_site_symmetry_1
_geom_bond_site_symmetry_2
In1 O1 2.187(8) 1_555 2_555
In1 O1 2.187(8) 1_555 1_555
In1 O4 2.236(7) 1_555 1_555
In1 O4 2.236(7) 1_555 2_555
In1 N1 2.244(11) 1_555 1_555
In1 O3 2.316(8) 1_555 1_545
In1 O3 2.316(8) 1_555 2_545
O1 C1 1.242(16) 1_555 1_555
O1 In1 2.187(8) 1_555 1_555
O2 C1 1.339(16) 1_555 1_555
O3 C5 1.286(11) 1_555 1_555
O3 In1 2.316(8) 1_555 1_565
O4 In1 2.236(7) 1_555 1_555
N1 C2 1.301(13) 1_555 2_555
N1 C2 1.301(13) 1_555 1_555
N1 In1 2.244(11) 1_555 1_555
C1 O1 1.242(16) 1_555 1_555
C1 O2 1.339(16) 1_555 1_555
C1 C2 1.598(18) 1_555 1_555
C2 C3 1.432(18) 1_555 1_555
C2 C1 1.598(18) 1_555 1_555
C3 C4 1.325(13) 1_555 1_555
C3 C2 1.432(18) 1_555 1_555
C4 C3 1.325(13) 1_555 1_555
C4 C3 1.325(13) 1_555 2_555
C4 C5 1.55(2) 1_555 1_555
C5 O3 1.286(11) 1_555 2_555
C5 O3 1.286(11) 1_555 1_555
C5 C4 1.55(2) 1_555 1_555
loop_
_pd_proc_point_id
_pd_meas_2theta_scan
_pd_proc_intensity_total
_pd_calc_intensity_total
_pd_proc_ls_weight
1 4.00018 489.35191 478.21231 0.00209
2 4.00518 489.11984 469.66256 0.00213
3 4.01018 488.88866 482.29685 0.00207
4 4.01518 488.65836 465.78965 0.00215
5 4.02018 488.42894 454.49664 0.00220
6 4.02518 488.20039 469.40878 0.00213
7 4.03018 487.97272 447.52321 0.00223
8 4.03518 487.74592 491.34505 0.00204
9 4.04018 487.51998 469.86128 0.00213
10 4.04518 487.29491 493.01403 0.00203
11 4.05018 487.07071 490.33966 0.00204
12 4.05518 486.84736 464.76202 0.00215
13 4.06018 486.62487 472.64752 0.00212
14 4.06518 486.40324 467.39720 0.00214
15 4.07018 486.18246 467.61127 0.00214
16 4.07518 485.96252 477.04413 0.00210
17 4.08018 485.74344 491.34717 0.00204
18 4.08518 485.52519 474.42965 0.00211
19 4.09018 485.30779 463.07104 0.00216
20 4.09518 485.09122 466.31577 0.00214
21 4.10018 484.87549 479.69929 0.00208
22 4.10518 484.66060 484.03283 0.00207
23 4.11018 484.44653 496.39190 0.00201
24 4.11518 484.23329 482.37395 0.00207
25 4.12018 484.02088 474.64626 0.00211
26 4.12518 483.80929 477.90577 0.00209
27 4.13018 483.59852 477.85176 0.00209
28 4.13518 483.38856 486.82686 0.00205
29 4.14018 483.17942 481.10767 0.00208
30 4.14518 482.97109 473.63553 0.00211
31 4.15018 482.76357 475.87536 0.00210
32 4.15518 482.55686 455.63328 0.00219
33 4.16018 482.35095 452.26819 0.00221
34 4.16518 482.14584 487.20091 0.00205
35 4.17018 481.94153 472.93104 0.00211
36 4.17518 481.73802 455.54671 0.00220
37 4.18018 481.53530 459.76710 0.00218
38 4.18518 481.33337 460.08345 0.00217
39 4.19018 481.13223 472.87238 0.00211
40 4.19518 480.93188 485.32361 0.00206
41 4.20018 480.73231 471.90499 0.00212
42 4.20518 480.53352 465.79045 0.00215
43 4.21018 480.33551 486.32412 0.00206
44 4.21518 480.13827 458.85433 0.00218
45 4.22018 479.94180 454.15389 0.00220
46 4.22518 479.74611 463.26140 0.00216
47 4.23018 479.55119 468.94230 0.00213
48 4.23518 479.35703 469.35489 0.00213
49 4.24018 479.16363 481.86640 0.00208
50 4.24518 478.97099 486.34066 0.00206
51 4.25018 478.77911 495.20118 0.00202
52 4.25518 478.58799 465.29271 0.00215
53 4.26018 478.39762 476.59812 0.00210
54 4.26518 478.20800 469.09647 0.00213
55 4.27018 478.01912 464.89811 0.00215
56 4.27518 477.83100 459.04397 0.00218
57 4.28018 477.64361 469.11347 0.00213
58 4.28518 477.45697 463.56347 0.00216
59 4.29018 477.27106 482.99975 0.00207
60 4.29518 477.08589 474.51279 0.00211
61 4.30018 476.90145 473.65271 0.00211
62 4.30518 476.71775 491.75899 0.00203
63 4.31018 476.53477 485.40227 0.00206
64 4.31518 476.35251 490.50306 0.00204
65 4.32018 476.17098 470.97294 0.00212
66 4.32518 475.99017 465.90071 0.00215
67 4.33018 475.81008 465.35033 0.00215
68 4.33518 475.63071 465.30281 0.00215
69 4.34018 475.45204 449.41465 0.00223
70 4.34518 475.27409 459.73010 0.00218
71 4.35018 475.09685 449.14323 0.00223
72 4.35518 474.92031 462.94021 0.00216
73 4.36018 474.74448 486.89669 0.00205
74 4.36518 474.56935 476.58117 0.00210
75 4.37018 474.39492 480.50876 0.00208
76 4.37518 474.22118 460.62505 0.00217
77 4.38018 474.04814 469.21150 0.00213
78 4.38518 473.87579 448.41841 0.00223
79 4.39018 473.70413 468.82261 0.00213
80 4.39518 473.53316 453.52416 0.00220
81 4.40018 473.36287 462.87792 0.00216
82 4.40518 473.19327 460.65816 0.00217
83 4.41018 473.02434 463.06361 0.00216
84 4.41518 472.85609 464.53364 0.00215
85 4.42018 472.68852 437.41048 0.00229
86 4.42518 472.52162 470.89763 0.00212
87 4.43018 472.35539 466.40022 0.00214
88 4.43518 472.18983 455.53187 0.00220
89 4.44018 472.02494 466.98839 0.00214
90 4.44518 471.86071 502.80761 0.00199
91 4.45018 471.69714 487.78432 0.00205
92 4.45518 471.53423 475.94821 0.00210
93 4.46018 471.37197 475.71439 0.00210
94 4.46518 471.21037 442.95535 0.00226
95 4.47018 471.04943 458.77150 0.00218
96 4.47518 470.88913 474.76366 0.00211
97 4.48018 470.72948 453.17797 0.00221
98 4.48518 470.57048 470.45502 0.00213
99 4.49018 470.41212 466.66612 0.00214
100 4.49518 470.25440 469.14154 0.00213
101 4.50018 470.09732 452.34654 0.00221
102 4.50518 469.94087 483.47357 0.00207
103 4.51018 469.78506 443.06383 0.00226
104 4.51518 469.62988 461.59969 0.00217
105 4.52018 469.47533 459.36303 0.00218
106 4.52518 469.32141 463.88951 0.00216
107 4.53018 469.16811 483.59760 0.00207
108 4.53518 469.01543 455.67639 0.00219
109 4.54018 468.86338 501.63846 0.00199
110 4.54518 468.71194 479.96704 0.00208
111 4.55018 468.56112 466.13280 0.00215
112 4.55518 468.41092 467.47517 0.00214
113 4.56018 468.26132 463.54670 0.00216
114 4.56518 468.11234 461.64404 0.00217
115 4.57018 467.96396 432.94696 0.00231
116 4.57518 467.81619 456.07507 0.00219
117 4.58018 467.66902 497.88817 0.00201
118 4.58518 467.52245 474.85351 0.00211
119 4.59018 467.37648 467.25222 0.00214
120 4.59518 467.23111 479.54226 0.00209
121 4.60018 467.08633 479.10463 0.00209
122 4.60518 466.94214 439.93788 0.00227
123 4.61018 466.79854 453.38731 0.00221
124 4.61518 466.65553 484.33221 0.00206
125 4.62018 466.51311 452.15334 0.00221
126 4.62518 466.37127 439.68325 0.00227
127 4.63018 466.23001 465.09941 0.00215
128 4.63518 466.08933 458.37565 0.00218
129 4.64018 465.94922 446.51563 0.00224
130 4.64518 465.80970 427.55689 0.00234
131 4.65018 465.67074 461.27600 0.00217
132 4.65518 465.53235 430.71775 0.00232
133 4.66018 465.39454 434.35005 0.00230
134 4.66518 465.25729 460.62489 0.00217
135 4.67018 465.12060 463.05464 0.00216
136 4.67518 464.98448 440.24799 0.00227
137 4.68018 464.84891 456.36304 0.00219
138 4.68518 464.71391 464.33551 0.00215
139 4.69018 464.57946 466.20764 0.00214
140 4.69518 464.44556 460.17036 0.00217
141 4.70018 464.31222 486.87485 0.00205
142 4.70518 464.17942 482.01995 0.00207
143 4.71018 464.04718 477.33483 0.00209
144 4.71518 463.91548 457.74035 0.00218
145 4.72018 463.78432 489.97490 0.00204
146 4.72518 463.65370 460.68477 0.00217
147 4.73018 463.52362 453.97729 0.00220
148 4.73518 463.39408 493.21758 0.00203
149 4.74018 463.26508 493.37100 0.00203
150 4.74518 463.13661 483.51388 0.00207
151 4.75018 463.00867 476.53877 0.00210
152 4.75518 462.88126 495.73182 0.00202
153 4.76018 462.75437 523.41720 0.00191
154 4.76518 462.62802 544.78226 0.00184
155 4.77018 462.50218 557.27886 0.00179
156 4.77518 462.37687 551.79431 0.00181
157 4.78018 462.25207 527.75656 0.00189
158 4.78518 462.12779 522.62319 0.00191
159 4.79018 462.00403 534.19977 0.00187
160 4.79518 461.88078 475.03093 0.00211
161 4.80018 461.75804 478.15992 0.00209
162 4.80518 461.63581 462.29775 0.00216
163 4.81018 461.51409 482.51355 0.00207
164 4.81518 461.39287 458.66968 0.00218
165 4.82018 461.27216 470.20833 0.00213
166 4.82518 461.15195 470.59597 0.00212
167 4.83018 461.03223 479.59634 0.00209
168 4.83518 460.91302 448.35553 0.00223
169 4.84018 460.79430 462.93235 0.00216
170 4.84518 460.67607 452.76814 0.00221
171 4.85018 460.55833 494.13660 0.00202
172 4.85518 460.44109 481.16548 0.00208
173 4.86018 460.32433 472.05428 0.00212
174 4.86518 460.20805 471.08768 0.00212
175 4.87018 460.09226 482.93061 0.00207
176 4.87518 459.97696 451.11357 0.00222
177 4.88018 459.86213 505.24563 0.00198
178 4.88518 459.74778 466.70004 0.00214
179 4.89018 459.63390 441.56424 0.00226
180 4.89518 459.52050 477.11453 0.00210
181 4.90018 459.40758 454.43557 0.00220
182 4.90518 459.29512 457.73863 0.00218
183 4.91018 459.18313 467.53725 0.00214
184 4.91518 459.07161 441.58293 0.00226
185 4.92018 458.96832 465.16102 0.00215
186 4.92518 458.85776 468.05635 0.00214
187 4.93018 458.74766 461.47108 0.00217
188 4.93518 458.63802 457.60440 0.00219
189 4.94018 458.52884 447.84820 0.00223
190 4.94518 458.42011 471.15806 0.00212
191 4.95018 458.31183 471.58085 0.00212
192 4.95518 458.20401 476.45690 0.00210
193 4.96018 458.09664 456.21912 0.00219
194 4.96518 457.98972 450.84358 0.00222
195 4.97018 457.88324 467.80376 0.00214
196 4.97518 457.77720 465.79361 0.00215
197 4.98018 457.67161 464.45740 0.00215
198 4.98518 457.56646 468.73538 0.00213
199 4.99018 457.46175 468.30932 0.00214
200 4.99518 457.35748 432.75835 0.00231
201 5.00018 457.25364 450.68111 0.00222
202 5.00518 457.15023 463.40514 0.00216
203 5.01018 457.04726 458.32507 0.00218
204 5.01518 456.94472 460.90456 0.00217
205 5.02018 456.84260 455.68779 0.00219
206 5.02518 456.74091 464.04289 0.00215
207 5.03018 456.63965 477.29751 0.00210
208 5.03518 456.53881 468.10001 0.00214
209 5.04018 456.43838 474.89014 0.00211
210 5.04518 456.33838 487.95107 0.00205
211 5.05018 456.23880 430.13412 0.00232
212 5.05518 456.13963 464.37737 0.00215
213 5.06018 456.04087 496.41486 0.00201
214 5.06518 455.94253 477.97350 0.00209
215 5.07018 455.84460 493.74502 0.00203
216 5.07518 455.74707 474.11693 0.00211
217 5.08018 455.64996 470.13427 0.00213
218 5.08518 455.55324 467.26452 0.00214
219 5.09018 455.45694 450.68985 0.00222
220 5.09518 455.36103 456.96583 0.00219
221 5.10018 455.26552 456.11862 0.00219
222 5.10518 455.17041 467.52521 0.00214
223 5.11018 455.07570 450.15072 0.00222
224 5.11518 454.98138 487.27931 0.00205
225 5.12018 454.88745 420.38230 0.00238
226 5.12518 454.79392 458.94564 0.00218
227 5.13018 454.70078 453.55624 0.00220
228 5.13518 454.60802 459.88984 0.00217
229 5.14018 454.51565 494.74278 0.00202
230 5.14518 454.42366 452.00000 0.00221
231 5.15018 454.33206 467.53557 0.00214
232 5.15518 454.24084 438.26876 0.00228
233 5.16018 454.14999 462.64279 0.00216
234 5.16518 454.05953 448.16977 0.00223
235 5.17018 453.96944 440.13264 0.00227
236 5.17518 453.87972 456.47644 0.00219
237 5.18018 453.79038 457.88263 0.00218
238 5.18518 453.70141 432.00960 0.00231
239 5.19018 453.61281 433.81840 0.00231
240 5.19518 453.52457 435.58919 0.00230
241 5.20018 453.43670 447.25631 0.00224
242 5.20518 453.34920 456.25919 0.00219
243 5.21018 453.26206 467.25001 0.00214
244 5.21518 453.17528 440.13957 0.00227
245 5.22018 453.08886 475.53037 0.00210
246 5.22518 453.00279 450.11050 0.00222
247 5.23018 452.91709 436.51018 0.00229
248 5.23518 452.83174 466.79691 0.00214
249 5.24018 452.74674 449.56065 0.00222
250 5.24518 452.66209 466.13633 0.00215
251 5.25018 452.57779 465.11003 0.00215
252 5.25518 452.49384 467.96803 0.00214
253 5.26018 452.41023 481.24417 0.00208
254 5.26518 452.32697 442.02885 0.00226
255 5.27018 452.24406 475.45956 0.00210
256 5.27518 452.16148 455.10717 0.00220
257 5.28018 452.07925 444.80259 0.00225
258 5.28518 451.99735 463.80896 0.00216
259 5.29018 451.91580 455.77771 0.00219
260 5.29518 451.83457 467.23591 0.00214
261 5.30018 451.75368 488.12892 0.00205
262 5.30518 451.67313 461.72701 0.00217
263 5.31018 451.59290 488.77260 0.00205
264 5.31518 451.51300 457.85095 0.00218
265 5.32018 451.43343 471.97171 0.00212
266 5.32518 451.35418 482.50816 0.00207
267 5.33018 451.27526 456.48283 0.00219
268 5.33518 451.19667 490.15135 0.00204
269 5.34018 451.11839 449.06423 0.00223
270 5.34518 451.04043 442.71164 0.00226
271 5.35018 450.96280 459.16797 0.00218
272 5.35518 450.88547 458.42941 0.00218
273 5.36018 450.80847 471.69682 0.00212
274 5.36518 450.73178 448.79964 0.00223
275 5.37018 450.65539 460.77139 0.00217
276 5.37518 450.57932 476.20998 0.00210
277 5.38018 450.50356 459.53083 0.00218
278 5.38518 450.42811 456.55688 0.00219
279 5.39018 450.35296 439.82871 0.00227
280 5.39518 450.27812 453.88664 0.00220
281 5.40018 450.20358 459.99580 0.00217
282 5.40518 450.12934 450.04954 0.00222
283 5.41018 450.05540 442.04167 0.00226
284 5.41518 449.98176 457.73089 0.00218
285 5.42018 449.90842 471.25745 0.00212
286 5.42518 449.83537 468.54635 0.00213
287 5.43018 449.76262 438.76035 0.00228
288 5.43518 449.69015 433.95905 0.00230
289 5.44018 449.61798 464.62543 0.00215
290 5.44518 449.54610 475.92052 0.00210
291 5.45018 449.47451 406.38785 0.00246
292 5.45518 449.40321 451.46143 0.00222
293 5.46018 449.33219 447.28180 0.00224
294 5.46518 449.26145 460.88224 0.00217
295 5.47018 449.19100 433.24577 0.00231
296 5.47518 449.12082 434.40389 0.00230
297 5.48018 449.05093 461.04017 0.00217
298 5.48518 448.98132 458.00533 0.00218
299 5.49018 448.91198 444.38104 0.00225
300 5.49518 448.84291 446.91773 0.00224
301 5.50018 448.77412 432.03529 0.00231
302 5.50518 448.70561 446.76358 0.00224
303 5.51018 448.63736 457.58700 0.00219
304 5.51518 448.56938 431.94202 0.00232
305 5.52018 448.50167 480.03638 0.00208
306 5.52518 448.43423 454.88757 0.00220
307 5.53018 448.36705 452.61014 0.00221
308 5.53518 448.30014 468.40072 0.00213
309 5.54018 448.23349 481.59285 0.00208
310 5.54518 448.16710 465.53114 0.00215
311 5.55018 448.10097 448.63240 0.00223
312 5.55518 448.03510 459.73717 0.00218
313 5.56018 447.96949 458.16857 0.00218
314 5.56518 447.90413 457.92793 0.00218
315 5.57018 447.83902 446.86687 0.00224
316 5.57518 447.77417 451.26304 0.00222
317 5.58018 447.70957 460.80394 0.00217
318 5.58518 447.64522 447.39593 0.00224
319 5.59018 447.58112 458.22638 0.00218
320 5.59518 447.51726 465.86917 0.00215
321 5.60018 447.45365 448.97295 0.00223
322 5.60518 447.39029 463.54627 0.00216
323 5.61018 447.32717 458.46512 0.00218
324 5.61518 447.26429 444.13437 0.00225
325 5.62018 447.20165 451.42624 0.00222
326 5.62518 447.13925 460.49665 0.00217
327 5.63018 447.07709 442.32453 0.00226
328 5.63518 447.01517 465.56175 0.00215
329 5.64018 446.95348 453.90130 0.00220
330 5.64518 446.89203 447.31826 0.00224
331 5.65018 446.83080 455.15297 0.00220
332 5.65518 446.76981 455.82253 0.00219
333 5.66018 446.70905 461.30450 0.00217
334 5.66518 446.64852 449.72861 0.00222
335 5.67018 446.58821 441.00013 0.00227
336 5.67518 446.52814 460.81032 0.00217
337 5.68018 446.46828 451.21382 0.00222
338 5.68518 446.40865 461.31950 0.00217
339 5.69018 446.34924 451.28564 0.00222
340 5.69518 446.29006 450.74752 0.00222
341 5.70018 446.23109 458.76998 0.00218
342 5.70518 446.17234 452.81247 0.00221
343 5.71018 446.11381 446.90899 0.00224
344 5.71518 446.05549 458.28630 0.00218
345 5.72018 445.99739 466.11300 0.00215
346 5.72518 445.93950 450.36643 0.00222
347 5.73018 445.88182 437.40879 0.00229
348 5.73518 445.82436 453.56124 0.00220
349 5.74018 445.76710 455.81073 0.00219
350 5.74518 445.71005 437.73172 0.00228
351 5.75018 445.65321 472.30318 0.00212
352 5.75518 445.59658 437.50707 0.00229
353 5.76018 445.54015 443.71176 0.00225
354 5.76518 445.48392 461.86813 0.00217
355 5.77018 445.42789 461.24004 0.00217
356 5.77518 445.37207 459.19152 0.00218
357 5.78018 445.31645 459.55774 0.00218
358 5.78518 445.26102 444.54374 0.00225
359 5.79018 445.20579 442.14407 0.00226
360 5.79518 445.15076 436.40073 0.00229
361 5.80018 445.09592 453.51618 0.00220
362 5.80518 445.04127 456.87554 0.00219
363 5.81018 444.98682 431.45484 0.00232
364 5.81518 444.93256 456.09517 0.00219
365 5.82018 444.87849 445.06890 0.00225
366 5.82518 444.82460 436.19970 0.00229
367 5.83018 444.77091 438.26779 0.00228
368 5.83518 444.71740 435.46854 0.00230
369 5.84018 444.66408 442.71017 0.00226
370 5.84518 444.61094 457.08313 0.00219
371 5.85018 444.55798 445.49112 0.00224
372 5.85518 444.50520 449.41095 0.00223
373 5.86018 444.45261 460.51750 0.00217
374 5.86518 444.40019 453.28489 0.00221
375 5.87018 444.34796 435.25287 0.00230
376 5.87518 444.29589 449.36887 0.00223
377 5.88018 444.24401 438.33753 0.00228
378 5.88518 444.19230 452.82277 0.00221
379 5.89018 444.14076 441.32872 0.00227
380 5.89518 444.08940 440.93683 0.00227
381 5.90018 444.03821 451.96725 0.00221
382 5.90518 443.98718 465.61972 0.00215
383 5.91018 443.93633 438.02634 0.00228
384 5.91518 443.88564 444.40849 0.00225
385 5.92018 443.83513 436.88645 0.00229
386 5.92518 443.78477 452.68248 0.00221
387 5.93018 443.73458 445.39210 0.00225
388 5.93518 443.68456 454.25848 0.00220
389 5.94018 443.63469 442.27525 0.00226
390 5.94518 443.58499 447.41987 0.00224
391 5.95018 443.53545 441.86119 0.00226
392 5.95518 443.48607 458.88891 0.00218
393 5.96018 443.43684 437.79476 0.00228
394 5.96518 443.38777 449.67291 0.00222
395 5.97018 443.33886 450.02254 0.00222
396 5.97518 443.29010 443.76285 0.00225
397 5.98018 443.24150 453.81267 0.00220
398 5.98518 443.19304 453.73763 0.00220
399 5.99018 443.14474 440.22400 0.00227
400 5.99518 443.09659 451.60766 0.00221
401 6.00018 443.04859 446.48923 0.00224
402 6.00518 443.00074 459.77692 0.00217
403 6.01018 442.95303 447.12034 0.00224
404 6.01518 442.90547 447.19642 0.00224
405 6.02018 442.85805 437.55883 0.00229
406 6.02518 442.81078 445.35759 0.00225
407 6.03018 442.76365 461.74430 0.00217
408 6.03518 442.71667 451.97067 0.00221
409 6.04018 442.66982 451.37935 0.00222
410 6.04518 442.62312 456.26305 0.00219
411 6.05018 442.57655 442.19874 0.00226
412 6.05518 442.53012 434.97014 0.00230
413 6.06018 442.48383 451.33986 0.00222
414 6.06518 442.68750 424.70572 0.00235
415 6.07018 442.64255 452.44212 0.00221
416 6.07518 442.59774 452.69007 0.00221
417 6.08018 442.55307 436.39833 0.00229
418 6.08518 442.50854 441.77734 0.00226
419 6.09018 442.46414 444.91380 0.00225
420 6.09518 442.41989 446.14273 0.00224
421 6.10018 442.37577 441.69959 0.00226
422 6.10518 442.33178 450.58777 0.00222
423 6.11018 442.28793 446.07420 0.00224
424 6.11518 442.24421 453.93239 0.00220
425 6.12018 442.20062 420.94666 0.00238
426 6.12518 442.15717 452.15081 0.00221
427 6.13018 442.11384 430.35937 0.00232
428 6.13518 442.07065 436.93538 0.00229
429 6.14018 442.02758 437.25523 0.00229
430 6.14518 441.98464 425.78274 0.00235
431 6.15018 441.94183 466.00616 0.00215
432 6.15518 441.89915 452.13489 0.00221
433 6.16018 441.85659 450.50217 0.00222
434 6.16518 441.81415 447.81964 0.00223
435 6.17018 441.77184 432.97292 0.00231
436 6.17518 441.72965 435.24898 0.00230
437 6.18018 441.68759 417.34307 0.00240
438 6.18518 441.76944 432.03394 0.00231
439 6.19018 441.72814 464.18502 0.00215
440 6.19518 441.68697 439.43515 0.00228
441 6.20018 441.64592 446.20786 0.00224
442 6.20518 441.60499 451.05963 0.00222
443 6.21018 441.56418 446.07124 0.00224
444 6.21518 441.52349 448.38807 0.00223
445 6.22018 441.48292 439.06953 0.00228
446 6.22518 441.44247 438.97128 0.00228
447 6.23018 441.40214 444.51021 0.00225
448 6.23518 441.36192 432.14927 0.00231
449 6.24018 441.32182 428.76713 0.00233
450 6.24518 441.28183 447.63711 0.00223
451 6.25018 441.24196 459.26290 0.00218
452 6.25518 441.20220 447.06183 0.00224
453 6.26018 441.16256 447.14373 0.00224
454 6.26518 441.12303 447.12257 0.00224
455 6.27018 441.08360 445.47778 0.00224
456 6.27518 441.04430 425.75381 0.00235
457 6.28018 441.00510 446.87401 0.00224
458 6.28518 440.96601 436.56698 0.00229
459 6.29018 440.92703 425.08091 0.00235
460 6.29518 440.88815 432.66161 0.00231
461 6.30018 440.84939 442.29377 0.00226
462 6.30518 440.81073 459.99501 0.00217
463 6.31018 440.77218 439.96893 0.00227
464 6.31518 440.73374 446.05641 0.00224
465 6.32018 440.69540 457.17898 0.00219
466 6.32518 440.65716 432.85347 0.00231
467 6.33018 440.61903 440.03939 0.00227
468 6.33518 440.58100 455.40000 0.00220
469 6.34018 440.54308 438.36450 0.00228
470 6.34518 440.50526 445.23437 0.00225
471 6.35018 440.46754 446.71270 0.00224
472 6.35518 440.42992 444.36361 0.00225
473 6.36018 440.39240 444.42308 0.00225
474 6.36518 440.35498 438.53558 0.00228
475 6.37018 440.31767 444.97541 0.00225
476 6.37518 440.28045 457.88827 0.00218
477 6.38018 440.24333 446.51270 0.00224
478 6.38518 440.20631 465.17274 0.00215
479 6.39018 440.16938 446.12665 0.00224
480 6.39518 440.13256 423.54171 0.00236
481 6.40018 440.09583 451.56467 0.00221
482 6.40518 440.05920 427.93468 0.00234
483 6.41018 440.02266 450.61302 0.00222
484 6.41518 439.98622 450.60301 0.00222
485 6.42018 439.94987 442.82983 0.00226
486 6.42518 439.91362 435.57262 0.00230
487 6.43018 439.87747 437.07014 0.00229
488 6.43518 439.84141 419.57411 0.00238
489 6.44018 439.80544 416.49316 0.00240
490 6.44518 439.76957 453.34629 0.00221
491 6.45018 439.73379 445.87719 0.00224
492 6.45518 439.69810 434.95313 0.00230
493 6.46018 439.66251 444.07923 0.00225
494 6.46518 439.62701 460.52333 0.00217
495 6.47018 439.59160 435.97360 0.00229
496 6.47518 439.55628 446.75242 0.00224
497 6.48018 439.52106 434.17640 0.00230
498 6.48518 439.48593 445.13348 0.00225
499 6.49018 439.45089 456.91624 0.00219
500 6.49518 439.41594 437.43569 0.00229
501 6.50018 439.38108 441.70535 0.00226
502 6.50518 439.34631 441.33141 0.00227
503 6.51018 439.31164 452.40161 0.00221
504 6.51518 439.27706 449.08623 0.00223
505 6.52018 439.24257 432.68615 0.00231
506 6.52518 439.20817 435.58971 0.00230
507 6.53018 439.17386 432.23333 0.00231
508 6.53518 439.13964 450.78547 0.00222
509 6.54018 439.10552 453.83693 0.00220
510 6.54518 439.07148 436.87564 0.00229
511 6.55018 439.03754 419.48404 0.00238
512 6.55518 439.00370 449.22505 0.00223
513 6.56018 438.96994 442.16223 0.00226
514 6.56518 438.93628 449.14975 0.00223
515 6.57018 438.90271 414.19385 0.00241
516 6.57518 438.86923 448.38509 0.00223
517 6.58018 438.83585 437.51916 0.00229
518 6.58518 438.80256 432.17727 0.00231
519 6.59018 438.76936 451.71898 0.00221
520 6.59518 438.73627 442.00079 0.00226
521 6.60018 438.70326 445.24971 0.00225
522 6.60518 438.67036 447.03682 0.00224
523 6.61018 438.63755 449.12769 0.00223
524 6.61518 438.60484 442.80689 0.00226
525 6.62018 438.57222 443.76723 0.00225
526 6.62518 438.53971 415.08757 0.00241
527 6.63018 438.50730 447.43233 0.00223
528 6.63518 438.47498 439.33904 0.00228
529 6.64018 438.44277 432.03269 0.00231
530 6.64518 438.41067 423.15667 0.00236
531 6.65018 438.37866 426.75295 0.00234
532 6.65518 438.34677 424.88405 0.00235
533 6.66018 438.31498 435.29663 0.00230
534 6.66518 438.28329 446.90198 0.00224
535 6.67018 438.25172 447.78711 0.00223
536 6.67518 438.22026 462.92926 0.00216
537 6.68018 438.18891 457.14534 0.00219
538 6.68518 438.15768 425.88133 0.00235
539 6.69018 438.12656 418.61919 0.00239
540 6.69518 438.09556 417.94372 0.00239
541 6.70018 438.06468 416.15966 0.00240
542 6.70518 438.03393 463.06994 0.00216
543 6.71018 438.00330 411.82309 0.00243
544 6.71518 437.97279 439.30384 0.00228
545 6.72018 437.94242 420.66199 0.00238
546 6.72518 437.91218 431.68674 0.00232
547 6.73018 437.88207 422.20954 0.00237
548 6.73518 437.85211 438.03546 0.00228
549 6.74018 437.82228 419.48850 0.00238
550 6.74518 437.79260 433.98614 0.00230
551 6.75018 437.76307 434.73379 0.00230
552 6.75518 437.73369 432.52630 0.00231
553 6.76018 437.70447 433.75254 0.00231
554 6.76518 437.67540 422.86219 0.00236
555 6.77018 437.64651 432.90032 0.00231
556 6.77518 437.61778 457.19735 0.00219
557 6.78018 437.58923 446.88380 0.00224
558 6.78518 437.56085 435.19131 0.00230
559 6.79018 437.53267 460.92676 0.00217
560 6.79518 437.50467 458.89324 0.00218
561 6.80018 437.47688 459.21671 0.00218
562 6.80518 437.44929 443.20037 0.00226
563 6.81018 437.42191 429.62868 0.00233
564 6.81518 437.39475 413.95355 0.00242
565 6.82018 437.36781 423.93312 0.00236
566 6.82518 437.34112 446.86227 0.00224
567 6.83018 437.31466 450.70989 0.00222
568 6.83518 437.28847 451.03355 0.00222
569 6.84018 437.26253 446.81831 0.00224
570 6.84518 437.23688 461.48819 0.00217
571 6.85018 437.21150 429.43610 0.00233
572 6.85518 437.18643 419.95642 0.00238
573 6.86018 437.16167 431.87343 0.00232
574 6.86518 437.13724 452.74676 0.00221
575 6.87018 437.11315 444.63785 0.00225
576 6.87518 437.08941 456.42208 0.00219
577 6.88018 437.06605 442.63856 0.00226
578 6.88518 437.04308 428.06166 0.00234
579 6.89018 437.02052 440.62975 0.00227
580 6.89518 436.99840 441.44047 0.00227
581 6.90018 436.97673 427.01686 0.00234
582 6.90518 436.95554 453.53067 0.00220
583 6.91018 436.93485 435.81225 0.00229
584 6.91518 436.91470 422.04118 0.00237
585 6.92018 436.89510 431.66195 0.00232
586 6.92518 436.87610 428.25617 0.00234
587 6.93018 436.85774 422.67469 0.00237
588 6.93518 436.84003 422.46565 0.00237
589 6.94018 436.82304 425.55333 0.00235
590 6.94518 436.80679 426.58564 0.00234
591 6.95018 436.79135 442.53353 0.00226
592 6.95518 436.77675 429.80417 0.00233
593 6.96018 436.76306 429.90998 0.00233
594 6.96518 436.75034 446.45829 0.00224
595 6.97018 436.73865 454.90050 0.00220
596 6.97518 436.72807 440.40389 0.00227
597 6.98018 436.71868 426.85354 0.00234
598 6.98518 436.71056 442.74105 0.00226
599 6.99018 436.70380 443.33033 0.00226
600 6.99518 436.69852 422.68749 0.00237
601 7.00018 436.69483 443.32474 0.00226
602 7.00518 436.69285 447.03276 0.00224
603 7.01018 436.69273 438.54634 0.00228
604 7.01518 436.69462 435.12682 0.00230
605 7.02018 436.69869 438.79370 0.00228
606 7.02518 436.70514 439.93598 0.00227
607 7.03018 436.71417 431.17825 0.00232
608 7.03518 436.72603 422.44838 0.00237
609 7.04018 436.74097 436.60350 0.00229
610 7.04518 436.75931 438.03350 0.00228
611 7.05018 436.78137 421.31977 0.00237
612 7.05518 436.80753 435.33629 0.00230
613 7.06018 436.83822 439.39407 0.00228
614 7.06518 436.87392 432.39808 0.00231
615 7.07018 436.91520 410.75955 0.00243
616 7.07518 436.96267 415.80764 0.00240
617 7.08018 437.01706 442.28005 0.00226
618 7.08518 437.07921 393.83776 0.00254
619 7.09018 437.15006 409.48347 0.00244
620 7.09518 437.23074 455.84018 0.00219
621 7.10018 437.32252 453.71394 0.00220
622 7.10518 437.42693 444.63601 0.00225
623 7.11018 437.54574 431.19998 0.00232
624 7.11518 437.68104 423.17250 0.00236
625 7.12018 437.83532 443.89743 0.00225
626 7.12518 438.01158 405.32186 0.00247
627 7.13018 438.21344 414.87885 0.00241
628 7.13518 438.44543 443.04862 0.00226
629 7.14018 438.71338 446.75575 0.00224
630 7.14518 439.02526 463.80596 0.00216
631 7.15018 439.39276 439.31038 0.00228
632 7.15518 439.83429 442.71781 0.00226
633 7.16018 440.38052 439.96751 0.00227
634 7.16518 441.08382 441.79174 0.00226
635 7.17018 442.03323 421.09248 0.00237
636 7.17518 443.37583 452.89042 0.00221
637 7.18018 445.34355 442.29571 0.00226
638 7.18518 448.28051 447.38708 0.00224
639 7.19018 452.66098 437.44761 0.00229
640 7.19518 459.08247 433.67350 0.00231
641 7.20018 468.21673 452.01942 0.00221
642 7.20518 480.70558 481.94110 0.00207
643 7.21018 497.00190 484.18570 0.00207
644 7.21518 517.17561 487.61870 0.00205
645 7.22018 540.72071 539.46240 0.00185
646 7.22518 566.40064 555.92006 0.00180
647 7.23018 592.15393 592.29776 0.00169
648 7.23518 615.09293 627.22353 0.00159
649 7.24018 631.75123 609.60417 0.00164
650 7.24518 638.90084 687.25378 0.00146
651 7.25018 634.92372 681.71721 0.00147
652 7.25518 620.72903 690.20981 0.00145
653 7.26018 599.21920 633.05952 0.00158
654 7.26518 573.90819 552.96679 0.00181
655 7.27018 547.89948 531.35490 0.00188
656 7.27518 523.50488 497.45743 0.00201
657 7.28018 502.19795 476.12873 0.00210
658 7.28518 484.68688 461.28418 0.00217
659 7.29018 471.05294 473.21159 0.00211
660 7.29518 460.93544 469.91713 0.00213
661 7.30018 453.72971 471.22381 0.00212
662 7.30518 448.75936 431.33606 0.00232
663 7.31018 445.39752 438.25124 0.00228
664 7.31518 443.13122 429.59689 0.00233
665 7.32018 441.57898 448.07939 0.00223
666 7.32518 440.47839 454.10426 0.00220
667 7.33018 439.66026 443.84774 0.00225
668 7.33518 439.02091 447.94738 0.00223
669 7.34018 438.49900 443.01679 0.00226
670 7.34518 438.05864 466.56881 0.00214
671 7.35018 437.67854 458.32548 0.00218
672 7.35518 437.34543 441.20604 0.00227
673 7.36018 437.05045 435.77336 0.00229
674 7.36518 436.78726 465.05832 0.00215
675 7.37018 436.55101 466.10313 0.00215
676 7.37518 436.33784 443.13196 0.00226
677 7.38018 436.14459 457.94155 0.00218
678 7.38518 435.96865 444.43746 0.00225
679 7.39018 435.80781 428.74983 0.00233
680 7.39518 435.66022 432.09220 0.00231
681 7.40018 435.52430 445.17218 0.00225
682 7.40518 435.39870 448.87745 0.00223
683 7.41018 435.28227 429.92628 0.00233
684 7.41518 435.17401 460.58773 0.00217
685 7.42018 435.07307 452.13298 0.00221
686 7.42518 434.97869 446.72922 0.00224
687 7.43018 434.89023 440.16316 0.00227
688 7.43518 434.80712 432.46001 0.00231
689 7.44018 434.72885 445.70784 0.00224
690 7.44518 434.65500 447.93617 0.00223
691 7.45018 434.58517 456.34871 0.00219
692 7.45518 434.51903 426.61940 0.00234
693 7.46018 434.45628 416.34233 0.00240
694 7.46518 434.39664 469.13479 0.00213
695 7.47018 434.33988 441.43256 0.00227
696 7.47518 434.28578 424.24740 0.00236
697 7.48018 434.23416 439.64206 0.00227
698 7.48518 434.18484 446.69567 0.00224
699 7.49018 434.13768 426.03568 0.00235
700 7.49518 434.09254 433.57405 0.00231
701 7.50018 434.05852 414.96752 0.00241
702 7.50518 434.01709 418.44336 0.00239
703 7.51018 433.97735 442.58459 0.00226
704 7.51518 433.93920 426.27243 0.00235
705 7.52018 433.90257 438.19694 0.00228
706 7.52518 433.86739 442.66320 0.00226
707 7.53018 433.83358 446.16875 0.00224
708 7.53518 433.80110 452.63251 0.00221
709 7.54018 433.76988 431.57917 0.00232
710 7.54518 433.73989 423.79272 0.00236
711 7.55018 433.71107 442.14096 0.00226
712 7.55518 433.68340 439.48448 0.00228
713 7.56018 433.75562 417.62027 0.00239
714 7.56518 433.73055 451.59068 0.00221
715 7.57018 433.70654 421.13221 0.00237
716 7.57518 433.68355 460.62550 0.00217
717 7.58018 433.66157 427.93123 0.00234
718 7.58518 433.64059 418.64646 0.00239
719 7.59018 433.62059 449.92912 0.00222
720 7.59518 433.60155 415.53719 0.00241
721 7.60018 433.58346 411.85105 0.00243
722 7.60518 433.56632 409.90324 0.00244
723 7.61018 433.55013 444.56670 0.00225
724 7.61518 433.53487 438.41764 0.00228
725 7.62018 433.52054 432.50485 0.00231
726 7.62518 433.50715 452.72376 0.00221
727 7.63018 433.49469 416.63368 0.00240
728 7.63518 433.48316 404.42447 0.00247
729 7.64018 433.47258 417.87532 0.00239
730 7.64518 433.46295 422.18892 0.00237
731 7.65018 433.45426 436.45090 0.00229
732 7.65518 433.44654 429.95704 0.00233
733 7.66018 433.43979 421.98469 0.00237
734 7.66518 433.43402 415.87481 0.00240
735 7.67018 433.42924 425.23844 0.00235
736 7.67518 433.42548 427.61507 0.00234
737 7.68018 433.42273 422.76050 0.00237
738 7.68518 433.42103 441.75887 0.00226
739 7.69018 433.42038 447.96020 0.00223
740 7.69518 433.42080 440.37235 0.00227
741 7.70018 433.42233 454.02805 0.00220
742 7.70518 433.42497 441.06900 0.00227
743 7.71018 433.42875 431.26592 0.00232
744 7.71518 433.43369 449.92591 0.00222
745 7.72018 433.43983 414.96406 0.00241
746 7.72518 433.44718 435.63572 0.00230
747 7.73018 433.45578 440.18584 0.00227
748 7.73518 433.46565 413.78476 0.00242
749 7.74018 433.47683 414.72282 0.00241
750 7.74518 433.48936 421.25481 0.00237
751 7.75018 433.50325 437.37684 0.00229
752 7.75518 433.51856 433.05063 0.00231
753 7.76018 433.53532 428.30969 0.00233
754 7.76518 433.55357 427.13576 0.00234
755 7.77018 433.57335 432.06248 0.00231
756 7.77518 433.59471 409.68247 0.00244
757 7.78018 433.61769 433.06169 0.00231
758 7.78518 433.64233 418.60467 0.00239
759 7.79018 433.66870 417.79097 0.00239
760 7.79518 433.69683 431.07620 0.00232
761 7.80018 433.72680 444.37986 0.00225
762 7.80518 433.75864 416.93872 0.00240
763 7.81018 433.79243 399.77229 0.00250
764 7.81518 433.82822 418.19076 0.00239
765 7.82018 433.86607 409.01700 0.00244
766 7.82518 433.90607 442.90188 0.00226
767 7.83018 433.94827 408.97660 0.00245
768 7.83518 433.99276 431.41957 0.00232
769 7.84018 434.03961 441.27567 0.00227
770 7.84518 434.08889 436.94983 0.00229
771 7.85018 434.14070 442.62245 0.00226
772 7.85518 434.19513 414.19718 0.00241
773 7.86018 434.25226 409.74289 0.00244
774 7.86518 434.31220 421.18885 0.00237
775 7.87018 434.37504 433.31148 0.00231
776 7.87518 434.44090 407.76424 0.00245
777 7.88018 434.50988 423.85595 0.00236
778 7.88518 434.58210 404.61638 0.00247
779 7.89018 434.65768 409.80586 0.00244
780 7.89518 434.73675 435.90003 0.00229
781 7.90018 434.81945 419.69929 0.00238
782 7.90518 434.90592 409.19288 0.00244
783 7.91018 434.99631 463.59242 0.00216
784 7.91518 435.09077 437.72230 0.00228
785 7.92018 435.18946 437.81882 0.00228
786 7.92518 435.29257 433.11695 0.00231
787 7.93018 435.40026 436.88916 0.00229
788 7.93518 435.51274 409.18795 0.00244
789 7.94018 435.63020 431.88592 0.00232
790 7.94518 435.75285 428.83312 0.00233
791 7.95018 435.88092 432.40746 0.00231
792 7.95518 436.01464 450.02045 0.00222
793 7.96018 436.15426 456.91603 0.00219
794 7.96518 436.30004 445.55302 0.00224
795 7.97018 436.45226 435.03133 0.00230
796 7.97518 436.61121 432.92478 0.00231
797 7.98018 436.77720 436.56005 0.00229
798 7.98518 436.95056 444.95056 0.00225
799 7.99018 437.13163 421.14988 0.00237
800 7.99518 437.32078 434.44016 0.00230
801 8.00018 437.51840 423.69407 0.00236
802 8.00518 437.72491 437.15417 0.00229
803 8.01018 437.94073 436.06235 0.00229
804 8.01518 438.16634 454.07026 0.00220
805 8.02018 438.40224 424.11985 0.00236
806 8.02518 438.64894 437.32319 0.00229
807 8.03018 438.90701 439.06427 0.00228
808 8.03518 439.17705 431.80510 0.00232
809 8.04018 439.45970 437.94962 0.00228
810 8.04518 439.75563 444.63654 0.00225
811 8.05018 440.06558 429.45134 0.00233
812 8.05518 440.39033 442.80691 0.00226
813 8.06018 440.73070 446.47848 0.00224
814 8.06518 441.08760 444.30019 0.00225
815 8.07018 441.46198 450.22708 0.00222
816 8.07518 441.85487 424.57053 0.00236
817 8.08018 442.26737 444.50879 0.00225
818 8.08518 442.70068 426.52929 0.00234
819 8.09018 443.15608 445.71162 0.00224
820 8.09518 443.63496 439.56311 0.00227
821 8.10018 444.13880 425.69847 0.00235
822 8.10518 444.66921 457.04602 0.00219
823 8.11018 445.22796 436.10065 0.00229
824 8.11518 445.81693 444.98534 0.00225
825 8.12018 446.43817 444.83251 0.00225
826 8.12518 447.09393 437.88093 0.00228
827 8.13018 447.78663 437.44696 0.00229
828 8.13518 448.51892 447.97587 0.00223
829 8.14018 449.29371 435.45813 0.00230
830 8.14518 450.11415 430.48262 0.00232
831 8.15018 450.98371 453.61779 0.00220
832 8.15518 451.90619 437.38287 0.00229
833 8.16018 452.88577 427.52304 0.00234
834 8.16518 453.92706 456.92803 0.00219
835 8.17018 455.03513 456.08307 0.00219
836 8.17518 456.23937 474.14272 0.00211
837 8.18018 457.49856 452.65706 0.00221
838 8.18518 458.84327 443.88076 0.00225
839 8.19018 460.28117 451.66147 0.00221
840 8.19518 461.82085 457.31921 0.00219
841 8.20018 463.47188 472.25094 0.00212
842 8.20518 465.24499 477.80511 0.00209
843 8.21018 467.15226 438.10064 0.00228
844 8.21518 469.20729 456.61464 0.00219
845 8.22018 471.42544 470.46739 0.00213
846 8.22518 473.82416 469.03472 0.00213
847 8.23018 476.42326 458.30544 0.00218
848 8.23518 479.24538 485.20004 0.00206
849 8.24018 482.31644 480.18046 0.00208
850 8.24518 485.66623 483.90190 0.00207
851 8.25018 489.32915 485.73042 0.00206
852 8.25518 493.34503 483.34544 0.00207
853 8.26018 497.76026 501.00638 0.00200
854 8.26518 502.62909 483.70400 0.00207
855 8.27018 508.01524 513.27322 0.00195
856 8.27518 513.99406 506.14199 0.00198
857 8.28018 520.65526 510.20205 0.00196
858 8.28518 528.10667 524.36423 0.00191
859 8.29018 536.47997 546.08397 0.00183
860 8.29518 545.93996 563.67785 0.00177
861 8.30018 556.70135 561.53196 0.00178
862 8.30518 569.06038 548.54431 0.00182
863 8.31018 583.45514 580.35234 0.00172
864 8.31518 600.57807 597.08302 0.00167
865 8.32018 621.57526 635.44355 0.00157
866 8.32518 648.37643 714.71161 0.00140
867 8.33018 684.19528 652.82608 0.00153
868 8.33518 734.20848 743.09542 0.00135
869 8.34018 806.34502 867.56709 0.00115
870 8.34518 911.99135 957.10372 0.00104
871 8.35018 1066.26293 1148.20255 0.00087
872 8.35518 1287.37104 1203.53012 0.00083
873 8.36018 1594.62225 1647.68165 0.00061
874 8.36518 2004.81630 2140.60890 0.00047
875 8.37018 2527.26175 2805.15062 0.00036
876 8.37518 3158.14899 3742.78845 0.00027
877 8.38018 3875.27353 4424.84864 0.00023
878 8.38518 4633.82127 4361.59890 0.00023
879 8.39018 5363.61535 5706.48070 0.00018
880 8.39518 5970.14837 6143.89898 0.00016
881 8.40018 6347.80346 6266.62677 0.00016
882 8.40518 6414.80311 6066.04811 0.00016
883 8.41018 6155.83776 6277.15339 0.00016
884 8.41518 5631.57228 5487.23912 0.00018
885 8.42018 4943.93957 4811.29438 0.00021
886 8.42518 4194.50469 4104.25142 0.00024
887 8.43018 3463.48477 3264.84889 0.00031
888 8.43518 2805.49215 2477.53500 0.00040
889 8.44018 2251.45607 2277.01276 0.00044
890 8.44518 1812.49286 1487.53222 0.00067
891 8.45018 1485.05509 1296.06123 0.00077
892 8.45518 1256.85279 1159.31717 0.00086
893 8.46018 1112.57373 1099.30582 0.00091
894 8.46518 1038.43563 1039.87254 0.00096
895 8.47018 1024.99172 1026.79287 0.00097
896 8.47518 1068.05238 1008.99939 0.00099
897 8.48018 1167.89255 1149.90389 0.00087
898 8.48518 1327.08320 1326.34215 0.00075
899 8.49018 1547.40006 1617.01477 0.00062
900 8.49518 1826.36810 1615.16813 0.00062
901 8.50018 2154.02477 2202.24971 0.00045
902 8.50518 2510.30881 2499.29922 0.00040
903 8.51018 2863.22375 2879.84420 0.00035
904 8.51518 3168.48755 3135.60877 0.00032
905 8.52018 3374.02736 3255.99786 0.00031
906 8.52518 3434.69440 3303.09638 0.00030
907 8.53018 3334.02493 3256.29360 0.00031
908 8.53518 3094.17455 2985.75037 0.00033
909 8.54018 2762.61384 2747.09858 0.00036
910 8.54518 2390.50507 2471.86577 0.00040
911 8.55018 2019.80766 2469.13723 0.00040
912 8.55518 1679.87076 1752.84178 0.00057
913 8.56018 1388.00439 1423.46688 0.00070
914 8.56518 1151.18966 1158.86091 0.00086
915 8.57018 968.38653 950.99011 0.00105
916 8.57518 833.24031 839.80503 0.00119
917 8.58018 736.76347 789.54525 0.00127
918 8.58518 669.53389 721.43886 0.00139
919 8.59018 623.14447 651.26825 0.00154
920 8.59518 590.89454 610.67403 0.00164
921 8.60018 567.89583 606.63204 0.00165
922 8.60518 550.83110 568.42189 0.00176
923 8.61018 537.57697 547.82369 0.00183
924 8.61518 526.83167 533.08240 0.00188
925 8.62018 517.81587 520.73194 0.00192
926 8.62518 510.06233 508.34138 0.00197
927 8.63018 503.28215 503.58694 0.00199
928 8.63518 497.28620 474.08877 0.00211
929 8.64018 491.94170 504.13322 0.00198
930 8.64518 487.14918 499.31070 0.00200
931 8.65018 482.83037 485.31468 0.00206
932 8.65518 478.92164 470.54297 0.00213
933 8.66018 475.37024 449.33263 0.00223
934 8.66518 472.13186 476.57143 0.00210
935 8.67018 469.16904 454.78998 0.00220
936 8.67518 466.44980 478.48446 0.00209
937 8.68018 463.94674 459.15334 0.00218
938 8.68518 461.63630 451.73418 0.00221
939 8.69018 459.49807 458.25753 0.00218
940 8.69518 457.51434 457.63537 0.00219
941 8.70018 455.66963 457.04296 0.00219
942 8.70518 453.95042 450.39167 0.00222
943 8.71018 452.34481 440.82894 0.00227
944 8.71518 450.84229 448.18693 0.00223
945 8.72018 449.43359 452.32663 0.00221
946 8.72518 448.11045 438.44276 0.00228
947 8.73018 446.86554 435.47201 0.00230
948 8.73518 445.69231 461.16287 0.00217
949 8.74018 444.58489 421.34861 0.00237
950 8.74518 443.53801 439.59780 0.00227
951 8.75018 442.54692 433.62460 0.00231
952 8.75518 441.60736 432.99745 0.00231
953 8.76018 440.71546 443.38300 0.00226
954 8.76518 439.86771 431.43012 0.00232
955 8.77018 439.06093 427.09095 0.00234
956 8.77518 438.29223 412.49028 0.00242
957 8.78018 437.55898 431.64958 0.00232
958 8.78518 436.85876 422.45931 0.00237
959 8.79018 436.18937 414.51427 0.00241
960 8.79518 435.54879 419.43073 0.00238
961 8.80018 434.96071 411.37389 0.00243
962 8.80518 434.37245 412.80219 0.00242
963 8.81018 433.80786 403.20138 0.00248
964 8.81518 433.26552 422.74163 0.00237
965 8.82018 432.74407 426.50435 0.00234
966 8.82518 432.24229 407.02787 0.00246
967 8.83018 431.75902 406.80756 0.00246
968 8.83518 431.29322 426.94056 0.00234
969 8.84018 430.84389 422.25472 0.00237
970 8.84518 430.41013 414.39451 0.00241
971 8.85018 429.99107 427.25305 0.00234
972 8.85518 429.58593 418.81858 0.00239
973 8.86018 429.19397 439.22637 0.00228
974 8.86518 428.81449 436.23028 0.00229
975 8.87018 428.44686 424.69060 0.00235
976 8.87518 428.09047 408.64123 0.00245
977 8.88018 427.74476 414.33583 0.00241
978 8.88518 427.40919 423.75842 0.00236
979 8.89018 427.08328 431.36418 0.00232
980 8.89518 426.76655 414.82823 0.00241
981 8.90018 426.45857 417.57227 0.00239
982 8.90518 426.15894 422.23886 0.00237
983 8.91018 425.86725 408.16167 0.00245
984 8.91518 425.58316 417.85358 0.00239
985 8.92018 425.30631 409.28555 0.00244
986 8.92518 425.03638 405.05890 0.00247
987 8.93018 424.77307 418.05596 0.00239
988 8.93518 424.51609 406.30017 0.00246
989 8.94018 424.26516 417.40552 0.00240
990 8.94518 424.02004 408.82846 0.00245
991 8.95018 423.78047 416.89171 0.00240
992 8.95518 423.54623 413.38218 0.00242
993 8.96018 423.31709 413.59491 0.00242
994 8.96518 423.09286 415.05790 0.00241
995 8.97018 422.87333 433.63592 0.00231
996 8.97518 422.65833 417.47738 0.00240
997 8.98018 422.44766 406.89045 0.00246
998 8.98518 422.24117 411.33894 0.00243
999 8.99018 422.04203 419.32387 0.00238
1000 8.99518 421.84344 407.52531 0.00245
1001 9.00018 421.64857 445.43385 0.00225
1002 9.00518 421.45728 405.51316 0.00247
1003 9.01018 421.26944 409.56667 0.00244
1004 9.01518 421.08494 420.02269 0.00238
1005 9.02018 420.90365 415.07293 0.00241
1006 9.02518 420.72546 422.90805 0.00236
1007 9.03018 420.55026 415.75891 0.00241
1008 9.03518 420.37795 428.20491 0.00234
1009 9.04018 420.20844 413.50124 0.00242
1010 9.04518 420.04163 441.21094 0.00227
1011 9.05018 419.87743 422.47552 0.00237
1012 9.05518 419.71576 409.90073 0.00244
1013 9.06018 419.55654 418.63220 0.00239
1014 9.06518 419.39969 418.63193 0.00239
1015 9.07018 419.24513 411.63303 0.00243
1016 9.07518 419.09281 431.65680 0.00232
1017 9.08018 418.94264 409.84209 0.00244
1018 9.08518 418.79458 420.05690 0.00238
1019 9.09018 418.64855 403.51563 0.00248
1020 9.09518 418.50449 407.81878 0.00245
1021 9.10018 418.36236 419.16542 0.00239
1022 9.10518 418.22210 398.90988 0.00251
1023 9.11018 418.08366 418.24789 0.00239
1024 9.11518 417.94700 408.49112 0.00245
1025 9.12018 417.81205 413.00841 0.00242
1026 9.12518 417.67879 427.65296 0.00234
1027 9.13018 417.54717 412.12120 0.00243
1028 9.13518 417.41715 402.29988 0.00249
1029 9.14018 417.28869 408.00966 0.00245
1030 9.14518 417.16175 384.03882 0.00260
1031 9.15018 417.03631 393.90287 0.00254
1032 9.15518 416.91233 407.28434 0.00246
1033 9.16018 416.78978 398.47902 0.00251
1034 9.16518 416.66862 419.39330 0.00238
1035 9.17018 416.54884 426.34645 0.00235
1036 9.17518 416.43040 427.80591 0.00234
1037 9.18018 416.31328 434.48812 0.00230
1038 9.18518 416.19746 418.03503 0.00239
1039 9.19018 416.08291 428.54147 0.00233
1040 9.19518 415.96962 412.97646 0.00242
1041 9.20018 415.85756 407.26499 0.00246
1042 9.20518 415.74672 417.36924 0.00240
1043 9.21018 415.63708 387.86751 0.00258
1044 9.21518 415.52862 385.87162 0.00259
1045 9.22018 415.42134 402.74493 0.00248
1046 9.22518 415.31521 419.33635 0.00238
1047 9.23018 415.21022 387.72674 0.00258
1048 9.23518 415.10637 416.54448 0.00240
1049 9.24018 415.00365 399.07290 0.00251
1050 9.24518 414.90204 390.98539 0.00256
1051 9.25018 414.80154 401.94066 0.00249
1052 9.25518 414.70214 381.98968 0.00262
1053 9.26018 414.60384 420.59910 0.00238
1054 9.26518 414.50664 405.97539 0.00246
1055 9.27018 414.41052 396.14847 0.00252
1056 9.27518 414.31550 396.98680 0.00252
1057 9.28018 414.22157 387.28109 0.00258
1058 9.28518 414.12872 386.76228 0.00259
1059 9.29018 414.03697 377.64798 0.00265
1060 9.29518 413.94631 394.59225 0.00253
1061 9.30018 413.85675 393.28483 0.00254
1062 9.30518 413.76830 409.13437 0.00244
1063 9.31018 413.68095 414.45812 0.00241
1064 9.31518 413.59473 398.93801 0.00251
1065 9.32018 413.50964 397.98564 0.00251
1066 9.32518 413.42568 412.71271 0.00242
1067 9.33018 413.34288 417.24212 0.00240
1068 9.33518 413.26125 431.07559 0.00232
1069 9.34018 413.18079 412.20163 0.00243
1070 9.34518 413.10153 411.34333 0.00243
1071 9.35018 413.02349 404.14734 0.00247
1072 9.35518 412.94668 394.42726 0.00254
1073 9.36018 412.87113 409.69826 0.00244
1074 9.36518 412.79685 421.45836 0.00237
1075 9.37018 412.72388 391.89131 0.00255
1076 9.37518 412.65225 411.61431 0.00243
1077 9.38018 412.58197 399.05174 0.00251
1078 9.38518 412.51308 400.86429 0.00249
1079 9.39018 412.44561 379.66015 0.00263
1080 9.39518 412.37960 414.30288 0.00241
1081 9.40018 412.31509 397.23693 0.00252
1082 9.40518 412.25212 377.75309 0.00265
1083 9.41018 412.19072 381.41000 0.00262
1084 9.41518 412.13094 410.07843 0.00244
1085 9.42018 412.07284 402.46714 0.00248
1086 9.42518 412.01647 407.53795 0.00245
1087 9.43018 411.96187 407.98142 0.00245
1088 9.43518 411.90910 416.93563 0.00240
1089 9.44018 411.85823 381.93203 0.00262
1090 9.44518 411.80933 383.90436 0.00260
1091 9.45018 411.76246 403.00018 0.00248
1092 9.45518 411.71769 394.66091 0.00253
1093 9.46018 411.67511 373.29362 0.00268
1094 9.46518 411.63480 405.52501 0.00247
1095 9.47018 411.59684 387.19395 0.00258
1096 9.47518 411.56133 385.55677 0.00259
1097 9.48018 411.52837 409.83983 0.00244
1098 9.48518 411.49806 406.37847 0.00246
1099 9.49018 411.47053 388.66744 0.00257
1100 9.49518 411.44588 420.84540 0.00238
1101 9.50018 411.42424 413.26818 0.00242
1102 9.50518 411.40576 425.74701 0.00235
1103 9.51018 411.39057 421.69212 0.00237
1104 9.51518 411.37883 419.98592 0.00238
1105 9.52018 411.37071 411.26018 0.00243
1106 9.52518 411.36637 406.81999 0.00246
1107 9.53018 411.36601 393.53837 0.00254
1108 9.53518 411.36983 414.63941 0.00241
1109 9.54018 411.37804 403.80338 0.00248
1110 9.54518 411.39087 428.87555 0.00233
1111 9.55018 411.40857 407.41332 0.00245
1112 9.55518 411.43139 439.57369 0.00227
1113 9.56018 411.45962 429.21528 0.00233
1114 9.56518 411.49356 390.04133 0.00256
1115 9.57018 411.53354 414.24968 0.00241
1116 9.57518 411.57216 377.39769 0.00265
1117 9.58018 411.62532 400.39616 0.00250
1118 9.58518 411.68565 405.66248 0.00247
1119 9.59018 411.75358 390.51073 0.00256
1120 9.59518 411.82959 388.81966 0.00257
1121 9.60018 411.91418 402.03855 0.00249
1122 9.60518 412.00792 419.53598 0.00238
1123 9.61018 412.11139 407.54242 0.00245
1124 9.61518 412.22525 404.76099 0.00247
1125 9.62018 412.35021 399.77146 0.00250
1126 9.62518 412.48778 410.20981 0.00244
1127 9.63018 412.63730 421.39383 0.00237
1128 9.63518 412.80044 409.89258 0.00244
1129 9.64018 412.97820 371.17180 0.00269
1130 9.64518 413.17167 377.62861 0.00265
1131 9.65018 413.38206 412.08051 0.00243
1132 9.65518 413.61068 410.30777 0.00244
1133 9.66018 413.85898 409.36789 0.00244
1134 9.66518 414.12857 388.94892 0.00257
1135 9.67018 414.42123 408.71825 0.00245
1136 9.67518 414.73892 434.86180 0.00230
1137 9.68018 415.08381 409.45243 0.00244
1138 9.68518 415.45833 398.49088 0.00251
1139 9.69018 415.86520 426.60823 0.00234
1140 9.69518 416.30744 433.55382 0.00231
1141 9.70018 416.78844 418.33198 0.00239
1142 9.70518 417.31203 414.79516 0.00241
1143 9.71018 417.88252 435.66082 0.00230
1144 9.71518 418.50479 410.30642 0.00244
1145 9.72018 419.18440 395.10176 0.00253
1146 9.72518 419.92765 400.52331 0.00250
1147 9.73018 420.74180 415.27033 0.00241
1148 9.73518 421.63516 418.85457 0.00239
1149 9.74018 422.61737 440.16037 0.00227
1150 9.74518 423.69960 410.88922 0.00243
1151 9.75018 424.89503 434.02682 0.00230
1152 9.75518 426.21935 417.60922 0.00239
1153 9.76018 427.69173 429.31224 0.00233
1154 9.76518 429.33646 454.57166 0.00220
1155 9.77018 431.18577 421.56640 0.00237
1156 9.77518 433.28495 429.53709 0.00233
1157 9.78018 435.70073 428.25002 0.00234
1158 9.78518 438.53469 426.99666 0.00234
1159 9.79018 441.94232 430.97251 0.00232
1160 9.79518 446.15751 417.72229 0.00239
1161 9.80018 451.51875 421.87939 0.00237
1162 9.80518 458.48887 473.84464 0.00211
1163 9.81018 467.65554 464.14139 0.00215
1164 9.81518 479.69889 470.04845 0.00213
1165 9.82018 495.31403 464.86091 0.00215
1166 9.82518 515.08989 488.55874 0.00205
1167 9.83018 539.36227 505.26347 0.00198
1168 9.83518 568.07491 558.11231 0.00179
1169 9.84018 600.68396 592.75497 0.00169
1170 9.84518 636.12790 639.78074 0.00156
1171 9.85018 672.90022 659.05615 0.00152
1172 9.85518 709.40733 720.85362 0.00139
1173 9.86018 745.00981 747.83971 0.00134
1174 9.86518 781.79072 769.53807 0.00130
1175 9.87018 825.81470 781.07892 0.00128
1176 9.87518 886.38538 831.86573 0.00120
1177 9.88018 973.72826 895.13014 0.00112
1178 9.88518 1096.55135 1028.68055 0.00097
1179 9.89018 1259.97900 1091.22899 0.00092
1180 9.89518 1463.69035 1317.71682 0.00076
1181 9.90018 1700.22416 1533.06185 0.00065
1182 9.90518 1953.50312 1828.11885 0.00055
1183 9.91018 2197.67909 2079.27391 0.00048
1184 9.91518 2397.46551 2301.82363 0.00043
1185 9.92018 2513.74849 2518.69707 0.00040
1186 9.92518 2517.88610 2506.44880 0.00040
1187 9.93018 2407.48265 2486.40989 0.00040
1188 9.93518 2207.63033 2280.66846 0.00044
1189 9.94018 1956.18682 1966.43296 0.00051
1190 9.94518 1688.65938 1667.01144 0.00060
1191 9.95018 1431.69326 1361.49455 0.00073
1192 9.95518 1202.48611 1149.70606 0.00087
1193 9.96018 1010.02227 968.53159 0.00103
1194 9.96518 856.67141 821.81627 0.00122
1195 9.97018 739.99175 749.72678 0.00133
1196 9.97518 654.62980 676.30526 0.00148
1197 9.98018 594.05392 629.35982 0.00159
1198 9.98518 551.87091 618.75231 0.00162
1199 9.99018 522.61695 556.69285 0.00180
1200 9.99518 502.06863 514.00583 0.00195
1201 10.00018 487.21346 511.17315 0.00196
1202 10.00518 476.04421 486.69715 0.00205
1203 10.01018 467.27284 455.22217 0.00220
1204 10.01518 460.12134 463.61478 0.00216
1205 10.02018 454.11560 477.87090 0.00209
1206 10.02518 448.96486 465.33082 0.00215
1207 10.03018 444.48337 451.61955 0.00221
1208 10.03518 440.54511 386.67811 0.00259
1209 10.04018 437.05882 440.98147 0.00227
1210 10.04518 433.95469 429.55426 0.00233
1211 10.05018 431.17716 424.83283 0.00235
1212 10.05518 428.68088 427.64265 0.00234
1213 10.06018 426.42822 400.29506 0.00250
1214 10.06518 424.38770 411.44369 0.00243
1215 10.07018 422.53272 450.07446 0.00222
1216 10.07518 420.84072 423.18869 0.00236
1217 10.08018 419.29245 438.90019 0.00228
1218 10.08518 417.87141 384.69908 0.00260
1219 10.09018 416.56339 388.36199 0.00257
1220 10.09518 415.35611 433.01542 0.00231
1221 10.10018 414.23893 437.38466 0.00229
1222 10.10518 413.20256 435.05655 0.00230
1223 10.11018 412.23891 400.20571 0.00250
1224 10.11518 411.34085 416.26672 0.00240
1225 10.12018 410.50214 395.20208 0.00253
1226 10.12518 409.71727 380.76344 0.00263
1227 10.13018 408.98135 393.36476 0.00254
1228 10.13518 408.29007 387.98839 0.00258
1229 10.14018 407.63958 402.45583 0.00248
1230 10.14518 407.02644 377.94181 0.00265
1231 10.15018 406.44760 401.02461 0.00249
1232 10.15518 405.90032 405.21470 0.00247
1233 10.16018 405.38215 383.20880 0.00261
1234 10.16518 404.89087 386.01071 0.00259
1235 10.17018 404.42452 390.81461 0.00256
1236 10.17518 403.98129 400.06489 0.00250
1237 10.18018 403.55958 396.33207 0.00252
1238 10.18518 403.15794 422.10441 0.00237
1239 10.19018 402.77505 411.45546 0.00243
1240 10.19518 402.40973 377.15458 0.00265
1241 10.20018 402.06090 411.00000 0.00243
1242 10.20518 401.72760 410.43646 0.00244
1243 10.21018 401.40895 390.59398 0.00256
1244 10.21518 401.10416 389.57079 0.00257
1245 10.22018 400.81253 397.92593 0.00251
1246 10.22518 400.53341 397.57046 0.00252
1247 10.23018 400.26623 370.54621 0.00270
1248 10.23518 400.01049 396.09423 0.00252
1249 10.24018 399.76574 381.04093 0.00262
1250 10.24518 399.53158 370.90143 0.00270
1251 10.25018 399.30766 380.28379 0.00263
1252 10.25518 399.09369 405.92855 0.00246
1253 10.26018 398.88943 394.31691 0.00254
1254 10.26518 398.69468 389.15361 0.00257
1255 10.27018 398.50928 371.45002 0.00269
1256 10.27518 398.33313 387.39153 0.00258
1257 10.28018 398.16616 386.03218 0.00259
1258 10.28518 398.00837 410.20997 0.00244
1259 10.29018 397.85977 401.43378 0.00249
1260 10.29518 397.72045 397.39618 0.00252
1261 10.30018 397.59055 388.23609 0.00258
1262 10.30518 397.47024 386.27566 0.00259
1263 10.31018 397.35978 383.30090 0.00261
1264 10.31518 397.25947 402.70795 0.00248
1265 10.32018 397.16968 403.07328 0.00248
1266 10.32518 397.09086 398.92042 0.00251
1267 10.33018 397.02355 397.93832 0.00251
1268 10.33518 396.96837 414.41563 0.00241
1269 10.34018 396.92604 394.23982 0.00254
1270 10.34518 396.89741 404.06669 0.00247
1271 10.35018 396.88345 389.29021 0.00257
1272 10.35518 396.88527 388.71905 0.00257
1273 10.36018 396.90418 401.27192 0.00249
1274 10.36518 396.94165 398.82410 0.00251
1275 10.37018 396.99942 400.31163 0.00250
1276 10.37518 397.07947 403.40257 0.00248
1277 10.38018 397.18409 386.67233 0.00259
1278 10.38518 397.31595 398.19375 0.00251
1279 10.39018 397.47813 387.65023 0.00258
1280 10.39518 397.67425 408.74212 0.00245
1281 10.40018 397.90853 397.66411 0.00251
1282 10.40518 398.18593 375.76711 0.00266
1283 10.41018 398.51228 389.43588 0.00257
1284 10.41518 398.89454 379.10269 0.00264
1285 10.42018 399.34095 392.75761 0.00255
1286 10.42518 399.86145 369.50360 0.00271
1287 10.43018 400.46814 385.93069 0.00259
1288 10.43518 401.17602 406.17845 0.00246
1289 10.44018 402.00426 387.93133 0.00258
1290 10.44518 402.97854 393.06122 0.00254
1291 10.45018 404.13532 391.06004 0.00256
1292 10.45518 405.52978 391.62544 0.00255
1293 10.46018 407.24980 411.11816 0.00243
1294 10.46518 409.43925 413.59495 0.00242
1295 10.47018 412.33372 390.27969 0.00256
1296 10.47518 416.31000 383.22132 0.00261
1297 10.48018 421.94529 409.95541 0.00244
1298 10.48518 430.07386 406.54049 0.00246
1299 10.49018 441.81691 414.13834 0.00241
1300 10.49518 458.55197 423.42608 0.00236
1301 10.50018 481.78627 443.78646 0.00225
1302 10.50518 512.91178 455.55249 0.00220
1303 10.51018 552.84938 540.92981 0.00185
1304 10.51518 601.62427 618.15490 0.00162
1305 10.52018 657.93098 738.71981 0.00135
1306 10.52518 718.72147 873.77453 0.00114
1307 10.53018 778.82141 955.42316 0.00105
1308 10.53518 830.74128 960.20089 0.00104
1309 10.54018 865.43021 1094.09719 0.00091
1310 10.54518 875.07352 1014.90388 0.00099
1311 10.55018 857.17548 946.72860 0.00106
1312 10.55518 816.16982 873.38826 0.00114
1313 10.56018 760.65793 926.71476 0.00108
1314 10.56518 699.41246 673.26783 0.00149
1315 10.57018 639.25032 569.81737 0.00175
1316 10.57518 584.67991 486.09649 0.00206
1317 10.58018 538.19136 428.16925 0.00234
1318 10.58518 500.65177 438.33529 0.00228
1319 10.59018 471.72466 394.96873 0.00253
1320 10.59518 450.30729 417.12633 0.00240
1321 10.60018 434.94091 396.28880 0.00252
1322 10.60518 424.13670 382.17433 0.00262
1323 10.61018 416.58477 387.52038 0.00258
1324 10.61518 411.24918 384.36739 0.00260
1325 10.62018 407.37668 384.24319 0.00260
1326 10.62518 404.45578 393.39421 0.00254
1327 10.63018 402.15738 378.53962 0.00264
1328 10.63518 400.27756 390.58057 0.00256
1329 10.64018 398.69212 384.60828 0.00260
1330 10.64518 397.32476 373.25605 0.00268
1331 10.65018 396.12693 375.39203 0.00266
1332 10.65518 395.06595 389.93502 0.00256
1333 10.66018 394.11836 411.19016 0.00243
1334 10.66518 393.50336 401.36359 0.00249
1335 10.67018 392.73382 407.83663 0.00245
1336 10.67518 392.03435 400.14075 0.00250
1337 10.68018 391.39550 388.17523 0.00258
1338 10.68518 390.80936 384.80201 0.00260
1339 10.69018 390.26931 378.30971 0.00264
1340 10.69518 389.76970 386.18425 0.00259
1341 10.70018 389.30577 398.97072 0.00251
1342 10.70518 388.87340 393.83575 0.00254
1343 10.71018 388.46911 386.36354 0.00259
1344 10.71518 388.08984 386.34913 0.00259
1345 10.72018 387.73299 374.02091 0.00267
1346 10.72518 387.39627 375.21714 0.00267
1347 10.73018 387.07769 392.42287 0.00255
1348 10.73518 386.77554 395.92091 0.00253
1349 10.74018 386.48828 397.99993 0.00251
1350 10.74518 385.96541 382.71716 0.00261
1351 10.75018 385.70515 398.14352 0.00251
1352 10.75518 385.45623 399.45445 0.00250
1353 10.76018 385.21772 395.15659 0.00253
1354 10.76518 384.98881 397.88585 0.00251
1355 10.77018 384.76878 361.86715 0.00276
1356 10.77518 384.55699 384.41381 0.00260
1357 10.78018 384.35286 377.93386 0.00265
1358 10.78518 384.15588 399.21477 0.00250
1359 10.79018 383.96561 402.52038 0.00248
1360 10.79518 383.78164 386.80760 0.00259
1361 10.80018 383.60362 395.13770 0.00253
1362 10.80518 383.43123 392.86204 0.00255
1363 10.81018 383.26418 421.46931 0.00237
1364 10.81518 383.10224 402.86160 0.00248
1365 10.82018 382.94520 377.63238 0.00265
1366 10.82518 382.79285 382.96550 0.00261
1367 10.83018 382.64505 372.74128 0.00268
1368 10.83518 382.50166 395.01975 0.00253
1369 10.84018 382.36257 383.17611 0.00261
1370 10.84518 382.22768 381.74543 0.00262
1371 10.85018 382.09693 374.23838 0.00267
1372 10.85518 381.97026 367.58544 0.00272
1373 10.86018 381.84766 395.14030 0.00253
1374 10.86518 381.72909 393.55222 0.00254
1375 10.87018 381.49140 386.04579 0.00259
1376 10.87518 381.38150 378.40622 0.00264
1377 10.88018 381.27573 387.93848 0.00258
1378 10.88518 381.17415 373.27135 0.00268
1379 10.89018 381.07686 373.83192 0.00267
1380 10.89518 380.98397 377.02828 0.00265
1381 10.90018 380.89560 391.67363 0.00255
1382 10.90518 380.81191 383.59675 0.00261
1383 10.91018 380.73309 395.91476 0.00253
1384 10.91518 380.65935 389.90471 0.00256
1385 10.92018 380.59092 391.74703 0.00255
1386 10.92518 380.52808 383.72334 0.00261
1387 10.93018 380.47114 373.75015 0.00268
1388 10.93518 380.42045 385.90675 0.00259
1389 10.94018 380.37639 386.05714 0.00259
1390 10.94518 380.33940 375.17183 0.00267
1391 10.95018 380.30998 402.50102 0.00248
1392 10.95518 380.28868 405.32796 0.00247
1393 10.96018 380.27612 381.76528 0.00262
1394 10.96518 380.27300 394.65104 0.00253
1395 10.97018 380.28010 393.55255 0.00254
1396 10.97518 380.29830 390.87652 0.00256
1397 10.98018 380.32860 399.93058 0.00250
1398 10.98518 380.37212 395.43157 0.00253
1399 10.99018 380.43014 384.68758 0.00260
1400 10.99518 380.50409 383.32696 0.00261
1401 11.00018 380.59561 396.28141 0.00252
1402 11.00518 380.70657 380.10701 0.00263
1403 11.01018 380.83911 387.05291 0.00258
1404 11.01518 380.99569 394.20152 0.00254
1405 11.02018 381.17911 418.03884 0.00239
1406 11.02518 381.39265 398.19802 0.00251
1407 11.03018 381.64008 398.62173 0.00251
1408 11.03518 381.92579 398.95772 0.00251
1409 11.04018 382.25492 398.38639 0.00251
1410 11.04518 382.63353 413.12920 0.00242
1411 11.05018 383.06872 397.99160 0.00251
1412 11.05518 383.56896 401.34066 0.00249
1413 11.06018 384.14438 411.91878 0.00243
1414 11.06518 384.80721 405.34292 0.00247
1415 11.07018 385.57246 405.23377 0.00247
1416 11.07518 386.45902 423.54413 0.00236
1417 11.08018 387.49157 428.84114 0.00233
1418 11.08518 388.70408 419.29343 0.00238
1419 11.09018 390.14633 392.70680 0.00255
1420 11.09518 391.89545 410.64608 0.00244
1421 11.10018 394.07567 430.67138 0.00232
1422 11.10518 396.88950 438.93939 0.00228
1423 11.11018 400.66266 427.08964 0.00234
1424 11.11518 405.90118 464.25636 0.00215
1425 11.12018 413.35183 435.57869 0.00230
1426 11.12518 424.04611 433.34225 0.00231
1427 11.13018 439.29705 466.74278 0.00214
1428 11.13518 460.67945 488.28544 0.00205
1429 11.14018 489.56290 493.50951 0.00203
1430 11.14518 527.19416 541.54759 0.00185
1431 11.15018 574.02211 534.91854 0.00187
1432 11.15518 629.31881 637.16875 0.00157
1433 11.16018 690.73675 672.33531 0.00149
1434 11.16518 753.86747 706.72537 0.00141
1435 11.17018 811.86679 746.79924 0.00134
1436 11.17518 855.67974 769.18853 0.00130
1437 11.18018 876.09131 764.59252 0.00131
1438 11.18518 867.92817 799.43896 0.00125
1439 11.19018 833.29524 762.45715 0.00131
1440 11.19518 780.18744 729.47804 0.00137
1441 11.20018 718.13738 658.73798 0.00152
1442 11.20518 655.07558 708.64905 0.00141
1443 11.21018 596.46066 607.60857 0.00165
1444 11.21518 545.50095 552.13491 0.00181
1445 11.22018 503.58983 513.66416 0.00195
1446 11.22518 470.74623 471.63775 0.00212
1447 11.23018 446.06145 454.63743 0.00220
1448 11.23518 428.13088 448.99008 0.00223
1449 11.24018 415.41774 445.44086 0.00224
1450 11.24518 406.50664 416.70064 0.00240
1451 11.25018 400.23784 421.87146 0.00237
1452 11.25518 395.74317 433.11677 0.00231
1453 11.26018 392.41869 412.41826 0.00242
1454 11.26518 389.86855 414.77924 0.00241
1455 11.27018 387.84495 407.35304 0.00245
1456 11.27518 386.19767 409.16411 0.00244
1457 11.28018 384.83763 406.72050 0.00246
1458 11.28518 383.71378 401.85945 0.00249
1459 11.29018 382.80058 410.05569 0.00244
1460 11.29518 382.09319 403.89589 0.00248
1461 11.30018 381.60818 399.43946 0.00250
1462 11.30518 381.38810 402.91481 0.00248
1463 11.31018 381.50780 393.43895 0.00254
1464 11.31518 382.08005 409.36881 0.00244
1465 11.32018 383.25632 414.09021 0.00241
1466 11.32518 385.21817 394.63389 0.00253
1467 11.33018 388.15496 387.24550 0.00258
1468 11.33518 392.22631 392.15162 0.00255
1469 11.34018 397.51192 416.78933 0.00240
1470 11.34518 403.95482 402.91515 0.00248
1471 11.35018 411.30393 447.59889 0.00223
1472 11.35518 419.05624 428.98354 0.00233
1473 11.36018 426.40197 444.94276 0.00225
1474 11.36518 432.22304 451.57888 0.00221
1475 11.37018 435.29065 435.20708 0.00230
1476 11.37518 434.76507 466.69624 0.00214
1477 11.38018 430.69755 450.94406 0.00222
1478 11.38518 423.99514 459.29145 0.00218
1479 11.39018 415.89084 434.93037 0.00230
1480 11.39518 407.47084 441.55060 0.00226
1481 11.40018 399.50662 458.34964 0.00218
1482 11.40518 392.46751 419.36934 0.00238
1483 11.41018 386.57677 407.60390 0.00245
1484 11.41518 381.86918 394.87182 0.00253
1485 11.42018 378.24844 413.18359 0.00242
1486 11.42518 375.54334 402.16623 0.00249
1487 11.43018 373.55670 385.13376 0.00260
1488 11.43518 372.10111 392.48987 0.00255
1489 11.44018 371.01929 388.13198 0.00258
1490 11.44518 370.19108 421.47732 0.00237
1491 11.45018 369.53142 392.61143 0.00255
1492 11.45518 368.98356 381.32764 0.00262
1493 11.46018 368.51134 394.99863 0.00253
1494 11.46518 368.09230 388.72361 0.00257
1495 11.47018 367.71255 387.60508 0.00258
1496 11.47518 367.36328 382.77314 0.00261
1497 11.48018 367.03863 358.46084 0.00279
1498 11.48518 366.73447 375.52990 0.00266
1499 11.49018 366.44770 384.17761 0.00260
1500 11.49518 366.17590 394.07005 0.00254
1501 11.50018 365.91709 402.83175 0.00248
1502 11.50518 365.66964 369.66280 0.00271
1503 11.51018 365.43219 360.21905 0.00278
1504 11.51518 365.20358 368.43409 0.00271
1505 11.52018 364.98282 387.48794 0.00258
1506 11.52518 364.76908 391.20364 0.00256
1507 11.53018 364.56161 394.24984 0.00254
1508 11.53518 364.35980 381.04033 0.00262
1509 11.54018 364.16308 353.04766 0.00283
1510 11.54518 363.97099 368.47945 0.00271
1511 11.55018 363.78310 362.03136 0.00276
1512 11.55518 363.59904 383.95637 0.00260
1513 11.56018 363.41849 381.60636 0.00262
1514 11.56518 363.24114 385.77375 0.00259
1515 11.57018 363.06675 397.59110 0.00252
1516 11.57518 362.89508 376.78829 0.00265
1517 11.58018 362.72593 384.76044 0.00260
1518 11.58518 362.55911 363.63520 0.00275
1519 11.59018 362.39444 363.72402 0.00275
1520 11.59518 362.23179 365.47405 0.00274
1521 11.60018 362.07102 378.86588 0.00264
1522 11.60518 361.91199 367.72698 0.00272
1523 11.61018 361.75460 368.99192 0.00271
1524 11.61518 361.59875 397.38055 0.00252
1525 11.62018 361.44434 363.34100 0.00275
1526 11.62518 361.29128 346.70428 0.00288
1527 11.63018 361.13950 350.73273 0.00285
1528 11.63518 360.98893 370.15611 0.00270
1529 11.64018 360.83950 366.35232 0.00273
1530 11.64518 360.69114 355.36370 0.00281
1531 11.65018 360.54382 371.67232 0.00269
1532 11.65518 360.39746 392.77483 0.00255
1533 11.66018 360.25204 383.11707 0.00261
1534 11.66518 360.10750 381.96345 0.00262
1535 11.67018 359.96772 389.09058 0.00257
1536 11.67518 359.82485 385.54351 0.00259
1537 11.68018 359.68275 341.51321 0.00293
1538 11.68518 359.54139 350.07063 0.00286
1539 11.69018 359.40075 392.28312 0.00255
1540 11.69518 359.26079 364.33921 0.00274
1541 11.70018 359.12150 349.78949 0.00286
1542 11.70518 358.98285 384.19819 0.00260
1543 11.71018 358.84483 361.27086 0.00277
1544 11.71518 358.70741 355.19370 0.00282
1545 11.72018 358.57058 346.21236 0.00289
1546 11.72518 358.43432 340.78992 0.00293
1547 11.73018 358.29863 349.19459 0.00286
1548 11.73518 358.16349 367.29079 0.00272
1549 11.74018 358.02889 343.84922 0.00291
1550 11.74518 357.89482 381.01298 0.00262
1551 11.75018 357.76128 370.56330 0.00270
1552 11.75518 357.62827 370.61561 0.00270
1553 11.76018 357.49578 367.02054 0.00272
1554 11.76518 357.36381 369.06311 0.00271
1555 11.77018 357.23236 364.03274 0.00275
1556 11.77518 357.10143 361.43115 0.00277
1557 11.78018 356.97103 362.48380 0.00276
1558 11.78518 356.84117 361.88982 0.00276
1559 11.79018 356.71185 364.81918 0.00274
1560 11.79518 356.58309 359.05912 0.00279
1561 11.80018 356.45490 352.07056 0.00284
1562 11.80518 356.32730 368.90357 0.00271
1563 11.81018 356.20030 384.55766 0.00260
1564 11.81518 356.07394 377.73293 0.00265
1565 11.82018 355.94824 365.97609 0.00273
1566 11.82518 355.82323 363.82617 0.00275
1567 11.83018 355.69896 370.42023 0.00270
1568 11.83518 355.57546 375.35236 0.00266
1569 11.84018 355.45280 378.15347 0.00264
1570 11.84518 355.33102 361.74806 0.00276
1571 11.85018 355.21020 347.28974 0.00288
1572 11.85518 355.09042 359.62753 0.00278
1573 11.86018 354.97178 390.66334 0.00256
1574 11.86518 354.85438 358.94038 0.00279
1575 11.87018 354.73835 373.84864 0.00267
1576 11.87518 354.62384 348.35555 0.00287
1577 11.88018 354.51102 370.34831 0.00270
1578 11.88518 354.40011 372.52020 0.00268
1579 11.89018 354.29135 362.27866 0.00276
1580 11.89518 354.18504 362.42950 0.00276
1581 11.90018 354.08153 362.35454 0.00276
1582 11.90518 353.98127 378.49412 0.00264
1583 11.91018 353.88479 365.62969 0.00274
1584 11.91518 353.79282 348.44514 0.00287
1585 11.92018 353.70632 354.19036 0.00282
1586 11.92518 353.62669 380.47713 0.00263
1587 11.93018 353.55605 398.05212 0.00251
1588 11.93518 353.49779 370.78382 0.00270
1589 11.94018 353.45738 389.11346 0.00257
1590 11.94518 353.44353 391.35557 0.00256
1591 11.95018 353.46977 356.27154 0.00281
1592 11.95518 353.55601 345.94179 0.00289
1593 11.96018 353.72986 381.71757 0.00262
1594 11.96518 354.02658 353.45943 0.00283
1595 11.97018 354.48700 381.06566 0.00262
1596 11.97518 355.15245 355.56355 0.00281
1597 11.98018 356.05643 357.81353 0.00279
1598 11.98518 357.21384 380.30209 0.00263
1599 11.99018 358.60885 379.18187 0.00264
1600 11.99518 360.18242 366.09920 0.00273
1601 12.00018 361.82573 346.58306 0.00289
1602 12.00518 363.34040 375.23552 0.00266
1603 12.01018 364.48165 341.41480 0.00293
1604 12.01518 364.98479 340.27199 0.00294
1605 12.02018 364.69092 359.69642 0.00278
1606 12.02518 363.64670 373.17654 0.00268
1607 12.03018 362.07297 355.85446 0.00281
1608 12.03518 360.24009 353.97259 0.00283
1609 12.04018 358.40947 361.05823 0.00277
1610 12.04518 356.66358 360.09494 0.00278
1611 12.05018 355.12781 362.09985 0.00276
1612 12.05518 353.84113 340.50330 0.00294
1613 12.06018 352.80471 372.43694 0.00269
1614 12.06518 351.99428 362.10962 0.00276
1615 12.07018 351.37180 378.34361 0.00264
1616 12.07518 350.89537 367.19542 0.00272
1617 12.08018 350.52613 371.42058 0.00269
1618 12.08518 350.23201 350.95279 0.00285
1619 12.09018 349.98885 355.55084 0.00281
1620 12.09518 349.77968 346.09711 0.00289
1621 12.10018 349.59327 344.06069 0.00291
1622 12.10518 349.42252 385.64160 0.00259
1623 12.11018 349.26302 370.27670 0.00270
1624 12.11518 349.11203 372.88895 0.00268
1625 12.12018 348.96784 362.83582 0.00276
1626 12.12518 348.82932 398.21041 0.00251
1627 12.13018 348.69568 360.79438 0.00277
1628 12.13518 348.56633 367.09306 0.00272
1629 12.14018 348.44085 364.00563 0.00275
1630 12.14518 348.31891 364.03181 0.00275
1631 12.15018 348.20024 368.51100 0.00271
1632 12.15518 348.08465 369.48398 0.00271
1633 12.16018 347.97200 364.76828 0.00274
1634 12.16518 347.86219 365.48396 0.00274
1635 12.17018 347.75516 357.94697 0.00279
1636 12.17518 347.65088 370.50461 0.00270
1637 12.18018 347.54936 342.84666 0.00292
1638 12.18518 347.45064 367.64631 0.00272
1639 12.19018 347.35477 361.78535 0.00276
1640 12.19518 347.26187 338.85032 0.00295
1641 12.20018 347.17204 377.24583 0.00265
1642 12.20518 347.08545 382.34820 0.00262
1643 12.21018 347.00229 398.05957 0.00251
1644 12.21518 346.92278 366.93207 0.00273
1645 12.22018 346.84719 354.03084 0.00282
1646 12.22518 346.76662 359.67425 0.00278
1647 12.23018 346.69988 337.50150 0.00296
1648 12.23518 346.63816 348.01189 0.00287
1649 12.24018 346.58192 350.02702 0.00286
1650 12.24518 346.53174 360.01967 0.00278
1651 12.25018 346.52772 350.47894 0.00285
1652 12.25518 346.49187 354.43922 0.00282
1653 12.26018 346.46437 361.68855 0.00276
1654 12.26518 346.44625 340.63131 0.00294
1655 12.27018 346.43873 333.06637 0.00300
1656 12.27518 346.44325 353.15987 0.00283
1657 12.28018 346.46150 353.71328 0.00283
1658 12.28518 346.49552 350.69379 0.00285
1659 12.29018 346.54774 365.53432 0.00274
1660 12.29518 346.52314 336.45148 0.00297
1661 12.30018 346.62185 333.35157 0.00300
1662 12.30518 346.75019 332.40383 0.00301
1663 12.31018 346.91451 332.59588 0.00301
1664 12.31518 347.12381 358.88882 0.00279
1665 12.32018 347.39157 359.67299 0.00278
1666 12.32518 347.73894 368.37247 0.00271
1667 12.33018 348.19980 350.02387 0.00286
1668 12.33518 348.82837 364.54070 0.00274
1669 12.34018 349.70912 366.67610 0.00273
1670 12.34518 350.96801 354.54503 0.00282
1671 12.35018 352.78209 387.92166 0.00258
1672 12.35518 355.38229 380.07014 0.00263
1673 12.36018 359.04319 379.47332 0.00264
1674 12.36518 364.05356 351.19980 0.00285
1675 12.37018 370.66507 356.47794 0.00281
1676 12.37518 379.02198 389.68685 0.00257
1677 12.38018 389.07931 375.06714 0.00267
1678 12.38518 400.51615 382.93844 0.00261
1679 12.39018 412.64198 395.61889 0.00253
1680 12.39518 424.29776 423.81746 0.00236
1681 12.40018 433.82309 422.35353 0.00237
1682 12.40518 439.31716 457.08673 0.00219
1683 12.41018 439.39156 424.58577 0.00236
1684 12.41518 434.00217 465.94280 0.00215
1685 12.42018 424.47911 468.40992 0.00213
1686 12.42518 412.71836 437.75339 0.00228
1687 12.43018 400.40540 400.46479 0.00250
1688 12.43518 388.72862 374.00198 0.00267
1689 12.44018 378.40289 395.32106 0.00253
1690 12.44518 369.76782 386.24734 0.00259
1691 12.45018 362.88189 373.40666 0.00268
1692 12.45518 357.60953 380.99429 0.00262
1693 12.46018 353.70324 371.92970 0.00269
1694 12.46518 350.87486 345.19502 0.00290
1695 12.47018 348.84807 369.83884 0.00270
1696 12.47518 347.38905 358.60282 0.00279
1697 12.48018 346.31772 348.58895 0.00287
1698 12.48518 345.50548 348.39668 0.00287
1699 12.49018 344.86583 353.32308 0.00283
1700 12.49518 344.34319 342.63447 0.00292
1701 12.50018 343.90280 354.99762 0.00282
1702 12.50518 343.52300 342.93017 0.00292
1703 12.51018 343.19007 358.49004 0.00279
1704 12.51518 342.89486 341.45760 0.00293
1705 12.52018 342.63101 366.06824 0.00273
1706 12.52518 342.39376 356.77340 0.00280
1707 12.53018 342.17945 318.21430 0.00314
1708 12.53518 341.98514 340.96306 0.00293
1709 12.54018 341.80847 358.99658 0.00279
1710 12.54518 341.64747 345.36163 0.00290
1711 12.55018 341.50051 332.24871 0.00301
1712 12.55518 341.36624 368.40154 0.00271
1713 12.56018 341.24353 349.10429 0.00286
1714 12.56518 341.13145 346.00862 0.00289
1715 12.57018 341.02920 375.08626 0.00267
1716 12.57518 340.93612 352.44131 0.00284
1717 12.58018 340.85168 343.54512 0.00291
1718 12.58518 340.77542 336.67303 0.00297
1719 12.59018 340.70698 350.83560 0.00285
1720 12.59518 340.64604 348.15041 0.00287
1721 12.60018 340.59239 347.99061 0.00287
1722 12.60518 340.54582 347.77145 0.00288
1723 12.61018 340.50622 365.06740 0.00274
1724 12.61518 340.47349 367.88836 0.00272
1725 12.62018 340.44758 346.07931 0.00289
1726 12.62518 340.42847 331.77324 0.00301
1727 12.63018 340.41618 355.24426 0.00281
1728 12.63518 340.41076 343.70348 0.00291
1729 12.64018 340.41795 373.59813 0.00268
1730 12.64518 340.42656 346.68083 0.00288
1731 12.65018 340.44236 349.82995 0.00286
1732 12.65518 340.46551 375.46993 0.00266
1733 12.66018 340.49620 365.12667 0.00274
1734 12.66518 340.53464 344.86296 0.00290
1735 12.67018 340.58109 352.83519 0.00283
1736 12.67518 340.63579 358.52993 0.00279
1737 12.68018 340.69905 358.26847 0.00279
1738 12.68518 340.77120 346.58868 0.00289
1739 12.69018 340.85258 352.24844 0.00284
1740 12.69518 340.94359 332.11783 0.00301
1741 12.70018 341.04464 365.63798 0.00273
1742 12.70518 341.15619 363.28229 0.00275
1743 12.71018 341.27873 346.65848 0.00288
1744 12.71518 341.41278 340.50332 0.00294
1745 12.72018 341.55892 357.11865 0.00280
1746 12.72518 341.71776 358.15449 0.00279
1747 12.73018 341.88998 346.87454 0.00288
1748 12.73518 342.07627 358.48680 0.00279
1749 12.74018 342.27743 352.64980 0.00284
1750 12.74518 342.49428 345.20307 0.00290
1751 12.75018 342.72773 345.63803 0.00289
1752 12.75518 342.97874 354.78269 0.00282
1753 12.76018 343.24836 353.35220 0.00283
1754 12.76518 343.53773 344.63482 0.00290
1755 12.77018 343.84808 350.34821 0.00285
1756 12.77518 344.18074 355.42183 0.00281
1757 12.78018 344.53715 355.66488 0.00281
1758 12.78518 344.91887 343.30344 0.00291
1759 12.79018 345.32762 343.56079 0.00291
1760 12.79518 345.76523 334.08950 0.00299
1761 12.80018 346.23373 342.81630 0.00292
1762 12.80518 346.73532 369.00020 0.00271
1763 12.81018 347.27239 337.15301 0.00297
1764 12.81518 347.84758 337.04672 0.00297
1765 12.82018 348.46376 345.82683 0.00289
1766 12.82518 349.12409 365.29107 0.00274
1767 12.83018 349.83204 375.58846 0.00266
1768 12.83518 350.59144 362.78702 0.00276
1769 12.84018 351.40649 349.57650 0.00286
1770 12.84518 352.28185 350.19163 0.00286
1771 12.85018 353.22268 382.77837 0.00261
1772 12.85518 354.23470 368.32854 0.00271
1773 12.86018 355.32427 354.65296 0.00282
1774 12.86518 356.49846 364.39740 0.00274
1775 12.87018 357.76520 352.83672 0.00283
1776 12.87518 359.13333 359.52879 0.00278
1777 12.88018 360.61280 364.43414 0.00274
1778 12.88518 362.21479 367.32011 0.00272
1779 12.89018 363.95191 384.06697 0.00260
1780 12.89518 365.83844 364.85840 0.00274
1781 12.90018 367.89058 363.11436 0.00275
1782 12.90518 370.12678 368.44832 0.00271
1783 12.91018 372.56811 375.21943 0.00267
1784 12.91518 375.23871 371.22752 0.00269
1785 12.92018 378.14272 366.62643 0.00273
1786 12.92518 381.35960 380.09909 0.00263
1787 12.93018 384.90279 381.51635 0.00262
1788 12.93518 388.81558 376.33195 0.00266
1789 12.94018 393.14861 400.24222 0.00250
1790 12.94518 397.96139 400.46455 0.00250
1791 12.95018 403.32417 403.27277 0.00248
1792 12.95518 409.32051 394.68318 0.00253
1793 12.96018 416.05039 404.12533 0.00247
1794 12.96518 423.63478 418.73655 0.00239
1795 12.97018 432.22228 432.36052 0.00231
1796 12.97518 441.99980 435.17490 0.00230
1797 12.98018 453.21103 446.37738 0.00224
1798 12.98518 466.18942 450.71317 0.00222
1799 12.99018 481.41751 470.87465 0.00212
1800 12.99518 499.63056 502.82380 0.00199
1801 13.00018 521.98818 522.28334 0.00191
1802 13.00518 550.33866 565.34660 0.00177
1803 13.01018 587.58822 626.14845 0.00160
1804 13.01518 638.15377 661.14498 0.00151
1805 13.02018 708.41573 724.38785 0.00138
1806 13.02518 807.00521 878.28552 0.00114
1807 13.03018 944.68207 1025.60239 0.00098
1808 13.03518 1133.53515 1245.19405 0.00080
1809 13.04018 1385.31117 1558.68434 0.00064
1810 13.04518 1708.86543 1583.10536 0.00063
1811 13.05018 2106.94981 2278.41799 0.00044
1812 13.05518 2572.62604 2833.27966 0.00035
1813 13.06018 3085.33804 3320.29519 0.00030
1814 13.06518 3606.38557 3791.48436 0.00026
1815 13.07018 4074.88341 4081.62239 0.00025
1816 13.07518 4410.83256 4132.34735 0.00024
1817 13.08018 4537.40468 4357.42741 0.00023
1818 13.08518 4420.57900 4192.95035 0.00024
1819 13.09018 4091.81919 3834.39648 0.00026
1820 13.09518 3626.98954 3466.12701 0.00029
1821 13.10018 3106.56578 3588.14145 0.00028
1822 13.10518 2592.38459 2663.87917 0.00038
1823 13.11018 2124.01170 2214.21308 0.00045
1824 13.11518 1722.66987 1789.43154 0.00056
1825 13.12018 1395.78719 1456.38187 0.00069
1826 13.12518 1140.94481 1204.47530 0.00083
1827 13.13018 949.47586 1174.92421 0.00085
1828 13.13518 809.69850 940.32487 0.00106
1829 13.14018 709.49859 824.46313 0.00121
1830 13.14518 638.03914 744.33248 0.00134
1831 13.15018 586.59367 671.72362 0.00149
1832 13.15518 548.69129 681.84635 0.00147
1833 13.16018 519.84146 595.56681 0.00168
1834 13.16518 497.08410 540.97498 0.00185
1835 13.17018 478.53478 533.24408 0.00188
1836 13.17518 463.01110 497.43415 0.00201
1837 13.18018 449.76416 470.80589 0.00212
1838 13.18518 438.30340 479.01565 0.00209
1839 13.19018 428.29070 435.63732 0.00230
1840 13.19518 419.47958 437.32584 0.00229
1841 13.20018 411.68137 423.56615 0.00236
1842 13.20518 404.74632 422.54472 0.00237
1843 13.21018 398.55267 410.16542 0.00244
1844 13.21518 392.99986 415.48822 0.00241
1845 13.22018 388.00398 395.49785 0.00253
1846 13.22518 383.49454 380.00546 0.00263
1847 13.23018 379.41187 394.04733 0.00254
1848 13.23518 375.70530 381.01940 0.00262
1849 13.24018 372.33159 368.68538 0.00271
1850 13.24518 369.25364 360.63658 0.00277
1851 13.25018 366.43956 384.11361 0.00260
1852 13.25518 363.86179 360.55994 0.00277
1853 13.26018 361.49649 360.70922 0.00277
1854 13.26518 359.32292 364.47781 0.00274
1855 13.27018 357.32304 360.87234 0.00277
1856 13.27518 355.48110 362.04141 0.00276
1857 13.28018 353.78335 352.31014 0.00284
1858 13.28518 352.21776 339.80091 0.00294
1859 13.29018 350.77378 348.53480 0.00287
1860 13.29518 349.44219 360.92819 0.00277
1861 13.30018 348.21494 358.73370 0.00279
1862 13.30518 347.08501 348.41647 0.00287
1863 13.31018 346.04629 335.08484 0.00298
1864 13.31518 345.09350 334.28674 0.00299
1865 13.32018 344.22213 348.00826 0.00287
1866 13.32518 343.43773 338.44354 0.00295
1867 13.33018 342.71843 345.35508 0.00290
1868 13.33518 342.07098 346.84567 0.00288
1869 13.34018 341.49342 341.83803 0.00293
1870 13.34518 340.98431 339.89074 0.00294
1871 13.35018 340.54279 350.68010 0.00285
1872 13.35518 340.16856 330.73779 0.00302
1873 13.36018 339.86189 336.19944 0.00297
1874 13.36518 339.62362 320.57817 0.00312
1875 13.37018 339.45524 353.82454 0.00283
1876 13.37518 339.35889 347.93551 0.00287
1877 13.38018 339.33746 358.11265 0.00279
1878 13.38518 339.39464 339.38346 0.00295
1879 13.39018 339.53503 344.74557 0.00290
1880 13.39518 339.76427 341.24612 0.00293
1881 13.40018 340.08918 331.41398 0.00302
1882 13.40518 340.51794 333.33957 0.00300
1883 13.41018 341.06037 356.23729 0.00281
1884 13.41518 341.72814 342.38912 0.00292
1885 13.42018 342.53523 341.95991 0.00292
1886 13.42518 343.49827 327.89810 0.00305
1887 13.43018 344.63722 338.42081 0.00295
1888 13.43518 345.97602 355.71253 0.00281
1889 13.44018 347.54363 349.39420 0.00286
1890 13.44518 349.37535 345.48774 0.00289
1891 13.45018 351.51497 348.10838 0.00287
1892 13.45518 354.01808 354.04674 0.00282
1893 13.46018 356.95795 343.33733 0.00291
1894 13.46518 360.43598 353.52886 0.00283
1895 13.47018 364.60030 347.09050 0.00288
1896 13.47518 369.67779 347.57860 0.00288
1897 13.48018 376.02607 352.32314 0.00284
1898 13.48518 384.21167 349.20267 0.00286
1899 13.49018 395.11608 370.99215 0.00270
1900 13.49518 410.06032 365.34651 0.00274
1901 13.50018 430.92089 396.37564 0.00252
1902 13.50518 460.18719 386.45523 0.00259
1903 13.51018 500.89195 434.24299 0.00230
1904 13.51518 556.34540 470.42270 0.00213
1905 13.52018 629.63065 481.48807 0.00208
1906 13.52518 722.87216 585.83176 0.00171
1907 13.53018 836.34032 709.90419 0.00141
1908 13.53518 967.45126 834.63525 0.00120
1909 13.54018 1109.62698 1072.02886 0.00093
1910 13.54518 1250.95407 1233.97111 0.00081
1911 13.55018 1373.20127 1183.38411 0.00085
1912 13.55518 1453.59272 1445.07040 0.00069
1913 13.56018 1472.55212 1545.74752 0.00065
1914 13.56518 1424.76585 1524.10081 0.00066
1915 13.57018 1322.90971 1417.85620 0.00071
1916 13.57518 1189.26858 1483.30712 0.00067
1917 13.58018 1045.20142 1255.94750 0.00080
1918 13.58518 906.17910 1088.49450 0.00092
1919 13.59018 781.63655 918.25241 0.00109
1920 13.59518 676.27064 724.88334 0.00138
1921 13.60018 591.30111 619.07011 0.00162
1922 13.60518 525.53815 577.92640 0.00173
1923 13.61018 476.34028 488.69663 0.00205
1924 13.61518 440.44843 433.82330 0.00231
1925 13.62018 414.62459 428.62603 0.00233
1926 13.62518 396.05103 390.25110 0.00256
1927 13.63018 382.50369 376.19820 0.00266
1928 13.63518 372.35777 384.25819 0.00260
1929 13.64018 364.49754 369.38562 0.00271
1930 13.64518 358.19187 347.77130 0.00288
1931 13.65018 352.97549 333.70862 0.00300
1932 13.65518 348.55476 346.95334 0.00288
1933 13.66018 344.74137 342.91701 0.00292
1934 13.66518 341.40982 330.48267 0.00303
1935 13.67018 338.47199 329.70029 0.00303
1936 13.67518 335.86256 337.15107 0.00297
1937 13.68018 333.53093 333.81460 0.00300
1938 13.68518 331.43657 319.88596 0.00313
1939 13.69018 329.54638 310.53535 0.00322
1940 13.69518 327.83291 320.87367 0.00312
1941 13.70018 326.27318 332.06579 0.00301
1942 13.70518 324.84783 329.08066 0.00304
1943 13.71018 323.54046 304.35910 0.00329
1944 13.71518 322.33708 336.95411 0.00297
1945 13.72018 321.22573 329.82372 0.00303
1946 13.72518 320.19612 314.20007 0.00318
1947 13.73018 319.23937 318.59925 0.00314
1948 13.73518 318.34777 321.33818 0.00311
1949 13.74018 317.51462 323.11896 0.00309
1950 13.74518 316.73407 316.34619 0.00316
1951 13.75018 316.00101 305.34542 0.00327
1952 13.75518 315.31092 312.97701 0.00320
1953 13.76018 314.65651 322.49125 0.00310
1954 13.76518 314.04093 301.98491 0.00331
1955 13.77018 313.45772 326.51317 0.00306
1956 13.77518 312.90413 320.56094 0.00312
1957 13.78018 312.37769 296.53022 0.00337
1958 13.78518 311.87619 307.52584 0.00325
1959 13.79018 311.39767 322.03665 0.00311
1960 13.79518 310.94037 332.30205 0.00301
1961 13.80018 310.50269 318.39090 0.00314
1962 13.80518 310.08321 313.67808 0.00319
1963 13.81018 309.68065 326.11188 0.00307
1964 13.81518 309.29384 311.91941 0.00321
1965 13.82018 308.92174 303.89519 0.00329
1966 13.82518 308.56340 306.47898 0.00326
1967 13.83018 308.21797 303.28451 0.00330
1968 13.83518 307.88467 277.80363 0.00360
1969 13.84018 307.56281 302.97349 0.00330
1970 13.84518 307.25175 296.17695 0.00338
1971 13.85018 306.95093 321.27184 0.00311
1972 13.85518 306.65982 320.76920 0.00312
1973 13.86018 306.37798 298.28324 0.00335
1974 13.86518 306.10499 303.54272 0.00329
1975 13.87018 305.84049 300.32873 0.00333
1976 13.87518 305.58415 279.35840 0.00358
1977 13.88018 305.35538 303.55138 0.00329
1978 13.88518 305.11465 305.48550 0.00327
1979 13.89018 304.88136 297.33229 0.00336
1980 13.89518 304.65535 324.05015 0.00309
1981 13.90018 304.43649 304.37536 0.00329
1982 13.90518 304.22470 315.29355 0.00317
1983 13.91018 304.01994 291.65351 0.00343
1984 13.91518 303.82219 314.16339 0.00318
1985 13.92018 303.63150 317.38338 0.00315
1986 13.92518 303.44795 316.65334 0.00316
1987 13.93018 303.27169 302.86329 0.00330
1988 13.93518 303.10291 292.88695 0.00341
1989 13.94018 302.94188 319.03791 0.00313
1990 13.94518 302.78893 301.62639 0.00332
1991 13.95018 302.64447 285.54824 0.00350
1992 13.95518 302.50902 318.07995 0.00314
1993 13.96018 302.38320 321.05279 0.00311
1994 13.96518 302.26779 286.30400 0.00349
1995 13.97018 302.16369 297.47662 0.00336
1996 13.97518 302.07203 317.16334 0.00315
1997 13.98018 301.99413 296.96526 0.00337
1998 13.98518 301.93165 306.04529 0.00327
1999 13.99018 301.88656 294.54592 0.00340
2000 13.99518 301.86134 284.33549 0.00352
2001 14.00018 301.85912 298.64921 0.00335
2002 14.00518 301.88398 290.98752 0.00344
2003 14.01018 301.94151 299.93524 0.00333
2004 14.01518 302.03976 293.25254 0.00341
2005 14.02018 302.19086 300.76454 0.00332
2006 14.02518 302.41378 315.64277 0.00317
2007 14.03018 302.73839 300.46632 0.00333
2008 14.03518 303.21111 301.91563 0.00331
2009 14.04018 303.90179 314.21319 0.00318
2010 14.04518 304.91032 306.66640 0.00326
2011 14.05018 306.37070 311.25286 0.00321
2012 14.05518 308.44867 304.21588 0.00329
2013 14.06018 311.32919 296.24543 0.00338
2014 14.06518 315.19098 294.46059 0.00340
2015 14.07018 320.16811 323.57970 0.00309
2016 14.07518 326.30153 328.68879 0.00304
2017 14.08018 333.48351 331.42861 0.00302
2018 14.08518 341.39328 354.17999 0.00282
2019 14.09018 349.41816 368.05229 0.00272
2020 14.09518 356.58851 373.83237 0.00267
2021 14.10018 361.60877 391.26944 0.00256
2022 14.10518 363.27182 379.96614 0.00263
2023 14.11018 361.09070 337.84666 0.00296
2024 14.11518 355.63157 337.09475 0.00297
2025 14.12018 348.13392 350.07029 0.00286
2026 14.12518 339.86663 333.55858 0.00300
2027 14.13018 331.77632 315.85413 0.00317
2028 14.13518 324.44967 327.46616 0.00305
2029 14.14018 318.18813 328.59987 0.00304
2030 14.14518 313.08566 322.99188 0.00310
2031 14.15018 309.09222 305.13520 0.00328
2032 14.15518 306.06877 314.42636 0.00318
2033 14.16018 303.83508 302.58800 0.00330
2034 14.16518 302.20723 317.65282 0.00315
2035 14.17018 301.02192 307.56222 0.00325
2036 14.17518 300.14818 275.78781 0.00363
2037 14.18018 299.48899 295.13711 0.00339
2038 14.18518 298.97693 292.23479 0.00342
2039 14.19018 298.56748 304.31169 0.00329
2040 14.19518 298.23221 318.13772 0.00314
2041 14.20018 297.95322 300.01186 0.00333
2042 14.20518 297.71924 280.56590 0.00356
2043 14.21018 297.52293 303.91464 0.00329
2044 14.21518 297.35940 301.14636 0.00332
2045 14.22018 297.22524 306.37511 0.00326
2046 14.22518 297.11801 295.33558 0.00339
2047 14.23018 297.03599 277.23835 0.00361
2048 14.23518 296.97800 286.56308 0.00349
2049 14.24018 296.94330 295.42709 0.00338
2050 14.24518 296.93151 304.89395 0.00328
2051 14.25018 296.94262 280.86942 0.00356
2052 14.25518 296.97691 274.41614 0.00364
2053 14.26018 297.03496 298.17124 0.00335
2054 14.26518 297.11765 294.01408 0.00340
2055 14.27018 297.22616 306.69843 0.00326
2056 14.27518 297.36199 291.94749 0.00343
2057 14.28018 297.52697 309.41494 0.00323
2058 14.28518 297.72330 304.24464 0.00329
2059 14.29018 297.95358 297.64360 0.00336
2060 14.29518 298.22089 294.94340 0.00339
2061 14.30018 298.52883 325.42244 0.00307
2062 14.30518 298.88162 327.62202 0.00305
2063 14.31018 299.28418 297.30895 0.00336
2064 14.31518 299.74229 315.26202 0.00317
2065 14.32018 300.28728 296.40102 0.00337
2066 14.32518 300.87824 319.54048 0.00313
2067 14.33018 301.54916 304.73013 0.00328
2068 14.33518 302.31157 286.87651 0.00349
2069 14.34018 303.17962 299.07126 0.00334
2070 14.34518 304.17118 291.82889 0.00343
2071 14.35018 305.30960 297.98773 0.00336
2072 14.35518 306.62672 284.57923 0.00351
2073 14.36018 308.16760 309.08944 0.00324
2074 14.36518 309.99780 312.20728 0.00320
2075 14.37018 312.21338 304.47881 0.00328
2076 14.37518 314.95340 291.91348 0.00343
2077 14.38018 318.41333 309.25559 0.00323
2078 14.38518 322.85597 310.11453 0.00322
2079 14.39018 328.61516 316.61220 0.00316
2080 14.39518 336.08783 313.08245 0.00319
2081 14.40018 345.71224 317.52568 0.00315
2082 14.40518 357.93522 342.18057 0.00292
2083 14.41018 373.17480 326.45833 0.00306
2084 14.41518 391.78212 393.71131 0.00254
2085 14.42018 413.99717 407.96142 0.00245
2086 14.42518 439.86042 487.51342 0.00205
2087 14.43018 469.09671 501.14608 0.00200
2088 14.43518 501.11114 534.69830 0.00187
2089 14.44018 535.41816 553.45213 0.00181
2090 14.44518 572.46932 607.83498 0.00165
2091 14.45018 613.95372 663.51960 0.00151
2092 14.45518 661.80064 597.38163 0.00167
2093 14.46018 716.54204 692.86123 0.00144
2094 14.46518 776.00451 721.58326 0.00139
2095 14.47018 834.45054 831.46062 0.00120
2096 14.47518 882.32266 906.10984 0.00110
2097 14.48018 907.93295 954.09015 0.00105
2098 14.48518 902.40328 944.98724 0.00106
2099 14.49018 865.17656 954.50737 0.00105
2100 14.49518 804.32883 918.18967 0.00109
2101 14.50018 731.39865 826.50432 0.00121
2102 14.50518 656.41566 666.14957 0.00150
2103 14.51018 586.16743 582.97463 0.00172
2104 14.51518 524.51216 519.33115 0.00193
2105 14.52018 473.12950 471.94154 0.00212
2106 14.52518 432.15775 428.77499 0.00233
2107 14.53018 400.71125 378.01748 0.00265
2108 14.53518 377.33586 364.00252 0.00275
2109 14.54018 360.36177 346.38641 0.00289
2110 14.54518 348.21627 368.82001 0.00271
2111 14.55018 339.56200 353.38326 0.00283
2112 14.55518 333.37501 303.95287 0.00329
2113 14.56018 328.88726 314.48585 0.00318
2114 14.56518 325.60578 305.98637 0.00327
2115 14.57018 323.20574 326.17607 0.00307
2116 14.57518 321.48648 317.48969 0.00315
2117 14.58018 320.32902 335.31908 0.00298
2118 14.58518 319.66722 315.08973 0.00317
2119 14.59018 319.47048 314.63301 0.00318
2120 14.59518 319.73550 310.82448 0.00322
2121 14.60018 320.48505 296.77431 0.00337
2122 14.60518 321.77377 318.26398 0.00314
2123 14.61018 323.70220 314.96637 0.00317
2124 14.61518 326.44185 330.39650 0.00303
2125 14.62018 330.27396 331.48858 0.00302
2126 14.62518 335.72202 332.83634 0.00300
2127 14.63018 343.30138 338.44336 0.00295
2128 14.63518 354.05325 349.09907 0.00286
2129 14.64018 369.26628 360.57542 0.00277
2130 14.64518 390.53008 348.51867 0.00287
2131 14.65018 419.61327 371.81130 0.00269
2132 14.65518 458.21995 406.61856 0.00246
2133 14.66018 507.66287 421.17822 0.00237
2134 14.66518 568.24966 461.94615 0.00216
2135 14.67018 638.97256 530.02013 0.00189
2136 14.67518 716.71115 641.11055 0.00156
2137 14.68018 795.45813 710.62770 0.00141
2138 14.68518 865.58295 807.80547 0.00124
2139 14.69018 914.41919 955.71639 0.00105
2140 14.69518 930.16635 954.90257 0.00105
2141 14.70018 908.33495 1029.25378 0.00097
2142 14.70518 854.82386 958.96236 0.00104
2143 14.71018 781.94430 874.60477 0.00114
2144 14.71518 702.06664 787.65102 0.00127
2145 14.72018 624.27380 677.22668 0.00148
2146 14.72518 554.09412 552.95652 0.00181
2147 14.73018 494.29544 499.97038 0.00200
2148 14.73518 445.67422 459.50434 0.00218
2149 14.74018 407.68089 418.46662 0.00239
2150 14.74518 378.94638 400.16012 0.00250
2151 14.75018 357.73156 383.72649 0.00261
2152 14.75518 342.27539 346.89880 0.00288
2153 14.76018 331.01992 343.70464 0.00291
2154 14.76518 322.71597 347.55748 0.00288
2155 14.77018 316.43665 317.15881 0.00315
2156 14.77518 311.53549 328.66721 0.00304
2157 14.78018 307.58229 315.93044 0.00317
2158 14.78518 304.29916 293.41589 0.00341
2159 14.79018 301.50833 291.75612 0.00343
2160 14.79518 299.09451 309.58925 0.00323
2161 14.80018 296.98029 325.04135 0.00308
2162 14.80518 295.11118 296.03422 0.00338
2163 14.81018 293.44649 279.06823 0.00358
2164 14.81518 291.94964 287.89780 0.00347
2165 14.82018 290.60620 298.20115 0.00335
2166 14.82518 289.39036 274.69521 0.00364
2167 14.83018 288.28516 278.71008 0.00359
2168 14.83518 287.27646 285.03038 0.00351
2169 14.84018 286.35230 293.47519 0.00341
2170 14.84518 285.50262 314.72130 0.00318
2171 14.85018 284.71882 274.80126 0.00364
2172 14.85518 283.99358 282.70643 0.00354
2173 14.86018 283.32062 294.66670 0.00339
2174 14.86518 282.69453 281.54737 0.00355
2175 14.87018 282.11067 276.42125 0.00362
2176 14.87518 281.56501 265.89407 0.00376
2177 14.88018 281.05407 274.20314 0.00365
2178 14.88518 280.57484 283.13258 0.00353
2179 14.89018 280.12471 293.56509 0.00341
2180 14.89518 279.70141 269.65126 0.00371
2181 14.90018 279.30302 277.25081 0.00361
2182 14.90518 278.92786 279.95969 0.00357
2183 14.91018 278.57451 286.29605 0.00349
2184 14.91518 278.24180 290.12977 0.00345
2185 14.92018 277.92875 267.92259 0.00373
2186 14.92518 277.63458 255.22377 0.00392
2187 14.93018 277.35873 271.38625 0.00368
2188 14.93518 277.10078 270.31687 0.00370
2189 14.94018 276.86056 264.93073 0.00377
2190 14.94518 276.63806 275.66480 0.00363
2191 14.95018 276.43349 254.46786 0.00393
2192 14.95518 276.24728 255.87287 0.00391
2193 14.96018 276.08014 274.98517 0.00364
2194 14.96518 275.93302 258.79977 0.00386
2195 14.97018 275.80723 282.81212 0.00354
2196 14.97518 275.70448 279.24175 0.00358
2197 14.98018 275.62694 300.66767 0.00333
2198 14.98518 275.57735 286.24509 0.00349
2199 14.99018 275.55925 267.52531 0.00374
2200 14.99518 275.57720 276.61006 0.00362
2201 15.00018 275.63732 273.59316 0.00366
2202 15.00518 275.74808 257.03189 0.00389
2203 15.01018 275.92186 281.82632 0.00355
2204 15.01518 276.17739 272.13013 0.00367
2205 15.02018 276.54381 265.63133 0.00376
2206 15.02518 277.06658 264.17730 0.00379
2207 15.03018 277.81536 299.84162 0.00334
2208 15.03518 278.89318 290.79766 0.00344
2209 15.04018 280.44461 281.04538 0.00356
2210 15.04518 282.65950 282.79904 0.00354
2211 15.05018 285.76727 281.46908 0.00355
2212 15.05518 290.01700 290.00975 0.00345
2213 15.06018 295.64050 295.98861 0.00338
2214 15.06518 302.79905 294.42004 0.00340
2215 15.07018 311.51718 309.14588 0.00323
2216 15.07518 321.60467 325.23952 0.00307
2217 15.08018 332.55938 319.42352 0.00313
2218 15.08518 343.44464 325.55230 0.00307
2219 15.09018 352.79614 327.53726 0.00305
2220 15.09518 358.77498 324.22425 0.00308
2221 15.10018 359.83157 322.24048 0.00310
2222 15.10518 355.61689 328.11006 0.00305
2223 15.11018 347.22707 332.54401 0.00301
2224 15.11518 336.48274 306.19923 0.00327
2225 15.12018 325.06534 299.72277 0.00334
2226 15.12518 314.14850 287.91094 0.00347
2227 15.13018 304.41652 270.86454 0.00369
2228 15.13518 296.18826 272.84788 0.00367
2229 15.14018 289.52655 290.65943 0.00344
2230 15.14518 284.32353 275.83142 0.00363
2231 15.15018 280.37195 276.65412 0.00361
2232 15.15518 277.42483 290.10540 0.00345
2233 15.16018 275.24011 275.33290 0.00363
2234 15.16518 273.60820 272.03593 0.00368
2235 15.17018 272.36367 257.91127 0.00388
2236 15.17518 271.38515 257.69748 0.00388
2237 15.18018 270.58868 253.24856 0.00395
2238 15.18518 269.91859 271.95770 0.00368
2239 15.19018 269.33889 267.28867 0.00374
2240 15.19518 268.82644 269.26728 0.00371
2241 15.20018 268.36608 269.83016 0.00371
2242 15.20518 267.94749 264.19419 0.00379
2243 15.21018 267.56328 264.65920 0.00378
2244 15.21518 267.20792 255.27789 0.00392
2245 15.22018 266.87708 246.61732 0.00405
2246 15.22518 266.56728 247.92712 0.00403
2247 15.23018 266.27565 257.86511 0.00388
2248 15.23518 265.99983 270.33783 0.00370
2249 15.24018 265.73782 251.14602 0.00398
2250 15.24518 265.48797 263.09039 0.00380
2251 15.25018 265.24906 253.07111 0.00395
2252 15.25518 265.01943 251.54989 0.00398
2253 15.26018 264.79827 275.59506 0.00363
2254 15.26518 264.58468 261.52029 0.00382
2255 15.27018 264.37789 263.02959 0.00380
2256 15.27518 264.17722 256.95395 0.00389
2257 15.28018 263.98209 260.39947 0.00384
2258 15.28518 263.79200 264.39342 0.00378
2259 15.29018 263.60649 271.52165 0.00368
2260 15.29518 263.42517 269.85211 0.00371
2261 15.30018 263.24769 255.44948 0.00391
2262 15.30518 263.07374 253.60454 0.00394
2263 15.31018 262.90306 258.26213 0.00387
2264 15.31518 262.73539 247.36190 0.00404
2265 15.32018 262.57053 259.45798 0.00385
2266 15.32518 262.40829 261.44291 0.00382
2267 15.33018 262.24848 258.19405 0.00387
2268 15.33518 262.09096 250.82868 0.00399
2269 15.34018 261.93558 257.98401 0.00388
2270 15.34518 261.78224 257.41319 0.00388
2271 15.35018 261.63080 271.51482 0.00368
2272 15.35518 261.48118 253.94697 0.00394
2273 15.36018 261.33329 257.09758 0.00389
2274 15.36518 261.18704 269.69377 0.00371
2275 15.37018 261.04237 254.14288 0.00393
2276 15.37518 260.89920 257.90852 0.00388
2277 15.38018 260.75749 254.92626 0.00392
2278 15.38518 260.61718 262.62366 0.00381
2279 15.39018 260.47823 271.03783 0.00369
2280 15.39518 260.34059 249.06314 0.00402
2281 15.40018 260.20424 253.86929 0.00394
2282 15.40518 260.06914 256.41423 0.00390
2283 15.41018 259.93527 252.82038 0.00396
2284 15.41518 259.80261 260.56024 0.00384
2285 15.42018 259.67113 249.09862 0.00401
2286 15.42518 259.54083 253.46936 0.00395
2287 15.43018 259.41170 250.78463 0.00399
2288 15.43518 259.28374 243.76312 0.00410
2289 15.44018 259.16378 251.97651 0.00397
2290 15.44518 259.03816 264.97391 0.00377
2291 15.45018 258.91371 255.27195 0.00392
2292 15.45518 258.79044 243.14036 0.00411
2293 15.46018 258.66836 264.60790 0.00378
2294 15.46518 258.54749 260.06841 0.00385
2295 15.47018 258.42784 251.88579 0.00397
2296 15.47518 258.30945 249.82576 0.00400
2297 15.48018 258.19234 263.27862 0.00380
2298 15.48518 258.07655 253.46908 0.00395
2299 15.49018 257.96211 253.28454 0.00395
2300 15.49518 257.84907 260.40736 0.00384
2301 15.50018 257.50140 250.25105 0.00400
2302 15.50518 257.39229 256.80922 0.00389
2303 15.51018 257.28474 250.61277 0.00399
2304 15.51518 257.17881 256.02763 0.00391
2305 15.52018 257.07459 248.72494 0.00402
2306 15.52518 256.97217 245.32390 0.00408
2307 15.53018 256.87163 243.63325 0.00410
2308 15.53518 256.77307 244.97822 0.00408
2309 15.54018 256.67663 257.22439 0.00389
2310 15.54518 256.58242 257.07828 0.00389
2311 15.55018 256.49058 254.02939 0.00394
2312 15.55518 256.40128 250.89147 0.00399
2313 15.56018 256.31468 247.14655 0.00405
2314 15.56518 256.23099 265.41435 0.00377
2315 15.57018 256.15042 239.99277 0.00417
2316 15.57518 256.07320 252.21040 0.00396
2317 15.58018 255.99962 250.51038 0.00399
2318 15.58518 255.92996 241.36860 0.00414
2319 15.59018 255.86457 261.94885 0.00382
2320 15.59518 255.80382 254.82155 0.00392
2321 15.60018 255.74814 252.40993 0.00396
2322 15.60518 255.69801 250.44775 0.00399
2323 15.61018 255.65397 248.84086 0.00402
2324 15.61518 255.61662 251.11795 0.00398
2325 15.62018 255.58668 262.85645 0.00380
2326 15.62518 255.56494 250.53447 0.00399
2327 15.63018 255.55230 257.16853 0.00389
2328 15.63518 255.54982 242.70129 0.00412
2329 15.64018 255.55869 255.16984 0.00392
2330 15.64518 255.58032 265.12282 0.00377
2331 15.65018 255.61631 255.75465 0.00391
2332 15.65518 255.66856 250.78232 0.00399
2333 15.66018 255.73927 248.11552 0.00403
2334 15.66518 255.83105 247.04496 0.00405
2335 15.67018 255.94696 273.62507 0.00365
2336 15.67518 256.09068 245.10291 0.00408
2337 15.68018 256.26660 253.11875 0.00395
2338 15.68518 256.48005 266.37395 0.00375
2339 15.69018 256.73760 250.43188 0.00399
2340 15.69518 257.04754 259.09371 0.00386
2341 15.70018 257.42070 243.53263 0.00411
2342 15.70518 257.87186 245.70658 0.00407
2343 15.71018 258.42215 247.72078 0.00404
2344 15.71518 259.10316 263.30117 0.00380
2345 15.72018 259.96338 275.45995 0.00363
2346 15.72518 261.07756 276.02479 0.00362
2347 15.73018 262.55915 261.24557 0.00383
2348 15.73518 264.57434 262.07110 0.00382
2349 15.74018 267.35457 261.03873 0.00383
2350 15.74518 271.20163 286.75764 0.00349
2351 15.75018 276.47799 275.43066 0.00363
2352 15.75518 283.57522 296.90883 0.00337
2353 15.76018 292.85629 308.34074 0.00324
2354 15.76518 304.57281 315.17865 0.00317
2355 15.77018 318.76142 322.13623 0.00310
2356 15.77518 335.11813 339.22470 0.00295
2357 15.78018 352.83572 328.34925 0.00305
2358 15.78518 370.39437 364.57431 0.00274
2359 15.79018 385.40744 389.46765 0.00257
2360 15.79518 394.89386 379.24614 0.00264
2361 15.80018 396.39624 387.08761 0.00258
2362 15.80518 389.45208 388.70981 0.00257
2363 15.81018 375.91990 390.06601 0.00256
2364 15.81518 358.76192 372.99780 0.00268
2365 15.82018 340.65839 357.99992 0.00279
2366 15.82518 323.44537 338.38502 0.00296
2367 15.83018 308.16934 322.11596 0.00310
2368 15.83518 295.29985 341.33764 0.00293
2369 15.84018 284.91088 297.61690 0.00336
2370 15.84518 276.81766 301.47456 0.00332
2371 15.85018 270.68781 270.41545 0.00370
2372 15.85518 266.13226 287.25730 0.00348
2373 15.86018 262.77265 278.37061 0.00359
2374 15.86518 260.28246 295.26866 0.00339
2375 15.87018 258.40406 265.81285 0.00376
2376 15.87518 256.94819 269.70794 0.00371
2377 15.88018 255.78346 252.96843 0.00395
2378 15.88518 254.82230 259.29902 0.00386
2379 15.89018 254.00775 253.63172 0.00394
2380 15.89518 253.30286 255.00197 0.00392
2381 15.90018 252.68318 253.34581 0.00395
2382 15.90518 252.13197 253.14341 0.00395
2383 15.91018 251.63715 251.09787 0.00398
2384 15.91518 251.18962 248.30308 0.00403
2385 15.92018 250.78228 250.60757 0.00399
2386 15.92518 250.40939 246.19255 0.00406
2387 15.93018 250.06625 254.00319 0.00394
2388 15.93518 249.74898 250.52066 0.00399
2389 15.94018 249.45433 251.26167 0.00398
2390 15.94518 249.17955 235.49496 0.00425
2391 15.95018 248.92232 230.57904 0.00434
2392 15.95518 248.68069 251.57846 0.00397
2393 15.96018 248.45296 240.49370 0.00416
2394 15.96518 248.23770 240.21763 0.00416
2395 15.97018 248.03368 234.13335 0.00427
2396 15.97518 247.83982 254.52068 0.00393
2397 15.98018 247.65522 256.87747 0.00389
2398 15.98518 247.47908 241.71830 0.00414
2399 15.99018 247.24420 260.63595 0.00384
2400 15.99518 247.08327 241.05726 0.00415
2401 16.00018 246.93110 242.18734 0.00413
2402 16.00518 246.78304 237.32356 0.00421
2403 16.01018 246.64080 259.70579 0.00385
2404 16.01518 246.50405 256.04824 0.00391
2405 16.02018 246.37250 245.49106 0.00407
2406 16.02518 246.24591 239.60930 0.00417
2407 16.03018 246.12407 233.78731 0.00428
2408 16.03518 246.00681 233.68533 0.00428
2409 16.04018 245.89400 246.51045 0.00406
2410 16.04518 245.78552 239.89273 0.00417
2411 16.05018 245.68130 233.32422 0.00429
2412 16.05518 245.58128 236.96202 0.00422
2413 16.06018 245.48542 226.10030 0.00442
2414 16.06518 245.39373 236.46458 0.00423
2415 16.07018 245.30621 246.39103 0.00406
2416 16.07518 245.22291 244.14753 0.00410
2417 16.08018 245.14388 249.70946 0.00400
2418 16.08518 245.06922 237.83091 0.00420
2419 16.09018 244.99904 227.56883 0.00439
2420 16.09518 244.93347 241.45428 0.00414
2421 16.10018 244.87266 246.24291 0.00406
2422 16.10518 244.81682 243.31279 0.00411
2423 16.11018 244.76616 240.57905 0.00416
2424 16.11518 244.72094 226.87719 0.00441
2425 16.12018 244.68478 246.05324 0.00406
2426 16.12518 244.65133 246.53253 0.00406
2427 16.13018 244.62430 241.98697 0.00413
2428 16.13518 244.60409 224.99571 0.00444
2429 16.14018 244.59118 229.79147 0.00435
2430 16.14518 244.58609 251.09672 0.00398
2431 16.15018 244.58941 250.78628 0.00399
2432 16.15518 244.60180 248.70877 0.00402
2433 16.16018 244.62401 246.74392 0.00405
2434 16.16518 244.65689 258.38763 0.00387
2435 16.17018 244.70139 236.80814 0.00422
2436 16.17518 244.75859 237.76591 0.00421
2437 16.18018 244.82971 221.15213 0.00452
2438 16.18518 244.91614 252.17456 0.00397
2439 16.19018 245.01946 250.36544 0.00399
2440 16.19518 245.14150 243.52167 0.00411
2441 16.20018 245.28431 260.98236 0.00383
2442 16.20518 245.45029 224.05162 0.00446
2443 16.21018 245.64229 234.87013 0.00426
2444 16.21518 245.86331 243.15021 0.00411
2445 16.22018 246.11717 232.68497 0.00430
2446 16.22518 246.40819 242.60330 0.00412
2447 16.23018 246.74148 271.93560 0.00368
2448 16.23518 247.12303 249.75219 0.00400
2449 16.24018 247.55998 241.30838 0.00414
2450 16.24518 248.06084 228.36363 0.00438
2451 16.25018 248.63587 243.21696 0.00411
2452 16.25518 249.29759 243.58232 0.00411
2453 16.26018 250.06159 238.44480 0.00419
2454 16.26518 250.94778 234.59284 0.00426
2455 16.27018 251.98264 232.86193 0.00429
2456 16.27518 253.20297 243.98863 0.00410
2457 16.28018 254.66233 249.30502 0.00401
2458 16.28518 256.44144 271.70258 0.00368
2459 16.29018 258.66392 283.00080 0.00353
2460 16.29518 261.51820 267.51840 0.00374
2461 16.30018 265.28436 274.56773 0.00364
2462 16.30518 270.36151 273.40898 0.00366
2463 16.31018 277.28684 278.71251 0.00359
2464 16.31518 286.73306 296.87853 0.00337
2465 16.32018 299.46939 339.65105 0.00294
2466 16.32518 316.27437 330.73486 0.00302
2467 16.33018 337.79692 345.54779 0.00289
2468 16.33518 364.37105 354.40134 0.00282
2469 16.34018 395.78693 406.10379 0.00246
2470 16.34518 430.99885 423.44788 0.00236
2471 16.35018 467.72769 453.02801 0.00221
2472 16.35518 502.01078 482.43716 0.00207
2473 16.36018 528.16962 523.61737 0.00191
2474 16.36518 540.18782 514.77609 0.00194
2475 16.37018 534.71128 471.92002 0.00212
2476 16.37518 513.30302 489.61487 0.00204
2477 16.38018 481.34578 470.44911 0.00213
2478 16.38518 444.92087 405.87255 0.00246
2479 16.39018 408.70422 389.80166 0.00257
2480 16.39518 375.57837 368.71671 0.00271
2481 16.40018 347.01246 323.20995 0.00309
2482 16.40518 323.50042 317.17160 0.00315
2483 16.41018 304.88934 298.30230 0.00335
2484 16.41518 290.62857 305.31617 0.00328
2485 16.42018 279.97147 287.22946 0.00348
2486 16.42518 272.13317 272.98943 0.00366
2487 16.43018 266.39787 282.68382 0.00354
2488 16.43518 262.17554 268.16568 0.00373
2489 16.44018 259.01682 266.51475 0.00375
2490 16.44518 256.60065 264.34236 0.00378
2491 16.45018 254.70884 255.25272 0.00392
2492 16.45518 253.19832 241.90971 0.00413
2493 16.46018 251.97713 249.22126 0.00401
2494 16.46518 250.98646 255.16550 0.00392
2495 16.47018 250.18851 256.64887 0.00390
2496 16.47518 249.55886 223.66808 0.00447
2497 16.48018 249.08229 222.73573 0.00449
2498 16.48518 248.75064 238.07395 0.00420
2499 16.49018 248.56233 244.43008 0.00409
2500 16.49518 248.52325 257.31578 0.00389
2501 16.50018 248.64923 253.66567 0.00394
2502 16.50518 248.97044 258.55295 0.00387
2503 16.51018 249.53802 256.44175 0.00390
2504 16.51518 250.43307 246.52354 0.00406
2505 16.52018 251.77689 258.36814 0.00387
2506 16.52518 253.74014 255.84268 0.00391
2507 16.53018 256.54693 259.65919 0.00385
2508 16.53518 260.46838 258.29463 0.00387
2509 16.54018 265.80049 255.38943 0.00392
2510 16.54518 272.81927 263.18905 0.00380
2511 16.55018 281.73637 250.94946 0.00398
2512 16.55518 292.59841 277.22051 0.00361
2513 16.56018 305.20540 317.96601 0.00314
2514 16.56518 318.97673 319.18066 0.00313
2515 16.57018 332.78191 322.01178 0.00311
2516 16.57518 344.81353 326.05052 0.00307
2517 16.58018 352.78200 345.86529 0.00289
2518 16.58518 354.73382 379.25331 0.00264
2519 16.59018 350.14415 350.85398 0.00285
2520 16.59518 340.24008 341.79143 0.00293
2521 16.60018 327.21430 323.99974 0.00309
2522 16.60518 313.19010 307.11958 0.00326
2523 16.61018 299.69554 289.24264 0.00346
2524 16.61518 287.63015 277.16802 0.00361
2525 16.62018 277.41489 272.11183 0.00367
2526 16.62518 269.14488 273.88807 0.00365
2527 16.63018 262.69962 238.23358 0.00420
2528 16.63518 257.84051 240.61900 0.00416
2529 16.64018 254.27651 240.12426 0.00416
2530 16.64518 251.71830 210.41185 0.00475
2531 16.65018 249.91169 224.34622 0.00446
2532 16.65518 248.65312 251.68033 0.00397
2533 16.66018 247.79143 245.44810 0.00407
2534 16.66518 247.22126 246.44684 0.00406
2535 16.67018 246.87324 259.72550 0.00385
2536 16.67518 246.70401 249.79154 0.00400
2537 16.68018 246.68809 231.55403 0.00432
2538 16.68518 246.81200 261.53265 0.00382
2539 16.69018 247.07047 257.95212 0.00388
2540 16.69518 247.46430 260.16105 0.00384
2541 16.70018 247.99925 247.87182 0.00403
2542 16.70518 248.68596 234.05776 0.00427
2543 16.71018 249.54054 246.11211 0.00406
2544 16.71518 250.58612 251.39498 0.00398
2545 16.72018 251.85583 262.63553 0.00381
2546 16.72518 253.39817 274.34826 0.00365
2547 16.73018 255.28596 259.03242 0.00386
2548 16.73518 257.63070 243.71134 0.00410
2549 16.74018 260.60369 258.61003 0.00387
2550 16.74518 264.46423 247.99525 0.00403
2551 16.75018 269.59253 259.07893 0.00386
2552 16.75518 276.52031 275.09902 0.00364
2553 16.76018 285.94690 246.14763 0.00406
2554 16.76518 298.72425 296.89941 0.00337
2555 16.77018 315.79383 300.20396 0.00333
2556 16.77518 338.06430 315.13663 0.00317
2557 16.78018 366.22958 322.98476 0.00310
2558 16.78518 400.52968 353.52295 0.00283
2559 16.79018 440.45758 419.14038 0.00239
2560 16.79518 484.35953 444.59008 0.00225
2561 16.80018 528.89426 511.76431 0.00195
2562 16.80518 568.52767 563.24519 0.00178
2563 16.81018 595.89030 598.25961 0.00167
2564 16.81518 604.19846 645.43298 0.00155
2565 16.82018 591.10278 645.23771 0.00155
2566 16.82518 560.33191 568.98591 0.00176
2567 16.83018 519.15621 543.05939 0.00184
2568 16.83518 474.63233 491.57730 0.00203
2569 16.84018 431.74394 430.57212 0.00232
2570 16.84518 393.37032 368.46566 0.00271
2571 16.85018 360.84541 346.53414 0.00289
2572 16.85518 334.46591 316.49563 0.00316
2573 16.86018 313.85862 297.49115 0.00336
2574 16.86518 298.26053 301.88029 0.00331
2575 16.87018 286.74282 278.58767 0.00359
2576 16.87518 278.37935 287.88433 0.00347
2577 16.88018 272.35413 273.07518 0.00366
2578 16.88518 268.00476 264.64639 0.00378
2579 16.89018 264.85537 268.92083 0.00372
2580 16.89518 262.55496 280.22848 0.00357
2581 16.90018 260.87255 259.14743 0.00386
2582 16.90518 259.65828 262.46421 0.00381
2583 16.91018 258.81689 257.24237 0.00389
2584 16.91518 258.28842 262.21037 0.00381
2585 16.92018 258.03557 257.62897 0.00388
2586 16.92518 258.03584 248.05585 0.00403
2587 16.93018 258.27722 244.47941 0.00409
2588 16.93518 258.72050 256.88876 0.00389
2589 16.94018 259.44102 261.93467 0.00382
2590 16.94518 260.41568 267.68680 0.00374
2591 16.95018 261.66762 265.90194 0.00376
2592 16.95518 263.23444 251.18181 0.00398
2593 16.96018 265.17416 255.13155 0.00392
2594 16.96518 267.57377 256.82957 0.00389
2595 16.97018 270.55996 280.39072 0.00357
2596 16.97518 274.31100 269.73612 0.00371
2597 16.98018 279.06762 266.94681 0.00375
2598 16.98518 285.13920 279.53674 0.00358
2599 16.99018 292.90152 263.60562 0.00379
2600 16.99518 302.78207 276.35048 0.00362
2601 17.00018 315.22919 316.66296 0.00316
2602 17.00518 330.66052 323.20683 0.00309
2603 17.01018 349.38063 346.00000 0.00289
2604 17.01518 371.44961 358.36658 0.00279
2605 17.02018 396.48837 409.75422 0.00244
2606 17.02518 423.47378 440.79860 0.00227
2607 17.03018 450.74382 462.49514 0.00216
2608 17.03518 476.49747 482.18977 0.00207
2609 17.04018 499.55750 518.51737 0.00193
2610 17.04518 519.46563 535.50313 0.00187
2611 17.05018 535.62739 568.53107 0.00176
2612 17.05518 546.73792 554.20878 0.00180
2613 17.06018 551.73734 557.14599 0.00179
2614 17.06518 551.71015 537.34058 0.00186
2615 17.07018 550.61969 550.84024 0.00182
2616 17.07518 554.10661 517.51571 0.00193
2617 17.08018 567.88903 521.40589 0.00192
2618 17.08518 596.99434 508.78728 0.00197
2619 17.09018 645.58867 486.96252 0.00205
2620 17.09518 716.82173 527.00000 0.00190
2621 17.10018 812.44527 612.99064 0.00163
2622 17.10518 932.17428 682.76723 0.00146
2623 17.11018 1072.71007 859.78939 0.00116
2624 17.11518 1226.23612 1098.78514 0.00091
2625 17.12018 1378.55710 1338.83900 0.00075
2626 17.12518 1508.69338 1700.45351 0.00059
2627 17.13018 1593.86888 1906.60589 0.00052
2628 17.13518 1620.93770 2056.52473 0.00049
2629 17.14018 1595.12825 2115.79586 0.00047
2630 17.14518 1535.47625 2068.74097 0.00048
2631 17.15018 1461.92240 1821.13762 0.00055
2632 17.15518 1385.67971 1522.69568 0.00066
2633 17.16018 1307.52881 1311.48671 0.00076
2634 17.16518 1221.58636 1179.15189 0.00085
2635 17.17018 1122.59870 1057.44438 0.00095
2636 17.17518 1011.95620 992.21916 0.00101
2637 17.18018 897.26685 906.69775 0.00110
2638 17.18518 787.14225 801.08903 0.00125
2639 17.19018 687.70005 685.13747 0.00146
2640 17.19518 601.83431 639.77615 0.00156
2641 17.20018 530.15931 561.84745 0.00178
2642 17.20518 471.94375 490.32426 0.00204
2643 17.21018 425.71848 427.04931 0.00234
2644 17.21518 389.65604 410.93457 0.00243
2645 17.22018 361.83753 383.27118 0.00261
2646 17.22518 340.44992 340.00014 0.00294
2647 17.23018 323.91632 340.09892 0.00294
2648 17.23518 310.95818 334.86453 0.00299
2649 17.24018 300.59912 312.11483 0.00320
2650 17.24518 292.12937 302.17943 0.00331
2651 17.25018 285.05181 301.93662 0.00331
2652 17.25518 279.02598 276.55565 0.00362
2653 17.26018 273.82012 276.48884 0.00362
2654 17.26518 269.27459 247.34538 0.00404
2655 17.27018 265.27630 244.25822 0.00409
2656 17.27518 261.74194 257.60987 0.00388
2657 17.28018 258.60706 271.88175 0.00368
2658 17.28518 255.81905 240.56665 0.00416
2659 17.29018 253.33220 253.18082 0.00395
2660 17.29518 251.10374 253.36720 0.00395
2661 17.30018 249.09784 243.18315 0.00411
2662 17.30518 247.25145 235.58720 0.00424
2663 17.31018 245.52176 274.87301 0.00364
2664 17.31518 243.86450 224.28741 0.00446
2665 17.32018 242.25599 237.40553 0.00421
2666 17.32518 240.69796 223.55355 0.00447
2667 17.33018 239.20658 238.97724 0.00418
2668 17.33518 237.79789 239.99346 0.00417
2669 17.34018 236.48096 241.26845 0.00414
2670 17.34518 235.25803 218.76526 0.00457
2671 17.35018 234.12653 240.69705 0.00415
2672 17.35518 233.08090 249.22762 0.00401
2673 17.36018 232.11393 221.69388 0.00451
2674 17.36518 231.21762 225.99571 0.00442
2675 17.37018 230.38397 218.06134 0.00459
2676 17.37518 229.60552 209.29204 0.00478
2677 17.38018 228.87563 214.11207 0.00467
2678 17.38518 228.18864 225.59100 0.00443
2679 17.39018 227.53982 222.16941 0.00450
2680 17.39518 226.92527 234.52022 0.00426
2681 17.40018 226.34174 231.16787 0.00433
2682 17.40518 225.78652 228.17011 0.00438
2683 17.41018 225.25727 234.94709 0.00426
2684 17.41518 224.75197 222.08936 0.00450
2685 17.42018 224.26883 230.29324 0.00434
2686 17.42518 223.80625 225.59134 0.00443
2687 17.43018 223.36279 237.16046 0.00422
2688 17.43518 222.93715 215.10754 0.00465
2689 17.44018 222.52813 226.87314 0.00441
2690 17.44518 222.13464 215.59283 0.00464
2691 17.45018 221.75570 218.10189 0.00459
2692 17.45518 221.39040 226.97040 0.00441
2693 17.46018 221.03789 217.09894 0.00461
2694 17.46518 220.69741 219.04177 0.00457
2695 17.47018 220.36825 217.33935 0.00460
2696 17.47518 220.04974 211.10874 0.00474
2697 17.48018 219.74129 230.56548 0.00434
2698 17.48518 219.44233 211.77545 0.00472
2699 17.49018 219.15235 217.27541 0.00460
2700 17.49518 218.87268 229.87332 0.00435
2701 17.50018 218.59925 227.60644 0.00439
2702 17.50518 218.33345 225.50874 0.00443
2703 17.51018 218.07491 206.75977 0.00484
2704 17.51518 217.82325 218.13461 0.00458
2705 17.52018 217.57815 217.38794 0.00460
2706 17.52518 217.33929 224.03573 0.00446
2707 17.53018 217.10640 219.36624 0.00456
2708 17.53518 216.87919 216.40368 0.00462
2709 17.54018 216.65742 221.88118 0.00451
2710 17.54518 216.44086 216.78332 0.00461
2711 17.55018 216.22929 208.67427 0.00479
2712 17.55518 216.02251 212.28154 0.00471
2713 17.56018 215.81468 213.07082 0.00469
2714 17.56518 215.61695 211.85189 0.00472
2715 17.57018 215.42349 215.09116 0.00465
2716 17.57518 215.23414 232.98558 0.00429
2717 17.58018 215.04879 205.88070 0.00486
2718 17.58518 214.86735 210.65238 0.00475
2719 17.59018 214.68961 204.84840 0.00488
2720 17.59518 214.51551 210.48040 0.00475
2721 17.60018 214.34497 217.92575 0.00459
2722 17.60518 214.17791 209.41757 0.00478
2723 17.61018 214.01426 210.91285 0.00474
2724 17.61518 213.85397 217.74165 0.00459
2725 17.62018 213.69700 210.54251 0.00475
2726 17.62518 213.54331 198.04716 0.00505
2727 17.63018 213.39290 228.82979 0.00437
2728 17.63518 213.24577 218.02771 0.00459
2729 17.64018 213.10192 222.89913 0.00449
2730 17.64518 212.96141 214.74469 0.00466
2731 17.65018 212.82430 221.37268 0.00452
2732 17.65518 212.69067 218.69438 0.00457
2733 17.66018 212.56065 209.71111 0.00477
2734 17.66518 212.43442 218.84657 0.00457
2735 17.67018 212.31219 213.70756 0.00468
2736 17.67518 212.19429 212.22737 0.00471
2737 17.68018 212.08115 215.24530 0.00465
2738 17.68518 211.97342 208.30177 0.00480
2739 17.69018 211.87206 209.58332 0.00477
2740 17.69518 211.77851 220.10867 0.00454
2741 17.70018 211.69493 203.76085 0.00491
2742 17.70518 211.62449 215.91697 0.00463
2743 17.71018 211.57160 211.39131 0.00473
2744 17.71518 211.54215 201.16803 0.00497
2745 17.72018 211.54341 213.83599 0.00468
2746 17.72518 211.58367 200.76405 0.00498
2747 17.73018 211.67127 229.51287 0.00436
2748 17.73518 211.81323 223.14714 0.00448
2749 17.74018 212.01335 214.27382 0.00467
2750 17.74518 212.26970 212.99908 0.00469
2751 17.75018 212.57124 213.36032 0.00469
2752 17.75518 212.89305 210.44024 0.00475
2753 17.76018 213.19078 212.49701 0.00471
2754 17.76518 213.49379 212.87169 0.00470
2755 17.77018 213.54923 222.73681 0.00449
2756 17.77518 213.41491 218.02194 0.00459
2757 17.78018 213.11161 222.42571 0.00450
2758 17.78518 212.70166 211.67372 0.00472
2759 17.79018 212.25336 212.16984 0.00471
2760 17.79518 211.81811 206.99828 0.00483
2761 17.80018 211.42693 201.38591 0.00497
2762 17.80518 211.09536 220.18674 0.00454
2763 17.81018 210.82877 192.75545 0.00519
2764 17.81518 210.62608 202.68947 0.00493
2765 17.82018 210.48250 212.77047 0.00470
2766 17.82518 210.39165 208.32466 0.00480
2767 17.83018 210.34715 201.47598 0.00496
2768 17.83518 210.34371 212.53090 0.00471
2769 17.84018 210.37783 213.48213 0.00468
2770 17.84518 210.44799 233.08751 0.00429
2771 17.85018 210.55468 222.01365 0.00450
2772 17.85518 210.70037 220.89973 0.00453
2773 17.86018 210.89272 209.31190 0.00478
2774 17.86518 211.13216 223.08452 0.00448
2775 17.87018 211.43169 230.49051 0.00434
2776 17.87518 211.80560 224.53843 0.00445
2777 17.88018 212.27499 221.74369 0.00451
2778 17.88518 212.87170 220.46094 0.00454
2779 17.89018 213.64377 229.60145 0.00436
2780 17.89518 214.66278 214.09808 0.00467
2781 17.90018 216.03204 239.00199 0.00418
2782 17.90518 217.89390 219.73858 0.00455
2783 17.91018 220.43309 216.41076 0.00462
2784 17.91518 223.87185 224.81651 0.00445
2785 17.92018 228.45307 237.77669 0.00421
2786 17.92518 234.40879 235.52943 0.00425
2787 17.93018 241.91381 249.80399 0.00400
2788 17.93518 251.02475 241.01496 0.00415
2789 17.94018 261.59980 254.40522 0.00393
2790 17.94518 273.18488 251.77753 0.00397
2791 17.95018 284.85524 269.41645 0.00371
2792 17.95518 295.07659 274.50249 0.00364
2793 17.96018 301.83764 270.64049 0.00369
2794 17.96518 303.38186 275.18783 0.00363
2795 17.97018 299.20794 285.14656 0.00351
2796 17.97518 290.47661 260.33688 0.00384
2797 17.98018 279.18912 265.56603 0.00377
2798 17.98518 267.19812 241.60663 0.00414
2799 17.99018 255.76408 235.59926 0.00424
2800 17.99518 245.58521 240.98203 0.00415
2801 18.00018 236.96258 227.84891 0.00439
2802 18.00518 229.93995 229.01005 0.00437
2803 18.01018 224.40065 224.66097 0.00445
2804 18.01518 220.13824 224.57333 0.00445
2805 18.02018 216.91106 225.88746 0.00443
2806 18.02518 214.48215 210.82577 0.00474
2807 18.03018 212.64423 207.05832 0.00483
2808 18.03518 211.23092 204.08672 0.00490
2809 18.04018 210.11746 212.58421 0.00470
2810 18.04518 209.21522 210.09480 0.00476
2811 18.05018 208.46367 207.95461 0.00481
2812 18.05518 207.82238 198.57416 0.00504
2813 18.06018 207.26446 228.41512 0.00438
2814 18.06518 206.77173 216.51387 0.00462
2815 18.07018 206.33150 201.60549 0.00496
2816 18.07518 205.93453 204.46305 0.00489
2817 18.08018 205.57381 210.78036 0.00474
2818 18.08518 205.24923 217.87270 0.00459
2819 18.09018 204.94560 219.85823 0.00455
2820 18.09518 204.66464 210.39041 0.00475
2821 18.10018 204.40335 220.41803 0.00454
2822 18.10518 204.15919 202.08578 0.00495
2823 18.11018 203.93004 193.95571 0.00516
2824 18.11518 203.71409 196.58954 0.00509
2825 18.12018 203.50980 192.86000 0.00519
2826 18.12518 203.31586 200.20049 0.00499
2827 18.13018 203.13114 224.31702 0.00446
2828 18.13518 202.95465 206.12046 0.00485
2829 18.14018 202.78555 203.66197 0.00491
2830 18.14518 202.62311 193.15743 0.00518
2831 18.15018 202.46669 186.07981 0.00537
2832 18.15518 202.31571 191.11292 0.00523
2833 18.16018 202.16970 202.17465 0.00495
2834 18.16518 202.02821 209.49678 0.00477
2835 18.17018 201.89087 205.15900 0.00487
2836 18.17518 201.75733 213.01082 0.00469
2837 18.18018 201.62729 219.25612 0.00456
2838 18.18518 201.50049 203.63761 0.00491
2839 18.19018 201.37670 198.79148 0.00503
2840 18.19518 201.25570 198.89442 0.00503
2841 18.20018 201.13730 189.59159 0.00527
2842 18.20518 201.02133 206.14113 0.00485
2843 18.21018 200.90766 212.51691 0.00471
2844 18.21518 200.79613 208.91922 0.00479
2845 18.22018 200.68664 197.16744 0.00507
2846 18.22518 200.57909 208.67575 0.00479
2847 18.23018 200.47336 202.68606 0.00493
2848 18.23518 200.36939 199.67585 0.00501
2849 18.24018 200.26710 205.26371 0.00487
2850 18.24518 200.16643 203.85970 0.00491
2851 18.25018 200.06732 191.82469 0.00521
2852 18.25518 199.96972 194.13428 0.00515
2853 18.26018 199.87359 209.74269 0.00477
2854 18.26518 199.77891 200.28129 0.00499
2855 18.27018 199.68564 199.10046 0.00502
2856 18.27518 199.58441 208.09568 0.00481
2857 18.28018 199.49396 199.13368 0.00502
2858 18.28518 199.40489 201.65213 0.00496
2859 18.29018 199.31719 200.44314 0.00499
2860 18.29518 199.23088 203.29503 0.00492
2861 18.30018 199.14596 203.03478 0.00493
2862 18.30518 199.06247 203.13240 0.00492
2863 18.31018 198.98042 195.09060 0.00513
2864 18.31518 198.89986 205.46883 0.00487
2865 18.32018 198.82082 185.74016 0.00538
2866 18.32518 198.74337 190.26385 0.00526
2867 18.33018 198.66756 199.77190 0.00501
2868 18.33518 198.59348 201.44245 0.00496
2869 18.34018 198.52120 199.73834 0.00501
2870 18.34518 198.45083 192.79423 0.00519
2871 18.35018 198.38249 203.54506 0.00491
2872 18.35518 198.31630 201.55715 0.00496
2873 18.36018 198.25243 194.01348 0.00515
2874 18.36518 198.22637 201.30301 0.00497
2875 18.37018 198.16781 196.24858 0.00510
2876 18.37518 198.11219 190.02678 0.00526
2877 18.38018 198.05975 195.37439 0.00512
2878 18.38518 198.01082 197.74816 0.00506
2879 18.39018 197.96575 193.11338 0.00518
2880 18.39518 197.92496 210.93351 0.00474
2881 18.40018 197.88893 203.57487 0.00491
2882 18.40518 197.85834 203.92379 0.00490
2883 18.41018 197.83364 196.06383 0.00510
2884 18.41518 197.81571 193.88773 0.00516
2885 18.42018 197.80550 196.85833 0.00508
2886 18.42518 197.80411 183.05699 0.00546
2887 18.43018 197.81290 199.54194 0.00501
2888 18.43518 197.83351 196.27974 0.00509
2889 18.44018 197.86802 205.78637 0.00486
2890 18.44518 197.91909 192.82942 0.00519
2891 18.45018 197.99032 197.66427 0.00506
2892 18.45518 198.08670 198.35574 0.00504
2893 18.46018 198.21546 196.36611 0.00509
2894 18.46518 198.38734 217.91831 0.00459
2895 18.47018 198.61829 205.55851 0.00486
2896 18.47518 198.93170 195.36080 0.00512
2897 18.48018 199.36081 196.92224 0.00508
2898 18.48518 199.95064 205.69143 0.00486
2899 18.49018 200.75862 198.47499 0.00504
2900 18.49518 201.85254 201.78292 0.00496
2901 18.50018 203.30494 206.51882 0.00484
2902 18.50518 205.18313 201.42421 0.00496
2903 18.51018 207.53503 200.11051 0.00500
2904 18.51518 210.37025 208.89918 0.00479
2905 18.52018 213.68878 192.08133 0.00521
2906 18.52518 217.22588 213.97808 0.00467
2907 18.53018 220.72685 213.96605 0.00467
2908 18.53518 223.69480 222.94901 0.00449
2909 18.54018 225.51380 250.58858 0.00399
2910 18.54518 225.70189 244.32575 0.00409
2911 18.55018 224.21310 231.96148 0.00431
2912 18.55518 221.47164 220.66435 0.00453
2913 18.56018 218.09699 211.50555 0.00473
2914 18.56518 214.62290 190.66350 0.00524
2915 18.57018 211.39752 219.98426 0.00455
2916 18.57518 208.60850 212.20864 0.00471
2917 18.58018 206.33578 207.74715 0.00481
2918 18.58518 204.59369 191.03197 0.00523
2919 18.59018 203.36084 200.02103 0.00500
2920 18.59518 202.60314 208.90776 0.00479
2921 18.60018 202.29252 207.17095 0.00483
2922 18.60518 202.42125 215.87445 0.00463
2923 18.61018 203.01055 205.11010 0.00488
2924 18.61518 204.11226 196.25746 0.00510
2925 18.62018 205.80283 206.14363 0.00485
2926 18.62518 208.16932 214.10915 0.00467
2927 18.63018 211.28808 219.87435 0.00455
2928 18.63518 215.19658 220.59048 0.00453
2929 18.64018 219.85716 241.60085 0.00414
2930 18.64518 225.10640 227.36424 0.00440
2931 18.65018 230.58222 231.51330 0.00432
2932 18.65518 235.64352 233.67517 0.00428
2933 18.66018 239.37419 248.37401 0.00403
2934 18.66518 240.83673 264.73195 0.00378
2935 18.67018 239.56865 250.11776 0.00400
2936 18.67518 235.89997 235.14326 0.00425
2937 18.68018 230.72092 204.91392 0.00488
2938 18.68518 224.97684 220.50718 0.00453
2939 18.69018 219.36027 221.27916 0.00452
2940 18.69518 214.27457 211.42878 0.00473
2941 18.70018 209.90867 207.34313 0.00482
2942 18.70518 206.31296 190.14580 0.00526
2943 18.71018 203.45203 202.67073 0.00493
2944 18.71518 201.24096 195.57919 0.00511
2945 18.72018 199.57210 208.46731 0.00480
2946 18.72518 198.33471 206.46732 0.00484
2947 18.73018 197.42758 210.65525 0.00475
2948 18.73518 196.76499 214.93258 0.00465
2949 18.74018 196.27687 184.94066 0.00541
2950 18.74518 195.90503 191.02827 0.00523
2951 18.75018 195.59796 200.66444 0.00498
2952 18.75518 195.30877 200.63151 0.00498
2953 18.76018 195.00097 192.07517 0.00521
2954 18.76518 194.65889 198.44549 0.00504
2955 18.77018 194.28999 221.73795 0.00451
2956 18.77518 193.91391 203.89840 0.00490
2957 18.78018 193.54948 219.66962 0.00455
2958 18.78518 193.20897 186.32179 0.00537
2959 18.79018 192.89827 181.15157 0.00552
2960 18.79518 192.61886 183.71982 0.00544
2961 18.80018 192.36954 191.12090 0.00523
2962 18.80518 192.14746 213.07791 0.00469
2963 18.81018 191.94900 189.90384 0.00527
2964 18.81518 191.77029 185.75598 0.00538
2965 18.82018 191.60769 190.60622 0.00525
2966 18.82518 191.45802 180.39501 0.00554
2967 18.83018 191.31870 191.58979 0.00522
2968 18.83518 191.18770 183.64107 0.00545
2969 18.84018 191.06350 195.84558 0.00511
2970 18.84518 190.94497 198.91543 0.00503
2971 18.85018 190.83127 190.91230 0.00524
2972 18.85518 190.70212 184.00331 0.00543
2973 18.86018 190.59641 199.64811 0.00501
2974 18.86518 190.49401 192.97615 0.00518
2975 18.87018 190.39461 175.37243 0.00570
2976 18.87518 190.29795 184.15287 0.00543
2977 18.88018 190.20379 193.43057 0.00517
2978 18.88518 190.11194 170.27966 0.00587
2979 18.89018 190.02223 197.62643 0.00506
2980 18.89518 189.93452 185.33233 0.00540
2981 18.90018 189.84869 193.33269 0.00517
2982 18.90518 189.76462 184.26261 0.00543
2983 18.91018 189.68221 193.74395 0.00516
2984 18.91518 189.60140 206.31614 0.00485
2985 18.92018 189.52211 189.54938 0.00528
2986 18.92518 189.44428 179.74340 0.00556
2987 18.93018 189.36786 181.93613 0.00550
2988 18.93518 189.29877 185.68713 0.00539
2989 18.94018 189.22509 197.73055 0.00506
2990 18.94518 189.15274 182.68882 0.00547
2991 18.95018 189.08170 198.05154 0.00505
2992 18.95518 189.01195 180.53970 0.00554
2993 18.96018 188.94352 191.31994 0.00523
2994 18.96518 188.87639 195.18166 0.00512
2995 18.97018 188.81059 186.02856 0.00538
2996 18.97518 188.74616 177.24183 0.00564
2997 18.98018 188.68311 191.07128 0.00523
2998 18.98518 188.62150 212.43117 0.00471
2999 18.99018 188.56139 185.82121 0.00538
3000 18.99518 188.50284 178.33336 0.00561
3001 19.00018 188.44593 188.39860 0.00531
3002 19.00518 188.39077 181.35892 0.00551
3003 19.01018 188.33746 193.20277 0.00518
3004 19.01518 188.28614 181.63138 0.00551
3005 19.02018 188.27605 180.55857 0.00554
3006 19.02518 188.22936 190.38141 0.00525
3007 19.03018 188.18520 179.66472 0.00557
3008 19.03518 188.14384 177.04673 0.00565
3009 19.04018 188.10557 190.72512 0.00524
3010 19.04518 188.07073 184.45798 0.00542
3011 19.05018 188.03974 201.59326 0.00496
3012 19.05518 188.01309 193.63430 0.00516
3013 19.06018 187.99136 178.40966 0.00561
3014 19.06518 187.97525 200.80468 0.00498
3015 19.07018 187.96560 189.25865 0.00528
3016 19.07518 187.96347 180.96303 0.00553
3017 19.08018 187.96388 172.31752 0.00580
3018 19.08518 187.97982 186.67938 0.00536
3019 19.09018 188.00998 180.23871 0.00555
3020 19.09518 188.05625 194.46563 0.00514
3021 19.10018 188.12330 194.83231 0.00513
3022 19.10518 188.21805 183.19892 0.00546
3023 19.11018 188.35075 207.23448 0.00483
3024 19.11518 188.53633 203.20084 0.00492
3025 19.12018 188.79582 196.14027 0.00510
3026 19.12518 189.15751 195.88897 0.00510
3027 19.13018 189.65722 186.52863 0.00536
3028 19.13518 190.33869 188.64816 0.00530
3029 19.14018 191.24284 187.00863 0.00535
3030 19.14518 192.41248 200.13651 0.00500
3031 19.15018 193.87630 192.89300 0.00518
3032 19.15518 195.63889 214.22666 0.00467
3033 19.16018 197.66410 209.40139 0.00478
3034 19.16518 199.85004 203.40685 0.00492
3035 19.17018 201.99558 214.91937 0.00465
3036 19.17518 203.77929 229.33453 0.00436
3037 19.18018 204.80985 233.80905 0.00428
3038 19.18518 204.79410 242.08383 0.00413
3039 19.19018 203.72392 241.70885 0.00414
3040 19.19518 201.88214 233.21811 0.00429
3041 19.20018 199.66020 223.66497 0.00447
3042 19.20518 197.38534 217.36168 0.00460
3043 19.21018 195.26474 214.57309 0.00466
3044 19.21518 193.40468 224.99678 0.00444
3045 19.22018 191.84422 206.15635 0.00485
3046 19.22518 190.58071 205.81813 0.00486
3047 19.23018 189.58672 194.83064 0.00513
3048 19.23518 188.82209 190.25235 0.00526
3049 19.24018 188.24283 193.87475 0.00516
3050 19.24518 187.80744 195.78329 0.00511
3051 19.25018 187.48061 184.97601 0.00541
3052 19.25518 187.23482 181.86228 0.00550
3053 19.26018 187.05025 191.25394 0.00523
3054 19.26518 186.91399 182.74538 0.00547
3055 19.27018 186.81895 186.52497 0.00536
3056 19.27518 186.76299 183.84371 0.00544
3057 19.28018 186.74845 186.72261 0.00536
3058 19.28518 186.78196 200.25968 0.00499
3059 19.29018 186.87434 182.40374 0.00548
3060 19.29518 187.04030 192.19389 0.00520
3061 19.30018 187.29747 211.72459 0.00472
3062 19.30518 187.66453 192.39232 0.00520
3063 19.31018 188.15821 186.67789 0.00536
3064 19.31518 188.76481 180.59988 0.00554
3065 19.32018 189.53228 197.82414 0.00505
3066 19.32518 190.41559 189.86277 0.00527
3067 19.33018 191.36260 191.58640 0.00522
3068 19.33518 192.27437 202.31150 0.00494
3069 19.34018 192.99905 209.45631 0.00477
3070 19.34518 193.36303 179.68008 0.00557
3071 19.35018 193.25271 210.42735 0.00475
3072 19.35518 192.68930 192.98762 0.00518
3073 19.36018 191.81363 198.87855 0.00503
3074 19.36518 190.79919 200.01795 0.00500
3075 19.37018 189.78302 178.84255 0.00559
3076 19.37518 188.84860 191.53520 0.00522
3077 19.38018 188.03694 187.14673 0.00534
3078 19.38518 187.36138 190.60170 0.00525
3079 19.39018 186.81823 197.96319 0.00505
3080 19.39518 186.39388 200.58619 0.00499
3081 19.40018 186.06985 197.06286 0.00507
3082 19.40518 185.82651 190.91205 0.00524
3083 19.41018 185.64563 174.89902 0.00572
3084 19.41518 185.51184 187.08636 0.00535
3085 19.42018 185.41311 184.02486 0.00543
3086 19.42518 185.34057 193.38554 0.00517
3087 19.43018 185.28803 181.48525 0.00551
3088 19.43518 185.25130 202.88466 0.00493
3089 19.44018 185.22762 172.18934 0.00581
3090 19.44518 185.21522 185.94360 0.00538
3091 19.45018 185.21292 178.69146 0.00560
3092 19.45518 185.21999 180.11972 0.00555
3093 19.46018 185.23598 181.63635 0.00551
3094 19.46518 185.26060 185.34737 0.00540
3095 19.47018 185.29374 185.41179 0.00539
3096 19.47518 185.33539 194.26040 0.00515
3097 19.48018 185.38564 186.65761 0.00536
3098 19.48518 185.44469 194.76358 0.00513
3099 19.49018 185.51349 179.31781 0.00558
3100 19.49518 185.59098 196.92062 0.00508
3101 19.50018 185.67830 195.15062 0.00512
3102 19.50518 185.77594 187.63036 0.00533
3103 19.51018 185.88449 184.16341 0.00543
3104 19.51518 186.00462 203.16304 0.00492
3105 19.52018 186.13710 191.95234 0.00521
3106 19.52518 186.28280 194.31497 0.00515
3107 19.53018 186.44268 184.68570 0.00541
3108 19.53518 186.61786 189.93772 0.00526
3109 19.54018 186.82740 162.06855 0.00617
3110 19.54518 187.03713 177.63348 0.00563
3111 19.55018 187.26635 187.85095 0.00532
3112 19.55518 187.51679 191.06775 0.00523
3113 19.56018 187.79045 188.32854 0.00531
3114 19.56518 188.07805 185.59551 0.00539
3115 19.57018 188.40517 196.21352 0.00510
3116 19.57518 188.76314 186.32293 0.00537
3117 19.58018 189.15521 194.91981 0.00513
3118 19.58518 189.58509 170.45036 0.00587
3119 19.59018 190.05703 200.60331 0.00498
3120 19.59518 190.57591 190.11180 0.00526
3121 19.60018 191.14734 192.79406 0.00519
3122 19.60518 191.77780 191.13336 0.00523
3123 19.61018 192.47483 182.28040 0.00549
3124 19.61518 193.24719 178.53351 0.00560
3125 19.62018 194.10515 175.78139 0.00569
3126 19.62518 195.06077 200.99534 0.00498
3127 19.63018 196.12834 205.69595 0.00486
3128 19.63518 197.32485 193.22436 0.00518
3129 19.64018 198.59208 194.06260 0.00515
3130 19.64518 200.11221 187.49379 0.00533
3131 19.65018 201.83671 204.88752 0.00488
3132 19.65518 203.80373 192.70662 0.00519
3133 19.66018 206.06260 189.52781 0.00528
3134 19.66518 208.67936 212.12844 0.00471
3135 19.67018 211.74587 210.59880 0.00475
3136 19.67518 215.39596 209.04922 0.00478
3137 19.68018 219.78168 221.08542 0.00452
3138 19.68518 225.26540 215.28564 0.00464
3139 19.69018 232.22191 209.14867 0.00478
3140 19.69518 241.23126 225.48535 0.00443
3141 19.70018 253.07236 236.70865 0.00422
3142 19.70518 268.73121 245.56029 0.00407
3143 19.71018 289.36721 252.50378 0.00396
3144 19.71518 316.22062 287.66440 0.00348
3145 19.72018 350.45116 288.85497 0.00346
3146 19.72518 392.90340 322.68133 0.00310
3147 19.73018 443.78520 358.27761 0.00279
3148 19.73518 502.20601 446.46614 0.00224
3149 19.74018 565.47110 471.87588 0.00212
3150 19.74518 628.11534 596.51247 0.00168
3151 19.75018 681.22899 679.10657 0.00147
3152 19.75518 713.70576 767.03467 0.00130
3153 19.76018 716.83529 782.95153 0.00128
3154 19.76518 689.82574 777.17666 0.00129
3155 19.77018 640.14379 766.86015 0.00130
3156 19.77518 578.96864 563.42440 0.00177
3157 19.78018 515.81307 472.68910 0.00212
3158 19.78518 456.77071 415.20868 0.00241
3159 19.79018 404.98782 371.11635 0.00269
3160 19.79518 361.64739 330.58588 0.00302
3161 19.80018 326.73271 338.36993 0.00296
3162 19.80518 299.53007 310.07937 0.00322
3163 19.81018 278.97647 281.85519 0.00355
3164 19.81518 263.91595 273.70545 0.00365
3165 19.82018 253.28187 272.43371 0.00367
3166 19.82518 246.20767 254.10786 0.00394
3167 19.83018 242.07150 274.48901 0.00364
3168 19.83518 240.48749 252.47650 0.00396
3169 19.84018 241.25788 243.03631 0.00411
3170 19.84518 244.30241 249.68581 0.00401
3171 19.85018 249.57374 246.35260 0.00406
3172 19.85518 256.96228 245.01945 0.00408
3173 19.86018 266.18025 256.25125 0.00390
3174 19.86518 276.60338 250.14386 0.00400
3175 19.87018 287.06827 245.00694 0.00408
3176 19.87518 295.75933 255.19410 0.00392
3177 19.88018 300.42329 258.31707 0.00387
3178 19.88518 299.40169 262.87489 0.00380
3179 19.89018 292.61682 250.34823 0.00399
3180 19.89518 281.62692 250.51171 0.00399
3181 19.90018 268.65282 246.78328 0.00405
3182 19.90518 255.42380 231.18595 0.00433
3183 19.91018 243.12680 234.03444 0.00427
3184 19.91518 232.33656 215.51658 0.00464
3185 19.92018 223.25382 217.41669 0.00460
3186 19.92518 215.85152 201.27614 0.00497
3187 19.93018 209.97012 208.70089 0.00479
3188 19.93518 205.38293 211.83498 0.00472
3189 19.94018 201.84358 221.79437 0.00451
3190 19.94518 199.11903 201.36258 0.00497
3191 19.95018 197.00911 200.79126 0.00498
3192 19.95518 195.35429 205.49250 0.00487
3193 19.96018 194.03486 197.07819 0.00507
3194 19.96518 192.96520 186.33377 0.00537
3195 19.97018 192.08612 187.03190 0.00535
3196 19.97518 191.35767 200.58763 0.00499
3197 19.98018 190.75319 193.06037 0.00518
3198 19.98518 190.25509 193.65265 0.00516
3199 19.99018 189.85218 182.62764 0.00548
3200 19.99518 189.53825 192.58455 0.00519
3201 20.00018 189.31160 191.05803 0.00523
3202 20.00518 189.17541 201.18568 0.00497
3203 20.01018 189.13873 193.09470 0.00518
3204 20.01518 189.21788 189.32972 0.00528
3205 20.02018 189.43798 192.88190 0.00518
3206 20.02518 189.83591 187.80608 0.00532
3207 20.03018 190.45215 192.08472 0.00521
3208 20.03518 191.34036 190.43139 0.00525
3209 20.04018 192.55439 193.17148 0.00518
3210 20.04518 194.14208 203.73289 0.00491
3211 20.05018 196.13366 206.38227 0.00485
3212 20.05518 198.52574 197.18335 0.00507
3213 20.06018 201.25726 196.20792 0.00510
3214 20.06518 204.17287 199.46862 0.00501
3215 20.07018 206.97754 198.76868 0.00503
3216 20.07518 209.22243 191.66286 0.00522
3217 20.08018 210.40648 191.18299 0.00523
3218 20.08518 210.22208 194.84596 0.00513
3219 20.09018 208.76136 201.09447 0.00497
3220 20.09518 206.45099 205.72699 0.00486
3221 20.10018 203.79400 196.25729 0.00510
3222 20.10518 201.17804 199.92968 0.00500
3223 20.11018 198.83465 195.54587 0.00511
3224 20.11518 196.87525 185.26311 0.00540
3225 20.12018 195.33485 198.90804 0.00503
3226 20.12518 194.20268 203.60485 0.00491
3227 20.13018 193.44209 191.17412 0.00523
3228 20.13518 193.00419 188.14913 0.00531
3229 20.14018 192.86035 195.98304 0.00510
3230 20.14518 192.91738 193.77336 0.00516
3231 20.15018 193.15725 193.18768 0.00518
3232 20.15518 193.54635 207.31165 0.00482
3233 20.16018 194.05628 192.65320 0.00519
3234 20.16518 194.66120 198.30403 0.00504
3235 20.17018 195.33760 216.24925 0.00462
3236 20.17518 196.06932 196.33712 0.00509
3237 20.18018 196.85510 208.15193 0.00480
3238 20.18518 197.71005 198.69084 0.00503
3239 20.19018 198.65823 199.84700 0.00500
3240 20.19518 199.72408 199.49824 0.00501
3241 20.20018 200.92909 206.74321 0.00484
3242 20.20518 202.29241 203.32618 0.00492
3243 20.21018 203.83268 209.37089 0.00478
3244 20.21518 205.56976 206.17958 0.00485
3245 20.22018 207.52603 203.73241 0.00491
3246 20.22518 209.72770 220.71225 0.00453
3247 20.23018 212.20608 210.38240 0.00475
3248 20.23518 214.99903 206.00122 0.00485
3249 20.24018 218.15276 216.33845 0.00462
3250 20.24518 221.72402 226.44353 0.00442
3251 20.25018 225.78336 234.27735 0.00427
3252 20.25518 230.41997 222.38310 0.00450
3253 20.26018 235.74944 235.79576 0.00424
3254 20.26518 241.92877 239.03931 0.00418
3255 20.27018 249.16802 251.38386 0.00398
3256 20.27518 257.77613 260.29881 0.00384
3257 20.28018 268.20007 283.34456 0.00353
3258 20.28518 281.09316 301.81978 0.00331
3259 20.29018 297.39688 342.50084 0.00292
3260 20.29518 318.42752 342.01192 0.00292
3261 20.30018 345.94685 347.13948 0.00288
3262 20.30518 382.17956 417.52136 0.00240
3263 20.31018 429.74178 465.54372 0.00215
3264 20.31518 491.44067 537.52610 0.00186
3265 20.32018 569.92327 633.97622 0.00158
3266 20.32518 667.16076 741.10503 0.00135
3267 20.33018 783.72866 754.47727 0.00133
3268 20.33518 917.74916 979.77248 0.00102
3269 20.34018 1063.24662 1088.28938 0.00092
3270 20.34518 1207.86992 1135.05371 0.00088
3271 20.35018 1331.24137 1243.01368 0.00080
3272 20.35518 1407.67816 1237.47379 0.00081
3273 20.36018 1416.66278 1291.48824 0.00077
3274 20.36518 1355.59126 1230.16061 0.00081
3275 20.37018 1241.63402 1161.28357 0.00086
3276 20.37518 1100.47566 1045.63100 0.00096
3277 20.38018 954.31488 924.73786 0.00108
3278 20.38518 817.40125 896.33754 0.00112
3279 20.39018 697.06414 726.87473 0.00138
3280 20.39518 596.04163 643.24192 0.00155
3281 20.40018 514.30020 539.67533 0.00185
3282 20.40518 450.20979 472.11808 0.00212
3283 20.41018 401.32530 447.21886 0.00224
3284 20.41518 364.93867 434.82097 0.00230
3285 20.42018 338.45626 372.49122 0.00268
3286 20.42518 319.61613 339.57054 0.00294
3287 20.43018 306.56333 336.93490 0.00297
3288 20.43518 297.81231 326.67746 0.00306
3289 20.44018 292.12802 314.80007 0.00318
3290 20.44518 288.36179 311.89095 0.00321
3291 20.45018 285.31465 287.93655 0.00347
3292 20.45518 281.77483 283.84870 0.00352
3293 20.46018 276.83991 269.68667 0.00371
3294 20.46518 270.30931 275.13978 0.00363
3295 20.47018 262.69322 266.76585 0.00375
3296 20.47518 254.79676 244.34580 0.00409
3297 20.48018 247.31357 252.55735 0.00396
3298 20.48518 240.68682 241.03617 0.00415
3299 20.49018 235.15279 246.54169 0.00406
3300 20.49518 230.81897 231.62232 0.00432
3301 20.50018 227.75981 231.46074 0.00432
3302 20.50518 226.02399 218.77166 0.00457
3303 20.51018 225.69593 221.85414 0.00451
3304 20.51518 226.91079 241.58475 0.00414
3305 20.52018 229.86111 239.07100 0.00418
3306 20.52518 234.78431 233.91363 0.00428
3307 20.53018 241.92844 233.02618 0.00429
3308 20.53518 251.49563 249.65266 0.00401
3309 20.54018 263.56089 249.96550 0.00400
3310 20.54518 277.95436 279.11189 0.00358
3311 20.55018 294.07956 284.73603 0.00351
3312 20.55518 310.64933 291.41362 0.00343
3313 20.56018 325.43806 314.19643 0.00318
3314 20.56518 335.43166 294.16262 0.00340
3315 20.57018 337.86806 314.14023 0.00318
3316 20.57518 331.83550 286.29345 0.00349
3317 20.58018 318.91087 289.60460 0.00345
3318 20.58518 302.08147 294.26298 0.00340
3319 20.59018 284.18644 295.17517 0.00339
3320 20.59518 267.15748 267.64877 0.00374
3321 20.60018 252.03949 242.07153 0.00413
3322 20.60518 239.26651 246.67990 0.00405
3323 20.61018 228.90290 258.78154 0.00386
3324 20.61518 220.80287 220.41478 0.00454
3325 20.62018 214.71908 202.77199 0.00493
3326 20.62518 210.36747 210.33774 0.00475
3327 20.63018 207.49931 214.50691 0.00466
3328 20.63518 205.92553 213.11656 0.00469
3329 20.64018 205.53571 214.57890 0.00466
3330 20.64518 206.29615 207.91122 0.00481
3331 20.65018 208.23260 210.89230 0.00474
3332 20.65518 211.40065 221.01171 0.00452
3333 20.66018 215.84641 215.31096 0.00464
3334 20.66518 221.55675 224.52889 0.00445
3335 20.67018 228.38974 232.51830 0.00430
3336 20.67518 235.97535 229.38423 0.00436
3337 20.68018 243.57809 248.40936 0.00403
3338 20.68518 250.00298 242.38722 0.00413
3339 20.69018 253.77777 243.38741 0.00411
3340 20.69518 253.70466 254.21326 0.00393
3341 20.70018 249.67722 270.21757 0.00370
3342 20.70518 242.70072 259.67767 0.00385
3343 20.71018 234.26274 255.58322 0.00391
3344 20.71518 225.59236 232.12377 0.00431
3345 20.72018 217.50340 245.88141 0.00407
3346 20.72518 210.39976 221.42587 0.00452
3347 20.73018 204.42519 232.81806 0.00430
3348 20.73518 199.56758 206.68588 0.00484
3349 20.74018 195.72577 201.62041 0.00496
3350 20.74518 192.75366 205.44974 0.00487
3351 20.75018 190.49131 193.68781 0.00516
3352 20.75518 188.78645 199.32459 0.00502
3353 20.76018 187.50738 201.93508 0.00495
3354 20.76518 186.54840 182.51126 0.00548
3355 20.77018 185.82971 197.71600 0.00506
3356 20.77518 185.29397 188.23397 0.00531
3357 20.78018 184.90153 184.54067 0.00542
3358 20.78518 184.62571 180.88202 0.00553
3359 20.79018 184.44892 188.15547 0.00531
3360 20.79518 184.35968 182.21420 0.00549
3361 20.80018 184.35068 186.20004 0.00537
3362 20.80518 184.41751 179.32443 0.00558
3363 20.81018 184.55788 187.69975 0.00533
3364 20.81518 184.77121 189.80250 0.00527
3365 20.82018 185.05838 191.52964 0.00522
3366 20.82518 185.42162 195.54835 0.00511
3367 20.83018 185.86455 188.79615 0.00530
3368 20.83518 186.39217 184.63190 0.00542
3369 20.84018 187.01103 192.72300 0.00519
3370 20.84518 187.72936 190.55715 0.00525
3371 20.85018 188.55736 190.61520 0.00525
3372 20.85518 189.50752 192.28895 0.00520
3373 20.86018 190.59508 191.98419 0.00521
3374 20.86518 191.83863 187.42757 0.00534
3375 20.87018 193.26101 188.81370 0.00530
3376 20.87518 194.89054 182.01100 0.00549
3377 20.88018 196.76304 189.21834 0.00528
3378 20.88518 198.92497 189.30062 0.00528
3379 20.89018 201.43851 192.67768 0.00519
3380 20.89518 204.38974 190.90642 0.00524
3381 20.90018 207.90125 192.76003 0.00519
3382 20.90518 212.15043 199.91691 0.00500
3383 20.91018 217.39428 217.53589 0.00460
3384 20.91518 223.99918 213.80260 0.00468
3385 20.92018 232.47154 224.65049 0.00445
3386 20.92518 243.48069 230.11489 0.00435
3387 20.93018 257.86183 231.84913 0.00431
3388 20.93518 276.58503 251.45422 0.00398
3389 20.94018 300.67789 261.48308 0.00382
3390 20.94518 331.09431 310.93800 0.00322
3391 20.95018 368.52223 386.29346 0.00259
3392 20.95518 413.10933 424.09943 0.00236
3393 20.96018 464.04539 512.23871 0.00195
3394 20.96518 518.90296 622.13185 0.00161
3395 20.97018 572.75372 715.26948 0.00140
3396 20.97518 617.64686 748.40570 0.00134
3397 20.98018 643.96083 761.05747 0.00131
3398 20.98518 644.65639 777.36678 0.00129
3399 20.99018 619.80605 684.77355 0.00146
3400 20.99518 576.54988 562.58985 0.00178
3401 21.00018 524.52943 488.09390 0.00205
3402 21.00518 471.66831 416.01395 0.00240
3403 21.01018 422.85925 360.03586 0.00278
3404 21.01518 380.50102 314.94973 0.00318
3405 21.02018 345.38859 284.52596 0.00351
3406 21.02518 317.38397 251.65536 0.00397
3407 21.03018 295.84324 248.88083 0.00402
3408 21.03518 279.88634 239.85348 0.00417
3409 21.04018 268.57709 236.49924 0.00423
3410 21.04518 261.04936 224.74061 0.00445
3411 21.05018 256.59127 216.17725 0.00463
3412 21.05518 254.69262 202.05589 0.00495
3413 21.06018 255.06626 212.16595 0.00471
3414 21.06518 257.66567 218.74233 0.00457
3415 21.07018 262.66595 221.67011 0.00451
3416 21.07518 0.00000 209.65246 0.00000
3417 21.08018 0.00000 215.46569 0.00000
3418 21.08518 0.00000 213.94113 0.00000
3419 21.09018 0.00000 226.88631 0.00000
3420 21.09518 0.00000 240.28250 0.00000
3421 21.10018 0.00000 260.03626 0.00000
3422 21.10518 0.00000 317.38680 0.00000
3423 21.11018 0.00000 382.03809 0.00000
3424 21.11518 0.00000 572.02853 0.00000
3425 21.12018 0.00000 810.64403 0.00000
3426 21.12518 0.00000 1106.68756 0.00000
3427 21.13018 0.00000 1392.95940 0.00000
3428 21.13518 0.00000 1568.89384 0.00000
3429 21.14018 0.00000 1668.49543 0.00000
3430 21.14518 0.00000 1583.43523 0.00000
3431 21.15018 0.00000 1299.36006 0.00000
3432 21.15518 0.00000 919.17170 0.00000
3433 21.16018 0.00000 588.55296 0.00000
3434 21.16518 0.00000 386.28207 0.00000
3435 21.17018 0.00000 305.12684 0.00000
3436 21.17518 0.00000 257.40645 0.00000
3437 21.18018 0.00000 240.50535 0.00000
3438 21.18518 0.00000 213.13187 0.00000
3439 21.19018 312.34211 220.11885 0.00454
3440 21.19518 286.48981 206.01186 0.00485
3441 21.20018 266.66160 198.08343 0.00505
3442 21.20518 251.45213 199.59542 0.00501
3443 21.21018 239.68477 206.11350 0.00485
3444 21.21518 230.43371 192.90360 0.00518
3445 21.22018 223.01932 204.37632 0.00489
3446 21.22518 216.94750 172.09259 0.00581
3447 21.23018 211.87612 173.50564 0.00576
3448 21.23518 207.56899 176.78996 0.00566
3449 21.24018 203.86191 191.12626 0.00523
3450 21.24518 200.63828 195.79315 0.00511
3451 21.25018 197.81261 195.85542 0.00511
3452 21.25518 195.32007 181.40534 0.00551
3453 21.26018 193.10994 179.73693 0.00556
3454 21.26518 191.14152 182.98083 0.00547
3455 21.27018 189.38157 162.04130 0.00617
3456 21.27518 187.80257 161.27439 0.00620
3457 21.28018 186.38155 193.21202 0.00518
3458 21.28518 185.09916 169.80990 0.00589
3459 21.29018 183.93905 186.20142 0.00537
3460 21.29518 182.88731 185.29340 0.00540
3461 21.30018 181.93208 172.93497 0.00578
3462 21.30518 181.06318 190.01115 0.00526
3463 21.31018 180.27178 166.04835 0.00602
3464 21.31518 179.55053 183.21764 0.00546
3465 21.32018 178.89283 178.65333 0.00560
3466 21.32518 178.29306 169.96535 0.00588
3467 21.33018 177.74632 171.64158 0.00583
3468 21.33518 177.24841 177.76601 0.00563
3469 21.34018 176.79565 172.75903 0.00579
3470 21.34518 176.38488 175.71508 0.00569
3471 21.35018 176.01339 182.63571 0.00548
3472 21.35518 175.67882 179.20272 0.00558
3473 21.36018 175.37920 170.14316 0.00588
3474 21.36518 175.11286 179.55126 0.00557
3475 21.37018 174.87842 168.71956 0.00593
3476 21.37518 174.67478 167.99472 0.00595
3477 21.38018 174.50109 180.54058 0.00554
3478 21.38518 174.35674 173.20459 0.00577
3479 21.39018 174.24137 179.54233 0.00557
3480 21.39518 174.15485 186.76919 0.00535
3481 21.40018 174.13672 168.16923 0.00595
3482 21.40518 174.10861 174.25726 0.00574
3483 21.41018 174.11041 189.07925 0.00529
3484 21.41518 174.14302 193.29653 0.00517
3485 21.42018 174.20762 183.71715 0.00544
3486 21.42518 174.30572 193.53149 0.00517
3487 21.43018 174.43919 173.14105 0.00578
3488 21.43518 174.61035 196.58778 0.00509
3489 21.44018 174.82195 183.92510 0.00544
3490 21.44518 175.07735 175.39171 0.00570
3491 21.45018 175.38244 177.93196 0.00562
3492 21.45518 175.73821 175.52175 0.00570
3493 21.46018 176.15233 190.37817 0.00525
3494 21.46518 176.63183 179.43143 0.00557
3495 21.47018 177.18533 177.19016 0.00564
3496 21.47518 177.82370 179.04398 0.00559
3497 21.48018 178.56096 185.80291 0.00538
3498 21.48518 179.41578 181.93935 0.00550
3499 21.49018 180.41361 203.24460 0.00492
3500 21.49518 181.58994 190.26287 0.00526
3501 21.50018 182.99433 189.64453 0.00527
3502 21.50518 184.69545 171.56218 0.00583
3503 21.51018 186.78596 195.95678 0.00510
3504 21.51518 189.38614 198.94739 0.00503
3505 21.52018 192.64424 199.51907 0.00501
3506 21.52518 196.73144 190.21230 0.00526
3507 21.53018 201.82949 190.81747 0.00524
3508 21.53518 208.11003 197.73327 0.00506
3509 21.54018 215.70397 219.69425 0.00455
3510 21.54518 224.65666 206.78205 0.00484
3511 21.55018 234.85763 228.58666 0.00437
3512 21.55518 245.92892 235.08962 0.00425
3513 21.56018 257.08075 256.95532 0.00389
3514 21.56518 267.04588 293.36855 0.00341
3515 21.57018 274.35034 313.59620 0.00319
3516 21.57518 278.05738 338.81298 0.00295
3517 21.58018 278.50054 311.97875 0.00321
3518 21.58518 277.23690 327.86347 0.00305
3519 21.59018 276.30710 284.36386 0.00352
3520 21.59518 277.59757 286.99046 0.00348
3521 21.60018 282.66730 318.22895 0.00314
3522 21.60518 292.83519 312.24353 0.00320
3523 21.61018 309.27477 326.03282 0.00307
3524 21.61518 333.01800 338.01169 0.00296
3525 21.62018 364.86033 369.07592 0.00271
3526 21.62518 405.16889 440.10717 0.00227
3527 21.63018 453.55969 456.71245 0.00219
3528 21.63518 508.35266 479.29231 0.00209
3529 21.64018 565.72028 513.44187 0.00195
3530 21.64518 618.76591 581.76764 0.00172
3531 21.65018 657.63714 603.33908 0.00166
3532 21.65518 672.45648 607.43542 0.00165
3533 21.66018 658.65789 604.37191 0.00165
3534 21.66518 620.10761 613.13270 0.00163
3535 21.67018 566.38873 560.73497 0.00178
3536 21.67518 507.41499 549.96144 0.00182
3537 21.68018 450.24181 506.26621 0.00198
3538 21.68518 398.77910 451.15076 0.00222
3539 21.69018 354.68994 418.33077 0.00239
3540 21.69518 318.27516 373.01747 0.00268
3541 21.70018 289.06090 344.32915 0.00290
3542 21.70518 266.16507 296.64050 0.00337
3543 21.71018 248.54069 296.64480 0.00337
3544 21.71518 235.14417 295.99686 0.00338
3545 21.72018 225.04379 270.53832 0.00370
3546 21.72518 217.47578 238.54443 0.00419
3547 21.73018 211.85741 243.65859 0.00410
3548 21.73518 207.76994 241.83179 0.00414
3549 21.74018 204.92469 225.80076 0.00443
3550 21.74518 203.12251 234.15641 0.00427
3551 21.75018 202.21087 224.63952 0.00445
3552 21.75518 202.04663 218.10100 0.00459
3553 21.76018 202.43958 235.42050 0.00425
3554 21.76518 203.10246 204.94603 0.00488
3555 21.77018 203.61096 193.30135 0.00517
3556 21.77518 203.45139 209.28764 0.00478
3557 21.78018 202.21405 196.27591 0.00509
3558 21.78518 199.82737 199.44751 0.00501
3559 21.79018 196.59059 185.03727 0.00540
3560 21.79518 192.96447 191.28702 0.00523
3561 21.80018 189.34693 185.75311 0.00538
3562 21.80518 185.98804 189.00000 0.00529
3563 21.81018 183.00917 192.02035 0.00521
3564 21.81518 180.44782 183.20275 0.00546
3565 21.82018 178.29266 182.83393 0.00547
3566 21.82518 176.50561 172.74322 0.00579
3567 21.83018 175.03571 173.55679 0.00576
3568 21.83518 173.82850 177.89133 0.00562
3569 21.84018 172.83237 189.98158 0.00526
3570 21.84518 172.00234 181.94414 0.00550
3571 21.85018 171.30169 187.53625 0.00533
3572 21.85518 170.70195 181.37372 0.00551
3573 21.86018 170.18185 164.82088 0.00607
3574 21.86518 169.72592 163.99261 0.00610
3575 21.87018 169.32297 171.19891 0.00584
3576 21.87518 168.96489 185.62102 0.00539
3577 21.88018 168.64567 160.89410 0.00622
3578 21.88518 168.36077 170.35424 0.00587
3579 21.89018 168.10661 171.39653 0.00583
3580 21.89518 167.88035 198.18877 0.00505
3581 21.90018 167.67966 178.82383 0.00559
3582 21.90518 167.50261 164.94717 0.00606
3583 21.91018 167.34762 175.45957 0.00570
3584 21.91518 167.21275 177.78373 0.00562
3585 21.92018 167.09814 181.54817 0.00551
3586 21.92518 167.00229 162.47101 0.00615
3587 21.93018 166.92448 157.10839 0.00637
3588 21.93518 166.86417 171.20885 0.00584
3589 21.94018 166.82095 170.20617 0.00588
3590 21.94518 166.79455 160.08468 0.00625
3591 21.95018 166.78483 168.83597 0.00592
3592 21.95518 166.79177 150.85468 0.00663
3593 21.96018 166.81546 171.32511 0.00584
3594 21.96518 166.85614 174.91967 0.00572
3595 21.97018 166.91415 173.01517 0.00578
3596 21.97518 166.98997 177.99021 0.00562
3597 21.98018 167.08420 199.54343 0.00501
3598 21.98518 167.19760 192.05034 0.00521
3599 21.99018 167.33109 160.93141 0.00621
3600 21.99518 167.48573 176.12802 0.00568
3601 22.00018 167.66282 168.58298 0.00593
3602 22.00518 167.86383 175.07587 0.00571
3603 22.01018 168.09503 165.16691 0.00605
3604 22.01518 168.34939 172.08153 0.00581
3605 22.02018 168.63376 172.00141 0.00581
3606 22.02518 168.95084 171.98605 0.00581
3607 22.03018 169.30377 175.30679 0.00570
3608 22.03518 169.69622 174.29976 0.00574
3609 22.04018 170.13246 174.85948 0.00572
3610 22.04518 170.61755 176.25153 0.00567
3611 22.05018 171.15750 168.30262 0.00594
3612 22.05518 171.75955 177.20684 0.00564
3613 22.06018 172.43251 165.83647 0.00603
3614 22.06518 173.18728 179.70109 0.00556
3615 22.07018 174.03752 175.98668 0.00568
3616 22.07518 175.00049 190.82721 0.00524
3617 22.08018 176.09802 165.23396 0.00605
3618 22.08518 177.35755 182.15896 0.00549
3619 22.09018 178.81324 184.31925 0.00543
3620 22.09518 180.50694 184.73259 0.00541
3621 22.10018 182.48922 184.09227 0.00543
3622 22.10518 184.82075 186.62048 0.00536
3623 22.11018 187.57447 177.73625 0.00563
3624 22.11518 190.83907 189.91729 0.00527
3625 22.12018 194.72332 206.79138 0.00484
3626 22.12518 199.35987 196.33303 0.00509
3627 22.13018 204.90643 210.49065 0.00475
3628 22.13518 211.54860 203.88209 0.00490
3629 22.14018 219.52295 210.86304 0.00474
3630 22.14518 229.18220 250.79104 0.00399
3631 22.15018 241.07262 268.27839 0.00373
3632 22.15518 255.92674 286.64978 0.00349
3633 22.16018 274.52308 288.67033 0.00346
3634 22.16518 297.53870 337.39583 0.00296
3635 22.17018 325.09952 347.25804 0.00288
3636 22.17518 356.86776 396.93155 0.00252
3637 22.18018 391.39242 412.12437 0.00243
3638 22.18518 425.59869 432.71912 0.00231
3639 22.19018 454.43198 433.59798 0.00231
3640 22.19518 471.67217 436.42962 0.00229
3641 22.20018 472.60429 430.75682 0.00232
3642 22.20518 456.98079 400.99210 0.00249
3643 22.21018 429.18607 397.91530 0.00251
3644 22.21518 395.41179 368.77158 0.00271
3645 22.22018 360.85930 354.92248 0.00282
3646 22.22518 328.77409 319.66025 0.00313
3647 22.23018 300.75116 292.55747 0.00342
3648 22.23518 277.32215 257.41066 0.00388
3649 22.24018 258.40320 247.50229 0.00404
3650 22.24518 243.57407 238.70383 0.00419
3651 22.25018 232.25323 236.93729 0.00422
3652 22.25518 223.81558 225.96338 0.00443
3653 22.26018 217.67181 216.16873 0.00463
3654 22.26518 213.31622 202.66842 0.00493
3655 22.27018 210.34788 214.92122 0.00465
3656 22.27518 208.47204 216.00014 0.00463
3657 22.28018 207.48884 216.47412 0.00462
3658 22.28518 207.27643 194.85687 0.00513
3659 22.29018 207.77279 201.41910 0.00496
3660 22.29518 208.95928 210.48454 0.00475
3661 22.30018 210.84656 208.73818 0.00479
3662 22.30518 213.46193 227.72890 0.00439
3663 22.31018 216.83614 216.26242 0.00462
3664 22.31518 220.97924 224.72246 0.00445
3665 22.32018 225.86114 226.62614 0.00441
3666 22.32518 231.36789 225.25009 0.00444
3667 22.33018 237.26254 232.62669 0.00430
3668 22.33518 243.19116 238.59635 0.00419
3669 22.34018 248.77728 244.68782 0.00409
3670 22.34518 254.03637 252.01291 0.00397
3671 22.35018 259.32283 262.57315 0.00381
3672 22.35518 265.41791 273.65735 0.00365
3673 22.36018 273.28880 289.10039 0.00346
3674 22.36518 283.98070 280.20518 0.00357
3675 22.37018 298.64425 304.70529 0.00328
3676 22.37518 318.60873 324.53852 0.00308
3677 22.38018 345.42135 376.33876 0.00266
3678 22.38518 380.81424 412.39116 0.00242
3679 22.39018 426.58308 524.69915 0.00191
3680 22.39518 484.36745 505.24943 0.00198
3681 22.40018 555.31265 683.98577 0.00146
3682 22.40518 639.55047 771.09691 0.00130
3683 22.41018 735.35342 905.19384 0.00110
3684 22.41518 837.77705 935.50518 0.00107
3685 22.42018 936.93783 999.73015 0.00100
3686 22.42518 1017.30526 1037.52428 0.00096
3687 22.43018 1060.96203 1046.73425 0.00096
3688 22.43518 1056.05342 1005.10161 0.00099
3689 22.44018 1004.53443 968.78302 0.00103
3690 22.44518 920.80909 902.22450 0.00111
3691 22.45018 822.86978 928.54071 0.00108
3692 22.45518 724.95353 741.54521 0.00135
3693 22.46018 635.59951 649.99227 0.00154
3694 22.46518 558.86114 538.25041 0.00186
3695 22.47018 496.00268 493.68700 0.00203
3696 22.47518 446.76267 432.21827 0.00231
3697 22.48018 410.07228 445.25470 0.00225
3698 22.48518 384.57351 395.42686 0.00253
3699 22.49018 368.94072 387.69090 0.00258
3700 22.49518 362.09753 382.21929 0.00262
3701 22.50018 363.33205 392.25296 0.00255
3702 22.50518 372.32881 396.97811 0.00252
3703 22.51018 389.11495 429.11543 0.00233
3704 22.51518 413.92853 441.10482 0.00227
3705 22.52018 446.98063 489.64717 0.00204
3706 22.52518 488.06826 526.40474 0.00190
3707 22.53018 536.05087 591.74630 0.00169
3708 22.53518 588.45286 552.97262 0.00181
3709 22.54018 641.84784 660.38136 0.00151
3710 22.54518 693.17170 706.94573 0.00141
3711 22.55018 741.18335 765.76125 0.00131
3712 22.55518 785.35837 813.43680 0.00123
3713 22.56018 822.90612 810.87047 0.00123
3714 22.56518 846.75108 799.95293 0.00125
3715 22.57018 847.51072 795.22029 0.00126
3716 22.57518 819.41432 770.85935 0.00130
3717 22.58018 765.17250 739.12588 0.00135
3718 22.58518 694.54924 646.27147 0.00155
3719 22.59018 618.64168 657.82828 0.00152
3720 22.59518 545.68261 538.86234 0.00186
3721 22.60018 480.24193 515.02633 0.00194
3722 22.60518 424.16152 447.97892 0.00223
3723 22.61018 377.64891 391.22066 0.00256
3724 22.61518 340.02717 350.28686 0.00285
3725 22.62018 310.18207 347.43383 0.00288
3726 22.62518 286.83888 305.25994 0.00328
3727 22.63018 268.74034 296.18881 0.00338
3728 22.63518 254.76025 274.55184 0.00364
3729 22.64018 243.96340 246.66179 0.00405
3730 22.64518 235.62255 274.19412 0.00365
3731 22.65018 229.20429 255.99416 0.00391
3732 22.65518 224.33685 243.16138 0.00411
3733 22.66018 220.77025 244.17783 0.00410
3734 22.66518 218.33622 234.86725 0.00426
3735 22.67018 216.91020 228.74321 0.00437
3736 22.67518 216.37207 237.20930 0.00422
3737 22.68018 216.57043 219.16698 0.00456
3738 22.68518 217.25827 233.82433 0.00428
3739 22.69018 218.04941 218.60378 0.00457
3740 22.69518 218.42706 225.34981 0.00444
3741 22.70018 217.89522 223.72344 0.00447
3742 22.70518 216.24329 220.74043 0.00453
3743 22.71018 213.68013 223.20254 0.00448
3744 22.71518 210.68694 213.62604 0.00468
3745 22.72018 207.75597 205.41539 0.00487
3746 22.72518 205.24476 210.59422 0.00475
3747 22.73018 203.37120 202.66343 0.00493
3748 22.73518 202.26544 198.71138 0.00503
3749 22.74018 202.02252 212.17139 0.00471
3750 22.74518 202.74310 201.53995 0.00496
3751 22.75018 204.56577 189.27979 0.00528
3752 22.75518 207.69435 204.33385 0.00489
3753 22.76018 212.41929 199.62414 0.00501
3754 22.76518 219.12868 210.99820 0.00474
3755 22.77018 228.30258 216.49909 0.00462
3756 22.77518 240.48501 225.22268 0.00444
3757 22.78018 256.22797 239.65887 0.00417
3758 22.78518 276.00387 238.46890 0.00419
3759 22.79018 300.07381 293.42912 0.00341
3760 22.79518 328.28040 340.01338 0.00294
3761 22.80018 359.70585 391.37333 0.00256
3762 22.80518 392.15628 446.30341 0.00224
3763 22.81018 421.64758 498.13872 0.00201
3764 22.81518 442.58467 488.06112 0.00205
3765 22.82018 449.57895 520.64713 0.00192
3766 22.82518 440.46317 509.81253 0.00196
3767 22.83018 417.78884 477.19306 0.00210
3768 22.83518 387.07780 465.51367 0.00215
3769 22.84018 353.82558 476.50157 0.00210
3770 22.84518 321.84489 378.44135 0.00264
3771 22.85018 293.18907 315.41852 0.00317
3772 22.85518 268.68511 273.94412 0.00365
3773 22.86018 248.43563 230.70832 0.00433
3774 22.86518 232.14575 212.67010 0.00470
3775 22.87018 219.32112 198.91693 0.00503
3776 22.87518 209.39463 211.81242 0.00472
3777 22.88018 201.81124 187.16010 0.00534
3778 22.88518 196.08204 188.33172 0.00531
3779 22.89018 191.81216 186.20979 0.00537
3780 22.89518 188.71285 173.03142 0.00578
3781 22.90018 186.57165 182.54611 0.00548
3782 22.90518 185.26654 182.31163 0.00549
3783 22.91018 184.72231 177.07512 0.00565
3784 22.91518 184.89183 189.44220 0.00528
3785 22.92018 185.73011 196.05042 0.00510
3786 22.92518 187.16312 186.23756 0.00537
3787 22.93018 189.04455 178.09867 0.00561
3788 22.93518 191.09841 184.26643 0.00543
3789 22.94018 192.87261 193.04394 0.00518
3790 22.94518 193.78290 194.79626 0.00513
3791 22.95018 193.32826 183.70839 0.00544
3792 22.95518 191.38182 188.64828 0.00530
3793 22.96018 188.17879 172.79108 0.00579
3794 22.96518 184.46192 172.61217 0.00579
3795 22.97018 180.64325 174.17981 0.00574
3796 22.97518 177.05110 175.79532 0.00569
3797 22.98018 173.85079 184.21792 0.00543
3798 22.98518 171.09960 163.25416 0.00613
3799 22.99018 168.79257 176.45808 0.00567
3800 22.99518 166.89117 165.36683 0.00605
3801 23.00018 165.34071 169.17535 0.00591
3802 23.00518 164.08141 168.54207 0.00593
3803 23.01018 163.05581 174.16982 0.00574
3804 23.01518 162.21318 169.25068 0.00591
3805 23.02018 161.51167 161.23394 0.00620
3806 23.02518 160.91852 169.70067 0.00589
3807 23.03018 160.40912 161.53426 0.00619
3808 23.03518 159.96553 165.17094 0.00605
3809 23.04018 159.60651 172.10257 0.00581
3810 23.04518 159.25962 159.98195 0.00625
3811 23.05018 158.94967 159.55762 0.00627
3812 23.05518 158.67259 174.41120 0.00573
3813 23.06018 158.41954 156.41183 0.00639
3814 23.06518 158.19483 159.98707 0.00625
3815 23.07018 157.99288 167.02270 0.00599
3816 23.07518 157.81175 174.20742 0.00574
3817 23.08018 157.64997 147.32488 0.00679
3818 23.08518 157.50601 165.42397 0.00605
3819 23.09018 157.37894 168.17859 0.00595
3820 23.09518 157.26790 147.39971 0.00678
3821 23.10018 157.17221 170.33056 0.00587
3822 23.10518 157.09137 165.01756 0.00606
3823 23.11018 157.02500 165.90406 0.00603
3824 23.11518 156.97284 171.15547 0.00584
3825 23.12018 156.93478 167.00285 0.00599
3826 23.12518 156.91082 169.20071 0.00591
3827 23.13018 156.90105 162.81751 0.00614
3828 23.13518 156.90572 159.65062 0.00626
3829 23.14018 156.92515 151.47097 0.00660
3830 23.14518 156.95981 159.08833 0.00629
3831 23.15018 157.01029 162.84908 0.00614
3832 23.15518 157.07732 171.04813 0.00585
3833 23.16018 157.16180 161.82169 0.00618
3834 23.16518 157.26476 168.79721 0.00592
3835 23.17018 157.38746 162.15773 0.00617
3836 23.17518 157.52058 164.78584 0.00607
3837 23.18018 157.68742 159.54858 0.00627
3838 23.18518 157.87916 161.03939 0.00621
3839 23.19018 158.09814 158.05447 0.00633
3840 23.19518 158.34710 159.64426 0.00626
3841 23.20018 158.62927 161.46335 0.00619
3842 23.20518 158.94845 160.72117 0.00622
3843 23.21018 159.30924 168.48966 0.00594
3844 23.21518 159.71721 167.68803 0.00596
3845 23.22018 160.17925 158.33861 0.00632
3846 23.22518 160.70414 166.19926 0.00602
3847 23.23018 161.30329 162.78937 0.00614
3848 23.23518 161.99187 157.33921 0.00636
3849 23.24018 162.79031 175.45664 0.00570
3850 23.24518 163.72618 179.81879 0.00556
3851 23.25018 164.83619 166.51245 0.00601
3852 23.25518 166.16810 164.92158 0.00606
3853 23.26018 167.78168 166.91405 0.00599
3854 23.26518 169.74831 176.81525 0.00566
3855 23.27018 172.14823 174.71554 0.00572
3856 23.27518 175.06498 180.49862 0.00554
3857 23.28018 178.57644 180.47251 0.00554
3858 23.28518 182.74101 186.73131 0.00536
3859 23.29018 187.57530 204.98863 0.00488
3860 23.29518 193.01662 190.10638 0.00526
3861 23.30018 198.86499 221.44056 0.00452
3862 23.30518 204.71819 212.82122 0.00470
3863 23.31018 210.01044 198.53462 0.00504
3864 23.31518 214.19013 239.46346 0.00418
3865 23.32018 217.11274 236.15174 0.00423
3866 23.32518 219.25629 244.07774 0.00410
3867 23.33018 221.55276 212.84009 0.00470
3868 23.33518 225.03322 228.35591 0.00438
3869 23.34018 230.60724 242.18972 0.00413
3870 23.34518 239.02533 239.43591 0.00418
3871 23.35018 250.90733 261.63988 0.00382
3872 23.35518 266.75146 308.16095 0.00325
3873 23.36018 286.90151 328.41999 0.00304
3874 23.36518 311.45738 360.23962 0.00278
3875 23.37018 340.07325 428.83633 0.00233
3876 23.37518 371.58266 461.46617 0.00217
3877 23.38018 403.58262 517.85807 0.00193
3878 23.38518 432.48784 537.54837 0.00186
3879 23.39018 454.65008 549.65632 0.00182
3880 23.39518 468.09647 569.75933 0.00176
3881 23.40018 473.04588 534.95447 0.00187
3882 23.40518 470.38174 499.50984 0.00200
3883 23.41018 460.00461 432.75291 0.00231
3884 23.41518 441.20745 381.92747 0.00262
3885 23.42018 414.53537 377.47903 0.00265
3886 23.42518 382.66061 320.37103 0.00312
3887 23.43018 349.26646 294.75818 0.00339
3888 23.43518 317.44545 278.88115 0.00359
3889 23.44018 289.01956 245.21670 0.00408
3890 23.44518 264.70455 236.15768 0.00423
3891 23.45018 244.51978 224.78713 0.00445
3892 23.45518 228.11968 190.75097 0.00524
3893 23.46018 214.99766 204.56108 0.00489
3894 23.46518 204.60180 201.14707 0.00497
3895 23.47018 196.40083 206.73545 0.00484
3896 23.47518 189.95513 195.06431 0.00513
3897 23.48018 184.79883 180.52450 0.00554
3898 23.48518 180.64698 193.78319 0.00516
3899 23.49018 177.25444 164.70178 0.00607
3900 23.49518 174.43856 168.25711 0.00594
3901 23.50018 172.06621 168.85622 0.00592
3902 23.50518 170.04120 166.90584 0.00599
3903 23.51018 168.29399 170.53654 0.00586
3904 23.51518 166.77357 164.39530 0.00608
3905 23.52018 165.44170 164.97847 0.00606
3906 23.52518 164.26897 166.67821 0.00600
3907 23.53018 163.23220 163.37331 0.00612
3908 23.53518 162.31276 164.33049 0.00609
3909 23.54018 161.49539 162.09339 0.00617
3910 23.54518 160.76767 161.85753 0.00618
3911 23.55018 160.11870 149.66099 0.00668
3912 23.55518 159.53984 171.59368 0.00583
3913 23.56018 159.02367 166.69037 0.00600
3914 23.56518 158.56391 163.88545 0.00610
3915 23.57018 158.15528 156.98320 0.00637
3916 23.57518 157.79332 155.59984 0.00643
3917 23.58018 157.47429 146.78959 0.00681
3918 23.58518 157.19504 165.20272 0.00605
3919 23.59018 156.95300 170.86556 0.00585
3920 23.59518 156.74604 163.57983 0.00611
3921 23.60018 156.53719 171.53999 0.00583
3922 23.60518 156.39594 159.70310 0.00626
3923 23.61018 156.28593 155.07619 0.00645
3924 23.61518 156.20662 156.50568 0.00639
3925 23.62018 156.15783 159.65072 0.00626
3926 23.62518 156.13972 152.85764 0.00654
3927 23.63018 156.15284 174.96612 0.00572
3928 23.63518 156.19811 158.88246 0.00629
3929 23.64018 156.27688 156.35076 0.00640
3930 23.64518 156.39088 162.64113 0.00615
3931 23.65018 156.54266 153.21300 0.00653
3932 23.65518 156.73510 153.42560 0.00652
3933 23.66018 156.97190 164.33940 0.00608
3934 23.66518 157.25763 166.33693 0.00601
3935 23.67018 157.59798 178.74039 0.00559
3936 23.67518 158.00001 158.01778 0.00633
3937 23.68018 158.47266 167.28099 0.00598
3938 23.68518 159.02742 166.59680 0.00600
3939 23.69018 159.67946 160.85382 0.00622
3940 23.69518 160.44926 155.99917 0.00641
3941 23.70018 161.36506 156.61165 0.00639
3942 23.70518 162.46618 167.94485 0.00595
3943 23.71018 163.80735 181.97729 0.00550
3944 23.71518 165.46354 176.12865 0.00568
3945 23.72018 167.53467 173.61457 0.00576
3946 23.72518 170.14875 182.41858 0.00548
3947 23.73018 173.46176 180.80922 0.00553
3948 23.73518 177.65227 156.53637 0.00639
3949 23.74018 182.90914 190.83870 0.00524
3950 23.74518 189.41061 205.06801 0.00488
3951 23.75018 197.29179 209.44887 0.00477
3952 23.75518 206.59270 222.74600 0.00449
3953 23.76018 217.17079 214.52032 0.00466
3954 23.76518 228.50419 241.54241 0.00414
3955 23.77018 239.72743 266.19106 0.00376
3956 23.77518 249.22625 272.09840 0.00368
3957 23.78018 255.17903 293.93640 0.00340
3958 23.78518 256.36474 285.57081 0.00350
3959 23.79018 252.98946 277.93504 0.00360
3960 23.79518 246.60749 267.02383 0.00374
3961 23.80018 239.23786 270.29966 0.00370
3962 23.80518 232.58482 244.37153 0.00409
3963 23.81018 227.80758 229.36824 0.00436
3964 23.81518 225.63245 233.09730 0.00429
3965 23.82018 226.52003 221.54603 0.00451
3966 23.82518 230.80127 230.95651 0.00433
3967 23.83018 238.58791 242.74402 0.00412
3968 23.83518 249.93316 243.30840 0.00411
3969 23.84018 264.61981 275.67099 0.00363
3970 23.84518 282.00990 291.67176 0.00343
3971 23.85018 300.74690 294.65150 0.00339
3972 23.85518 318.43039 342.92439 0.00292
3973 23.86018 331.64081 337.61375 0.00296
3974 23.86518 336.88726 348.93690 0.00287
3975 23.87018 332.38805 333.65426 0.00300
3976 23.87518 319.22334 321.88547 0.00311
3977 23.88018 300.57559 284.59257 0.00351
3978 23.88518 279.91997 247.79028 0.00404
3979 23.89018 259.77635 245.23287 0.00408
3980 23.89518 241.57156 213.88777 0.00468
3981 23.90018 225.90164 202.30495 0.00494
3982 23.90518 212.87148 191.91547 0.00521
3983 23.91018 202.31940 184.65321 0.00542
3984 23.91518 193.95059 192.33874 0.00520
3985 23.92018 187.41780 173.84537 0.00575
3986 23.92518 182.37291 176.53652 0.00566
3987 23.93018 178.49918 160.46404 0.00623
3988 23.93518 175.52861 163.26947 0.00612
3989 23.94018 173.24740 182.43633 0.00548
3990 23.94518 171.49309 171.78928 0.00582
3991 23.95018 170.14699 174.81481 0.00572
3992 23.95518 169.12495 177.02249 0.00565
3993 23.96018 168.36858 178.48955 0.00560
3994 23.96518 167.83799 172.97959 0.00578
3995 23.97018 167.50631 181.50407 0.00551
3996 23.97518 167.35597 173.64257 0.00576
3997 23.98018 167.37620 169.85654 0.00589
3998 23.98518 167.56184 190.13568 0.00526
3999 23.99018 167.91140 177.02133 0.00565
4000 23.99518 168.42831 172.30344 0.00580
4001 24.00018 169.11973 170.33216 0.00587
4002 24.00518 169.99703 177.49961 0.00563
4003 24.01018 171.07626 193.48319 0.00517
4004 24.01518 172.37889 180.76252 0.00553
4005 24.02018 173.93303 199.08973 0.00502
4006 24.02518 175.77540 172.05759 0.00581
4007 24.03018 177.95429 179.02796 0.00559
4008 24.03518 180.53433 195.26437 0.00512
4009 24.04018 183.60377 188.34248 0.00531
4010 24.04518 187.28524 206.22828 0.00485
4011 24.05018 191.75105 209.69297 0.00477
4012 24.05518 197.24383 196.38362 0.00509
4013 24.06018 204.09704 204.07933 0.00490
4014 24.06518 212.76369 210.29559 0.00476
4015 24.07018 223.83212 226.72369 0.00441
4016 24.07518 238.03193 240.24552 0.00416
4017 24.08018 256.21667 279.70989 0.00358
4018 24.08518 279.31423 282.95542 0.00353
4019 24.09018 308.23719 282.62647 0.00354
4020 24.09518 343.74040 332.82361 0.00300
4021 24.10018 386.19491 379.56282 0.00263
4022 24.10518 435.20838 390.14153 0.00256
4023 24.11018 488.98571 430.24599 0.00232
4024 24.11518 543.41112 484.45684 0.00206
4025 24.12018 591.30408 499.51655 0.00200
4026 24.12518 623.18489 529.40281 0.00189
4027 24.13018 630.86743 565.08587 0.00177
4028 24.13518 612.33096 562.97930 0.00178
4029 24.14018 573.14451 536.12832 0.00187
4030 24.14518 522.80975 526.92423 0.00190
4031 24.15018 470.02131 441.58651 0.00226
4032 24.15518 420.47405 415.65146 0.00241
4033 24.16018 377.01682 375.14856 0.00267
4034 24.16518 340.55214 354.58332 0.00282
4035 24.17018 310.79095 314.41375 0.00318
4036 24.17518 286.74084 312.22573 0.00320
4037 24.18018 267.09324 303.88592 0.00329
4038 24.18518 250.62391 280.80514 0.00356
4039 24.19018 236.49778 258.96483 0.00386
4040 24.19518 224.29400 234.72726 0.00426
4041 24.20018 213.81214 218.09007 0.00459
4042 24.20518 204.89273 207.67609 0.00482
4043 24.21018 197.34974 211.73403 0.00472
4044 24.21518 191.00407 201.58534 0.00496
4045 24.22018 185.66815 196.30659 0.00509
4046 24.22518 181.18008 201.32791 0.00497
4047 24.23018 177.39925 200.69250 0.00498
4048 24.23518 174.20487 205.57588 0.00486
4049 24.24018 171.49410 183.67645 0.00544
4050 24.24518 169.18064 170.82741 0.00585
4051 24.25018 167.19342 184.48916 0.00542
4052 24.25518 165.47507 177.76015 0.00563
4053 24.26018 163.98013 169.96976 0.00588
4054 24.26518 162.67300 168.38086 0.00594
4055 24.27018 161.52602 154.24995 0.00648
4056 24.27518 160.51768 171.85567 0.00582
4057 24.28018 159.63134 159.75573 0.00626
4058 24.28518 158.85444 177.20167 0.00564
4059 24.29018 158.19264 153.44674 0.00652
4060 24.29518 157.61224 169.18631 0.00591
4061 24.30018 157.08744 164.19978 0.00609
4062 24.30518 156.69859 172.15388 0.00581
4063 24.31018 156.41375 155.82479 0.00642
4064 24.31518 156.24536 168.38990 0.00594
4065 24.32018 156.21232 159.54862 0.00627
4066 24.32518 156.34068 140.59986 0.00711
4067 24.33018 156.66365 152.35064 0.00656
4068 24.33518 157.22029 167.70990 0.00596
4069 24.34018 158.05278 160.90761 0.00621
4070 24.34518 159.20145 152.65928 0.00655
4071 24.35018 160.69715 161.62860 0.00619
4072 24.35518 162.54881 166.09828 0.00602
4073 24.36018 164.72225 172.62287 0.00579
4074 24.36518 167.10510 157.46281 0.00635
4075 24.37018 169.46071 173.70347 0.00576
4076 24.37518 171.40243 171.24442 0.00584
4077 24.38018 172.46141 174.45291 0.00573
4078 24.38518 172.29137 170.16204 0.00588
4079 24.39018 170.88492 159.95722 0.00625
4080 24.39518 168.57808 174.55501 0.00573
4081 24.40018 165.83770 166.74938 0.00600
4082 24.40518 163.06276 152.94438 0.00654
4083 24.41018 160.47375 147.53032 0.00678
4084 24.41518 158.19393 148.58625 0.00673
4085 24.42018 156.25728 149.03045 0.00671
4086 24.42518 154.65176 152.35204 0.00656
4087 24.43018 153.34805 139.96293 0.00714
4088 24.43518 152.30138 147.59327 0.00678
4089 24.44018 151.46647 125.35821 0.00798
4090 24.44518 150.80065 163.19104 0.00613
4091 24.45018 150.28090 152.36149 0.00656
4092 24.45518 149.84836 153.11912 0.00653
4093 24.46018 149.49331 146.53029 0.00682
4094 24.46518 149.19783 149.33377 0.00670
4095 24.47018 148.95362 154.60861 0.00647
4096 24.47518 148.74169 160.74427 0.00622
4097 24.48018 148.56007 149.32633 0.00670
4098 24.48518 148.40385 147.55554 0.00678
4099 24.49018 148.26944 154.77949 0.00646
4100 24.49518 148.15410 154.92293 0.00645
4101 24.50018 148.05573 138.70120 0.00721
4102 24.50518 147.97267 154.47119 0.00647
4103 24.51018 147.90360 143.60314 0.00696
4104 24.51518 147.84747 144.91697 0.00690
4105 24.52018 147.80342 156.54403 0.00639
4106 24.52518 147.77079 146.46144 0.00683
4107 24.53018 147.74903 146.00931 0.00685
4108 24.53518 147.73775 146.33371 0.00683
4109 24.54018 147.73666 154.17089 0.00649
4110 24.54518 147.74555 152.30884 0.00657
4111 24.55018 147.76433 145.44523 0.00688
4112 24.55518 147.79297 135.32366 0.00739
4113 24.56018 147.83152 147.20866 0.00679
4114 24.56518 147.88012 148.34554 0.00674
4115 24.57018 147.93898 153.88584 0.00650
4116 24.57518 148.01016 153.60989 0.00651
4117 24.58018 148.09047 149.62578 0.00668
4118 24.58518 148.18212 148.94922 0.00671
4119 24.59018 148.28567 147.46843 0.00678
4120 24.59518 148.40174 141.86135 0.00705
4121 24.60018 148.53107 144.82493 0.00690
4122 24.60518 148.67454 145.23520 0.00689
4123 24.61018 148.83314 138.53346 0.00722
4124 24.61518 149.00803 149.86800 0.00667
4125 24.62018 149.20054 157.41186 0.00635
4126 24.62518 149.41223 151.03507 0.00662
4127 24.63018 149.64489 149.78298 0.00668
4128 24.63518 149.90059 144.58753 0.00692
4129 24.64018 150.18178 141.26022 0.00708
4130 24.64518 150.49131 143.12868 0.00699
4131 24.65018 150.83256 155.62952 0.00643
4132 24.65518 151.20956 145.89569 0.00685
4133 24.66018 151.62719 148.83029 0.00672
4134 24.66518 152.09148 154.46140 0.00647
4135 24.67018 152.61000 149.56439 0.00669
4136 24.67518 153.19258 156.54081 0.00639
4137 24.68018 153.85223 143.38162 0.00697
4138 24.68518 154.60660 156.38247 0.00639
4139 24.69018 155.47983 156.30267 0.00640
4140 24.69518 156.50493 172.55768 0.00580
4141 24.70018 157.72640 169.01467 0.00592
4142 24.70518 159.20264 152.21013 0.00657
4143 24.71018 161.02227 136.44365 0.00733
4144 24.71518 163.24473 170.39885 0.00587
4145 24.72018 165.98567 163.19564 0.00613
4146 24.72518 169.35118 171.18738 0.00584
4147 24.73018 173.44077 169.43556 0.00590
4148 24.73518 178.32875 186.07807 0.00537
4149 24.74018 184.03301 186.93350 0.00535
4150 24.74518 190.46134 203.51085 0.00491
4151 24.75018 197.32438 207.01554 0.00483
4152 24.75518 204.02939 215.90831 0.00463
4153 24.76018 209.64489 210.42608 0.00475
4154 24.76518 213.10987 203.07398 0.00492
4155 24.77018 213.73975 211.73496 0.00472
4156 24.77518 211.67285 202.19479 0.00495
4157 24.78018 207.78342 192.50353 0.00519
4158 24.78518 203.16140 192.50183 0.00519
4159 24.79018 198.67542 181.94232 0.00550
4160 24.79518 194.85121 180.03521 0.00555
4161 24.80018 191.94341 179.35280 0.00558
4162 24.80518 190.04155 175.02390 0.00571
4163 24.81018 189.15144 171.48598 0.00583
4164 24.81518 189.23893 163.94708 0.00610
4165 24.82018 190.26242 178.26590 0.00561
4166 24.82518 192.19281 183.45906 0.00545
4167 24.83018 195.03012 191.32044 0.00523
4168 24.83518 198.81904 178.99943 0.00559
4169 24.84018 203.66556 194.50468 0.00514
4170 24.84518 209.75788 191.17107 0.00523
4171 24.85018 217.38719 195.86149 0.00511
4172 24.85518 226.98265 212.49988 0.00471
4173 24.86018 239.11434 216.12150 0.00463
4174 24.86518 254.61471 234.98787 0.00426
4175 24.87018 274.44562 267.58498 0.00374
4176 24.87518 299.77605 299.15031 0.00334
4177 24.88018 331.90072 306.39710 0.00326
4178 24.88518 372.13160 394.08611 0.00254
4179 24.89018 421.61470 463.93969 0.00216
4180 24.89518 481.04582 559.87944 0.00179
4181 24.90018 550.17235 641.67453 0.00156
4182 24.90518 626.94504 670.41682 0.00149
4183 24.91018 706.23546 821.13468 0.00122
4184 24.91518 778.58270 888.49629 0.00113
4185 24.92018 830.62985 924.37948 0.00108
4186 24.92518 849.41929 885.71454 0.00113
4187 24.93018 829.51720 865.33713 0.00116
4188 24.93518 776.62892 887.36592 0.00113
4189 24.94018 703.83532 750.52455 0.00133
4190 24.94518 624.42194 683.09804 0.00146
4191 24.95018 547.72043 542.30661 0.00184
4192 24.95518 478.75224 458.38581 0.00218
4193 24.96018 419.49917 376.76467 0.00265
4194 24.96518 370.17599 372.11480 0.00269
4195 24.97018 330.06779 317.90605 0.00315
4196 24.97518 298.01634 275.94569 0.00362
4197 24.98018 272.70624 243.48150 0.00411
4198 24.98518 252.84158 209.66197 0.00477
4199 24.99018 237.25347 226.33805 0.00442
4200 24.99518 224.95583 197.56375 0.00506
4201 25.00018 215.16138 194.92339 0.00513
4202 25.00518 207.27002 177.02524 0.00565
4203 25.01018 200.83989 191.50444 0.00522
4204 25.01518 195.56213 176.79919 0.00566
4205 25.02018 191.21861 187.64208 0.00533
4206 25.02518 187.66274 190.01069 0.00526
4207 25.03018 184.79653 167.88320 0.00596
4208 25.03518 182.55424 167.33125 0.00598
4209 25.04018 180.88915 160.69394 0.00622
4210 25.04518 179.76145 172.39333 0.00580
4211 25.05018 179.12423 167.90466 0.00596
4212 25.05518 178.90381 175.87445 0.00569
4213 25.06018 178.97137 168.16910 0.00595
4214 25.06518 179.11293 173.09583 0.00578
4215 25.07018 179.02846 174.40751 0.00573
4216 25.07518 178.40866 167.31026 0.00598
4217 25.08018 177.08418 180.44693 0.00554
4218 25.08518 175.12692 167.59452 0.00597
4219 25.09018 172.79197 170.11640 0.00588
4220 25.09518 170.36533 154.61098 0.00647
4221 25.10018 167.98873 155.00213 0.00645
4222 25.10518 165.91803 172.15143 0.00581
4223 25.11018 164.13032 160.25179 0.00624
4224 25.11518 162.63100 156.96257 0.00637
4225 25.12018 161.40384 159.88324 0.00625
4226 25.12518 160.42251 158.94883 0.00629
4227 25.13018 159.65725 157.57909 0.00635
4228 25.13518 159.07903 152.05670 0.00658
4229 25.14018 158.66195 159.76694 0.00626
4230 25.14518 158.38471 159.64524 0.00626
4231 25.15018 158.23105 163.19480 0.00613
4232 25.15518 158.18965 155.33528 0.00644
4233 25.16018 158.25364 154.24105 0.00648
4234 25.16518 158.42006 149.28010 0.00670
4235 25.17018 158.68932 146.93375 0.00681
4236 25.17518 159.06482 146.90643 0.00681
4237 25.18018 159.55282 161.50434 0.00619
4238 25.18518 160.16251 149.02302 0.00671
4239 25.19018 160.90631 162.78008 0.00614
4240 25.19518 161.80169 155.66518 0.00642
4241 25.20018 162.86695 151.50615 0.00660
4242 25.20518 164.12985 167.72596 0.00596
4243 25.21018 165.62402 156.27389 0.00640
4244 25.21518 167.37654 150.13355 0.00666
4245 25.22018 169.47291 166.91318 0.00599
4246 25.22518 171.96700 152.55184 0.00656
4247 25.23018 174.94870 177.13213 0.00565
4248 25.23518 178.53552 183.20427 0.00546
4249 25.24018 182.88172 167.74241 0.00596
4250 25.24518 188.14401 170.11828 0.00588
4251 25.25018 194.66916 183.66960 0.00544
4252 25.25518 202.72942 191.71946 0.00522
4253 25.26018 212.69863 207.99578 0.00481
4254 25.26518 225.01014 234.77559 0.00426
4255 25.27018 240.17780 210.67110 0.00475
4256 25.27518 258.82364 252.92162 0.00395
4257 25.28018 281.64796 269.96320 0.00370
4258 25.28518 309.28254 316.49076 0.00316
4259 25.29018 342.02901 365.31793 0.00274
4260 25.29518 379.47828 401.02994 0.00249
4261 25.30018 419.94821 386.73719 0.00259
4262 25.30518 459.77331 436.74294 0.00229
4263 25.31018 492.94047 484.83598 0.00206
4264 25.31518 512.18556 472.18316 0.00212
4265 25.32018 512.16517 483.76078 0.00207
4266 25.32518 492.77035 479.86047 0.00208
4267 25.33018 459.19175 466.88354 0.00214
4268 25.33518 418.67383 425.99664 0.00235
4269 25.34018 377.29531 391.94719 0.00255
4270 25.34518 338.81509 348.65727 0.00287
4271 25.35018 305.01999 328.87794 0.00304
4272 25.35518 276.44585 296.30867 0.00337
4273 25.36018 252.94049 264.97086 0.00377
4274 25.36518 234.00602 235.40551 0.00425
4275 25.37018 218.99110 222.96455 0.00449
4276 25.37518 207.20982 209.06350 0.00478
4277 25.38018 198.00493 190.11822 0.00526
4278 25.38518 190.79260 180.50368 0.00554
4279 25.39018 185.06468 182.67593 0.00547
4280 25.39518 180.40223 178.03795 0.00562
4281 25.40018 176.48337 183.49736 0.00545
4282 25.40518 173.09397 165.22742 0.00605
4283 25.41018 170.12722 163.43349 0.00612
4284 25.41518 167.51348 160.25861 0.00624
4285 25.42018 165.23582 183.68115 0.00544
4286 25.42518 163.27381 165.44093 0.00604
4287 25.43018 161.60690 163.37033 0.00612
4288 25.43518 160.21494 153.89716 0.00650
4289 25.44018 159.07923 148.12003 0.00675
4290 25.44518 158.18221 148.87282 0.00672
4291 25.45018 157.50588 157.01667 0.00637
4292 25.45518 157.02831 150.39760 0.00665
4293 25.46018 156.71753 153.65914 0.00651
4294 25.46518 156.54158 144.45533 0.00692
4295 25.47018 156.38202 154.33101 0.00648
4296 25.47518 156.15281 147.45360 0.00678
4297 25.48018 155.75306 138.41368 0.00722
4298 25.48518 155.13628 136.32954 0.00734
4299 25.49018 154.33650 131.21465 0.00762
4300 25.49518 153.44125 140.61605 0.00711
4301 25.50018 152.54121 143.81959 0.00695
4302 25.50518 151.67722 144.38323 0.00693
4303 25.51018 150.92818 149.15659 0.00670
4304 25.51518 150.28336 150.27699 0.00665
4305 25.52018 149.74257 138.22462 0.00723
4306 25.52518 149.29946 130.33765 0.00767
4307 25.53018 148.94499 155.12437 0.00645
4308 25.53518 148.66926 147.64776 0.00677
4309 25.54018 148.46303 150.11776 0.00666
4310 25.54518 148.31824 148.81407 0.00672
4311 25.55018 148.22848 149.40341 0.00669
4312 25.55518 148.18914 146.31783 0.00683
4313 25.56018 148.19732 150.58034 0.00664
4314 25.56518 148.25177 139.57219 0.00716
4315 25.57018 148.35271 149.73035 0.00668
4316 25.57518 148.50178 140.68007 0.00711
4317 25.58018 148.70198 140.92034 0.00710
4318 25.58518 148.95788 144.34050 0.00693
4319 25.59018 149.27589 141.18196 0.00708
4320 25.59518 149.66473 140.73610 0.00711
4321 25.60018 150.13648 152.29652 0.00657
4322 25.60518 150.70776 154.59341 0.00647
4323 25.61018 151.40157 149.49982 0.00669
4324 25.61518 152.24964 153.01276 0.00654
4325 25.62018 153.29507 153.55394 0.00651
4326 25.62518 154.59509 147.94037 0.00676
4327 25.63018 156.22313 146.83318 0.00681
4328 25.63518 158.26720 155.06658 0.00645
4329 25.64018 160.83707 161.43661 0.00619
4330 25.64518 164.04544 154.39550 0.00648
4331 25.65018 168.00719 188.31038 0.00531
4332 25.65518 172.82073 183.83241 0.00544
4333 25.66018 178.55790 182.80743 0.00547
4334 25.66518 185.14631 212.86623 0.00470
4335 25.67018 192.39169 216.39474 0.00462
4336 25.67518 199.78768 227.99612 0.00439
4337 25.68018 206.43986 226.33108 0.00442
4338 25.68518 211.14984 225.40839 0.00444
4339 25.69018 212.85214 221.40728 0.00452
4340 25.69518 211.22601 235.25306 0.00425
4341 25.70018 206.91730 211.32214 0.00473
4342 25.70518 201.12141 213.63368 0.00468
4343 25.71018 194.97967 191.27751 0.00523
4344 25.71518 189.26811 189.72846 0.00527
4345 25.72018 184.39759 182.52530 0.00548
4346 25.72518 180.53156 166.96734 0.00599
4347 25.73018 177.69513 182.95996 0.00547
4348 25.73518 175.84580 194.66060 0.00514
4349 25.74018 174.91503 194.35705 0.00515
4350 25.74518 174.83406 202.08721 0.00495
4351 25.75018 175.55169 184.74383 0.00541
4352 25.75518 177.04891 200.64685 0.00498
4353 25.76018 179.35137 205.51387 0.00487
4354 25.76518 182.54211 199.78024 0.00501
4355 25.77018 186.77486 203.69045 0.00491
4356 25.77518 192.28793 236.82174 0.00422
4357 25.78018 199.41691 246.16637 0.00406
4358 25.78518 208.60266 234.74861 0.00426
4359 25.79018 220.38950 250.60531 0.00399
4360 25.79518 235.40801 270.86582 0.00369
4361 25.80018 254.33643 295.16965 0.00339
4362 25.80518 277.83289 293.65184 0.00341
4363 25.81018 306.42324 326.51394 0.00306
4364 25.81518 340.30907 335.03997 0.00298
4365 25.82018 379.02928 363.87309 0.00275
4366 25.82518 420.89928 385.79751 0.00259
4367 25.83018 462.28260 421.51200 0.00237
4368 25.83518 497.19940 434.62424 0.00230
4369 25.84018 518.37237 425.17019 0.00235
4370 25.84518 520.33043 412.01221 0.00243
4371 25.85018 502.69815 405.59907 0.00247
4372 25.85518 470.36134 405.10617 0.00247
4373 25.86018 430.36328 349.85431 0.00286
4374 25.86518 388.76654 354.17087 0.00282
4375 25.87018 349.48141 315.07691 0.00317
4376 25.87518 314.51581 290.43700 0.00344
4377 25.88018 284.59306 270.12237 0.00370
4378 25.88518 259.67446 266.77024 0.00375
4379 25.89018 239.31990 249.90713 0.00400
4380 25.89518 222.91783 232.69038 0.00430
4381 25.90018 209.81813 229.54045 0.00436
4382 25.90518 199.40159 231.28423 0.00432
4383 25.91018 191.11590 207.84650 0.00481
4384 25.91518 184.49430 181.57663 0.00551
4385 25.92018 179.16100 181.36682 0.00551
4386 25.92518 174.82597 185.44768 0.00539
4387 25.93018 171.27277 178.15279 0.00561
4388 25.93518 168.34370 184.73613 0.00541
4389 25.94018 165.92525 174.58773 0.00573
4390 25.94518 163.93550 179.08686 0.00558
4391 25.95018 162.31367 164.08615 0.00609
4392 25.95518 161.01126 168.94511 0.00592
4393 25.96018 159.98337 168.49952 0.00593
4394 25.96518 159.17875 163.39574 0.00612
4395 25.97018 158.52837 168.42292 0.00594
4396 25.97518 157.93766 169.53181 0.00590
4397 25.98018 157.29582 162.35189 0.00616
4398 25.98518 156.51233 162.27967 0.00616
4399 25.99018 155.56155 152.58747 0.00655
4400 25.99518 154.49149 156.98687 0.00637
4401 26.00018 153.38644 155.17960 0.00644
4402 26.00518 152.32239 139.39162 0.00717
4403 26.01018 151.34706 149.76310 0.00668
4404 26.01518 150.48199 147.97424 0.00676
4405 26.02018 149.72887 145.10238 0.00689
4406 26.02518 149.08849 143.75448 0.00696
4407 26.03018 148.54886 147.84615 0.00676
4408 26.03518 148.09910 163.07018 0.00613
4409 26.04018 147.72823 158.63514 0.00630
4410 26.04518 147.42604 151.64342 0.00659
4411 26.05018 147.18379 141.83469 0.00705
4412 26.05518 146.99389 145.63868 0.00687
4413 26.06018 146.85070 158.04299 0.00633
4414 26.06518 146.74958 139.41381 0.00717
4415 26.07018 146.68810 149.10907 0.00671
4416 26.07518 146.66390 152.20806 0.00657
4417 26.08018 146.67580 140.06403 0.00714
4418 26.08518 146.72333 152.67035 0.00655
4419 26.09018 146.80665 135.31833 0.00739
4420 26.09518 146.91114 143.82346 0.00695
4421 26.10018 147.06879 144.71747 0.00691
4422 26.10518 147.26608 150.39807 0.00665
4423 26.11018 147.50548 161.12115 0.00621
4424 26.11518 147.79017 150.96030 0.00662
4425 26.12018 148.12842 148.22492 0.00675
4426 26.12518 148.51631 141.17366 0.00708
4427 26.13018 148.96360 147.54058 0.00678
4428 26.13518 149.47658 141.65521 0.00706
4429 26.14018 150.06227 144.45266 0.00692
4430 26.14518 150.72824 144.73196 0.00691
4431 26.15018 151.48226 151.46595 0.00660
4432 26.15518 152.33151 145.38939 0.00688
4433 26.16018 153.28142 147.17383 0.00679
4434 26.16518 154.33427 154.00000 0.00649
4435 26.17018 155.48957 148.80690 0.00672
4436 26.17518 156.74877 144.89139 0.00690
4437 26.18018 158.12437 153.20275 0.00653
4438 26.18518 159.64717 152.29000 0.00657
4439 26.19018 161.36520 146.19226 0.00684
4440 26.19518 163.33761 157.27215 0.00636
4441 26.20018 165.63992 157.58060 0.00635
4442 26.20518 168.33519 157.95544 0.00633
4443 26.21018 171.53158 186.45753 0.00536
4444 26.21518 175.36180 160.75122 0.00622
4445 26.22018 180.00569 177.95602 0.00562
4446 26.22518 185.70654 200.58930 0.00499
4447 26.23018 192.78782 193.89314 0.00516
4448 26.23518 201.66704 187.53920 0.00533
4449 26.24018 212.86234 215.67053 0.00464
4450 26.24518 226.98623 224.59628 0.00445
4451 26.25018 244.72081 241.14762 0.00415
4452 26.25518 266.76787 268.43920 0.00373
4453 26.26018 293.76328 321.67308 0.00311
4454 26.26518 326.13128 349.24936 0.00286
4455 26.27018 363.82712 369.88500 0.00270
4456 26.27518 405.88648 405.04144 0.00247
4457 26.28018 449.73563 448.87448 0.00223
4458 26.28518 490.48252 501.29609 0.00199
4459 26.29018 521.01445 526.11012 0.00190
4460 26.29518 534.06748 524.27192 0.00191
4461 26.30018 525.97993 526.70137 0.00190
4462 26.30518 499.08382 487.71596 0.00205
4463 26.31018 460.14849 479.55876 0.00209
4464 26.31518 416.60154 411.90943 0.00243
4465 26.32018 373.93008 370.88175 0.00270
4466 26.32518 335.20797 318.48297 0.00314
4467 26.33018 301.71445 294.31491 0.00340
4468 26.33518 273.66520 265.05145 0.00377
4469 26.34018 250.71871 240.67999 0.00415
4470 26.34518 232.26937 250.32493 0.00399
4471 26.35018 217.61019 218.82019 0.00457
4472 26.35518 206.02564 212.83490 0.00470
4473 26.36018 196.84721 215.49416 0.00464
4474 26.36518 189.49129 197.03114 0.00508
4475 26.37018 183.48799 192.50236 0.00519
4476 26.37518 178.49448 198.15989 0.00505
4477 26.38018 174.28045 188.75428 0.00530
4478 26.38518 170.69313 186.36559 0.00537
4479 26.39018 167.62408 161.00000 0.00621
4480 26.39518 164.98974 155.71069 0.00642
4481 26.40018 162.72278 150.35716 0.00665
4482 26.40518 160.76810 168.85845 0.00592
4483 26.41018 159.08034 171.19702 0.00584
4484 26.41518 157.62190 174.44250 0.00573
4485 26.42018 156.36146 156.44947 0.00639
4486 26.42518 155.27286 160.81531 0.00622
4487 26.43018 154.33428 161.80268 0.00618
4488 26.43518 153.52762 154.57358 0.00647
4489 26.44018 152.83794 152.84624 0.00654
4490 26.44518 152.25305 144.86521 0.00690
4491 26.45018 151.76306 151.30866 0.00661
4492 26.45518 151.36007 169.09582 0.00591
4493 26.46018 151.03783 161.69624 0.00618
4494 26.46518 150.79152 156.15609 0.00640
4495 26.47018 150.61756 148.20713 0.00675
4496 26.47518 150.51349 134.16568 0.00745
4497 26.48018 150.47784 149.95241 0.00667
4498 26.48518 150.51011 152.90262 0.00654
4499 26.49018 150.61069 141.45407 0.00707
4500 26.49518 150.78095 146.38846 0.00683
4501 26.50018 151.01562 157.95960 0.00633
4502 26.50518 151.34020 151.05911 0.00662
4503 26.51018 151.73751 138.03761 0.00724
4504 26.51518 152.22024 129.66422 0.00771
4505 26.52018 152.79547 149.50376 0.00669
4506 26.52518 153.47191 165.81023 0.00603
4507 26.53018 154.26018 149.98799 0.00667
4508 26.53518 155.17319 145.34876 0.00688
4509 26.54018 156.22657 152.49378 0.00656
4510 26.54518 157.43939 149.57037 0.00669
4511 26.55018 158.83501 144.75006 0.00691
4512 26.55518 160.44239 152.61193 0.00655
4513 26.56018 162.29797 156.53930 0.00639
4514 26.56518 164.44849 160.34987 0.00624
4515 26.57018 166.95515 169.27399 0.00591
4516 26.57518 169.89958 162.26558 0.00616
4517 26.58018 173.39226 171.60125 0.00583
4518 26.58518 177.58265 160.12905 0.00624
4519 26.59018 182.66173 188.00050 0.00532
4520 26.59518 188.92717 167.89084 0.00596
4521 26.60018 196.71637 180.61488 0.00554
4522 26.60518 206.46935 196.81855 0.00508
4523 26.61018 218.72894 210.00739 0.00476
4524 26.61518 234.06419 199.47894 0.00501
4525 26.62018 253.12650 215.84858 0.00463
4526 26.62518 276.52568 238.68752 0.00419
4527 26.63018 304.73714 272.29411 0.00367
4528 26.63518 337.91074 302.86640 0.00330
4529 26.64018 375.52954 348.52551 0.00287
4530 26.64518 415.85448 419.48249 0.00238
4531 26.65018 455.25501 471.05168 0.00212
4532 26.65518 487.91240 507.58656 0.00197
4533 26.66018 507.09039 567.69623 0.00176
4534 26.66518 508.16892 518.72790 0.00193
4535 26.67018 491.57229 495.12129 0.00202
4536 26.67518 462.56748 495.32411 0.00202
4537 26.68018 428.16409 444.95817 0.00225
4538 26.68518 394.18896 403.12536 0.00248
4539 26.69018 364.26624 344.28464 0.00290
4540 26.69518 340.13955 314.28119 0.00318
4541 26.70018 322.30390 292.50143 0.00342
4542 26.70518 310.44529 294.82081 0.00339
4543 26.71018 303.60811 281.18000 0.00356
4544 26.71518 300.17804 260.96995 0.00383
4545 26.72018 297.88575 285.52498 0.00350
4546 26.72518 294.16203 308.63152 0.00324
4547 26.73018 287.01785 299.43623 0.00334
4548 26.73518 275.95157 288.42125 0.00347
4549 26.74018 262.00142 271.27295 0.00369
4550 26.74518 246.88879 268.00806 0.00373
4551 26.75018 232.11766 243.02678 0.00411
4552 26.75518 218.61231 234.63728 0.00426
4553 26.76018 206.78102 213.13529 0.00469
4554 26.76518 196.70370 196.47127 0.00509
4555 26.77018 188.28579 194.81588 0.00513
4556 26.77518 181.35199 184.44481 0.00542
4557 26.78018 175.69806 182.89928 0.00547
4558 26.78518 171.11953 171.42583 0.00583
4559 26.79018 167.42796 164.40403 0.00608
4560 26.79518 164.45952 169.89279 0.00589
4561 26.80018 162.07785 154.12516 0.00649
4562 26.80518 160.17234 179.28741 0.00558
4563 26.81018 158.65276 157.43982 0.00635
4564 26.81518 157.44098 160.69035 0.00622
4565 26.82018 156.45920 158.11280 0.00632
4566 26.82518 155.62464 147.64105 0.00677
4567 26.83018 154.85219 168.21754 0.00594
4568 26.83518 154.07709 193.27700 0.00517
4569 26.84018 153.28232 198.77565 0.00503
4570 26.84518 152.50305 215.00766 0.00465
4571 26.85018 151.80187 191.66590 0.00522
4572 26.85518 151.23934 192.22584 0.00520
4573 26.86018 150.85998 158.52789 0.00631
4574 26.86518 150.65275 140.79088 0.00710
4575 26.87018 150.71153 166.38873 0.00601
4576 26.87518 151.00027 141.54962 0.00706
4577 26.88018 151.50593 149.49340 0.00669
4578 26.88518 152.18825 150.64713 0.00664
4579 26.89018 152.96365 160.73133 0.00622
4580 26.89518 153.69473 142.60112 0.00701
4581 26.90018 154.20984 145.49852 0.00687
4582 26.90518 154.37110 142.19514 0.00703
4583 26.91018 154.15635 152.76537 0.00655
4584 26.91518 153.67807 137.98194 0.00725
4585 26.92018 153.11840 149.15218 0.00670
4586 26.92518 152.65944 143.56664 0.00697
4587 26.93018 152.43502 142.09558 0.00704
4588 26.93518 152.54400 147.86478 0.00676
4589 26.94018 153.02605 155.42199 0.00643
4590 26.94518 153.91267 166.08451 0.00602
4591 26.95018 155.21302 156.49336 0.00639
4592 26.95518 156.82545 173.61865 0.00576
4593 26.96018 158.62734 166.60131 0.00600
4594 26.96518 160.36435 179.69056 0.00557
4595 26.97018 161.67908 166.17964 0.00602
4596 26.97518 162.21433 165.93134 0.00603
4597 26.98018 161.79236 172.67007 0.00579
4598 26.98518 160.52449 174.81336 0.00572
4599 26.99018 158.73894 171.77832 0.00582
4600 26.99518 156.77849 156.64904 0.00638
4601 27.00018 154.91074 158.37931 0.00631
4602 27.00518 153.28344 147.75414 0.00677
4603 27.01018 151.95949 149.06382 0.00671
4604 27.01518 150.95214 147.70275 0.00677
4605 27.02018 150.24952 151.80080 0.00659
4606 27.02518 149.82906 142.78587 0.00700
4607 27.03018 149.66559 138.37360 0.00723
4608 27.03518 149.73613 148.23286 0.00675
4609 27.04018 150.02306 150.81877 0.00663
4610 27.04518 150.51614 154.54680 0.00647
4611 27.05018 151.21461 153.05768 0.00653
4612 27.05518 152.12668 140.40225 0.00712
4613 27.06018 153.27433 151.72440 0.00659
4614 27.06518 154.69396 149.31854 0.00670
4615 27.07018 156.44064 156.92248 0.00637
4616 27.07518 158.59300 138.46154 0.00722
4617 27.08018 161.25893 156.85321 0.00638
4618 27.08518 164.58126 143.80282 0.00695
4619 27.09018 168.74198 166.57589 0.00600
4620 27.09518 173.96308 167.53889 0.00597
4621 27.10018 180.50210 164.63271 0.00607
4622 27.10518 188.63984 189.13809 0.00529
4623 27.11018 198.65736 200.42745 0.00499
4624 27.11518 210.79577 230.09435 0.00435
4625 27.12018 225.18500 241.85135 0.00413
4626 27.12518 241.71320 261.72949 0.00382
4627 27.13018 259.81478 286.74264 0.00349
4628 27.13518 278.15356 285.05422 0.00351
4629 27.14018 294.40033 281.09700 0.00356
4630 27.14518 305.49194 320.06008 0.00312
4631 27.15018 308.76020 290.09555 0.00345
4632 27.15518 303.44351 289.23460 0.00346
4633 27.16018 291.19728 278.31055 0.00359
4634 27.16518 275.04208 256.03424 0.00391
4635 27.17018 257.86247 272.37711 0.00367
4636 27.17518 241.62080 235.38377 0.00425
4637 27.18018 227.34681 215.40871 0.00464
4638 27.18518 215.43358 202.21576 0.00495
4639 27.19018 205.91966 189.94273 0.00526
4640 27.19518 198.67688 187.96528 0.00532
4641 27.20018 193.50528 187.47172 0.00533
4642 27.20518 190.21243 182.35918 0.00548
4643 27.21018 188.63848 171.22553 0.00584
4644 27.21518 188.68095 175.05569 0.00571
4645 27.22018 190.30500 173.15606 0.00578
4646 27.22518 193.54360 182.82438 0.00547
4647 27.23018 198.48841 197.26937 0.00507
4648 27.23518 205.27131 194.52703 0.00514
4649 27.24018 214.03376 209.54348 0.00477
4650 27.24518 224.87466 246.78133 0.00405
4651 27.25018 237.75834 246.07209 0.00406
4652 27.25518 252.36107 263.70361 0.00379
4653 27.26018 267.86816 285.14183 0.00351
4654 27.26518 282.85137 306.69847 0.00326
4655 27.27018 295.51481 322.77589 0.00310
4656 27.27518 304.51497 313.11986 0.00319
4657 27.28018 309.90150 330.85336 0.00302
4658 27.28518 313.26127 345.68838 0.00289
4659 27.29018 316.85085 357.99986 0.00279
4660 27.29518 322.51850 376.23229 0.00266
4661 27.30018 331.05993 396.17496 0.00252
4662 27.30518 341.95597 425.60620 0.00235
4663 27.31018 353.30868 393.91363 0.00254
4664 27.31518 362.14671 454.82434 0.00220
4665 27.32018 365.49853 418.03345 0.00239
4666 27.32518 361.86130 397.95192 0.00251
4667 27.33018 351.83114 390.71875 0.00256
4668 27.33518 337.21732 423.03095 0.00236
4669 27.34018 319.73208 350.34176 0.00285
4670 27.34518 300.55883 328.33442 0.00305
4671 27.35018 280.70683 265.98240 0.00376
4672 27.35518 261.26942 235.73773 0.00424
4673 27.36018 243.25199 215.63396 0.00464
4674 27.36518 227.31447 221.62796 0.00451
4675 27.37018 213.71386 189.45575 0.00528
4676 27.37518 202.40836 176.20218 0.00568
4677 27.38018 193.19282 172.71901 0.00579
4678 27.38518 185.79961 153.85702 0.00650
4679 27.39018 179.95810 170.29929 0.00587
4680 27.39518 175.43897 160.74699 0.00622
4681 27.40018 172.01040 164.94799 0.00606
4682 27.40518 169.52549 151.17209 0.00661
4683 27.41018 167.86225 147.61885 0.00677
4684 27.41518 166.92981 147.02366 0.00680
4685 27.42018 166.65659 157.57805 0.00635
4686 27.42518 166.97262 138.89711 0.00720
4687 27.43018 167.78282 150.54299 0.00664
4688 27.43518 168.92884 151.89369 0.00658
4689 27.44018 170.14856 150.78675 0.00663
4690 27.44518 171.07080 151.02428 0.00662
4691 27.45018 171.30313 158.25726 0.00632
4692 27.45518 170.61316 148.18968 0.00675
4693 27.46018 169.06732 145.67356 0.00686
4694 27.46518 166.98149 147.08350 0.00680
4695 27.47018 164.73719 160.05019 0.00625
4696 27.47518 162.63501 155.56269 0.00643
4697 27.48018 160.85858 145.85659 0.00686
4698 27.48518 159.48874 165.32773 0.00605
4699 27.49018 158.56128 145.38209 0.00688
4700 27.49518 158.08434 162.09498 0.00617
4701 27.50018 158.06056 143.18546 0.00698
4702 27.50518 158.49958 160.79575 0.00622
4703 27.51018 159.42761 150.17157 0.00666
4704 27.51518 160.89571 160.79942 0.00622
4705 27.52018 162.98742 154.09064 0.00649
4706 27.52518 165.82061 172.23852 0.00581
4707 27.53018 169.56970 162.83311 0.00614
4708 27.53518 174.43879 167.47460 0.00597
4709 27.54018 180.67464 178.85245 0.00559
4710 27.54518 188.54925 190.55828 0.00525
4711 27.55018 198.33617 204.32507 0.00489
4712 27.55518 210.26928 218.16725 0.00458
4713 27.56018 224.46904 223.97383 0.00446
4714 27.56518 240.80897 248.71190 0.00402
4715 27.57018 258.68917 272.21694 0.00367
4716 27.57518 276.72667 295.51779 0.00338
4717 27.58018 292.53370 301.31821 0.00332
4718 27.58518 303.00625 296.13212 0.00338
4719 27.59018 305.48218 315.24297 0.00317
4720 27.59518 299.24662 299.32684 0.00334
4721 27.60018 286.00369 284.92358 0.00351
4722 27.60518 268.79688 262.77236 0.00381
4723 27.61018 250.50983 242.50390 0.00412
4724 27.61518 233.09001 237.34238 0.00421
4725 27.62018 217.54302 206.33648 0.00485
4726 27.62518 204.25136 198.75957 0.00503
4727 27.63018 193.16850 188.54477 0.00530
4728 27.63518 184.13319 181.49508 0.00551
4729 27.64018 176.88539 184.78826 0.00541
4730 27.64518 171.14499 173.48081 0.00576
4731 27.65018 166.64390 175.92934 0.00568
4732 27.65518 163.14413 168.12749 0.00595
4733 27.66018 160.44670 159.68845 0.00626
4734 27.66518 158.39398 167.86174 0.00596
4735 27.67018 156.87090 159.41948 0.00627
4736 27.67518 155.78734 171.01690 0.00585
4737 27.68018 155.09166 162.77562 0.00614
4738 27.68518 154.75189 159.60749 0.00627
4739 27.69018 154.69473 152.28973 0.00657
4740 27.69518 155.03581 152.08782 0.00658
4741 27.70018 155.72160 142.34831 0.00703
4742 27.70518 156.75908 147.43086 0.00678
4743 27.71018 158.14789 145.83682 0.00686
4744 27.71518 159.86605 153.02727 0.00653
4745 27.72018 161.85044 146.95772 0.00680
4746 27.72518 163.98181 155.31015 0.00644
4747 27.73018 166.10319 168.41689 0.00594
4748 27.73518 168.08190 163.64648 0.00611
4749 27.74018 169.92581 158.51507 0.00631
4750 27.74518 171.81506 165.51444 0.00604
4751 27.75018 174.04247 175.69432 0.00569
4752 27.75518 176.91211 177.23272 0.00564
4753 27.76018 180.67089 188.34897 0.00531
4754 27.76518 185.49357 174.28848 0.00574
4755 27.77018 191.49778 185.11453 0.00540
4756 27.77518 198.77128 201.75301 0.00496
4757 27.78018 207.49525 212.83769 0.00470
4758 27.78518 217.99828 203.01787 0.00493
4759 27.79018 230.72955 229.00382 0.00437
4760 27.79518 246.10046 255.39687 0.00392
4761 27.80018 264.25928 268.95867 0.00372
4762 27.80518 284.81719 285.53952 0.00350
4763 27.81018 306.49688 287.53598 0.00348
4764 27.81518 326.79223 326.25146 0.00307
4765 27.82018 342.03809 325.25781 0.00307
4766 27.82518 348.45803 323.91423 0.00309
4767 27.83018 344.04565 323.81537 0.00309
4768 27.83518 329.83334 312.93199 0.00320
4769 27.84018 309.19939 326.06420 0.00307
4770 27.84518 285.98419 293.68328 0.00341
4771 27.85018 263.09780 269.53878 0.00371
4772 27.85518 242.20610 256.68668 0.00390
4773 27.86018 224.01155 227.36147 0.00440
4774 27.86518 208.64204 205.04805 0.00488
4775 27.87018 195.92698 209.11187 0.00478
4776 27.87518 185.55985 203.00099 0.00493
4777 27.88018 177.18713 181.26138 0.00552
4778 27.88518 170.45732 173.46623 0.00576
4779 27.89018 165.07087 170.92869 0.00585
4780 27.89518 160.70421 168.70285 0.00593
4781 27.90018 157.14979 164.92344 0.00606
4782 27.90518 154.22475 154.35298 0.00648
4783 27.91018 151.78802 158.30660 0.00632
4784 27.91518 149.73313 145.31926 0.00688
4785 27.92018 147.98065 150.73535 0.00663
4786 27.92518 146.47150 150.43020 0.00665
4787 27.93018 145.16142 144.91178 0.00690
4788 27.93518 144.01681 143.11045 0.00699
4789 27.94018 143.01170 133.52272 0.00749
4790 27.94518 142.12561 144.40212 0.00693
4791 27.95018 141.34215 150.13118 0.00666
4792 27.95518 140.64800 144.17808 0.00694
4793 27.96018 140.03223 150.55161 0.00664
4794 27.96518 139.48583 140.81862 0.00710
4795 27.97018 139.00135 139.53049 0.00717
4796 27.97518 138.57261 136.22572 0.00734
4797 27.98018 138.19458 132.13985 0.00757
4798 27.98518 137.86317 135.18763 0.00740
4799 27.99018 137.57512 146.04455 0.00685
4800 27.99518 137.32802 142.95672 0.00700
4801 28.00018 137.12020 139.54980 0.00717
4802 28.00518 136.95081 128.05217 0.00781
4803 28.01018 136.81989 138.74738 0.00721
4804 28.01518 136.72854 141.25385 0.00708
4805 28.02018 136.67913 129.20969 0.00774
4806 28.02518 136.67571 131.48855 0.00761
4807 28.03018 136.72435 139.59993 0.00716
4808 28.03518 136.83367 137.52120 0.00727
4809 28.04018 137.01526 150.35167 0.00665
4810 28.04518 137.28400 132.69398 0.00754
4811 28.05018 137.65751 120.84895 0.00827
4812 28.05518 138.15810 136.00861 0.00735
4813 28.06018 138.80823 136.24674 0.00734
4814 28.06518 139.63096 149.43361 0.00669
4815 28.07018 140.64583 138.95836 0.00720
4816 28.07518 141.86257 137.48372 0.00727
4817 28.08018 143.26937 137.74725 0.00726
4818 28.08518 144.81343 144.14145 0.00694
4819 28.09018 146.37478 156.65810 0.00638
4820 28.09518 147.74916 133.42867 0.00749
4821 28.10018 148.64455 144.47045 0.00692
4822 28.10518 148.90543 153.46788 0.00652
4823 28.11018 148.45023 151.32568 0.00661
4824 28.11518 147.42961 145.64062 0.00687
4825 28.12018 146.10338 143.99033 0.00694
4826 28.12518 144.71042 148.59146 0.00673
4827 28.13018 143.41538 155.93331 0.00641
4828 28.13518 142.30331 133.65834 0.00748
4829 28.14018 141.40642 132.82352 0.00753
4830 28.14518 140.72775 139.59857 0.00716
4831 28.15018 140.26257 142.53740 0.00702
4832 28.15518 139.98478 143.64174 0.00696
4833 28.16018 139.88336 125.99435 0.00794
4834 28.16518 139.94734 131.64344 0.00760
4835 28.17018 140.16966 146.79361 0.00681
4836 28.17518 140.54879 162.44314 0.00616
4837 28.18018 141.08866 135.32205 0.00739
4838 28.18518 141.79761 146.74783 0.00681
4839 28.19018 142.68769 141.32677 0.00708
4840 28.19518 143.77052 143.10311 0.00699
4841 28.20018 145.05334 147.36908 0.00679
4842 28.20518 146.53033 142.00000 0.00704
4843 28.21018 148.16902 149.32029 0.00670
4844 28.21518 149.89403 142.14841 0.00703
4845 28.22018 151.58122 148.41730 0.00674
4846 28.22518 153.08636 145.78280 0.00686
4847 28.23018 154.31783 141.65158 0.00706
4848 28.23518 155.30800 163.78794 0.00611
4849 28.24018 156.21346 161.27663 0.00620
4850 28.24518 157.24399 162.22860 0.00616
4851 28.25018 158.58942 160.37319 0.00624
4852 28.25518 160.38809 169.64808 0.00589
4853 28.26018 162.72551 166.03807 0.00602
4854 28.26518 165.63977 187.14208 0.00534
4855 28.27018 169.12832 170.56492 0.00586
4856 28.27518 173.17595 175.16292 0.00571
4857 28.28018 177.81234 188.31240 0.00531
4858 28.28518 183.17955 178.40088 0.00561
4859 28.29018 189.53840 195.44105 0.00512
4860 28.29518 197.19462 214.07791 0.00467
4861 28.30018 206.39105 227.62682 0.00439
4862 28.30518 217.20009 247.33888 0.00404
4863 28.31018 229.39830 302.20931 0.00331
4864 28.31518 242.30765 321.07559 0.00311
4865 28.32018 254.68677 336.62735 0.00297
4866 28.32518 264.90585 337.97918 0.00296
4867 28.33018 271.60964 366.12178 0.00273
4868 28.33518 274.58817 365.17383 0.00274
4869 28.34018 275.07813 381.82802 0.00262
4870 28.34518 275.16576 319.61666 0.00313
4871 28.35018 276.89483 320.60503 0.00312
4872 28.35518 281.74233 311.87939 0.00321
4873 28.36018 290.50768 312.03833 0.00320
4874 28.36518 303.32340 342.66891 0.00292
4875 28.37018 319.55400 318.42707 0.00314
4876 28.37518 337.52577 364.55420 0.00274
4877 28.38018 354.26853 380.14781 0.00263
4878 28.38518 365.76763 402.60724 0.00248
4879 28.39018 368.25062 386.27889 0.00259
4880 28.39518 360.11246 391.29366 0.00256
4881 28.40018 342.85891 333.72319 0.00300
4882 28.40518 320.07203 326.92776 0.00306
4883 28.41018 295.49268 317.20140 0.00315
4884 28.41518 271.80975 278.75934 0.00359
4885 28.42018 250.48545 260.45416 0.00384
4886 28.42518 232.08667 226.37426 0.00442
4887 28.43018 216.65907 206.79639 0.00484
4888 28.43518 203.98516 206.26099 0.00485
4889 28.44018 193.73194 193.52860 0.00517
4890 28.44518 185.53029 196.34044 0.00509
4891 28.45018 179.01870 182.29956 0.00549
4892 28.45518 173.86979 175.09083 0.00571
4893 28.46018 169.80720 177.11483 0.00565
4894 28.46518 166.61318 165.62583 0.00604
4895 28.47018 164.12550 156.22493 0.00640
4896 28.47518 162.22716 162.22823 0.00616
4897 28.48018 160.83550 159.28484 0.00628
4898 28.48518 159.89454 171.67201 0.00583
4899 28.49018 159.36457 164.42677 0.00608
4900 28.49518 159.24108 155.15432 0.00645
4901 28.50018 159.52156 163.59434 0.00611
4902 28.50518 160.22749 159.93740 0.00625
4903 28.51018 161.40169 159.54241 0.00627
4904 28.51518 163.11378 171.90579 0.00582
4905 28.52018 165.46806 168.03836 0.00595
4906 28.52518 168.61138 176.30430 0.00567
4907 28.53018 172.73762 187.85763 0.00532
4908 28.53518 178.08716 192.26151 0.00520
4909 28.54018 184.94151 200.13394 0.00500
4910 28.54518 193.61210 200.76072 0.00498
4911 28.55018 204.41927 204.72607 0.00488
4912 28.55518 217.65351 228.44353 0.00438
4913 28.56018 233.50340 238.32317 0.00420
4914 28.56518 251.92177 231.24547 0.00432
4915 28.57018 272.39264 263.32646 0.00380
4916 28.57518 293.59357 262.15203 0.00381
4917 28.58018 313.09393 283.13268 0.00353
4918 28.58518 327.48317 309.32319 0.00323
4919 28.59018 333.43135 291.22202 0.00343
4920 28.59518 329.36611 297.23901 0.00336
4921 28.60018 316.41787 283.45529 0.00353
4922 28.60518 297.65199 264.40736 0.00378
4923 28.61018 276.43666 269.07767 0.00372
4924 28.61518 255.33906 263.52970 0.00379
4925 28.62018 235.88977 223.89869 0.00447
4926 28.62518 218.80009 210.12881 0.00476
4927 28.63018 204.25285 192.12881 0.00520
4928 28.63518 192.13877 194.07519 0.00515
4929 28.64018 182.20314 183.16211 0.00546
4930 28.64518 174.13565 182.28850 0.00549
4931 28.65018 167.58929 168.42263 0.00594
4932 28.65518 162.33422 178.15913 0.00561
4933 28.66018 158.08167 165.34861 0.00605
4934 28.66518 154.61395 150.01448 0.00667
4935 28.67018 151.75500 158.30087 0.00632
4936 28.67518 149.36092 159.32936 0.00628
4937 28.68018 147.32045 160.04843 0.00625
4938 28.68518 145.55208 144.50096 0.00692
4939 28.69018 144.00076 153.31760 0.00652
4940 28.69518 142.63082 149.76973 0.00668
4941 28.70018 141.41806 156.42010 0.00639
4942 28.70518 140.34312 136.01447 0.00735
4943 28.71018 139.38926 146.53834 0.00682
4944 28.71518 138.54154 133.03535 0.00752
4945 28.72018 137.78671 146.59604 0.00682
4946 28.72518 137.11323 142.49314 0.00702
4947 28.73018 136.51106 142.72419 0.00701
4948 28.73518 135.97156 129.63055 0.00771
4949 28.74018 135.48733 122.40643 0.00817
4950 28.74518 135.05655 139.34660 0.00718
4951 28.75018 134.67411 130.17098 0.00768
4952 28.75518 134.32113 163.67299 0.00611
4953 28.76018 134.00304 153.10001 0.00653
4954 28.76518 133.71651 123.95085 0.00807
4955 28.77018 133.45868 128.40084 0.00779
4956 28.77518 133.22712 119.44158 0.00837
4957 28.78018 133.01976 118.27373 0.00845
4958 28.78518 132.83486 122.54053 0.00816
4959 28.79018 132.67090 134.46981 0.00744
4960 28.79518 132.52621 127.60451 0.00784
4961 28.80018 132.40055 119.36490 0.00838
4962 28.80518 132.29411 130.88081 0.00764
4963 28.81018 132.20317 141.89759 0.00705
4964 28.81518 132.12863 130.21569 0.00768
4965 28.82018 132.07318 119.01757 0.00840
4966 28.82518 132.03026 132.18378 0.00757
4967 28.83018 132.00276 130.48096 0.00766
4968 28.83518 131.99062 120.02152 0.00833
4969 28.84018 131.99386 125.13813 0.00799
4970 28.84518 132.01264 128.58407 0.00778
4971 28.85018 132.04723 136.27351 0.00734
4972 28.85518 132.09800 122.53763 0.00816
4973 28.86018 132.16549 125.81767 0.00795
4974 28.86518 132.25035 131.54593 0.00760
4975 28.87018 132.35338 127.53925 0.00784
4976 28.87518 132.47555 142.18790 0.00703
4977 28.88018 132.61800 130.01336 0.00769
4978 28.88518 132.78209 133.23263 0.00751
4979 28.89018 132.96938 130.39116 0.00767
4980 28.89518 133.18172 139.24295 0.00718
4981 28.90018 133.42123 140.56395 0.00711
4982 28.90518 133.69040 127.74381 0.00783
4983 28.91018 133.99211 135.25916 0.00739
4984 28.91518 134.32975 136.70408 0.00732
4985 28.92018 134.70729 128.74990 0.00777
4986 28.92518 135.12937 136.98429 0.00730
4987 28.93018 135.60152 126.09743 0.00793
4988 28.93518 136.13027 122.23191 0.00818
4989 28.94018 136.72338 137.89849 0.00725
4990 28.94518 137.39437 138.01986 0.00725
4991 28.95018 138.14560 144.85735 0.00690
4992 28.95518 138.99433 117.79650 0.00849
4993 28.96018 139.95596 140.54107 0.00712
4994 28.96518 141.04874 125.13859 0.00799
4995 28.97018 142.29435 127.64443 0.00783
4996 28.97518 143.71857 131.11002 0.00763
4997 28.98018 145.35209 139.59240 0.00716
4998 28.98518 147.23121 123.64711 0.00809
4999 28.99018 149.39881 135.95407 0.00736
5000 28.99518 151.90646 141.84572 0.00705
5001 29.00018 154.82110 140.65230 0.00711
5002 29.00518 158.23848 127.45066 0.00785
5003 29.01018 162.30261 138.33401 0.00723
5004 29.01518 167.21919 134.86822 0.00741
5005 29.02018 173.25396 162.30350 0.00616
5006 29.02518 180.71936 149.60578 0.00668
5007 29.03018 189.95798 153.95991 0.00650
5008 29.03518 201.32538 178.01576 0.00562
5009 29.04018 215.15109 186.36655 0.00537
5010 29.04518 231.69193 189.15069 0.00529
5011 29.05018 251.01076 227.26114 0.00440
5012 29.05518 272.77274 245.74100 0.00407
5013 29.06018 295.92063 292.71914 0.00342
5014 29.06518 318.30860 321.74130 0.00311
5015 29.07018 336.61739 351.49885 0.00284
5016 29.07518 347.09270 368.67098 0.00271
5017 29.08018 347.22451 394.70402 0.00253
5018 29.08518 337.24706 388.52931 0.00257
5019 29.09018 320.02837 382.16482 0.00262
5020 29.09518 299.42390 347.15241 0.00288
5021 29.10018 278.70074 291.26272 0.00343
5022 29.10518 259.94265 253.31449 0.00395
5023 29.11018 244.20531 240.85140 0.00415
5024 29.11518 231.88851 231.06694 0.00433
5025 29.12018 223.00668 220.71515 0.00453
5026 29.12518 217.50537 188.90582 0.00529
5027 29.13018 215.14309 200.38417 0.00499
5028 29.13518 215.64403 189.86414 0.00527
5029 29.14018 218.62227 211.53843 0.00473
5030 29.14518 223.47679 216.32683 0.00462
5031 29.15018 229.23875 206.84297 0.00483
5032 29.15518 234.46745 200.58492 0.00499
5033 29.16018 237.40893 187.43927 0.00534
5034 29.16518 236.58191 226.55129 0.00441
5035 29.17018 231.52303 219.03611 0.00457
5036 29.17518 223.02089 199.79506 0.00501
5037 29.18018 212.58485 207.00561 0.00483
5038 29.18518 201.68314 181.42668 0.00551
5039 29.19018 191.32527 189.73339 0.00527
5040 29.19518 182.03518 157.95679 0.00633
5041 29.20018 173.99653 162.28895 0.00616
5042 29.20518 167.19886 185.67120 0.00539
5043 29.21018 161.53712 154.19529 0.00649
5044 29.21518 156.86746 156.18030 0.00640
5045 29.22018 153.03709 151.13923 0.00662
5046 29.22518 149.90009 144.39945 0.00693
5047 29.23018 147.32572 154.10701 0.00649
5048 29.23518 145.21144 133.36957 0.00750
5049 29.24018 143.44675 132.28850 0.00756
5050 29.24518 141.96743 129.91070 0.00770
5051 29.25018 140.71621 140.78482 0.00710
5052 29.25518 139.64923 141.10557 0.00709
5053 29.26018 138.73313 124.98556 0.00800
5054 29.26518 137.94256 134.80107 0.00742
5055 29.27018 137.25812 131.93304 0.00758
5056 29.27518 136.66481 126.24416 0.00792
5057 29.28018 136.15087 128.14197 0.00780
5058 29.28518 135.70695 131.05390 0.00763
5059 29.29018 135.32555 130.97097 0.00764
5060 29.29518 135.00062 132.29158 0.00756
5061 29.30018 134.72729 137.84186 0.00725
5062 29.30518 134.50165 131.95411 0.00758
5063 29.31018 134.32060 132.52770 0.00755
5064 29.31518 134.18177 139.23785 0.00718
5065 29.32018 134.08344 139.25141 0.00718
5066 29.32518 134.02446 131.08781 0.00763
5067 29.33018 134.00424 134.56810 0.00743
5068 29.33518 134.02274 132.37823 0.00755
5069 29.34018 134.08046 121.02078 0.00826
5070 29.34518 134.17845 139.40931 0.00717
5071 29.35018 134.31838 130.37465 0.00767
5072 29.35518 134.50258 137.38385 0.00728
5073 29.36018 134.73412 145.55336 0.00687
5074 29.36518 135.01697 136.74682 0.00731
5075 29.37018 135.35614 139.57979 0.00716
5076 29.37518 135.75799 128.90356 0.00776
5077 29.38018 136.23053 121.49055 0.00823
5078 29.38518 136.78400 131.06659 0.00763
5079 29.39018 137.43162 138.22880 0.00723
5080 29.39518 138.19062 131.49646 0.00760
5081 29.40018 139.08368 144.86435 0.00690
5082 29.40518 140.14072 133.41526 0.00750
5083 29.41018 141.40109 146.02073 0.00685
5084 29.41518 142.91587 159.23401 0.00628
5085 29.42018 144.75020 153.46219 0.00652
5086 29.42518 146.98486 163.75858 0.00611
5087 29.43018 149.71688 177.40218 0.00564
5088 29.43518 153.05814 184.99128 0.00541
5089 29.44018 157.13123 177.33575 0.00564
5090 29.44518 162.06096 176.69812 0.00566
5091 29.45018 167.95813 185.38316 0.00539
5092 29.45518 174.88904 201.26471 0.00497
5093 29.46018 182.81719 200.87557 0.00498
5094 29.46518 191.50809 209.31550 0.00478
5095 29.47018 200.39563 216.58190 0.00462
5096 29.47518 208.48232 221.97210 0.00451
5097 29.48018 214.43925 212.11082 0.00471
5098 29.48518 217.06202 185.73088 0.00538
5099 29.49018 215.91452 204.10497 0.00490
5100 29.49518 211.61474 197.45366 0.00506
5101 29.50018 205.46554 203.62432 0.00491
5102 29.50518 198.78063 190.45615 0.00525
5103 29.51018 192.61436 195.07714 0.00513
5104 29.51518 187.49550 178.65088 0.00560
5105 29.52018 183.70838 178.38627 0.00561
5106 29.52518 181.36999 169.21114 0.00591
5107 29.53018 180.53278 181.35020 0.00551
5108 29.53518 181.24243 189.48740 0.00528
5109 29.54018 183.56988 169.28490 0.00591
5110 29.54518 187.62774 196.80934 0.00508
5111 29.55018 193.57579 205.08501 0.00488
5112 29.55518 201.61626 216.41983 0.00462
5113 29.56018 211.97657 246.38598 0.00406
5114 29.56518 224.87202 238.60648 0.00419
5115 29.57018 240.43155 241.50998 0.00414
5116 29.57518 258.55072 295.32027 0.00339
5117 29.58018 278.69853 320.97291 0.00312
5118 29.58518 299.57005 332.46810 0.00301
5119 29.59018 318.95085 335.38313 0.00298
5120 29.59518 334.05029 313.55154 0.00319
5121 29.60018 342.61410 338.22323 0.00296
5122 29.60518 344.24219 342.20145 0.00292
5123 29.61018 340.68440 330.87512 0.00302
5124 29.61518 334.73044 321.54461 0.00311
5125 29.62018 328.69586 325.03936 0.00308
5126 29.62518 323.50978 294.15527 0.00340
5127 29.63018 318.57567 279.99544 0.00357
5128 29.63518 312.25348 274.27006 0.00365
5129 29.64018 302.85433 266.08028 0.00376
5130 29.64518 289.72148 263.15245 0.00380
5131 29.65018 273.61778 273.02108 0.00366
5132 29.65518 256.16454 254.64729 0.00393
5133 29.66018 238.97261 239.47659 0.00418
5134 29.66518 223.13838 237.39244 0.00421
5135 29.67018 209.19197 204.74393 0.00488
5136 29.67518 197.25901 187.79204 0.00533
5137 29.68018 187.23841 203.46178 0.00491
5138 29.68518 178.92548 178.52924 0.00560
5139 29.69018 172.08299 188.11572 0.00532
5140 29.69518 166.47517 177.36565 0.00564
5141 29.70018 161.88596 173.53475 0.00576
5142 29.70518 158.12643 150.29701 0.00665
5143 29.71018 155.03721 160.04462 0.00625
5144 29.71518 152.48796 170.51009 0.00586
5145 29.72018 150.37484 161.75260 0.00618
5146 29.72518 148.61694 146.67979 0.00682
5147 29.73018 147.15239 156.46861 0.00639
5148 29.73518 145.93460 148.67680 0.00673
5149 29.74018 144.92895 151.35135 0.00661
5150 29.74518 144.11018 148.07880 0.00675
5151 29.75018 143.46037 143.85942 0.00695
5152 29.75518 142.96659 139.41028 0.00717
5153 29.76018 142.62295 143.16757 0.00698
5154 29.76518 142.42489 140.56173 0.00711
5155 29.77018 142.37153 147.81326 0.00677
5156 29.77518 142.46382 146.12487 0.00684
5157 29.78018 142.70329 139.16890 0.00719
5158 29.78518 143.08950 164.08367 0.00609
5159 29.79018 143.61609 149.63325 0.00668
5160 29.79518 144.26455 153.38385 0.00652
5161 29.80018 144.99699 150.92105 0.00663
5162 29.80518 145.75377 157.17537 0.00636
5163 29.81018 146.46607 146.63807 0.00682
5164 29.81518 147.08714 139.33078 0.00718
5165 29.82018 147.62382 145.50463 0.00687
5166 29.82518 148.13896 154.63041 0.00647
5167 29.83018 148.72267 155.34997 0.00644
5168 29.83518 149.45887 153.73270 0.00650
5169 29.84018 150.41830 152.31541 0.00657
5170 29.84518 151.66815 147.11584 0.00680
5171 29.85018 153.22096 160.41883 0.00623
5172 29.85518 155.14257 152.03813 0.00658
5173 29.86018 157.49327 154.17462 0.00649
5174 29.86518 160.35193 163.24907 0.00613
5175 29.87018 163.82345 168.12929 0.00595
5176 29.87518 168.04687 181.01212 0.00552
5177 29.88018 173.20360 180.40049 0.00554
5178 29.88518 179.52519 176.70044 0.00566
5179 29.89018 187.29906 187.52043 0.00533
5180 29.89518 196.87037 199.22230 0.00502
5181 29.90018 208.64171 228.99120 0.00437
5182 29.90518 223.03886 223.85433 0.00447
5183 29.91018 240.50288 256.84958 0.00389
5184 29.91518 261.40269 283.75170 0.00352
5185 29.92018 285.91237 322.91027 0.00310
5186 29.92518 313.79900 347.37306 0.00288
5187 29.93018 344.12836 359.27725 0.00278
5188 29.93518 374.98272 404.53152 0.00247
5189 29.94018 403.40222 440.14808 0.00227
5190 29.94518 425.75038 432.26953 0.00231
5191 29.95018 438.52430 442.70186 0.00226
5192 29.95518 439.50692 414.28548 0.00241
5193 29.96018 428.90338 438.21419 0.00228
5194 29.96518 409.57094 409.41723 0.00244
5195 29.97018 385.79166 374.59556 0.00267
5196 29.97518 361.49080 360.38145 0.00277
5197 29.98018 339.12977 328.01290 0.00305
5198 29.98518 319.53064 295.33776 0.00339
5199 29.99018 302.24709 295.00207 0.00339
5200 29.99518 286.21168 270.36325 0.00370
5201 30.00018 270.43765 255.86956 0.00391
5202 30.00518 254.63883 257.68371 0.00388
5203 30.01018 239.19321 243.07238 0.00411
5204 30.01518 224.72914 234.82171 0.00426
5205 30.02018 211.78500 214.84267 0.00465
5206 30.02518 200.57955 210.17343 0.00476
5207 30.03018 191.11438 201.73010 0.00496
5208 30.03518 183.25544 203.34354 0.00492
5209 30.04018 176.80609 191.98904 0.00521
5210 30.04518 171.54421 179.85033 0.00556
5211 30.05018 167.23431 175.32701 0.00570
5212 30.05518 163.63228 172.03355 0.00581
5213 30.06018 160.50204 160.86917 0.00622
5214 30.06518 157.65407 166.12522 0.00602
5215 30.07018 154.98346 164.32612 0.00609
5216 30.07518 152.47229 166.04769 0.00602
5217 30.08018 150.15135 150.66051 0.00664
5218 30.08518 148.05592 143.38549 0.00697
5219 30.09018 146.20365 144.21655 0.00693
5220 30.09518 144.59336 151.54556 0.00660
5221 30.10018 143.21205 155.09372 0.00645
5222 30.10518 142.04181 150.80399 0.00663
5223 30.11018 141.06419 138.75054 0.00721
5224 30.11518 140.26268 146.50869 0.00683
5225 30.12018 139.62400 150.40595 0.00665
5226 30.12518 139.13896 142.40270 0.00702
5227 30.13018 138.80314 139.54010 0.00717
5228 30.13518 138.61762 140.08966 0.00714
5229 30.14018 138.58967 134.10358 0.00746
5230 30.14518 138.72390 131.79667 0.00759
5231 30.15018 139.06104 136.34941 0.00733
5232 30.15518 139.62079 127.46761 0.00785
5233 30.16018 140.43987 134.56503 0.00743
5234 30.16518 141.56131 141.30095 0.00708
5235 30.17018 143.03213 133.58656 0.00749
5236 30.17518 144.89877 144.22260 0.00693
5237 30.18018 147.19845 128.96803 0.00775
5238 30.18518 149.94276 146.64336 0.00682
5239 30.19018 153.08809 143.98398 0.00695
5240 30.19518 156.47480 160.24449 0.00624
5241 30.20018 159.82968 148.66916 0.00673
5242 30.20518 162.66249 158.31381 0.00632
5243 30.21018 164.41535 152.00279 0.00658
5244 30.21518 164.67565 139.21757 0.00718
5245 30.22018 163.42967 148.05844 0.00675
5246 30.22518 161.05274 150.60145 0.00664
5247 30.23018 158.11220 155.36862 0.00644
5248 30.23518 155.11874 138.39933 0.00723
5249 30.24018 152.41403 160.48199 0.00623
5250 30.24518 150.18348 140.90702 0.00710
5251 30.25018 148.48968 145.64071 0.00687
5252 30.25518 147.34790 137.62515 0.00727
5253 30.26018 146.73654 138.50436 0.00722
5254 30.26518 146.61301 138.25607 0.00723
5255 30.27018 146.90934 140.47009 0.00712
5256 30.27518 147.53755 140.65022 0.00711
5257 30.28018 148.38969 140.46510 0.00712
5258 30.28518 149.35510 134.37810 0.00744
5259 30.29018 150.39036 148.01802 0.00676
5260 30.29518 151.54062 140.25741 0.00713
5261 30.30018 152.92456 138.40783 0.00723
5262 30.30518 154.67499 154.22332 0.00648
5263 30.31018 156.87958 149.07839 0.00671
5264 30.31518 159.53802 141.34896 0.00707
5265 30.32018 162.52499 147.62413 0.00677
5266 30.32518 165.55940 165.60665 0.00604
5267 30.33018 168.21736 160.67305 0.00622
5268 30.33518 170.06066 166.14723 0.00602
5269 30.34018 170.84476 155.48693 0.00643
5270 30.34518 170.68952 155.93660 0.00641
5271 30.35018 170.02983 162.55741 0.00615
5272 30.35518 169.41084 166.35571 0.00601
5273 30.36018 169.31272 166.58665 0.00600
5274 30.36518 170.09490 160.95733 0.00621
5275 30.37018 172.02225 163.67401 0.00611
5276 30.37518 175.31078 168.16748 0.00595
5277 30.38018 180.16064 168.35495 0.00594
5278 30.38518 186.76895 175.64208 0.00569
5279 30.39018 195.32204 195.47272 0.00512
5280 30.39518 205.96263 201.48651 0.00496
5281 30.40018 218.71831 215.12765 0.00465
5282 30.40518 233.36713 226.27343 0.00442
5283 30.41018 249.22259 267.68069 0.00374
5284 30.41518 264.87908 264.37608 0.00378
5285 30.42018 278.11087 318.74421 0.00314
5286 30.42518 286.27371 311.64936 0.00321
5287 30.43018 287.36148 293.41181 0.00341
5288 30.43518 281.12502 279.86746 0.00357
5289 30.44018 269.22949 274.16423 0.00365
5290 30.44518 254.28716 250.46419 0.00399
5291 30.45018 238.69801 216.44058 0.00462
5292 30.45518 224.08090 215.82925 0.00463
5293 30.46018 211.28594 216.72874 0.00461
5294 30.46518 200.63675 218.52530 0.00458
5295 30.47018 192.16265 185.99168 0.00538
5296 30.47518 185.73639 198.40409 0.00504
5297 30.48018 181.21575 191.24605 0.00523
5298 30.48518 178.39220 180.05134 0.00555
5299 30.49018 177.05644 198.83104 0.00503
5300 30.49518 176.96452 197.72240 0.00506
5301 30.50018 177.79467 199.17474 0.00502
5302 30.50518 179.09311 202.65230 0.00493
5303 30.51018 180.25585 222.19528 0.00450
5304 30.51518 180.62428 194.24800 0.00515
5305 30.52018 179.71998 218.48808 0.00458
5306 30.52518 177.47621 210.55155 0.00475
5307 30.53018 174.24729 192.78418 0.00519
5308 30.53518 170.58262 184.69047 0.00541
5309 30.54018 166.97728 165.71816 0.00603
5310 30.54518 163.76210 185.69183 0.00539
5311 30.55018 161.09429 162.63558 0.00615
5312 30.55518 159.03738 179.67496 0.00557
5313 30.56018 157.59357 158.34267 0.00632
5314 30.56518 156.74126 157.26118 0.00636
5315 30.57018 156.45424 139.34245 0.00718
5316 30.57518 156.71299 145.16267 0.00689
5317 30.58018 157.51196 160.18714 0.00624
5318 30.58518 158.86541 159.98027 0.00625
5319 30.59018 160.81267 158.96113 0.00629
5320 30.59518 163.42367 156.01433 0.00641
5321 30.60018 166.80434 149.15246 0.00670
5322 30.60518 171.10163 165.48357 0.00604
5323 30.61018 176.50723 176.55637 0.00566
5324 30.61518 183.25861 170.67967 0.00586
5325 30.62018 191.63613 193.36128 0.00517
5326 30.62518 201.95561 189.18469 0.00529
5327 30.63018 214.55405 224.31854 0.00446
5328 30.63518 229.76958 252.43471 0.00396
5329 30.64018 247.88147 265.59772 0.00377
5330 30.64518 268.99654 305.35629 0.00327
5331 30.65018 292.82675 327.49793 0.00305
5332 30.65518 318.34962 350.56190 0.00285
5333 30.66018 343.40339 385.47622 0.00259
5334 30.66518 364.59291 415.93423 0.00240
5335 30.67018 377.94799 432.76349 0.00231
5336 30.67518 380.57563 420.44421 0.00238
5337 30.68018 372.31637 361.56684 0.00277
5338 30.68518 355.86675 344.76328 0.00290
5339 30.69018 335.24667 307.45829 0.00325
5340 30.69518 314.03951 295.44025 0.00338
5341 30.70018 294.53428 287.73196 0.00348
5342 30.70518 277.71331 252.95675 0.00395
5343 30.71018 263.58098 235.12395 0.00425
5344 30.71518 251.56502 217.44494 0.00460
5345 30.72018 240.86892 234.78532 0.00426
5346 30.72518 230.94716 207.38101 0.00482
5347 30.73018 221.73484 205.17395 0.00487
5348 30.73518 213.46041 205.57771 0.00486
5349 30.74018 206.46612 180.49815 0.00554
5350 30.74518 201.00182 176.05339 0.00568
5351 30.75018 197.17562 192.01106 0.00521
5352 30.75518 194.97932 175.59871 0.00569
5353 30.76018 194.31565 191.23918 0.00523
5354 30.76518 194.99618 181.31388 0.00552
5355 30.77018 196.71527 180.18082 0.00555
5356 30.77518 199.04891 191.14293 0.00523
5357 30.78018 201.53577 180.29405 0.00555
5358 30.78518 203.86107 193.50248 0.00517
5359 30.79018 206.01792 199.04166 0.00502
5360 30.79518 208.27165 212.89653 0.00470
5361 30.80018 210.92678 219.96387 0.00455
5362 30.80518 214.07377 230.81445 0.00433
5363 30.81018 217.44946 229.73936 0.00435
5364 30.81518 220.42557 244.32406 0.00409
5365 30.82018 222.13380 271.82712 0.00368
5366 30.82518 221.77971 219.62597 0.00455
5367 30.83018 219.06927 238.00756 0.00420
5368 30.83518 214.42852 242.39233 0.00413
5369 30.84018 208.79114 195.16139 0.00512
5370 30.84518 203.15837 209.02155 0.00478
5371 30.85018 198.28772 216.23167 0.00462
5372 30.85518 194.62716 190.13047 0.00526
5373 30.86018 192.35547 184.91273 0.00541
5374 30.86518 191.49708 187.77079 0.00533
5375 30.87018 191.94833 193.65523 0.00516
5376 30.87518 193.50986 200.54578 0.00499
5377 30.88018 195.93335 186.76279 0.00535
5378 30.88518 199.02990 190.73670 0.00524
5379 30.89018 202.81670 197.59778 0.00506
5380 30.89518 207.59470 202.85382 0.00493
5381 30.90018 213.88301 213.22125 0.00469
5382 30.90518 222.27168 244.47336 0.00409
5383 30.91018 233.30028 250.56080 0.00399
5384 30.91518 247.38766 248.10342 0.00403
5385 30.92018 264.76215 255.57758 0.00391
5386 30.92518 285.32310 283.30600 0.00353
5387 30.93018 308.38067 309.41423 0.00323
5388 30.93518 332.28246 357.15092 0.00280
5389 30.94018 354.10800 387.03720 0.00258
5390 30.94518 369.88551 387.43226 0.00258
5391 30.95018 375.79969 393.25259 0.00254
5392 30.95518 370.05390 355.86345 0.00281
5393 30.96018 353.93220 358.88908 0.00279
5394 30.96518 331.00471 309.90626 0.00323
5395 30.97018 305.27922 273.85706 0.00365
5396 30.97518 279.83362 269.04831 0.00372
5397 30.98018 256.46493 242.82637 0.00412
5398 30.98518 235.95322 218.78387 0.00457
5399 30.99018 218.45308 204.12582 0.00490
5400 30.99518 203.79373 202.70475 0.00493
5401 31.00018 191.66034 182.75379 0.00547
5402 31.00518 181.69201 171.43586 0.00583
5403 31.01018 173.53227 170.40925 0.00587
5404 31.01518 166.85323 157.16864 0.00636
5405 31.02018 161.37247 156.85890 0.00638
5406 31.02518 156.84938 176.37143 0.00567
5407 31.03018 153.08898 164.81595 0.00607
5408 31.03518 149.93642 150.05942 0.00666
5409 31.04018 147.27106 155.19833 0.00644
5410 31.04518 145.00014 163.08291 0.00613
5411 31.05018 143.05275 151.52234 0.00660
5412 31.05518 141.37476 145.73766 0.00686
5413 31.06018 139.92460 153.45882 0.00652
5414 31.06518 138.67014 146.52091 0.00682
5415 31.07018 137.58636 136.11596 0.00735
5416 31.07518 136.65378 139.61154 0.00716
5417 31.08018 135.85704 142.79754 0.00700
5418 31.08518 135.18449 135.21935 0.00740
5419 31.09018 134.62741 141.67051 0.00706
5420 31.09518 134.17980 136.55285 0.00732
5421 31.10018 133.84017 133.37458 0.00750
5422 31.10518 133.60364 132.78959 0.00753
5423 31.11018 133.47397 121.35646 0.00824
5424 31.11518 133.45598 133.97554 0.00746
5425 31.12018 133.55795 128.03588 0.00781
5426 31.12518 133.79229 143.47511 0.00697
5427 31.13018 134.17635 141.05213 0.00709
5428 31.13518 134.74010 127.33654 0.00785
5429 31.14018 135.50012 150.13583 0.00666
5430 31.14518 136.50045 152.83992 0.00654
5431 31.15018 137.78975 146.40739 0.00683
5432 31.15518 139.42379 143.38431 0.00697
5433 31.16018 141.46821 166.34501 0.00601
5434 31.16518 143.99534 157.77136 0.00634
5435 31.17018 147.07541 162.33887 0.00616
5436 31.17518 150.76404 141.47066 0.00707
5437 31.18018 155.07642 161.83748 0.00618
5438 31.18518 159.96283 183.20207 0.00546
5439 31.19018 165.28115 167.38245 0.00597
5440 31.19518 170.85640 184.25309 0.00543
5441 31.20018 176.55304 187.92637 0.00532
5442 31.20518 182.34192 191.77596 0.00521
5443 31.21018 188.21691 173.04717 0.00578
5444 31.21518 193.98166 183.89362 0.00544
5445 31.22018 199.04200 195.07478 0.00513
5446 31.22518 202.38152 194.11427 0.00515
5447 31.23018 202.96605 188.28281 0.00531
5448 31.23518 200.26754 178.85533 0.00559
5449 31.24018 194.62450 165.95958 0.00603
5450 31.24518 187.05142 179.48990 0.00557
5451 31.25018 178.71628 164.15775 0.00609
5452 31.25518 170.52199 164.60498 0.00608
5453 31.26018 163.02282 161.76128 0.00618
5454 31.26518 156.44107 163.59114 0.00611
5455 31.27018 150.81752 147.64379 0.00677
5456 31.27518 146.09365 131.37724 0.00761
5457 31.28018 142.16767 141.76830 0.00705
5458 31.28518 138.92473 141.74979 0.00705
5459 31.29018 136.25236 134.99692 0.00741
5460 31.29518 134.04805 144.91610 0.00690
5461 31.30018 132.22251 128.53053 0.00778
5462 31.30518 130.70071 130.94698 0.00764
5463 31.31018 129.42137 126.08279 0.00793
5464 31.31518 128.33558 140.40616 0.00712
5465 31.32018 127.38569 133.36267 0.00750
5466 31.32518 126.58433 124.12406 0.00806
5467 31.33018 125.88177 119.52996 0.00837
5468 31.33518 125.26397 131.31842 0.00762
5469 31.34018 124.71709 132.21833 0.00756
5470 31.34518 124.23839 121.38501 0.00824
5471 31.35018 123.80285 117.87250 0.00848
5472 31.35518 123.41155 139.96603 0.00714
5473 31.36018 123.05869 135.02358 0.00741
5474 31.36518 122.73944 137.98292 0.00725
5475 31.37018 122.44977 134.62822 0.00743
5476 31.37518 122.18626 108.50631 0.00922
5477 31.38018 121.94603 136.13323 0.00735
5478 31.38518 121.72654 121.00000 0.00826
5479 31.39018 121.53435 110.21311 0.00907
5480 31.39518 121.35046 121.07692 0.00826
5481 31.40018 121.18185 132.21820 0.00756
5482 31.40518 121.02715 133.34758 0.00750
5483 31.41018 120.88518 115.30704 0.00867
5484 31.41518 120.75492 137.20044 0.00729
5485 31.42018 120.63547 121.81129 0.00821
5486 31.42518 120.52606 111.57683 0.00896
5487 31.43018 120.42603 118.21607 0.00846
5488 31.43518 120.33479 115.85203 0.00863
5489 31.44018 120.25184 125.04686 0.00800
5490 31.44518 120.17688 120.05913 0.00833
5491 31.45018 120.10926 119.96369 0.00834
5492 31.45518 120.04886 114.20034 0.00876
5493 31.46018 119.99540 121.44519 0.00823
5494 31.46518 119.94867 116.25759 0.00860
5495 31.47018 119.90853 120.94358 0.00827
5496 31.47518 119.87486 115.83484 0.00863
5497 31.48018 119.84760 111.72481 0.00895
5498 31.48518 119.82673 109.89179 0.00910
5499 31.49018 119.81227 125.53795 0.00797
5500 31.49518 119.80429 114.48884 0.00873
5501 31.50018 119.80290 110.20640 0.00907
5502 31.50518 119.80826 117.82242 0.00849
5503 31.51018 119.82060 114.29344 0.00875
5504 31.51518 119.84018 124.47386 0.00803
5505 31.52018 119.86733 112.55739 0.00888
5506 31.52518 119.90247 124.16019 0.00805
5507 31.53018 119.92924 114.94385 0.00870
5508 31.53518 119.98195 121.48592 0.00823
5509 31.54018 120.04436 123.69163 0.00808
5510 31.54518 120.11663 121.39181 0.00824
5511 31.55018 120.20102 123.22200 0.00812
5512 31.55518 120.29796 118.18829 0.00846
5513 31.56018 120.40878 112.55367 0.00888
5514 31.56518 120.53501 105.46016 0.00948
5515 31.57018 120.67852 112.01672 0.00893
5516 31.57518 120.84153 123.11291 0.00812
5517 31.58018 121.02678 108.00939 0.00926
5518 31.58518 121.23761 133.20540 0.00751
5519 31.59018 121.47822 125.89059 0.00794
5520 31.59518 121.75390 113.55312 0.00881
5521 31.60018 122.07140 108.52086 0.00921
5522 31.60518 122.43939 109.53067 0.00913
5523 31.61018 122.86899 120.32923 0.00831
5524 31.61518 123.37436 127.64882 0.00783
5525 31.62018 123.97323 118.27410 0.00845
5526 31.62518 124.68768 117.26471 0.00853
5527 31.63018 125.54411 128.17403 0.00780
5528 31.63518 126.57347 126.51247 0.00790
5529 31.64018 127.81068 115.40097 0.00867
5530 31.64518 129.29308 127.77460 0.00783
5531 31.65018 131.05727 131.81675 0.00759
5532 31.65518 133.13257 133.83395 0.00747
5533 31.66018 135.52841 143.52916 0.00697
5534 31.66518 138.21187 139.55787 0.00717
5535 31.67018 141.07417 145.12871 0.00689
5536 31.67518 143.90671 143.61034 0.00696
5537 31.68018 146.35323 149.18006 0.00670
5538 31.68518 148.05286 139.60082 0.00716
5539 31.69018 148.75796 155.29957 0.00644
5540 31.69518 148.49049 146.92786 0.00681
5541 31.70018 147.53530 155.57380 0.00643
5542 31.70518 146.28475 141.79734 0.00705
5543 31.71018 145.07043 149.10725 0.00671
5544 31.71518 144.07796 144.78524 0.00691
5545 31.72018 143.33883 140.02955 0.00714
5546 31.72518 142.76253 146.74995 0.00681
5547 31.73018 142.19646 153.64385 0.00651
5548 31.73518 141.51009 145.88693 0.00685
5549 31.74018 140.66896 148.08887 0.00675
5550 31.74518 139.74688 146.82289 0.00681
5551 31.75018 138.87389 138.67141 0.00721
5552 31.75518 138.17306 141.73755 0.00706
5553 31.76018 137.72947 138.29237 0.00723
5554 31.76518 137.59129 146.46366 0.00683
5555 31.77018 137.78442 153.78477 0.00650
5556 31.77518 138.32717 143.18077 0.00698
5557 31.78018 139.24242 140.92449 0.00710
5558 31.78518 140.55996 146.36640 0.00683
5559 31.79018 142.32967 147.50614 0.00678
5560 31.79518 144.62089 154.15408 0.00649
5561 31.80018 147.52757 161.81622 0.00618
5562 31.80518 151.17106 172.94712 0.00578
5563 31.81018 155.70145 167.10051 0.00598
5564 31.81518 161.29647 176.83508 0.00565
5565 31.82018 168.16059 167.23424 0.00598
5566 31.82518 176.49701 166.00001 0.00602
5567 31.83018 186.50841 174.15160 0.00574
5568 31.83518 198.33362 207.81175 0.00481
5569 31.84018 211.96342 216.36776 0.00462
5570 31.84518 227.08989 205.00922 0.00488
5571 31.85018 242.89377 223.75488 0.00447
5572 31.85518 257.85134 223.15985 0.00448
5573 31.86018 269.78198 224.33524 0.00446
5574 31.86518 276.40772 239.70877 0.00417
5575 31.87018 276.36106 230.64455 0.00434
5576 31.87518 269.96547 237.24930 0.00421
5577 31.88018 259.07199 232.75700 0.00430
5578 31.88518 246.10846 214.66406 0.00466
5579 31.89018 233.15997 203.49701 0.00491
5580 31.89518 221.58107 207.26164 0.00482
5581 31.90018 212.04335 201.87009 0.00495
5582 31.90518 204.72914 198.23629 0.00504
5583 31.91018 199.49727 200.04712 0.00500
5584 31.91518 195.98884 204.89236 0.00488
5585 31.92018 193.71133 196.45942 0.00509
5586 31.92518 192.13365 190.98930 0.00524
5587 31.93018 190.76267 186.51723 0.00536
5588 31.93518 189.14703 188.78102 0.00530
5589 31.94018 186.85195 182.62826 0.00548
5590 31.94518 183.53176 176.72924 0.00566
5591 31.95018 179.10176 177.17260 0.00564
5592 31.95518 173.82286 172.77807 0.00579
5593 31.96018 168.17688 164.25632 0.00609
5594 31.96518 162.64578 155.14785 0.00645
5595 31.97018 157.56945 157.77492 0.00634
5596 31.97518 153.12286 152.50817 0.00656
5597 31.98018 149.35957 152.48866 0.00656
5598 31.98518 146.26375 145.42095 0.00688
5599 31.99018 143.78864 146.74210 0.00681
5600 31.99518 141.87961 126.67584 0.00789
5601 32.00018 140.48676 135.27116 0.00739
5602 32.00518 139.57160 136.33025 0.00734
5603 32.01018 139.11042 142.34233 0.00703
5604 32.01518 139.09578 134.89273 0.00741
5605 32.02018 139.53670 142.70173 0.00701
5606 32.02518 140.45742 145.81136 0.00686
5607 32.03018 141.89512 143.43252 0.00697
5608 32.03518 143.89339 139.71874 0.00716
5609 32.04018 146.47618 154.31192 0.00648
5610 32.04518 149.70554 160.63901 0.00623
5611 32.05018 153.53670 165.61843 0.00604
5612 32.05518 157.84327 161.12642 0.00621
5613 32.06018 162.32970 173.74083 0.00576
5614 32.06518 166.47612 196.04517 0.00510
5615 32.07018 169.57414 184.85321 0.00541
5616 32.07518 170.93358 176.53679 0.00566
5617 32.08018 170.20821 193.76399 0.00516
5618 32.08518 167.59793 185.44849 0.00539
5619 32.09018 163.73334 181.51954 0.00551
5620 32.09518 159.35705 163.90595 0.00610
5621 32.10018 155.06692 165.92677 0.00603
5622 32.10518 151.23547 152.08753 0.00658
5623 32.11018 148.04802 164.80619 0.00607
5624 32.11518 145.57257 149.14180 0.00671
5625 32.12018 143.81663 146.61099 0.00682
5626 32.12518 142.76237 142.92151 0.00700
5627 32.13018 142.37661 146.23752 0.00684
5628 32.13518 142.65016 141.90334 0.00705
5629 32.14018 143.54677 144.79354 0.00691
5630 32.14518 145.02452 157.65366 0.00634
5631 32.15018 147.00522 154.13464 0.00649
5632 32.15518 149.34286 152.23143 0.00657
5633 32.16018 151.79808 156.87978 0.00637
5634 32.16518 154.05510 143.92894 0.00695
5635 32.17018 155.81757 147.68394 0.00677
5636 32.17518 156.95672 159.10696 0.00629
5637 32.18018 157.59760 158.29259 0.00632
5638 32.18518 158.05487 155.44235 0.00643
5639 32.19018 158.67167 161.32306 0.00620
5640 32.19518 159.67775 158.40880 0.00631
5641 32.20018 161.11050 183.98836 0.00544
5642 32.20518 162.77551 178.07352 0.00562
5643 32.21018 164.24526 181.45035 0.00551
5644 32.21518 164.94706 193.27139 0.00517
5645 32.22018 164.38003 195.68067 0.00511
5646 32.22518 162.37107 208.39444 0.00480
5647 32.23018 159.16691 185.58641 0.00539
5648 32.23518 155.27893 174.84778 0.00572
5649 32.24018 151.23315 177.98892 0.00562
5650 32.24518 147.41219 153.11751 0.00653
5651 32.25018 144.02812 159.52798 0.00627
5652 32.25518 141.16480 145.64535 0.00687
5653 32.26018 138.83049 136.77302 0.00731
5654 32.26518 136.99671 139.86552 0.00715
5655 32.27018 135.62144 126.13282 0.00793
5656 32.27518 134.66157 133.83875 0.00747
5657 32.28018 134.07944 136.50746 0.00733
5658 32.28518 133.84614 128.59540 0.00778
5659 32.29018 133.94325 137.19977 0.00729
5660 32.29518 134.36346 135.74885 0.00737
5661 32.30018 135.11014 142.66397 0.00701
5662 32.30518 136.19573 134.92746 0.00741
5663 32.31018 137.63933 142.04392 0.00704
5664 32.31518 139.46505 145.29882 0.00688
5665 32.32018 141.70561 134.78643 0.00742
5666 32.32518 144.41481 147.46382 0.00678
5667 32.33018 147.68465 138.76662 0.00721
5668 32.33518 151.65243 148.13249 0.00675
5669 32.34018 156.48608 161.63636 0.00619
5670 32.34518 162.35178 152.39693 0.00656
5671 32.35018 169.37142 172.76103 0.00579
5672 32.35518 177.56439 180.51349 0.00554
5673 32.36018 186.75616 171.22053 0.00584
5674 32.36518 196.44622 176.40877 0.00567
5675 32.37018 205.67733 182.50342 0.00548
5676 32.37518 213.04014 190.62931 0.00525
5677 32.38018 216.99916 189.82435 0.00527
5678 32.38518 216.54054 192.14399 0.00520
5679 32.39018 211.72954 202.10613 0.00495
5680 32.39518 203.66967 199.35829 0.00502
5681 32.40018 193.90372 186.51921 0.00536
5682 32.40518 183.79069 183.25016 0.00546
5683 32.41018 174.22518 170.46468 0.00587
5684 32.41518 165.66071 155.34182 0.00644
5685 32.42018 158.24897 162.54531 0.00615
5686 32.42518 151.97157 163.71100 0.00611
5687 32.43018 146.72838 144.59999 0.00692
5688 32.43518 142.38776 147.57662 0.00678
5689 32.44018 138.82380 155.63737 0.00643
5690 32.44518 135.88557 138.26056 0.00723
5691 32.45018 133.46896 135.45705 0.00738
5692 32.45518 131.47533 140.21138 0.00713
5693 32.46018 129.82267 126.44537 0.00791
5694 32.46518 128.44445 139.25176 0.00718
5695 32.47018 127.28088 129.78516 0.00771
5696 32.47518 126.30462 126.72144 0.00789
5697 32.48018 125.47668 125.05272 0.00800
5698 32.48518 124.77238 122.25057 0.00818
5699 32.49018 124.17273 129.86862 0.00770
5700 32.49518 123.66304 107.08546 0.00934
5701 32.50018 123.23195 125.69766 0.00796
5702 32.50518 122.87063 118.21862 0.00846
5703 32.51018 122.57226 129.34653 0.00773
5704 32.51518 122.33166 116.94536 0.00855
5705 32.52018 122.14506 133.66790 0.00748
5706 32.52518 122.00988 133.00641 0.00752
5707 32.53018 121.92471 124.06697 0.00806
5708 32.53518 121.88923 123.68842 0.00808
5709 32.54018 121.90427 122.14166 0.00819
5710 32.54518 121.97182 120.90750 0.00827
5711 32.55018 122.09516 109.48595 0.00913
5712 32.55518 122.28239 120.57846 0.00829
5713 32.56018 122.53278 119.91458 0.00834
5714 32.56518 122.85758 110.79101 0.00903
5715 32.57018 123.26636 111.65890 0.00896
5716 32.57518 123.77057 120.04520 0.00833
5717 32.58018 124.38352 120.16286 0.00832
5718 32.58518 125.12211 124.75727 0.00802
5719 32.59018 125.98199 126.83656 0.00788
5720 32.59518 127.00927 126.32147 0.00792
5721 32.60018 128.19727 127.99735 0.00781
5722 32.60518 129.54746 128.13443 0.00780
5723 32.61018 131.05724 135.78801 0.00736
5724 32.61518 132.73387 144.16443 0.00694
5725 32.62018 134.61666 135.13973 0.00740
5726 32.62518 136.79219 122.82215 0.00814
5727 32.63018 139.38795 142.80888 0.00700
5728 32.63518 142.53884 139.00467 0.00719
5729 32.64018 146.40120 143.85411 0.00695
5730 32.64518 151.07318 142.08496 0.00704
5731 32.65018 156.60457 143.40621 0.00697
5732 32.65518 162.94054 158.96642 0.00629
5733 32.66018 169.84115 161.41873 0.00620
5734 32.66518 176.78078 169.32764 0.00591
5735 32.67018 182.89054 159.76587 0.00626
5736 32.67518 187.06956 185.16239 0.00540
5737 32.68018 188.35425 184.78864 0.00541
5738 32.68518 186.39492 172.69823 0.00579
5739 32.69018 181.65717 180.29409 0.00555
5740 32.69518 175.15298 191.02070 0.00524
5741 32.70018 167.95820 178.03936 0.00562
5742 32.70518 160.88280 170.12604 0.00588
5743 32.71018 154.39636 160.10341 0.00625
5744 32.71518 148.70114 156.06557 0.00641
5745 32.72018 143.83470 151.03816 0.00662
5746 32.72518 139.74872 140.08292 0.00714
5747 32.73018 136.36489 131.07692 0.00763
5748 32.73518 133.57082 144.06479 0.00694
5749 32.74018 131.27862 133.40849 0.00750
5750 32.74518 129.40111 139.79697 0.00715
5751 32.75018 127.86219 126.24658 0.00792
5752 32.75518 126.59759 128.03300 0.00781
5753 32.76018 125.55452 119.21331 0.00839
5754 32.76518 124.69054 117.71394 0.00850
5755 32.77018 123.97212 124.62223 0.00802
5756 32.77518 123.37314 121.98866 0.00820
5757 32.78018 122.87333 122.54395 0.00816
5758 32.78518 122.45703 140.12691 0.00714
5759 32.79018 122.11211 123.85537 0.00807
5760 32.79518 121.82910 122.39457 0.00817
5761 32.80018 121.60059 122.27110 0.00818
5762 32.80518 121.42145 123.34464 0.00811
5763 32.81018 121.28565 126.47155 0.00791
5764 32.81518 121.18988 117.17867 0.00853
5765 32.82018 121.13210 114.56891 0.00873
5766 32.82518 121.10978 111.10760 0.00900
5767 32.83018 121.12138 123.35843 0.00811
5768 32.83518 121.16584 119.43591 0.00837
5769 32.84018 121.24260 114.09136 0.00876
5770 32.84518 121.35153 129.99780 0.00769
5771 32.85018 121.49291 118.53419 0.00844
5772 32.85518 121.66745 120.41612 0.00830
5773 32.86018 121.87626 124.69274 0.00802
5774 32.86518 122.12090 118.98067 0.00840
5775 32.87018 122.40340 127.37013 0.00785
5776 32.87518 122.72627 117.50487 0.00851
5777 32.88018 123.09259 109.91688 0.00910
5778 32.88518 123.50608 124.19985 0.00805
5779 32.89018 123.97118 114.33011 0.00875
5780 32.89518 124.49315 121.22441 0.00825
5781 32.90018 125.07825 126.57914 0.00790
5782 32.90518 125.73389 137.99389 0.00725
5783 32.91018 126.46889 129.95076 0.00770
5784 32.91518 127.29379 136.24166 0.00734
5785 32.92018 128.22124 143.55686 0.00697
5786 32.92518 129.26656 128.34960 0.00779
5787 32.93018 130.45262 143.10586 0.00699
5788 32.93518 131.79453 133.89668 0.00747
5789 32.94018 133.32507 125.28877 0.00798
5790 32.94518 135.08102 144.35191 0.00693
5791 32.95018 137.10136 137.29865 0.00728
5792 32.95518 139.46093 137.57489 0.00727
5793 32.96018 142.22790 146.14298 0.00684
5794 32.96518 145.47829 169.02287 0.00592
5795 32.97018 149.37179 172.63275 0.00579
5796 32.97518 154.03647 164.66451 0.00607
5797 32.98018 159.64652 169.79711 0.00589
5798 32.98518 166.40871 161.02887 0.00621
5799 32.99018 174.55641 170.34684 0.00587
5800 32.99518 184.33417 180.03504 0.00555
5801 33.00018 195.98620 198.69594 0.00503
5802 33.00518 209.70559 222.16687 0.00450
5803 33.01018 225.54521 217.72199 0.00459
5804 33.01518 243.28997 222.42208 0.00450
5805 33.02018 262.19873 231.38626 0.00432
5806 33.02518 280.78385 237.40476 0.00421
5807 33.03018 296.74692 256.93392 0.00389
5808 33.03518 307.42023 250.38546 0.00399
5809 33.04018 310.80759 257.49273 0.00388
5810 33.04518 306.65729 261.87704 0.00382
5811 33.05018 296.64543 254.87695 0.00392
5812 33.05518 283.47979 231.11304 0.00433
5813 33.06018 269.74791 257.02520 0.00389
5814 33.06518 257.24337 249.95027 0.00400
5815 33.07018 246.86020 267.15773 0.00374
5816 33.07518 238.74472 249.10029 0.00401
5817 33.08018 232.47706 282.02861 0.00355
5818 33.08518 227.25480 272.96218 0.00366
5819 33.09018 222.15112 283.53668 0.00353
5820 33.09518 216.47822 265.54341 0.00377
5821 33.10018 210.07258 266.84359 0.00375
5822 33.10518 203.28962 241.51364 0.00414
5823 33.11018 196.73226 233.00025 0.00429
5824 33.11518 190.96071 200.14236 0.00500
5825 33.12018 186.35595 170.76005 0.00586
5826 33.12518 183.12319 172.87148 0.00578
5827 33.13018 181.34868 171.61677 0.00583
5828 33.13518 181.05025 173.75387 0.00576
5829 33.14018 182.20401 185.42813 0.00539
5830 33.14518 184.75591 168.21915 0.00594
5831 33.15018 188.63840 170.06198 0.00588
5832 33.15518 193.80721 164.57056 0.00608
5833 33.16018 200.28088 182.65046 0.00547
5834 33.16518 208.12694 190.22945 0.00526
5835 33.17018 217.34899 206.81346 0.00484
5836 33.17518 227.68674 250.91208 0.00399
5837 33.18018 238.39021 249.46304 0.00401
5838 33.18518 248.07832 273.08749 0.00366
5839 33.19018 254.87260 268.68034 0.00372
5840 33.19518 256.97400 291.20152 0.00343
5841 33.20018 253.50648 280.05634 0.00357
5842 33.20518 245.00684 285.95610 0.00350
5843 33.21018 233.10774 266.35512 0.00375
5844 33.21518 219.72164 220.93832 0.00453
5845 33.22018 206.38272 202.29918 0.00494
5846 33.22518 194.03095 182.14547 0.00549
5847 33.23018 183.10218 180.92853 0.00553
5848 33.23518 173.70307 169.95056 0.00588
5849 33.24018 165.76032 178.47626 0.00560
5850 33.24518 159.12439 165.07657 0.00606
5851 33.25018 153.60527 151.37211 0.00661
5852 33.25518 149.01352 128.50202 0.00778
5853 33.26018 145.17598 151.38828 0.00661
5854 33.26518 141.94795 130.78461 0.00765
5855 33.27018 139.21686 119.31743 0.00838
5856 33.27518 136.89760 135.74799 0.00737
5857 33.28018 134.92408 126.14435 0.00793
5858 33.28518 133.24277 141.54560 0.00706
5859 33.29018 131.80923 125.23928 0.00798
5860 33.29518 130.58663 126.81031 0.00789
5861 33.30018 129.54483 133.93366 0.00747
5862 33.30518 128.66004 136.31388 0.00734
5863 33.31018 127.91157 114.63808 0.00872
5864 33.31518 127.28392 120.53479 0.00830
5865 33.32018 126.76612 126.92041 0.00788
5866 33.32518 126.34814 120.64333 0.00829
5867 33.33018 126.02298 125.96390 0.00794
5868 33.33518 125.78568 125.06708 0.00800
5869 33.34018 125.63322 117.00000 0.00855
5870 33.34518 125.56439 129.97586 0.00769
5871 33.35018 125.58444 136.44176 0.00733
5872 33.35518 125.68663 118.29127 0.00845
5873 33.36018 125.88010 121.82103 0.00821
5874 33.36518 126.17187 112.31279 0.00890
5875 33.37018 126.56929 123.86123 0.00807
5876 33.37518 127.09078 107.50883 0.00930
5877 33.38018 127.75162 130.08140 0.00769
5878 33.38518 128.57510 131.45021 0.00761
5879 33.39018 129.59136 117.22879 0.00853
5880 33.39518 130.83884 138.00000 0.00725
5881 33.40018 132.36590 127.92085 0.00782
5882 33.40518 134.23235 119.72630 0.00835
5883 33.41018 136.51068 123.04043 0.00813
5884 33.41518 139.28671 135.98647 0.00735
5885 33.42018 142.65895 155.08978 0.00645
5886 33.42518 146.73549 153.10070 0.00653
5887 33.43018 151.62604 147.06595 0.00680
5888 33.43518 157.42488 144.53470 0.00692
5889 33.44018 164.17823 153.71261 0.00651
5890 33.44518 171.82946 166.46293 0.00601
5891 33.45018 180.14460 161.95981 0.00617
5892 33.45518 188.64761 166.60247 0.00600
5893 33.46018 196.63580 199.28514 0.00502
5894 33.46518 203.33132 209.77961 0.00477
5895 33.47018 208.21221 204.71304 0.00488
5896 33.47518 211.06393 205.95860 0.00486
5897 33.48018 211.97935 227.80461 0.00439
5898 33.48518 211.08861 218.01460 0.00459
5899 33.49018 208.43719 216.29270 0.00462
5900 33.49518 204.03109 232.01840 0.00431
5901 33.50018 197.97493 238.65469 0.00419
5902 33.50518 190.59882 229.33749 0.00436
5903 33.51018 182.44829 213.94689 0.00467
5904 33.51518 174.16393 200.21564 0.00499
5905 33.52018 166.28319 174.30983 0.00574
5906 33.52518 159.14502 175.91581 0.00568
5907 33.53018 152.89542 147.47422 0.00678
5908 33.53518 147.54497 141.12077 0.00709
5909 33.54018 143.02878 147.85046 0.00676
5910 33.54518 139.24914 127.96941 0.00781
5911 33.55018 136.10126 133.72375 0.00748
5912 33.55518 133.48303 147.23071 0.00679
5913 33.56018 131.30209 136.21569 0.00734
5914 33.56518 129.48724 132.89221 0.00752
5915 33.57018 127.97037 121.52424 0.00823
5916 33.57518 126.69826 116.45721 0.00859
5917 33.58018 125.62788 123.11682 0.00812
5918 33.58518 124.72483 121.58354 0.00822
5919 33.59018 123.96178 128.63008 0.00777
5920 33.59518 123.31685 134.50514 0.00743
5921 33.60018 122.77208 131.46857 0.00761
5922 33.60518 122.31203 113.81285 0.00879
5923 33.61018 121.92270 114.67954 0.00872
5924 33.61518 121.59124 120.13644 0.00832
5925 33.62018 121.30681 125.73377 0.00795
5926 33.62518 121.06222 111.28618 0.00899
5927 33.63018 120.85477 131.48300 0.00761
5928 33.63518 120.68533 116.57340 0.00858
5929 33.64018 120.55633 121.87521 0.00821
5930 33.64518 120.47013 127.02020 0.00787
5931 33.65018 120.42843 121.30871 0.00824
5932 33.65518 120.43249 128.04003 0.00781
5933 33.66018 120.48357 111.59225 0.00896
5934 33.66518 120.58333 121.73221 0.00821
5935 33.67018 120.73418 126.35188 0.00791
5936 33.67518 120.93962 128.90809 0.00776
5937 33.68018 121.20436 127.34963 0.00785
5938 33.68518 121.53521 115.32111 0.00867
5939 33.69018 121.94084 109.65593 0.00912
5940 33.69518 122.43288 122.89344 0.00814
5941 33.70018 123.02643 129.77473 0.00771
5942 33.70518 123.74098 114.03050 0.00877
5943 33.71018 124.60123 121.67755 0.00822
5944 33.71518 125.63802 123.87458 0.00807
5945 33.72018 126.88899 138.05297 0.00724
5946 33.72518 128.37723 126.78556 0.00789
5947 33.73018 130.19852 140.45298 0.00712
5948 33.73518 132.38896 132.43323 0.00755
5949 33.74018 135.00967 138.55374 0.00722
5950 33.74518 138.12144 131.65259 0.00760
5951 33.75018 141.76032 138.17581 0.00724
5952 33.75518 145.93100 162.61874 0.00615
5953 33.76018 150.55416 151.03046 0.00662
5954 33.76518 155.41117 144.50810 0.00692
5955 33.77018 160.08664 171.61153 0.00583
5956 33.77518 163.96744 196.73239 0.00508
5957 33.78018 166.38847 186.25627 0.00537
5958 33.78518 166.88396 196.14601 0.00510
5959 33.79018 165.44621 208.48043 0.00480
5960 33.79518 162.53028 202.53416 0.00494
5961 33.80018 158.81642 190.69718 0.00524
5962 33.80518 154.93588 204.99784 0.00488
5963 33.81018 151.32915 172.17247 0.00581
5964 33.81518 148.24026 157.05898 0.00637
5965 33.82018 145.77289 143.57390 0.00697
5966 33.82518 143.95075 150.03258 0.00667
5967 33.83018 142.76145 149.16337 0.00670
5968 33.83518 142.18306 147.44636 0.00678
5969 33.84018 142.19564 132.02858 0.00757
5970 33.84518 142.79755 141.36058 0.00707
5971 33.85018 143.99275 142.04498 0.00704
5972 33.85518 145.80101 138.44740 0.00722
5973 33.86018 148.25439 146.86512 0.00681
5974 33.86518 151.39550 151.58043 0.00660
5975 33.87018 155.27323 150.26455 0.00665
5976 33.87518 159.93603 144.15710 0.00694
5977 33.88018 165.40432 168.98435 0.00592
5978 33.88518 171.62365 156.21715 0.00640
5979 33.89018 178.42410 154.02344 0.00649
5980 33.89518 185.43740 188.00000 0.00532
5981 33.90018 192.14391 184.42694 0.00542
5982 33.90518 198.03851 187.31596 0.00534
5983 33.91018 202.89413 203.48863 0.00491
5984 33.91518 206.99060 208.92511 0.00479
5985 33.92018 211.03996 186.55682 0.00536
5986 33.92518 215.91534 214.32959 0.00467
5987 33.93018 222.36814 207.92264 0.00481
5988 33.93518 230.85739 216.18645 0.00463
5989 33.94018 241.45049 202.34160 0.00494
5990 33.94518 253.70718 227.62635 0.00439
5991 33.95018 266.52244 260.83868 0.00383
5992 33.95518 278.04996 262.56107 0.00381
5993 33.96018 285.92948 280.67024 0.00356
5994 33.96518 288.03688 306.01699 0.00327
5995 33.97018 283.46556 297.61015 0.00336
5996 33.97518 273.00722 307.81974 0.00325
5997 33.98018 258.68563 309.18325 0.00323
5998 33.98518 242.78003 273.20114 0.00366
5999 33.99018 227.08543 262.90422 0.00380
6000 33.99518 212.68591 217.26457 0.00460
6001 34.00018 200.07116 204.47361 0.00489
6002 34.00518 189.33915 196.93141 0.00508
6003 34.01018 180.36671 176.17915 0.00568
6004 34.01518 172.92344 160.96632 0.00621
6005 34.02018 166.72673 163.81441 0.00610
6006 34.02518 161.59511 163.94464 0.00610
6007 34.03018 157.32599 163.33559 0.00612
6008 34.03518 153.82289 150.18211 0.00666
6009 34.04018 151.03622 146.45405 0.00683
6010 34.04518 148.91902 149.44010 0.00669
6011 34.05018 147.45609 154.04090 0.00649
6012 34.05518 146.63588 145.03843 0.00689
6013 34.06018 146.46147 144.67978 0.00691
6014 34.06518 146.94652 164.70693 0.00607
6015 34.07018 148.12351 148.86308 0.00672
6016 34.07518 150.03359 157.03558 0.00637
6017 34.08018 152.71883 166.83338 0.00599
6018 34.08518 156.20411 169.52011 0.00590
6019 34.09018 160.46428 150.93184 0.00663
6020 34.09518 165.36941 170.83831 0.00585
6021 34.10018 170.60868 186.16758 0.00537
6022 34.10518 175.61929 200.46543 0.00499
6023 34.11018 179.59300 178.72579 0.00560
6024 34.11518 181.65494 180.52364 0.00554
6025 34.12018 181.21179 181.67330 0.00550
6026 34.12518 178.25877 168.09372 0.00595
6027 34.13018 173.37885 172.18185 0.00581
6028 34.13518 167.43472 167.80154 0.00596
6029 34.14018 161.22069 165.40149 0.00605
6030 34.14518 155.28338 171.82189 0.00582
6031 34.15018 149.91620 149.86915 0.00667
6032 34.15518 145.22924 132.98973 0.00752
6033 34.16018 141.22490 143.84020 0.00695
6034 34.16518 137.85171 140.29562 0.00713
6035 34.17018 135.03629 137.16613 0.00729
6036 34.17518 132.70039 125.00084 0.00800
6037 34.18018 130.76941 138.92097 0.00720
6038 34.18518 129.17621 129.52750 0.00772
6039 34.19018 127.86512 131.88929 0.00758
6040 34.19518 126.78272 119.01081 0.00840
6041 34.20018 125.89081 128.46394 0.00778
6042 34.20518 125.15734 133.06154 0.00752
6043 34.21018 124.55672 126.48841 0.00791
6044 34.21518 124.06898 125.96196 0.00794
6045 34.22018 123.67867 115.78014 0.00864
6046 34.22518 123.37482 126.13454 0.00793
6047 34.23018 123.14680 121.39215 0.00824
6048 34.23518 122.98876 120.12609 0.00832
6049 34.24018 122.89664 116.63107 0.00857
6050 34.24518 122.86557 117.21186 0.00853
6051 34.25018 122.89428 116.16124 0.00861
6052 34.25518 122.98191 133.86623 0.00747
6053 34.26018 123.12870 136.90628 0.00730
6054 34.26518 123.33597 119.53771 0.00837
6055 34.27018 123.60617 120.76893 0.00828
6056 34.27518 123.95157 134.40437 0.00744
6057 34.28018 124.35882 127.70943 0.00783
6058 34.28518 124.84596 133.20128 0.00751
6059 34.29018 125.42033 120.03034 0.00833
6060 34.29518 126.09306 123.88943 0.00807
6061 34.30018 126.87814 130.45576 0.00767
6062 34.30518 127.79303 128.10575 0.00781
6063 34.31018 128.85929 131.71760 0.00759
6064 34.31518 130.09656 134.27268 0.00745
6065 34.32018 131.55025 137.98300 0.00725
6066 34.32518 133.25149 127.99987 0.00781
6067 34.33018 135.24447 143.97001 0.00695
6068 34.33518 137.57928 133.91853 0.00747
6069 34.34018 140.31343 134.70306 0.00742
6070 34.34518 143.49637 148.23786 0.00675
6071 34.35018 147.18140 149.49395 0.00669
6072 34.35518 151.40247 157.03743 0.00637
6073 34.36018 156.15896 163.86531 0.00610
6074 34.36518 161.39149 161.97409 0.00617
6075 34.37018 166.96634 174.58106 0.00573
6076 34.37518 172.70346 179.66656 0.00557
6077 34.38018 178.44616 185.87143 0.00538
6078 34.38518 184.19280 185.42350 0.00539
6079 34.39018 190.11077 190.53763 0.00525
6080 34.39518 196.42971 201.31709 0.00497
6081 34.40018 203.24131 214.54565 0.00466
6082 34.40518 210.31761 225.20461 0.00444
6083 34.41018 217.04336 210.64341 0.00475
6084 34.41518 222.54731 245.01974 0.00408
6085 34.42018 226.06398 245.69110 0.00407
6086 34.42518 227.36846 239.79380 0.00417
6087 34.43018 226.95873 231.47830 0.00432
6088 34.43518 225.82571 235.65490 0.00424
6089 34.44018 225.02006 221.60610 0.00451
6090 34.44518 225.32779 215.53780 0.00464
6091 34.45018 227.16061 211.30570 0.00473
6092 34.45518 230.58824 238.22741 0.00420
6093 34.46018 235.39210 250.55434 0.00399
6094 34.46518 241.19716 255.13438 0.00392
6095 34.47018 247.62158 255.91220 0.00391
6096 34.47518 254.48132 267.01565 0.00375
6097 34.48018 261.83661 288.35167 0.00347
6098 34.48518 269.80391 286.07510 0.00350
6099 34.49018 278.15110 286.84348 0.00349
6100 34.49518 285.97215 288.18941 0.00347
6101 34.50018 291.67043 303.62096 0.00329
6102 34.50518 293.41053 301.65387 0.00332
6103 34.51018 289.93574 298.59448 0.00335
6104 34.51518 281.25529 272.46736 0.00367
6105 34.52018 268.65315 262.50400 0.00381
6106 34.52518 254.03461 274.00183 0.00365
6107 34.53018 239.17038 239.47053 0.00418
6108 34.53518 225.29384 230.51364 0.00434
6109 34.54018 213.07496 209.03623 0.00478
6110 34.54518 202.77405 193.02493 0.00518
6111 34.55018 194.41301 178.89649 0.00559
6112 34.55518 187.90101 181.50518 0.00551
6113 34.56018 183.11018 174.10611 0.00574
6114 34.56518 179.91759 178.64058 0.00560
6115 34.57018 178.22547 169.35134 0.00590
6116 34.57518 177.97251 171.83735 0.00582
6117 34.58018 179.12581 173.28867 0.00577
6118 34.58518 181.68886 171.50819 0.00583
6119 34.59018 185.67745 180.00001 0.00556
6120 34.59518 191.09391 186.46878 0.00536
6121 34.60018 197.88218 197.34104 0.00507
6122 34.60518 205.86980 208.35426 0.00480
6123 34.61018 214.72029 225.35352 0.00444
6124 34.61518 223.94347 238.46603 0.00419
6125 34.62018 232.99880 247.46512 0.00404
6126 34.62518 241.43460 267.54474 0.00374
6127 34.63018 248.91148 262.01049 0.00382
6128 34.63518 255.05093 275.39933 0.00363
6129 34.64018 259.30278 290.52116 0.00344
6130 34.64518 261.10212 286.06782 0.00350
6131 34.65018 260.29227 273.63851 0.00365
6132 34.65518 257.42775 272.65772 0.00367
6133 34.66018 253.62888 267.50036 0.00374
6134 34.66518 250.10356 251.45623 0.00398
6135 34.67018 247.69381 250.54205 0.00399
6136 34.67518 246.63297 255.40332 0.00392
6137 34.68018 246.48352 235.01455 0.00426
6138 34.68518 246.21789 232.93266 0.00429
6139 34.69018 244.50206 215.98168 0.00463
6140 34.69518 240.21087 205.27722 0.00487
6141 34.70018 232.95840 204.12000 0.00490
6142 34.70518 223.25687 204.40415 0.00489
6143 34.71018 212.18221 195.64141 0.00511
6144 34.71518 200.85674 191.91240 0.00521
6145 34.72018 190.11036 205.97449 0.00485
6146 34.72518 180.40592 182.31711 0.00548
6147 34.73018 171.91629 171.47212 0.00583
6148 34.73518 164.63312 164.38369 0.00608
6149 34.74018 158.45218 170.40589 0.00587
6150 34.74518 153.22771 151.01440 0.00662
6151 34.75018 148.80594 158.15145 0.00632
6152 34.75518 145.04705 150.71730 0.00663
6153 34.76018 141.83746 144.96679 0.00690
6154 34.76518 139.09150 148.52841 0.00673
6155 34.77018 136.74479 151.71436 0.00659
6156 34.77518 134.74613 126.95922 0.00788
6157 34.78018 133.05252 133.78781 0.00747
6158 34.78518 131.62742 132.16349 0.00757
6159 34.79018 130.44043 138.53360 0.00722
6160 34.79518 129.46717 128.99242 0.00775
6161 34.80018 128.68639 126.52153 0.00790
6162 34.80518 128.08788 135.38692 0.00739
6163 34.81018 127.65745 128.87104 0.00776
6164 34.81518 127.38332 132.98684 0.00752
6165 34.82018 127.25012 125.21157 0.00799
6166 34.82518 127.23344 133.61795 0.00748
6167 34.83018 127.29372 118.73837 0.00842
6168 34.83518 127.37526 135.91369 0.00736
6169 34.84018 127.40480 128.91212 0.00776
6170 34.84518 127.32439 133.29736 0.00750
6171 34.85018 127.10898 121.44033 0.00823
6172 34.85518 126.78425 142.76769 0.00700
6173 34.86018 126.40814 129.91965 0.00770
6174 34.86518 126.04766 131.44439 0.00761
6175 34.87018 125.75764 129.48121 0.00772
6176 34.87518 125.57454 128.49947 0.00778
6177 34.88018 125.51961 131.28017 0.00762
6178 34.88518 125.60734 123.10352 0.00812
6179 34.89018 125.84186 131.00417 0.00763
6180 34.89518 126.23411 128.41604 0.00779
6181 34.90018 126.79547 116.29701 0.00860
6182 34.90518 127.54196 118.68670 0.00843
6183 34.91018 128.49599 137.05408 0.00730
6184 34.91518 129.68807 132.94489 0.00752
6185 34.92018 131.15879 132.17138 0.00757
6186 34.92518 132.96069 130.92497 0.00764
6187 34.93018 135.16026 126.95763 0.00788
6188 34.93518 137.83962 137.30576 0.00728
6189 34.94018 141.09762 139.72666 0.00716
6190 34.94518 145.05000 148.16104 0.00675
6191 34.95018 149.82756 138.67043 0.00721
6192 34.95518 155.57085 141.96395 0.00704
6193 34.96018 162.41811 170.69758 0.00586
6194 34.96518 170.48046 157.13742 0.00636
6195 34.97018 179.79441 180.78171 0.00553
6196 34.97518 190.23925 189.88176 0.00527
6197 34.98018 201.41298 210.27519 0.00476
6198 34.98518 212.48795 195.77165 0.00511
6199 34.99018 222.15911 233.44148 0.00428
6200 34.99518 228.83717 250.28713 0.00400
6201 35.00018 231.13176 254.25680 0.00393
6202 35.00518 228.52955 245.07386 0.00408
6203 35.01018 221.66465 238.32505 0.00420
6204 35.01518 211.98020 251.04152 0.00398
6205 35.02018 201.07117 236.66977 0.00423
6206 35.02518 190.20187 220.27073 0.00454
6207 35.03018 180.15282 191.65964 0.00522
6208 35.03518 171.29831 184.04208 0.00543
6209 35.04018 163.74794 191.79837 0.00521
6210 35.04518 157.46705 168.30993 0.00594
6211 35.05018 152.35405 158.92171 0.00629
6212 35.05518 148.29133 150.42076 0.00665
6213 35.06018 145.15968 150.12774 0.00666
6214 35.06518 142.85595 149.09319 0.00671
6215 35.07018 141.29200 145.42961 0.00688
6216 35.07518 140.40942 150.27478 0.00665
6217 35.08018 140.15703 137.21796 0.00729
6218 35.08518 140.49689 146.27931 0.00684
6219 35.09018 141.38987 149.90458 0.00667
6220 35.09518 142.77906 147.10840 0.00680
6221 35.10018 144.57207 152.47733 0.00656
6222 35.10518 146.63424 140.77003 0.00710
6223 35.11018 148.81096 152.60153 0.00655
6224 35.11518 150.98451 149.51041 0.00669
6225 35.12018 153.13147 152.77672 0.00655
6226 35.12518 155.32018 157.67665 0.00634
6227 35.13018 157.62503 158.05557 0.00633
6228 35.13518 159.99916 162.16194 0.00617
6229 35.14018 162.18283 155.57662 0.00643
6230 35.14518 163.70331 162.69452 0.00615
6231 35.15018 164.01390 177.04876 0.00565
6232 35.15518 162.74073 169.30097 0.00591
6233 35.16018 159.88831 176.65415 0.00566
6234 35.16518 155.83863 153.49669 0.00651
6235 35.17018 151.15650 150.42524 0.00665
6236 35.17518 146.35109 144.32534 0.00693
6237 35.18018 141.78100 134.32764 0.00744
6238 35.18518 137.63519 135.25625 0.00739
6239 35.19018 133.98323 140.46497 0.00712
6240 35.19518 130.82494 121.34192 0.00824
6241 35.20018 128.12497 132.28197 0.00756
6242 35.20518 125.83291 129.88911 0.00770
6243 35.21018 123.88980 124.97240 0.00800
6244 35.21518 122.25118 121.85966 0.00821
6245 35.22018 120.86425 127.89941 0.00782
6246 35.22518 119.68646 117.20484 0.00853
6247 35.23018 118.68149 113.49817 0.00881
6248 35.23518 117.81906 111.95064 0.00893
6249 35.24018 117.07432 131.71169 0.00759
6250 35.24518 116.42714 105.72347 0.00946
6251 35.25018 115.86131 118.49846 0.00844
6252 35.25518 115.36387 112.96743 0.00885
6253 35.26018 114.92446 122.09489 0.00819
6254 35.26518 114.53484 114.54816 0.00873
6255 35.27018 114.19476 119.69279 0.00835
6256 35.27518 113.88672 126.66728 0.00789
6257 35.28018 113.61300 115.33437 0.00867
6258 35.28518 113.37057 108.69719 0.00920
6259 35.29018 113.15715 130.24047 0.00768
6260 35.29518 112.97112 119.06074 0.00840
6261 35.30018 112.81151 112.74389 0.00887
6262 35.30518 112.67797 125.15456 0.00799
6263 35.31018 112.56881 121.44931 0.00823
6264 35.31518 112.48909 114.25257 0.00875
6265 35.32018 112.43850 124.63672 0.00802
6266 35.32518 112.41948 104.08242 0.00961
6267 35.33018 112.43504 110.48066 0.00905
6268 35.33518 112.48904 119.51935 0.00837
6269 35.34018 112.58540 116.75563 0.00856
6270 35.34518 112.72788 114.50034 0.00873
6271 35.35018 112.92195 104.93428 0.00953
6272 35.35518 113.16095 109.03316 0.00917
6273 35.36018 113.44533 105.63323 0.00947
6274 35.36518 113.74445 111.46549 0.00897
6275 35.37018 114.03704 130.45040 0.00767
6276 35.37518 114.27275 114.49543 0.00873
6277 35.38018 114.40009 109.40184 0.00914
6278 35.38518 114.38188 117.96474 0.00848
6279 35.39018 114.21229 121.76558 0.00821
6280 35.39518 113.91817 116.64015 0.00857
6281 35.40018 113.54436 114.04165 0.00877
6282 35.40518 113.13593 107.51321 0.00930
6283 35.41018 112.72810 121.06749 0.00826
6284 35.41518 112.34420 118.45625 0.00844
6285 35.42018 111.99744 113.78523 0.00879
6286 35.42518 111.69180 121.83288 0.00821
6287 35.43018 111.42797 111.89291 0.00894
6288 35.43518 111.20317 105.82629 0.00945
6289 35.44018 111.01333 115.53079 0.00866
6290 35.44518 110.85399 108.60582 0.00921
6291 35.45018 110.72087 112.69040 0.00887
6292 35.45518 110.61012 104.12395 0.00960
6293 35.46018 110.51839 93.84584 0.01066
6294 35.46518 110.44289 111.73563 0.00895
6295 35.47018 110.38136 123.08516 0.00812
6296 35.47518 110.33176 115.39398 0.00867
6297 35.48018 110.29318 103.79393 0.00963
6298 35.48518 110.26435 113.81109 0.00879
6299 35.49018 110.24457 111.46845 0.00897
6300 35.49518 110.23335 120.64372 0.00829
6301 35.50018 110.23044 122.02800 0.00819
6302 35.50518 110.23578 97.57075 0.01025
6303 35.51018 110.24943 102.11638 0.00979
6304 35.51518 110.27153 103.18082 0.00969
6305 35.52018 110.30221 115.66775 0.00865
6306 35.52518 110.34150 115.52677 0.00866
6307 35.53018 110.38901 109.65827 0.00912
6308 35.53518 110.43443 110.98373 0.00901
6309 35.54018 110.49403 115.88052 0.00863
6310 35.54518 110.55508 114.71094 0.00872
6311 35.55018 110.61329 107.02794 0.00934
6312 35.55518 110.66493 100.01143 0.01000
6313 35.56018 110.70867 110.33567 0.00906
6314 35.56518 110.74637 126.76072 0.00789
6315 35.57018 110.78232 116.90604 0.00855
6316 35.57518 110.82142 122.79235 0.00814
6317 35.58018 110.86779 111.68156 0.00895
6318 35.58518 110.93127 109.33092 0.00915
6319 35.59018 110.99944 113.25309 0.00883
6320 35.59518 111.08007 105.71095 0.00946
6321 35.60018 111.17326 115.42079 0.00866
6322 35.60518 111.27858 112.70629 0.00887
6323 35.61018 111.39642 108.70721 0.00920
6324 35.61518 111.52324 117.03090 0.00854
6325 35.62018 111.65913 103.00527 0.00971
6326 35.62518 111.80431 96.65342 0.01035
6327 35.63018 111.95986 110.14790 0.00908
6328 35.63518 112.12749 120.98959 0.00827
6329 35.64018 112.30885 118.04299 0.00847
6330 35.64518 112.50519 100.48360 0.00995
6331 35.65018 112.71755 114.14238 0.00876
6332 35.65518 112.94737 107.43920 0.00931
6333 35.66018 113.19703 106.31441 0.00941
6334 35.66518 113.46989 110.23778 0.00907
6335 35.67018 113.76997 103.91857 0.00962
6336 35.67518 114.10156 114.02050 0.00877
6337 35.68018 114.46909 115.77024 0.00864
6338 35.68518 114.87727 114.45570 0.00874
6339 35.69018 115.33131 118.59776 0.00843
6340 35.69518 115.83719 122.78660 0.00814
6341 35.70018 116.40197 115.94829 0.00862
6342 35.70518 117.03406 119.62052 0.00836
6343 35.71018 117.74362 114.25811 0.00875
6344 35.71518 118.54306 114.36797 0.00874
6345 35.72018 119.44756 121.93728 0.00820
6346 35.72518 120.47593 138.35824 0.00723
6347 35.73018 121.65146 123.42222 0.00810
6348 35.73518 123.00318 125.16434 0.00799
6349 35.74018 124.56717 105.18908 0.00951
6350 35.74518 126.38834 118.67292 0.00843
6351 35.75018 128.52235 126.09357 0.00793
6352 35.75518 131.03794 133.24081 0.00751
6353 35.76018 134.01885 134.54870 0.00743
6354 35.76518 137.56494 151.28220 0.00661
6355 35.77018 141.79175 137.99633 0.00725
6356 35.77518 146.82793 148.04417 0.00675
6357 35.78018 152.80902 138.89873 0.00720
6358 35.78518 159.86387 139.91947 0.00715
6359 35.79018 168.08919 147.03755 0.00680
6360 35.79518 177.49786 161.62660 0.00619
6361 35.80018 187.93602 160.86937 0.00622
6362 35.80518 198.96262 172.41344 0.00580
6363 35.81018 209.72577 173.79434 0.00575
6364 35.81518 218.93437 177.39403 0.00564
6365 35.82018 225.07391 185.42259 0.00539
6366 35.82518 226.92067 194.70149 0.00514
6367 35.83018 224.11498 201.44952 0.00496
6368 35.83518 217.35420 177.29407 0.00564
6369 35.84018 208.03365 187.94283 0.00532
6370 35.84518 197.64652 166.25362 0.00601
6371 35.85018 187.35229 169.96493 0.00588
6372 35.85518 177.88255 180.76376 0.00553
6373 35.86018 169.57639 184.92753 0.00541
6374 35.86518 162.53728 173.34613 0.00577
6375 35.87018 156.73700 162.23021 0.00616
6376 35.87518 152.08813 160.07840 0.00625
6377 35.88018 148.48601 174.26282 0.00574
6378 35.88518 145.83078 167.62422 0.00597
6379 35.89018 144.03815 148.85475 0.00672
6380 35.89518 143.04387 155.85602 0.00642
6381 35.90018 142.80430 164.45791 0.00608
6382 35.90518 143.29401 164.07667 0.00609
6383 35.91018 144.49942 155.08136 0.00645
6384 35.91518 146.40685 158.16673 0.00632
6385 35.92018 148.98189 151.10262 0.00662
6386 35.92518 152.13623 152.37099 0.00656
6387 35.93018 155.68665 178.78346 0.00559
6388 35.93518 159.31923 176.27585 0.00567
6389 35.94018 162.59930 170.30394 0.00587
6390 35.94518 165.06801 163.27668 0.00612
6391 35.95018 166.41289 156.59650 0.00639
6392 35.95518 166.60175 176.86358 0.00565
6393 35.96018 165.85482 190.14206 0.00526
6394 35.96518 164.46508 171.60520 0.00583
6395 35.97018 162.61772 164.27660 0.00609
6396 35.97518 160.31905 169.65124 0.00589
6397 35.98018 157.50911 174.57597 0.00573
6398 35.98518 154.19094 161.51176 0.00619
6399 35.99018 150.50936 162.65658 0.00615
6400 35.99518 146.71282 157.97089 0.00633
6401 36.00018 143.05467 152.11846 0.00657
6402 36.00518 139.72132 147.69842 0.00677
6403 36.01018 136.81396 145.85843 0.00686
6404 36.01518 134.36557 130.63212 0.00766
6405 36.02018 132.36720 134.10183 0.00746
6406 36.02518 130.78981 139.47506 0.00717
6407 36.03018 129.59851 116.70991 0.00857
6408 36.03518 128.76071 114.05879 0.00877
6409 36.04018 128.25047 124.97894 0.00800
6410 36.04518 128.05334 134.50339 0.00743
6411 36.05018 128.15719 118.71845 0.00842
6412 36.05518 128.56869 116.65402 0.00857
6413 36.06018 129.30357 125.73944 0.00795
6414 36.06518 130.38977 122.43553 0.00817
6415 36.07018 131.86812 128.32446 0.00779
6416 36.07518 133.79270 131.70506 0.00759
6417 36.08018 136.23059 133.13911 0.00751
6418 36.08518 139.26015 122.88041 0.00814
6419 36.09018 142.97043 141.68013 0.00706
6420 36.09518 147.43811 141.33019 0.00708
6421 36.10018 152.72459 139.27917 0.00718
6422 36.10518 158.83966 145.32069 0.00688
6423 36.11018 165.68163 167.62956 0.00597
6424 36.11518 172.95955 156.88881 0.00637
6425 36.12018 180.11014 177.47396 0.00563
6426 36.12518 186.27424 181.07745 0.00552
6427 36.13018 190.43091 177.86225 0.00562
6428 36.13518 191.73138 196.00281 0.00510
6429 36.14018 189.88684 195.31559 0.00512
6430 36.14518 185.32109 170.94146 0.00585
6431 36.15018 178.95359 174.58201 0.00573
6432 36.15518 171.80090 179.50873 0.00557
6433 36.16018 164.67658 159.32004 0.00628
6434 36.16518 158.09405 160.29262 0.00624
6435 36.17018 152.30840 145.24356 0.00688
6436 36.17518 147.40901 134.73193 0.00742
6437 36.18018 143.36467 144.06329 0.00694
6438 36.18518 140.11567 143.69538 0.00696
6439 36.19018 137.56966 144.34838 0.00693
6440 36.19518 135.61770 128.47375 0.00778
6441 36.20018 134.13363 124.78227 0.00801
6442 36.20518 132.97200 122.37728 0.00817
6443 36.21018 131.97552 137.61411 0.00727
6444 36.21518 131.00015 126.38049 0.00791
6445 36.22018 129.95265 115.25325 0.00868
6446 36.22518 128.81517 122.68468 0.00815
6447 36.23018 127.63575 126.15578 0.00793
6448 36.23518 126.47549 131.78491 0.00759
6449 36.24018 125.44018 126.51562 0.00790
6450 36.24518 124.56300 123.65216 0.00809
6451 36.25018 123.87136 108.82157 0.00919
6452 36.25518 123.37734 117.35428 0.00852
6453 36.26018 123.08559 112.94328 0.00885
6454 36.26518 122.99923 137.84197 0.00725
6455 36.27018 123.12368 130.94053 0.00764
6456 36.27518 123.46904 139.76112 0.00716
6457 36.28018 124.05157 128.08056 0.00781
6458 36.28518 124.89458 134.84633 0.00742
6459 36.29018 126.02437 131.99995 0.00758
6460 36.29518 127.48838 141.45094 0.00707
6461 36.30018 129.32700 136.76432 0.00731
6462 36.30518 131.59172 134.67641 0.00743
6463 36.31018 134.32596 131.88009 0.00758
6464 36.31518 137.56845 159.18060 0.00628
6465 36.32018 141.32436 135.00778 0.00741
6466 36.32518 145.53529 141.99061 0.00704
6467 36.33018 150.03420 139.45767 0.00717
6468 36.33518 154.50119 142.17890 0.00703
6469 36.34018 158.45890 151.75574 0.00659
6470 36.34518 161.35571 154.33386 0.00648
6471 36.35018 162.76390 138.59201 0.00722
6472 36.35518 162.58319 137.33447 0.00728
6473 36.36018 161.10405 155.75148 0.00642
6474 36.36518 158.87454 141.51078 0.00707
6475 36.37018 156.47064 144.22053 0.00693
6476 36.37518 154.33938 143.51099 0.00697
6477 36.38018 152.71290 161.59053 0.00619
6478 36.38518 151.65369 155.83282 0.00642
6479 36.39018 151.06900 166.02955 0.00602
6480 36.39518 150.76781 159.74237 0.00626
6481 36.40018 150.50806 155.54131 0.00643
6482 36.40518 150.09542 151.34285 0.00661
6483 36.41018 149.34070 149.56728 0.00669
6484 36.41518 148.12451 143.89503 0.00695
6485 36.42018 146.41781 150.93256 0.00663
6486 36.42518 144.31341 141.97165 0.00704
6487 36.43018 142.01021 145.17777 0.00689
6488 36.43518 139.74514 139.28239 0.00718
6489 36.44018 137.71994 133.43117 0.00749
6490 36.44518 136.06308 147.29141 0.00679
6491 36.45018 134.82726 142.15874 0.00703
6492 36.45518 134.00159 134.18482 0.00745
6493 36.46018 133.51997 131.34092 0.00761
6494 36.46518 133.26121 115.33273 0.00867
6495 36.47018 133.05175 123.00910 0.00813
6496 36.47518 132.69216 135.37628 0.00739
6497 36.48018 132.01522 128.20374 0.00780
6498 36.48518 130.95241 120.14065 0.00832
6499 36.49018 129.55827 120.63266 0.00829
6500 36.49518 127.97146 127.04887 0.00787
6501 36.50018 126.34507 124.37858 0.00804
6502 36.50518 124.79335 124.12480 0.00806
6503 36.51018 123.37330 122.87466 0.00814
6504 36.51518 122.09253 120.60423 0.00829
6505 36.52018 120.93003 115.82879 0.00863
6506 36.52518 119.85886 111.63302 0.00896
6507 36.53018 118.86355 119.03877 0.00840
6508 36.53518 117.94381 110.16151 0.00908
6509 36.54018 117.10816 114.03872 0.00877
6510 36.54518 116.36495 116.18070 0.00861
6511 36.55018 115.71879 110.07389 0.00908
6512 36.55518 115.16439 116.35198 0.00859
6513 36.56018 114.69697 117.34400 0.00852
6514 36.56518 114.30863 107.48866 0.00930
6515 36.57018 113.99138 105.25476 0.00950
6516 36.57518 113.73798 104.10047 0.00961
6517 36.58018 113.54240 110.84765 0.00902
6518 36.58518 113.39997 116.56404 0.00858
6519 36.59018 113.30742 105.87299 0.00945
6520 36.59518 113.26285 111.10062 0.00900
6521 36.60018 113.26566 127.35750 0.00785
6522 36.60518 113.31660 113.32557 0.00882
6523 36.61018 113.41765 108.96604 0.00918
6524 36.61518 113.57304 110.54432 0.00905
6525 36.62018 113.78550 106.74470 0.00937
6526 36.62518 114.06193 121.44896 0.00823
6527 36.63018 114.40950 113.08705 0.00884
6528 36.63518 114.83588 114.78130 0.00871
6529 36.64018 115.34802 120.91334 0.00827
6530 36.64518 115.94976 120.51086 0.00830
6531 36.65018 116.63792 122.52347 0.00816
6532 36.65518 117.39665 116.85382 0.00856
6533 36.66018 118.19076 124.09818 0.00806
6534 36.66518 118.96204 123.72615 0.00808
6535 36.67018 119.63531 131.90786 0.00758
6536 36.67518 120.13954 126.69907 0.00789
6537 36.68018 120.43762 126.41258 0.00791
6538 36.68518 120.54561 127.61644 0.00784
6539 36.69018 120.52177 127.59113 0.00784
6540 36.69518 120.46069 121.02978 0.00826
6541 36.70018 120.43904 124.70751 0.00802
6542 36.70518 120.52268 118.18460 0.00846
6543 36.71018 120.75889 117.03063 0.00854
6544 36.71518 121.18669 121.74249 0.00821
6545 36.72018 121.82273 121.26237 0.00825
6546 36.72518 122.68219 121.24666 0.00825
6547 36.73018 123.78107 122.47655 0.00816
6548 36.73518 125.11580 121.93547 0.00820
6549 36.74018 126.67192 123.68618 0.00808
6550 36.74518 128.41889 123.06061 0.00813
6551 36.75018 130.31783 128.09333 0.00781
6552 36.75518 132.34338 133.88937 0.00747
6553 36.76018 134.51181 137.14124 0.00729
6554 36.76518 136.89442 146.43078 0.00683
6555 36.77018 139.60019 139.59474 0.00716
6556 36.77518 142.73373 148.63578 0.00673
6557 36.78018 146.34537 163.11785 0.00613
6558 36.78518 150.38146 151.83534 0.00659
6559 36.79018 154.63553 164.30822 0.00609
6560 36.79518 158.71350 158.48476 0.00631
6561 36.80018 162.05390 168.66047 0.00593
6562 36.80518 164.05535 159.84980 0.00626
6563 36.81018 164.30078 167.32982 0.00598
6564 36.81518 162.75612 159.30735 0.00628
6565 36.82018 159.78753 156.42731 0.00639
6566 36.82518 155.98364 159.33778 0.00628
6567 36.83018 151.92783 161.48731 0.00619
6568 36.83518 148.05844 151.80665 0.00659
6569 36.84018 144.64123 145.93825 0.00685
6570 36.84518 141.80582 141.94497 0.00704
6571 36.85018 139.59665 153.85402 0.00650
6572 36.85518 138.01455 138.27142 0.00723
6573 36.86018 137.04432 149.41942 0.00669
6574 36.86518 136.67070 137.55913 0.00727
6575 36.87018 136.88740 129.97680 0.00769
6576 36.87518 137.70193 133.69355 0.00748
6577 36.88018 139.13724 143.32832 0.00698
6578 36.88518 141.23300 157.78586 0.00634
6579 36.89018 144.04345 158.52509 0.00631
6580 36.89518 147.63305 159.21527 0.00628
6581 36.90018 152.06656 159.53925 0.00627
6582 36.90518 157.39037 162.32581 0.00616
6583 36.91018 163.59709 161.22946 0.00620
6584 36.91518 170.57409 176.49922 0.00567
6585 36.92018 178.03269 177.59541 0.00563
6586 36.92518 185.45086 180.18907 0.00555
6587 36.93018 192.08934 190.06009 0.00526
6588 36.93518 197.15563 204.08913 0.00490
6589 36.94018 200.08926 200.03974 0.00500
6590 36.94518 200.82750 195.03161 0.00513
6591 36.95018 199.79309 188.75148 0.00530
6592 36.95518 197.61420 192.18448 0.00520
6593 36.96018 194.77778 197.35117 0.00507
6594 36.96518 191.44641 190.31681 0.00525
6595 36.97018 187.51468 186.79028 0.00535
6596 36.97518 182.83111 179.72824 0.00556
6597 36.98018 177.41950 183.44798 0.00545
6598 36.98518 171.54522 176.96471 0.00565
6599 36.99018 165.60990 161.61306 0.00619
6600 36.99518 159.99391 169.25618 0.00591
6601 37.00018 154.93927 160.92830 0.00621
6602 37.00518 150.54549 163.68850 0.00611
6603 37.01018 146.77967 158.10217 0.00633
6604 37.01518 143.52114 161.42979 0.00619
6605 37.02018 140.61101 150.00600 0.00667
6606 37.02518 137.91007 152.04292 0.00658
6607 37.03018 135.32128 136.60763 0.00732
6608 37.03518 132.84150 133.70702 0.00748
6609 37.04018 130.49662 138.15155 0.00724
6610 37.04518 128.32905 132.19111 0.00756
6611 37.05018 126.37020 135.24814 0.00739
6612 37.05518 124.63293 128.86847 0.00776
6613 37.06018 123.11387 122.05447 0.00819
6614 37.06518 121.79898 118.88657 0.00841
6615 37.07018 120.66897 123.20061 0.00812
6616 37.07518 119.70304 122.19793 0.00818
6617 37.08018 118.88127 114.56792 0.00873
6618 37.08518 118.18563 119.48896 0.00837
6619 37.09018 117.60049 122.09997 0.00819
6620 37.09518 117.11269 122.62586 0.00815
6621 37.10018 116.71142 125.77503 0.00795
6622 37.10518 116.38805 109.01542 0.00917
6623 37.11018 116.13594 123.81377 0.00808
6624 37.11518 115.95031 117.87859 0.00848
6625 37.12018 115.82805 113.05212 0.00885
6626 37.12518 115.76792 108.93169 0.00918
6627 37.13018 115.77015 120.87271 0.00827
6628 37.13518 115.83680 118.54177 0.00844
6629 37.14018 115.97182 117.93011 0.00848
6630 37.14518 116.18132 118.00842 0.00847
6631 37.15018 116.47896 123.81361 0.00808
6632 37.15518 116.86579 126.39523 0.00791
6633 37.16018 117.35710 114.96350 0.00870
6634 37.16518 117.97964 126.12951 0.00793
6635 37.17018 118.75670 117.36730 0.00852
6636 37.17518 119.70285 107.75516 0.00928
6637 37.18018 120.85357 124.35606 0.00804
6638 37.18518 122.24175 121.07197 0.00826
6639 37.19018 123.90130 118.28224 0.00845
6640 37.19518 125.86286 122.51831 0.00816
6641 37.20018 128.14544 124.40412 0.00804
6642 37.20518 130.74154 127.61371 0.00784
6643 37.21018 133.59369 136.57365 0.00732
6644 37.21518 136.56439 144.69441 0.00691
6645 37.22018 139.41099 138.88516 0.00720
6646 37.22518 141.77798 141.68102 0.00706
6647 37.23018 143.32778 134.08760 0.00746
6648 37.23518 143.78014 144.11085 0.00694
6649 37.24018 143.09020 134.37928 0.00744
6650 37.24518 141.44733 137.97434 0.00725
6651 37.25018 139.17514 151.76687 0.00659
6652 37.25518 136.60263 139.28623 0.00718
6653 37.26018 133.98757 136.31316 0.00734
6654 37.26518 131.50255 146.22214 0.00684
6655 37.27018 129.25073 133.09564 0.00751
6656 37.27518 127.28490 133.88976 0.00747
6657 37.28018 125.62250 125.51263 0.00797
6658 37.28518 124.25761 129.86969 0.00770
6659 37.29018 123.17267 121.66335 0.00822
6660 37.29518 122.34312 116.33730 0.00860
6661 37.30018 121.74499 121.92398 0.00820
6662 37.30518 121.35692 126.46346 0.00791
6663 37.31018 121.16203 118.35192 0.00845
6664 37.31518 121.14879 117.10530 0.00854
6665 37.32018 121.31201 122.53953 0.00816
6666 37.32518 121.65170 128.91717 0.00776
6667 37.33018 122.17383 124.44985 0.00804
6668 37.33518 122.89195 118.70553 0.00842
6669 37.34018 123.82526 124.32985 0.00804
6670 37.34518 124.99897 120.50602 0.00830
6671 37.35018 126.44343 128.59181 0.00778
6672 37.35518 128.19282 129.68998 0.00771
6673 37.36018 130.28278 133.22368 0.00751
6674 37.36518 132.74728 134.82328 0.00742
6675 37.37018 135.61411 145.40658 0.00688
6676 37.37518 138.89733 140.18366 0.00713
6677 37.38018 142.58184 140.21120 0.00713
6678 37.38518 146.58827 147.62352 0.00677
6679 37.39018 150.75270 159.57189 0.00627
6680 37.39518 154.75281 155.37862 0.00644
6681 37.40018 158.13468 162.00246 0.00617
6682 37.40518 160.39975 170.15834 0.00588
6683 37.41018 161.18491 165.63093 0.00604
6684 37.41518 160.43536 179.69222 0.00557
6685 37.42018 158.43859 170.90815 0.00585
6686 37.42518 155.69125 166.85650 0.00599
6687 37.43018 152.70795 167.61661 0.00597
6688 37.43518 149.89246 150.80025 0.00663
6689 37.44018 147.50390 153.11732 0.00653
6690 37.44518 145.68251 146.71588 0.00682
6691 37.45018 144.49239 144.74670 0.00691
6692 37.45518 143.95835 137.48167 0.00727
6693 37.46018 144.09085 138.17659 0.00724
6694 37.46518 144.90045 146.20914 0.00684
6695 37.47018 146.40489 138.70528 0.00721
6696 37.47518 148.63088 150.29638 0.00665
6697 37.48018 151.61204 153.38631 0.00652
6698 37.48518 155.38467 157.14318 0.00636
6699 37.49018 159.98738 147.18604 0.00679
6700 37.49518 165.45172 150.04480 0.00666
6701 37.50018 171.82727 146.39973 0.00683
6702 37.50518 179.17302 167.76507 0.00596
6703 37.51018 187.53591 198.64120 0.00503
6704 37.51518 196.88399 192.48177 0.00520
6705 37.52018 207.00902 211.70402 0.00472
6706 37.52518 217.44363 268.86970 0.00372
6707 37.53018 227.43800 263.87198 0.00379
6708 37.53518 236.08613 271.22108 0.00369
6709 37.54018 242.51731 283.49555 0.00353
6710 37.54518 246.07988 273.72349 0.00365
6711 37.55018 246.41997 288.91021 0.00346
6712 37.55518 243.51079 267.03793 0.00374
6713 37.56018 237.69006 227.42492 0.00440
6714 37.56518 229.63118 225.06164 0.00444
6715 37.57018 220.15888 203.47231 0.00491
6716 37.57518 210.04998 194.72016 0.00514
6717 37.58018 199.90629 198.21373 0.00505
6718 37.58518 190.16186 183.34373 0.00545
6719 37.59018 181.12699 174.25362 0.00574
6720 37.59518 172.99229 161.24412 0.00620
6721 37.60018 165.85889 150.77406 0.00663
6722 37.60518 159.73773 154.33870 0.00648
6723 37.61018 154.57919 140.45651 0.00712
6724 37.61518 150.30044 146.65601 0.00682
6725 37.62018 146.80689 135.97971 0.00735
6726 37.62518 144.00597 136.32667 0.00734
6727 37.63018 141.81429 143.72009 0.00696
6728 37.63518 140.16035 148.09220 0.00675
6729 37.64018 138.98417 134.68701 0.00742
6730 37.64518 138.23558 131.46322 0.00761
6731 37.65018 137.87177 139.78892 0.00715
6732 37.65518 137.85698 141.71853 0.00706
6733 37.66018 138.16565 156.27911 0.00640
6734 37.66518 138.78662 148.91241 0.00672
6735 37.67018 139.73585 130.37824 0.00767
6736 37.67518 141.04172 152.25932 0.00657
6737 37.68018 142.74104 154.14208 0.00649
6738 37.68518 144.85832 151.69949 0.00659
6739 37.69018 147.38318 141.25283 0.00708
6740 37.69518 150.24492 168.61689 0.00593
6741 37.70018 153.28944 161.84036 0.00618
6742 37.70518 156.27490 164.34853 0.00608
6743 37.71018 158.90493 141.07589 0.00709
6744 37.71518 160.95015 160.42819 0.00623
6745 37.72018 162.32082 164.78965 0.00607
6746 37.72518 163.13554 162.35585 0.00616
6747 37.73018 163.67494 153.29477 0.00652
6748 37.73518 164.25532 160.05190 0.00625
6749 37.74018 165.12582 154.67589 0.00647
6750 37.74518 166.42153 160.27923 0.00624
6751 37.75018 168.17926 182.24747 0.00549
6752 37.75518 170.38698 193.00060 0.00518
6753 37.76018 173.03944 183.02122 0.00546
6754 37.76518 176.18975 189.04988 0.00529
6755 37.77018 179.93372 212.26728 0.00471
6756 37.77518 184.40337 203.30528 0.00492
6757 37.78018 189.70853 214.96466 0.00465
6758 37.78518 195.84710 222.64827 0.00449
6759 37.79018 202.59544 236.56706 0.00423
6760 37.79518 209.41255 231.74023 0.00432
6761 37.80018 215.42519 253.75160 0.00394
6762 37.80518 219.60649 253.45380 0.00395
6763 37.81018 221.05926 235.08502 0.00425
6764 37.81518 219.44913 239.60221 0.00417
6765 37.82018 215.16719 246.04894 0.00406
6766 37.82518 209.14620 230.84247 0.00433
6767 37.83018 202.47483 226.72008 0.00441
6768 37.83518 196.07707 188.38665 0.00531
6769 37.84018 190.58473 191.87872 0.00521
6770 37.84518 186.32755 170.80978 0.00585
6771 37.85018 183.43630 169.17165 0.00591
6772 37.85518 181.87675 169.95833 0.00588
6773 37.86018 181.48438 164.76692 0.00607
6774 37.86518 181.97231 181.29663 0.00552
6775 37.87018 182.95381 186.00700 0.00538
6776 37.87518 184.00969 185.32387 0.00540
6777 37.88018 184.81053 185.14588 0.00540
6778 37.88518 185.23288 191.81250 0.00521
6779 37.89018 185.37365 184.14879 0.00543
6780 37.89518 185.43254 162.94932 0.00614
6781 37.90018 185.53575 182.32394 0.00548
6782 37.90518 185.60775 181.62748 0.00551
6783 37.91018 185.35935 173.91779 0.00575
6784 37.91518 184.40450 173.43802 0.00577
6785 37.92018 182.46685 154.46335 0.00647
6786 37.92518 179.54429 153.45062 0.00652
6787 37.93018 175.94640 163.72892 0.00611
6788 37.93518 172.13086 162.14066 0.00617
6789 37.94018 168.56529 142.23201 0.00703
6790 37.94518 165.60995 156.63668 0.00638
6791 37.95018 163.49419 152.47395 0.00656
6792 37.95518 162.36595 147.06887 0.00680
6793 37.96018 162.29371 145.89048 0.00685
6794 37.96518 163.31902 157.73891 0.00634
6795 37.97018 165.44594 145.43031 0.00688
6796 37.97518 168.65297 139.84567 0.00715
6797 37.98018 172.85036 148.86330 0.00672
6798 37.98518 177.83790 153.15781 0.00653
6799 37.99018 183.25501 159.97628 0.00625
6800 37.99518 188.55973 181.77781 0.00550
6801 38.00018 193.07482 159.99192 0.00625
6802 38.00518 196.16964 196.08162 0.00510
6803 38.01018 197.38423 205.23196 0.00487
6804 38.01518 196.55202 206.11601 0.00485
6805 38.02018 193.75713 213.39820 0.00469
6806 38.02518 189.26427 208.66046 0.00479
6807 38.03018 183.48355 205.13887 0.00487
6808 38.03518 176.93394 190.03279 0.00526
6809 38.04018 170.15673 155.44871 0.00643
6810 38.04518 163.61059 168.58779 0.00593
6811 38.05018 157.60980 160.26540 0.00624
6812 38.05518 152.32332 146.45397 0.00683
6813 38.06018 147.81043 133.65126 0.00748
6814 38.06518 144.06300 132.66734 0.00754
6815 38.07018 141.03988 138.69141 0.00721
6816 38.07518 138.68797 130.18134 0.00768
6817 38.08018 136.95485 149.68749 0.00668
6818 38.08518 135.79392 129.87047 0.00770
6819 38.09018 135.16478 127.31832 0.00785
6820 38.09518 135.02980 139.66080 0.00716
6821 38.10018 135.34691 144.08981 0.00694
6822 38.10518 136.05809 130.94444 0.00764
6823 38.11018 137.07386 138.66962 0.00721
6824 38.11518 138.25503 139.52665 0.00717
6825 38.12018 139.39812 140.93356 0.00710
6826 38.12518 140.24026 132.32313 0.00756
6827 38.13018 140.50468 136.36559 0.00733
6828 38.13518 139.98900 133.79313 0.00747
6829 38.14018 138.65204 148.48591 0.00673
6830 38.14518 136.63290 125.25660 0.00798
6831 38.15018 134.18436 143.22589 0.00698
6832 38.15518 131.57285 137.84272 0.00725
6833 38.16018 129.00726 130.99340 0.00763
6834 38.16518 126.61918 125.45809 0.00797
6835 38.17018 124.47360 120.26745 0.00831
6836 38.17518 122.58312 108.35083 0.00923
6837 38.18018 120.94135 121.09462 0.00826
6838 38.18518 119.52674 109.99575 0.00909
6839 38.19018 118.31295 121.90760 0.00820
6840 38.19518 117.27330 107.01125 0.00934
6841 38.20018 116.38280 110.24420 0.00907
6842 38.20518 115.61913 107.52412 0.00930
6843 38.21018 114.96292 100.92468 0.00991
6844 38.21518 114.39767 119.09842 0.00840
6845 38.22018 113.90960 124.33954 0.00804
6846 38.22518 113.48735 117.67320 0.00850
6847 38.23018 113.12161 117.22865 0.00853
6848 38.23518 112.80488 128.07384 0.00781
6849 38.24018 112.53115 115.89599 0.00863
6850 38.24518 112.29565 122.34608 0.00817
6851 38.25018 112.09460 120.71251 0.00828
6852 38.25518 111.92510 123.26667 0.00811
6853 38.26018 111.78493 111.71313 0.00895
6854 38.26518 111.67248 112.09755 0.00892
6855 38.27018 111.58665 103.46832 0.00966
6856 38.27518 111.52684 116.12012 0.00861
6857 38.28018 111.49288 105.89248 0.00944
6858 38.28518 111.48502 112.06743 0.00892
6859 38.29018 111.50393 107.61799 0.00929
6860 38.29518 111.55070 109.29630 0.00915
6861 38.30018 111.62684 106.27546 0.00941
6862 38.30518 111.73424 107.00892 0.00935
6863 38.31018 111.87517 103.18947 0.00969
6864 38.31518 112.05230 119.91978 0.00834
6865 38.32018 112.26880 117.27961 0.00853
6866 38.32518 112.52877 123.14206 0.00812
6867 38.33018 112.82687 116.05026 0.00862
6868 38.33518 113.19351 117.93274 0.00848
6869 38.34018 113.63226 126.09738 0.00793
6870 38.34518 114.15111 110.75759 0.00903
6871 38.35018 114.77076 113.81767 0.00879
6872 38.35518 115.51114 114.70892 0.00872
6873 38.36018 116.39446 121.86356 0.00821
6874 38.36518 117.44490 128.69105 0.00777
6875 38.37018 118.68772 133.59887 0.00749
6876 38.37518 120.14715 130.77462 0.00765
6877 38.38018 121.84191 115.82437 0.00863
6878 38.38518 123.77743 116.22584 0.00860
6879 38.39018 125.93121 132.45624 0.00755
6880 38.39518 128.23734 143.75307 0.00696
6881 38.40018 130.56819 123.91364 0.00807
6882 38.40518 132.73329 128.62921 0.00777
6883 38.41018 134.51223 124.54414 0.00803
6884 38.41518 135.72827 133.00088 0.00752
6885 38.42018 136.33121 138.01655 0.00725
6886 38.42518 136.43115 131.73153 0.00759
6887 38.43018 136.25379 142.37764 0.00702
6888 38.43518 136.04984 138.48756 0.00722
6889 38.44018 136.01638 142.18936 0.00703
6890 38.44518 136.24462 136.24562 0.00734
6891 38.45018 136.71406 145.14065 0.00689
6892 38.45518 137.29002 137.01040 0.00730
6893 38.46018 137.73772 132.76537 0.00753
6894 38.46518 137.78282 128.93475 0.00776
6895 38.47018 137.20321 144.27051 0.00693
6896 38.47518 135.92134 129.14409 0.00774
6897 38.48018 134.03413 138.15079 0.00724
6898 38.48518 131.75878 123.38955 0.00810
6899 38.49018 129.33518 125.22744 0.00799
6900 38.49518 126.97042 113.13302 0.00884
6901 38.50018 124.78806 124.19063 0.00805
6902 38.50518 122.85175 116.92331 0.00855
6903 38.51018 121.18080 125.00109 0.00800
6904 38.51518 119.76880 125.05720 0.00800
6905 38.52018 118.59706 118.13342 0.00847
6906 38.52518 117.64261 122.90012 0.00814
6907 38.53018 116.88290 116.29810 0.00860
6908 38.53518 116.29785 118.37123 0.00845
6909 38.54018 115.87102 109.71465 0.00911
6910 38.54518 115.58997 105.79556 0.00945
6911 38.55018 115.44631 110.43579 0.00906
6912 38.55518 115.43545 123.45138 0.00810
6913 38.56018 115.55621 108.24263 0.00924
6914 38.56518 115.81007 122.76166 0.00815
6915 38.57018 116.19992 123.12195 0.00812
6916 38.57518 116.72784 106.17751 0.00942
6917 38.58018 117.39136 124.65659 0.00802
6918 38.58518 118.17750 113.49524 0.00881
6919 38.59018 119.05435 114.70192 0.00872
6920 38.59518 119.96210 115.47823 0.00866
6921 38.60018 120.80886 116.75978 0.00856
6922 38.60518 121.48070 117.09892 0.00854
6923 38.61018 121.87175 112.01993 0.00893
6924 38.61518 121.92622 121.54709 0.00823
6925 38.62018 121.66528 138.20721 0.00724
6926 38.62518 121.17801 122.40400 0.00817
6927 38.63018 120.58355 112.90452 0.00886
6928 38.63518 119.99101 118.81729 0.00842
6929 38.64018 119.48260 129.45365 0.00772
6930 38.64518 119.09182 115.09064 0.00869
6931 38.65018 118.83433 107.32176 0.00932
6932 38.65518 118.69815 111.13095 0.00900
6933 38.66018 118.65462 121.30174 0.00824
6934 38.66518 118.66528 102.21341 0.00978
6935 38.67018 118.70148 124.46143 0.00803
6936 38.67518 118.75174 115.88003 0.00863
6937 38.68018 118.82830 113.41743 0.00882
6938 38.68518 118.96171 114.17660 0.00876
6939 38.69018 119.18972 121.30253 0.00824
6940 38.69518 119.54807 117.47652 0.00851
6941 38.70018 120.06664 109.62988 0.00912
6942 38.70518 120.76954 112.28488 0.00891
6943 38.71018 121.67639 120.08177 0.00833
6944 38.71518 122.80278 109.61982 0.00912
6945 38.72018 124.15929 114.64560 0.00872
6946 38.72518 125.75240 116.44410 0.00859
6947 38.73018 127.57376 122.44476 0.00817
6948 38.73518 129.61996 116.90899 0.00855
6949 38.74018 131.89082 129.11426 0.00775
6950 38.74518 134.40096 122.32848 0.00817
6951 38.75018 137.17535 135.80105 0.00736
6952 38.75518 140.20987 158.15723 0.00632
6953 38.76018 143.44947 160.65974 0.00622
6954 38.76518 146.73049 163.43631 0.00612
6955 38.77018 149.76284 175.10830 0.00571
6956 38.77518 152.16188 185.02301 0.00540
6957 38.78018 153.55340 180.94721 0.00553
6958 38.78518 153.72341 176.97610 0.00565
6959 38.79018 152.72344 164.88630 0.00606
6960 38.79518 150.85185 162.94615 0.00614
6961 38.80018 148.53088 168.56208 0.00593
6962 38.80518 146.15740 156.72388 0.00638
6963 38.81018 144.03945 155.86172 0.00642
6964 38.81518 142.37371 135.49928 0.00738
6965 38.82018 141.27243 135.18818 0.00740
6966 38.82518 140.79593 137.85714 0.00725
6967 38.83018 140.97903 131.24700 0.00762
6968 38.83518 141.84807 130.53067 0.00766
6969 38.84018 143.42977 135.29228 0.00739
6970 38.84518 145.75308 142.35712 0.00702
6971 38.85018 148.84446 149.86617 0.00667
6972 38.85518 152.71602 144.87947 0.00690
6973 38.86018 157.33538 170.60512 0.00586
6974 38.86518 162.59372 162.39255 0.00616
6975 38.87018 168.24737 163.48560 0.00612
6976 38.87518 173.86933 178.38406 0.00561
6977 38.88018 178.84388 187.40884 0.00534
6978 38.88518 182.46202 180.84519 0.00553
6979 38.89018 184.13614 170.68078 0.00586
6980 38.89518 183.64647 165.22391 0.00605
6981 38.90018 181.25205 192.89022 0.00518
6982 38.90518 177.57746 175.05956 0.00571
6983 38.91018 173.36673 165.44674 0.00604
6984 38.91518 169.27103 169.91073 0.00589
6985 38.92018 165.75572 162.80267 0.00614
6986 38.92518 163.10710 166.47559 0.00601
6987 38.93018 161.48194 152.93091 0.00654
6988 38.93518 160.95837 155.02926 0.00645
6989 38.94018 161.57085 160.48972 0.00623
6990 38.94518 163.32585 148.07647 0.00675
6991 38.95018 166.19827 169.59148 0.00590
6992 38.95518 170.10912 177.74699 0.00563
6993 38.96018 174.88506 179.59762 0.00557
6994 38.96518 180.20704 175.68270 0.00569
6995 38.97018 185.56977 178.54332 0.00560
6996 38.97518 190.29052 161.34449 0.00620
6997 38.98018 193.60689 172.28757 0.00580
6998 38.98518 194.86108 171.06449 0.00585
6999 38.99018 193.70774 174.91870 0.00572
7000 38.99518 190.24141 176.16811 0.00568
7001 39.00018 184.96408 173.68700 0.00576
7002 39.00518 178.60370 163.62197 0.00611
7003 39.01018 171.88539 160.06865 0.00625
7004 39.01518 165.37621 155.13536 0.00645
7005 39.02018 159.43282 141.78518 0.00705
7006 39.02518 154.22715 152.76534 0.00655
7007 39.03018 149.79562 155.19193 0.00644
7008 39.03518 146.08564 151.87724 0.00658
7009 39.04018 142.98800 139.79310 0.00715
7010 39.04518 140.35928 146.42929 0.00683
7011 39.05018 138.04655 158.65458 0.00630
7012 39.05518 135.91706 132.28748 0.00756
7013 39.06018 133.88606 132.22444 0.00756
7014 39.06518 131.92810 135.87845 0.00736
7015 39.07018 130.06436 134.24189 0.00745
7016 39.07518 128.33589 128.12023 0.00781
7017 39.08018 126.77991 132.64960 0.00754
7018 39.08518 125.41847 133.81887 0.00747
7019 39.09018 124.25812 123.56567 0.00809
7020 39.09518 123.29564 118.62101 0.00843
7021 39.10018 122.51864 123.25971 0.00811
7022 39.10518 121.91644 118.96478 0.00841
7023 39.11018 121.47794 112.28325 0.00891
7024 39.11518 121.19419 111.45967 0.00897
7025 39.12018 121.05915 129.37353 0.00773
7026 39.12518 121.07015 122.33727 0.00817
7027 39.13018 121.22828 115.91839 0.00863
7028 39.13518 121.53871 112.78409 0.00887
7029 39.14018 122.01122 123.96179 0.00807
7030 39.14518 122.66066 119.66625 0.00836
7031 39.15018 123.50768 116.91210 0.00855
7032 39.15518 124.57947 121.89392 0.00820
7033 39.16018 125.91026 126.17659 0.00793
7034 39.16518 127.54251 125.91787 0.00794
7035 39.17018 129.52716 125.19087 0.00799
7036 39.17518 131.92393 120.62619 0.00829
7037 39.18018 134.80070 121.07646 0.00826
7038 39.18518 138.23138 127.87301 0.00782
7039 39.19018 142.29077 154.15622 0.00649
7040 39.19518 147.04407 151.32279 0.00661
7041 39.20018 152.52722 152.41931 0.00656
7042 39.20518 158.71357 171.05629 0.00585
7043 39.21018 165.45307 166.85477 0.00599
7044 39.21518 172.45585 185.25978 0.00540
7045 39.22018 179.18164 186.83686 0.00535
7046 39.22518 184.90741 170.36823 0.00587
7047 39.23018 188.86239 196.40541 0.00509
7048 39.23518 190.48364 180.59245 0.00554
7049 39.24018 189.63902 185.67392 0.00539
7050 39.24518 186.66535 179.48588 0.00557
7051 39.25018 182.16879 171.42498 0.00583
7052 39.25518 176.76141 170.82806 0.00585
7053 39.26018 170.90143 165.44868 0.00604
7054 39.26518 164.88459 154.72131 0.00646
7055 39.27018 158.91465 145.19833 0.00689
7056 39.27518 153.16195 153.55442 0.00651
7057 39.28018 147.77433 138.76374 0.00721
7058 39.28518 142.86047 140.90448 0.00710
7059 39.29018 138.47720 136.84631 0.00731
7060 39.29518 134.63253 128.00071 0.00781
7061 39.30018 131.29927 133.73464 0.00748
7062 39.30518 128.43052 128.36859 0.00779
7063 39.31018 125.97111 124.92390 0.00800
7064 39.31518 123.86576 125.32493 0.00798
7065 39.32018 122.06280 120.88919 0.00827
7066 39.32518 120.51616 111.99384 0.00893
7067 39.33018 119.18568 107.76383 0.00928
7068 39.33518 118.03736 120.25065 0.00832
7069 39.34018 117.04470 124.72647 0.00802
7070 39.34518 116.17607 109.71568 0.00911
7071 39.35018 115.42084 117.92929 0.00848
7072 39.35518 114.75931 113.85930 0.00878
7073 39.36018 114.17811 118.98987 0.00840
7074 39.36518 113.66623 123.41614 0.00810
7075 39.37018 113.21461 106.60904 0.00938
7076 39.37518 112.81576 119.13763 0.00839
7077 39.38018 112.46133 103.26857 0.00968
7078 39.38518 112.15048 118.04680 0.00847
7079 39.39018 111.87677 105.29131 0.00950
7080 39.39518 111.63665 120.27282 0.00831
7081 39.40018 111.42718 107.10797 0.00934
7082 39.40518 111.24593 109.49893 0.00913
7083 39.41018 111.09093 122.32547 0.00817
7084 39.41518 110.96062 116.78924 0.00856
7085 39.42018 110.85379 116.97283 0.00855
7086 39.42518 110.76961 99.91071 0.01001
7087 39.43018 110.70755 105.56216 0.00947
7088 39.43518 110.66742 108.75872 0.00919
7089 39.44018 110.64934 102.80446 0.00973
7090 39.44518 110.65516 117.11458 0.00854
7091 39.45018 110.68278 106.71344 0.00937
7092 39.45518 110.73461 110.67166 0.00904
7093 39.46018 110.81189 105.51029 0.00948
7094 39.46518 110.91593 115.06597 0.00869
7095 39.47018 111.04808 120.83707 0.00828
7096 39.47518 111.20947 110.53051 0.00905
7097 39.48018 111.40082 112.32405 0.00890
7098 39.48518 111.62205 111.05436 0.00900
7099 39.49018 111.87164 112.44872 0.00889
7100 39.49518 112.14544 111.32245 0.00898
7101 39.50018 112.43591 113.49540 0.00881
7102 39.50518 112.73196 118.14872 0.00846
7103 39.51018 113.02113 117.97377 0.00848
7104 39.51518 113.29393 113.49674 0.00881
7105 39.52018 113.54729 115.98974 0.00862
7106 39.52518 113.78695 112.32694 0.00890
7107 39.53018 114.02525 116.71536 0.00857
7108 39.53518 114.27851 130.36338 0.00767
7109 39.54018 114.56479 108.83907 0.00919
7110 39.54518 114.89490 117.03744 0.00854
7111 39.55018 115.30135 112.70281 0.00887
7112 39.55518 115.79274 113.09906 0.00884
7113 39.56018 116.38411 123.17440 0.00812
7114 39.56518 117.09004 120.29311 0.00831
7115 39.57018 117.92517 123.26032 0.00811
7116 39.57518 118.90431 116.23770 0.00860
7117 39.58018 120.04201 128.16520 0.00780
7118 39.58518 121.35200 134.07992 0.00746
7119 39.59018 122.84770 114.41123 0.00874
7120 39.59518 124.54403 128.23826 0.00780
7121 39.60018 126.46324 129.51276 0.00772
7122 39.60518 128.63925 129.84355 0.00770
7123 39.61018 131.11766 130.78357 0.00765
7124 39.61518 133.94715 128.27442 0.00780
7125 39.62018 137.16201 130.82488 0.00764
7126 39.62518 140.75767 147.04716 0.00680
7127 39.63018 144.66057 146.17242 0.00684
7128 39.63518 148.69573 152.01582 0.00658
7129 39.64018 152.57079 147.43600 0.00678
7130 39.64518 155.89323 148.76114 0.00672
7131 39.65018 158.26088 140.64119 0.00711
7132 39.65518 159.40064 159.32718 0.00628
7133 39.66018 159.28553 157.99750 0.00633
7134 39.66518 158.14637 160.55248 0.00623
7135 39.67018 156.37311 143.85546 0.00695
7136 39.67518 154.38335 151.80009 0.00659
7137 39.68018 152.53263 148.25127 0.00675
7138 39.68518 151.08297 136.11015 0.00735
7139 39.69018 150.20726 147.38187 0.00679
7140 39.69518 150.00560 140.24448 0.00713
7141 39.70018 150.52003 143.30459 0.00698
7142 39.70518 151.74096 144.80360 0.00691
7143 39.71018 153.60328 150.71054 0.00664
7144 39.71518 155.97521 136.67505 0.00732
7145 39.72018 158.65206 144.14675 0.00694
7146 39.72518 161.37624 143.19265 0.00698
7147 39.73018 163.89791 147.03287 0.00680
7148 39.73518 166.07149 146.51725 0.00683
7149 39.74018 167.93146 159.46437 0.00627
7150 39.74518 169.68682 156.29640 0.00640
7151 39.75018 171.63517 155.60846 0.00643
7152 39.75518 174.04502 164.16865 0.00609
7153 39.76018 177.05793 157.93435 0.00633
7154 39.76518 180.62472 168.09866 0.00595
7155 39.77018 184.47086 185.93865 0.00538
7156 39.77518 188.09715 199.16462 0.00502
7157 39.78018 190.87343 175.81921 0.00569
7158 39.78518 192.18749 194.54455 0.00514
7159 39.79018 191.68296 185.46702 0.00539
7160 39.79518 189.40762 179.35732 0.00558
7161 39.80018 185.79224 170.37554 0.00587
7162 39.80518 181.47734 175.36262 0.00570
7163 39.81018 177.10764 178.82001 0.00559
7164 39.81518 173.19898 183.63842 0.00545
7165 39.82018 170.10236 178.83444 0.00559
7166 39.82518 168.02300 168.83696 0.00592
7167 39.83018 167.07092 161.21712 0.00620
7168 39.83518 167.29707 161.35788 0.00620
7169 39.84018 168.70567 153.78998 0.00650
7170 39.84518 171.25998 158.91085 0.00629
7171 39.85018 174.85496 163.68601 0.00611
7172 39.85518 179.28155 158.54582 0.00631
7173 39.86018 184.15769 163.44094 0.00612
7174 39.86518 188.89796 170.32285 0.00587
7175 39.87018 192.73313 163.73120 0.00611
7176 39.87518 194.85437 178.29527 0.00561
7177 39.88018 194.66606 169.81498 0.00589
7178 39.88518 192.02381 161.50391 0.00619
7179 39.89018 187.29059 177.03394 0.00565
7180 39.89518 181.16526 167.28856 0.00598
7181 39.90018 174.41369 158.71737 0.00630
7182 39.90518 167.66466 149.02963 0.00671
7183 39.91018 161.33372 131.59836 0.00760
7184 39.91518 155.64085 144.95838 0.00690
7185 39.92018 150.67253 144.24367 0.00693
7186 39.92518 146.42983 142.52218 0.00702
7187 39.93018 142.87449 154.90212 0.00646
7188 39.93518 139.95237 116.49643 0.00858
7189 39.94018 137.60680 132.82769 0.00753
7190 39.94518 135.78546 114.04502 0.00877
7191 39.95018 134.44382 123.72846 0.00808
7192 39.95518 133.54685 118.01840 0.00847
7193 39.96018 133.06943 129.27676 0.00774
7194 39.96518 132.99693 132.13939 0.00757
7195 39.97018 133.32292 129.40097 0.00773
7196 39.97518 134.04768 122.79684 0.00814
7197 39.98018 135.17397 131.23796 0.00762
7198 39.98518 136.70005 138.16721 0.00724
7199 39.99018 138.60849 145.27128 0.00688
7200 39.99518 140.85028 162.87286 0.00614
7201 40.00018 143.32637 170.71510 0.00586
7202 40.00518 145.87534 163.15462 0.00613
7203 40.01018 148.28329 172.63108 0.00579
7204 40.01518 150.33466 206.45931 0.00484
7205 40.02018 151.88031 193.98184 0.00516
7206 40.02518 152.92638 172.99433 0.00578
7207 40.03018 153.63192 186.63831 0.00536
7208 40.03518 154.24962 164.74701 0.00607
7209 40.04018 155.03436 167.04448 0.00599
7210 40.04518 156.17520 180.84984 0.00553
7211 40.05018 157.77349 162.80396 0.00614
7212 40.05518 159.85967 169.72022 0.00589
7213 40.06018 162.42606 172.31905 0.00580
7214 40.06518 165.44558 180.94810 0.00553
7215 40.07018 168.85182 186.23076 0.00537
7216 40.07518 172.47991 187.71952 0.00533
7217 40.08018 176.00173 193.41942 0.00517
7218 40.08518 178.90898 206.00208 0.00485
7219 40.09018 180.59870 217.40230 0.00460
7220 40.09518 180.56176 190.76999 0.00524
7221 40.10018 178.59278 184.36287 0.00542
7222 40.10518 174.88147 171.77917 0.00582
7223 40.11018 169.91966 162.66092 0.00615
7224 40.11518 164.28809 156.11557 0.00641
7225 40.12018 158.49343 153.46018 0.00652
7226 40.12518 152.88405 158.26823 0.00632
7227 40.13018 147.66437 137.16931 0.00729
7228 40.13518 142.93405 126.93983 0.00788
7229 40.14018 138.72813 130.16589 0.00768
7230 40.14518 135.04392 133.09969 0.00751
7231 40.15018 131.85291 123.50264 0.00810
7232 40.15518 129.11323 128.83266 0.00776
7233 40.16018 126.77639 122.49732 0.00816
7234 40.16518 124.79318 121.53370 0.00823
7235 40.17018 123.11732 127.92616 0.00782
7236 40.17518 121.70745 116.40365 0.00859
7237 40.18018 120.52805 116.99657 0.00855
7238 40.18518 119.54956 110.62885 0.00904
7239 40.19018 118.74852 134.34219 0.00744
7240 40.19518 118.10583 122.40756 0.00817
7241 40.20018 117.60822 106.95694 0.00935
7242 40.20518 117.24650 123.22022 0.00812
7243 40.21018 117.01532 126.13586 0.00793
7244 40.21518 116.91206 122.12887 0.00819
7245 40.22018 116.93856 122.76441 0.00815
7246 40.22518 117.09670 132.95293 0.00752
7247 40.23018 117.38965 134.57791 0.00743
7248 40.23518 117.81994 134.62136 0.00743
7249 40.24018 118.38824 128.88061 0.00776
7250 40.24518 119.09256 118.84302 0.00841
7251 40.25018 119.93038 127.81356 0.00782
7252 40.25518 120.88836 139.56851 0.00716
7253 40.26018 121.95114 135.22992 0.00739
7254 40.26518 123.08101 134.82107 0.00742
7255 40.27018 124.20308 148.44011 0.00674
7256 40.27518 125.21667 135.43853 0.00738
7257 40.28018 125.98087 137.42935 0.00728
7258 40.28518 126.37130 133.78916 0.00747
7259 40.29018 126.32622 127.37354 0.00785
7260 40.29518 125.87817 134.51374 0.00743
7261 40.30018 125.14334 116.07437 0.00862
7262 40.30518 124.27693 125.90550 0.00794
7263 40.31018 123.42586 123.50035 0.00810
7264 40.31518 122.70021 109.69599 0.00912
7265 40.32018 122.16783 138.41355 0.00722
7266 40.32518 121.85812 118.89991 0.00841
7267 40.33018 121.76813 117.42974 0.00852
7268 40.33518 121.86492 110.49895 0.00905
7269 40.34018 122.08516 123.70371 0.00808
7270 40.34518 122.33686 126.50466 0.00790
7271 40.35018 122.51307 127.25132 0.00786
7272 40.35518 122.51073 113.87211 0.00878
7273 40.36018 122.27555 114.26536 0.00875
7274 40.36518 121.81636 107.05916 0.00934
7275 40.37018 121.20089 126.31833 0.00792
7276 40.37518 120.52701 117.14790 0.00854
7277 40.38018 119.89071 110.10136 0.00908
7278 40.38518 119.36809 126.55037 0.00790
7279 40.39018 119.01113 119.15887 0.00839
7280 40.39518 118.85257 125.32739 0.00798
7281 40.40018 118.91287 130.03474 0.00769
7282 40.40518 119.20578 123.64980 0.00809
7283 40.41018 119.73542 128.13456 0.00780
7284 40.41518 120.52065 120.91148 0.00827
7285 40.42018 121.55698 121.48417 0.00823
7286 40.42518 122.83643 114.44036 0.00874
7287 40.43018 124.33616 114.39794 0.00874
7288 40.43518 126.01341 120.05267 0.00833
7289 40.44018 127.80184 135.67116 0.00737
7290 40.44518 129.60404 147.57703 0.00678
7291 40.45018 131.29976 142.95270 0.00700
7292 40.45518 132.71814 144.30787 0.00693
7293 40.46018 133.66193 134.75875 0.00742
7294 40.46518 133.94923 143.56678 0.00697
7295 40.47018 133.48137 137.83939 0.00725
7296 40.47518 132.29459 138.73103 0.00721
7297 40.48018 130.55269 144.20009 0.00693
7298 40.48518 128.48479 124.66835 0.00802
7299 40.49018 126.31241 120.35889 0.00831
7300 40.49518 124.20394 117.20940 0.00853
7301 40.50018 122.26312 122.97379 0.00813
7302 40.50518 120.54269 116.13994 0.00861
7303 40.51018 119.05964 125.74692 0.00795
7304 40.51518 117.80228 121.12436 0.00826
7305 40.52018 116.75622 107.37935 0.00931
7306 40.52518 115.89946 109.77885 0.00911
7307 40.53018 115.20830 105.40469 0.00949
7308 40.53518 114.65844 112.06952 0.00892
7309 40.54018 114.22531 103.59681 0.00965
7310 40.54518 113.88455 103.67597 0.00965
7311 40.55018 113.61352 127.11094 0.00787
7312 40.55518 113.39715 127.28609 0.00786
7313 40.56018 113.21875 124.29990 0.00805
7314 40.56518 113.07859 110.29135 0.00907
7315 40.57018 112.98131 118.84461 0.00841
7316 40.57518 112.93253 115.81090 0.00863
7317 40.58018 112.94031 108.07071 0.00925
7318 40.58518 113.01095 111.82389 0.00894
7319 40.59018 113.14968 107.42808 0.00931
7320 40.59518 113.36122 115.58767 0.00865
7321 40.60018 113.65035 113.04430 0.00885
7322 40.60518 114.02231 104.32739 0.00959
7323 40.61018 114.48541 106.46854 0.00939
7324 40.61518 115.04065 106.40656 0.00940
7325 40.62018 115.69546 118.44721 0.00844
7326 40.62518 116.45400 104.96795 0.00953
7327 40.63018 117.31816 111.93907 0.00893
7328 40.63518 118.28827 114.60987 0.00873
7329 40.64018 119.36552 113.14944 0.00884
7330 40.64518 120.55530 108.29778 0.00923
7331 40.65018 121.86921 121.84666 0.00821
7332 40.65518 123.32260 131.06583 0.00763
7333 40.66018 124.92838 129.71219 0.00771
7334 40.66518 126.69117 121.70370 0.00822
7335 40.67018 128.60610 118.83242 0.00842
7336 40.67518 130.66236 142.75581 0.00700
7337 40.68018 132.84525 128.42947 0.00779
7338 40.68518 135.12836 142.90832 0.00700
7339 40.69018 137.45521 148.73982 0.00672
7340 40.69518 139.72397 140.01631 0.00714
7341 40.70018 141.78462 164.62574 0.00607
7342 40.70518 143.48796 161.85795 0.00618
7343 40.71018 144.74454 160.55003 0.00623
7344 40.71518 145.58379 158.13190 0.00632
7345 40.72018 146.16294 157.66471 0.00634
7346 40.72518 146.71768 163.36118 0.00612
7347 40.73018 147.50478 152.79802 0.00654
7348 40.73518 148.73071 164.16668 0.00609
7349 40.74018 150.53689 151.98697 0.00658
7350 40.74518 152.98732 155.33748 0.00644
7351 40.75018 156.06125 165.77530 0.00603
7352 40.75518 159.64281 172.26559 0.00580
7353 40.76018 163.51144 178.90220 0.00559
7354 40.76518 167.35812 165.95998 0.00603
7355 40.77018 170.84396 165.81800 0.00603
7356 40.77518 173.69628 165.94445 0.00603
7357 40.78018 175.78926 170.50318 0.00586
7358 40.78518 177.14232 168.15439 0.00595
7359 40.79018 177.82482 187.10176 0.00534
7360 40.79518 177.83704 198.70189 0.00503
7361 40.80018 177.06205 188.39346 0.00531
7362 40.80518 175.33135 190.56168 0.00525
7363 40.81018 172.56090 166.55539 0.00600
7364 40.81518 168.85644 158.15385 0.00632
7365 40.82018 164.51037 162.98158 0.00614
7366 40.82518 159.90403 159.12850 0.00628
7367 40.83018 155.39336 152.42033 0.00656
7368 40.83518 151.24096 141.00075 0.00709
7369 40.84018 147.60400 159.17402 0.00628
7370 40.84518 144.55480 137.07533 0.00730
7371 40.85018 142.11137 148.02036 0.00676
7372 40.85518 140.26283 139.23813 0.00718
7373 40.86018 138.98766 140.84151 0.00710
7374 40.86518 138.26509 135.51269 0.00738
7375 40.87018 138.08156 149.64631 0.00668
7376 40.87518 138.43445 126.96429 0.00788
7377 40.88018 139.33378 129.52766 0.00772
7378 40.88518 140.80344 123.35244 0.00811
7379 40.89018 142.88045 148.99282 0.00671
7380 40.89518 145.61410 132.95614 0.00752
7381 40.90018 149.06269 150.53070 0.00664
7382 40.90518 153.28691 141.15624 0.00708
7383 40.91018 158.33734 149.83701 0.00667
7384 40.91518 164.22917 158.40477 0.00631
7385 40.92018 170.92605 147.54194 0.00678
7386 40.92518 178.27326 181.21920 0.00552
7387 40.93018 185.97319 168.00000 0.00595
7388 40.93518 193.56659 165.60848 0.00604
7389 40.94018 200.47582 164.21720 0.00609
7390 40.94518 206.11327 170.08075 0.00588
7391 40.95018 210.00567 179.55467 0.00557
7392 40.95518 211.85464 183.55436 0.00545
7393 40.96018 211.51252 176.97582 0.00565
7394 40.96518 208.95029 184.24010 0.00543
7395 40.97018 204.29197 200.13080 0.00500
7396 40.97518 197.87814 212.78956 0.00470
7397 40.98018 190.25559 197.20248 0.00507
7398 40.98518 182.06105 198.49330 0.00504
7399 40.99018 173.87234 171.29851 0.00584
7400 40.99518 166.11237 173.50741 0.00576
7401 41.00018 159.03019 163.22388 0.00613
7402 41.00518 152.73250 155.68908 0.00642
7403 41.01018 147.23040 157.11604 0.00636
7404 41.01518 142.47983 151.05947 0.00662
7405 41.02018 138.41235 134.51970 0.00743
7406 41.02518 134.94957 143.48477 0.00697
7407 41.03018 132.01497 141.09299 0.00709
7408 41.03518 129.53832 137.60531 0.00727
7409 41.04018 127.45788 135.80376 0.00736
7410 41.04518 125.72105 128.90133 0.00776
7411 41.05018 124.28412 123.37054 0.00811
7412 41.05518 123.10596 129.70871 0.00771
7413 41.06018 122.16974 136.49598 0.00733
7414 41.06518 121.44760 123.60013 0.00809
7415 41.07018 120.92192 131.85446 0.00758
7416 41.07518 120.57112 119.04095 0.00840
7417 41.08018 120.39469 126.14765 0.00793
7418 41.08518 120.37091 126.77907 0.00789
7419 41.09018 120.48306 119.74108 0.00835
7420 41.09518 120.71166 139.46933 0.00717
7421 41.10018 121.04167 115.83818 0.00863
7422 41.10518 121.45262 133.36118 0.00750
7423 41.11018 121.91904 124.88665 0.00801
7424 41.11518 122.39937 125.62242 0.00796
7425 41.12018 122.82868 134.18764 0.00745
7426 41.12518 123.12172 123.48435 0.00810
7427 41.13018 123.19131 128.38797 0.00779
7428 41.13518 122.97684 118.96750 0.00841
7429 41.14018 122.46859 123.07716 0.00812
7430 41.14518 121.71279 126.09193 0.00793
7431 41.15018 120.79451 108.73011 0.00920
7432 41.15518 119.80941 122.34671 0.00817
7433 41.16018 118.83999 117.79326 0.00849
7434 41.16518 117.94443 120.97073 0.00827
7435 41.17018 117.15653 111.71806 0.00895
7436 41.17518 116.49144 125.62828 0.00796
7437 41.18018 115.95236 120.93278 0.00827
7438 41.18518 115.53591 119.90106 0.00834
7439 41.19018 115.23578 116.77480 0.00856
7440 41.19518 115.04562 119.83864 0.00834
7441 41.20018 114.95935 117.88588 0.00848
7442 41.20518 114.97255 118.64118 0.00843
7443 41.21018 115.08276 120.61069 0.00829
7444 41.21518 115.28965 119.97467 0.00834
7445 41.22018 115.59531 123.95584 0.00807
7446 41.22518 116.00441 124.20174 0.00805
7447 41.23018 116.52445 116.57150 0.00858
7448 41.23518 117.16594 128.28076 0.00780
7449 41.24018 117.94276 116.55271 0.00858
7450 41.24518 118.87000 127.71393 0.00783
7451 41.25018 119.97383 116.08649 0.00861
7452 41.25518 121.27711 113.78947 0.00879
7453 41.26018 122.80992 123.35903 0.00811
7454 41.26518 124.60537 125.53682 0.00797
7455 41.27018 126.69931 130.22438 0.00768
7456 41.27518 129.12743 133.02202 0.00752
7457 41.28018 131.92009 136.75634 0.00731
7458 41.28518 135.09235 125.16534 0.00799
7459 41.29018 138.63327 127.48021 0.00784
7460 41.29518 142.48218 140.54336 0.00712
7461 41.30018 146.51398 142.72540 0.00701
7462 41.30518 150.53233 143.69813 0.00696
7463 41.31018 154.29831 142.12873 0.00704
7464 41.31518 157.59115 161.28033 0.00620
7465 41.32018 160.29542 150.71539 0.00664
7466 41.32518 162.45045 150.03957 0.00666
7467 41.33018 164.22292 155.20278 0.00644
7468 41.33518 165.81235 159.61522 0.00627
7469 41.34018 167.34770 170.63089 0.00586
7470 41.34518 168.83311 164.52224 0.00608
7471 41.35018 170.16038 169.69548 0.00589
7472 41.35518 171.22819 182.75006 0.00547
7473 41.36018 171.99438 172.47761 0.00580
7474 41.36518 172.56426 184.38799 0.00542
7475 41.37018 173.15319 182.74581 0.00547
7476 41.37518 173.99348 179.09529 0.00558
7477 41.38018 175.23439 186.67379 0.00536
7478 41.38518 176.87866 185.81053 0.00538
7479 41.39018 178.77176 194.52891 0.00514
7480 41.39518 180.64413 194.65347 0.00514
7481 41.40018 182.19147 207.71108 0.00481
7482 41.40518 183.15376 214.40841 0.00466
7483 41.41018 183.34472 210.98049 0.00474
7484 41.41518 182.62407 208.93528 0.00479
7485 41.42018 180.86470 202.16821 0.00495
7486 41.42518 177.98973 189.43873 0.00528
7487 41.43018 174.03617 187.88281 0.00532
7488 41.43518 169.21118 191.80201 0.00521
7489 41.44018 163.85739 176.65288 0.00566
7490 41.44518 158.35507 164.70051 0.00607
7491 41.45018 153.02871 166.01562 0.00602
7492 41.45518 148.10070 155.70575 0.00642
7493 41.46018 143.69154 165.11113 0.00606
7494 41.46518 139.84007 150.28061 0.00665
7495 41.47018 136.54792 143.37806 0.00697
7496 41.47518 133.77862 135.23688 0.00739
7497 41.48018 131.48921 131.15997 0.00762
7498 41.48518 129.63558 126.12346 0.00793
7499 41.49018 128.17759 129.81408 0.00770
7500 41.49518 127.08158 127.88393 0.00782
7501 41.50018 126.32135 127.64731 0.00783
7502 41.50518 125.87824 130.77446 0.00765
7503 41.51018 125.74064 141.94048 0.00705
7504 41.51518 125.90280 133.96492 0.00746
7505 41.52018 126.36289 124.26224 0.00805
7506 41.52518 127.11962 138.25418 0.00723
7507 41.53018 128.16668 141.14796 0.00708
7508 41.53518 129.48400 127.56291 0.00784
7509 41.54018 131.02518 136.18754 0.00734
7510 41.54518 132.70245 136.13699 0.00735
7511 41.55018 134.37458 143.84472 0.00695
7512 41.55518 135.84889 141.68943 0.00706
7513 41.56018 136.90620 133.88486 0.00747
7514 41.56518 137.37903 149.89502 0.00667
7515 41.57018 137.18924 133.81459 0.00747
7516 41.57518 136.39888 137.68110 0.00726
7517 41.58018 135.17671 135.67480 0.00737
7518 41.58518 133.74774 128.38969 0.00779
7519 41.59018 132.31144 136.27999 0.00734
7520 41.59518 131.02187 129.46406 0.00772
7521 41.60018 129.97990 132.82282 0.00753
7522 41.60518 129.24445 130.86674 0.00764
7523 41.61018 128.84787 132.16550 0.00757
7524 41.61518 128.80905 138.42228 0.00722
7525 41.62018 129.14268 128.82877 0.00776
7526 41.62518 129.86520 115.05429 0.00869
7527 41.63018 130.99815 120.45404 0.00830
7528 41.63518 132.56975 128.04019 0.00781
7529 41.64018 134.61500 137.56919 0.00727
7530 41.64518 137.17403 134.01198 0.00746
7531 41.65018 140.28814 138.05667 0.00724
7532 41.65518 143.99222 133.95355 0.00747
7533 41.66018 148.30175 153.64170 0.00651
7534 41.66518 153.19283 162.75104 0.00614
7535 41.67018 158.57440 182.34948 0.00548
7536 41.67518 164.25548 175.71353 0.00569
7537 41.68018 169.91669 192.35928 0.00520
7538 41.68518 175.10346 179.84486 0.00556
7539 41.69018 179.27042 206.99966 0.00483
7540 41.69518 181.89633 204.27845 0.00490
7541 41.70018 182.64692 197.37800 0.00507
7542 41.70518 181.51742 185.76940 0.00538
7543 41.71018 178.82870 203.61903 0.00491
7544 41.71518 175.11268 183.89149 0.00544
7545 41.72018 170.93828 175.93692 0.00568
7546 41.72518 166.78698 171.18553 0.00584
7547 41.73018 163.00753 167.20183 0.00598
7548 41.73518 159.82581 159.50540 0.00627
7549 41.74018 157.37532 173.58219 0.00576
7550 41.74518 155.72710 155.22925 0.00644
7551 41.75018 154.91133 146.81780 0.00681
7552 41.75518 154.92957 148.92217 0.00671
7553 41.76018 155.76015 149.14140 0.00671
7554 41.76518 157.36061 158.57077 0.00631
7555 41.77018 159.66973 157.01523 0.00637
7556 41.77518 162.60818 148.30344 0.00674
7557 41.78018 166.07246 175.73611 0.00569
7558 41.78518 169.91930 164.35881 0.00608
7559 41.79018 173.94985 163.07536 0.00613
7560 41.79518 177.91321 162.57730 0.00615
7561 41.80018 181.54006 181.19082 0.00552
7562 41.80518 184.58810 188.09197 0.00532
7563 41.81018 186.86434 169.84809 0.00589
7564 41.81518 188.21192 177.31991 0.00564
7565 41.82018 188.48743 172.96417 0.00578
7566 41.82518 187.56043 174.70383 0.00572
7567 41.83018 185.34123 162.76461 0.00614
7568 41.83518 181.82678 167.18785 0.00598
7569 41.84018 177.14623 160.10170 0.00625
7570 41.84518 171.57422 152.69879 0.00655
7571 41.85018 165.48651 150.79554 0.00663
7572 41.85518 159.27373 145.86741 0.00686
7573 41.86018 153.26118 144.25968 0.00693
7574 41.86518 147.66922 139.39934 0.00717
7575 41.87018 142.61489 140.20366 0.00713
7576 41.87518 138.13578 125.64046 0.00796
7577 41.88018 134.21825 146.52371 0.00682
7578 41.88518 130.82063 133.98543 0.00746
7579 41.89018 127.88895 126.64150 0.00790
7580 41.89518 125.36658 125.84491 0.00795
7581 41.90018 123.19936 137.34113 0.00728
7582 41.90518 121.33810 121.79890 0.00821
7583 41.91018 119.73952 117.15936 0.00854
7584 41.91518 118.36642 123.16633 0.00812
7585 41.92018 117.18724 123.77009 0.00808
7586 41.92518 116.17570 120.85422 0.00827
7587 41.93018 115.31013 118.69442 0.00842
7588 41.93518 114.57298 132.90963 0.00752
7589 41.94018 113.95030 122.78167 0.00814
7590 41.94518 113.43126 123.01771 0.00813
7591 41.95018 113.00784 117.87809 0.00848
7592 41.95518 112.67452 114.50232 0.00873
7593 41.96018 112.42813 117.68384 0.00850
7594 41.96518 112.26771 100.36441 0.00996
7595 41.97018 112.19446 121.54366 0.00823
7596 41.97518 112.21183 110.85407 0.00902
7597 41.98018 112.32551 116.16718 0.00861
7598 41.98518 112.54359 106.90606 0.00935
7599 41.99018 112.87662 117.81915 0.00849
7600 41.99518 113.33766 113.03136 0.00885
7601 42.00018 113.94018 115.83220 0.00863
7602 42.00518 114.70583 121.35918 0.00824
7603 42.01018 115.65152 124.13667 0.00806
7604 42.01518 116.79580 122.94428 0.00813
7605 42.02018 118.15368 119.46001 0.00837
7606 42.02518 119.73099 122.24773 0.00818
7607 42.03018 121.51533 120.47954 0.00830
7608 42.03518 123.46291 138.68894 0.00721
7609 42.04018 125.48300 135.02831 0.00741
7610 42.04518 127.42560 130.25120 0.00768
7611 42.05018 129.08426 142.79054 0.00700
7612 42.05518 130.22761 133.25537 0.00750
7613 42.06018 130.65959 124.25452 0.00805
7614 42.06518 130.29846 125.40685 0.00797
7615 42.07018 129.19924 138.98086 0.00720
7616 42.07518 127.53882 143.60822 0.00696
7617 42.08018 125.54718 129.13924 0.00774
7618 42.08518 123.44019 123.96464 0.00807
7619 42.09018 121.38088 125.03205 0.00800
7620 42.09518 119.47174 119.92888 0.00834
7621 42.10018 117.76509 120.59539 0.00829
7622 42.10518 116.27882 124.65078 0.00802
7623 42.11018 115.01031 125.33992 0.00798
7624 42.11518 113.94635 129.97410 0.00769
7625 42.12018 113.06942 127.14568 0.00786
7626 42.12518 112.36137 108.01739 0.00926
7627 42.13018 111.80532 106.78239 0.00936
7628 42.13518 111.38675 111.17464 0.00899
7629 42.14018 111.09391 111.65970 0.00896
7630 42.14518 110.91808 116.05778 0.00862
7631 42.15018 110.85363 106.98273 0.00935
7632 42.15518 110.89808 108.44810 0.00922
7633 42.16018 111.05214 116.86897 0.00856
7634 42.16518 111.31977 110.67153 0.00904
7635 42.17018 111.70829 120.30111 0.00831
7636 42.17518 112.22843 116.52330 0.00858
7637 42.18018 112.89446 118.53460 0.00844
7638 42.18518 113.72420 122.08137 0.00819
7639 42.19018 114.73888 115.92020 0.00863
7640 42.19518 115.96274 114.70302 0.00872
7641 42.20018 117.42196 114.05282 0.00877
7642 42.20518 119.14255 129.75949 0.00771
7643 42.21018 121.14626 114.75300 0.00871
7644 42.21518 123.44241 118.06852 0.00847
7645 42.22018 126.02027 121.38847 0.00824
7646 42.22518 128.82616 137.45141 0.00728
7647 42.23018 131.74715 128.28636 0.00780
7648 42.23518 134.59380 130.27490 0.00768
7649 42.24018 137.10278 142.17784 0.00703
7650 42.24518 138.97658 142.98402 0.00699
7651 42.25018 139.96379 140.09555 0.00714
7652 42.25518 139.95083 138.63596 0.00721
7653 42.26018 139.01039 143.43887 0.00697
7654 42.26518 137.37202 132.15276 0.00757
7655 42.27018 135.33504 132.79318 0.00753
7656 42.27518 133.17779 127.74071 0.00783
7657 42.28018 131.10485 130.05856 0.00769
7658 42.28518 129.23370 108.43789 0.00922
7659 42.29018 127.61233 119.68586 0.00836
7660 42.29518 126.24758 136.02387 0.00735
7661 42.30018 125.13356 121.36037 0.00824
7662 42.30518 124.27094 113.61147 0.00880
7663 42.31018 123.67255 110.13368 0.00908
7664 42.31518 123.35744 123.34499 0.00811
7665 42.32018 123.33973 121.69272 0.00822
7666 42.32518 123.61744 134.52993 0.00743
7667 42.33018 124.16214 137.15067 0.00729
7668 42.33518 124.90880 122.95101 0.00813
7669 42.34018 125.74717 132.44048 0.00755
7670 42.34518 126.52106 136.49128 0.00733
7671 42.35018 127.04556 134.47417 0.00744
7672 42.35518 127.14765 137.00966 0.00730
7673 42.36018 126.72169 123.97230 0.00807
7674 42.36518 125.76579 122.66889 0.00815
7675 42.37018 124.38008 130.53361 0.00766
7676 42.37518 122.72392 111.64381 0.00896
7677 42.38018 120.96233 119.13125 0.00839
7678 42.38518 119.22876 118.22441 0.00846
7679 42.39018 117.61201 111.19230 0.00899
7680 42.39518 116.16041 111.20914 0.00899
7681 42.40018 114.88926 117.58586 0.00850
7682 42.40518 113.80621 105.52555 0.00948
7683 42.41018 112.89824 115.63268 0.00865
7684 42.41518 112.15143 96.17795 0.01040
7685 42.42018 111.55074 103.63426 0.00965
7686 42.42518 111.08178 117.27478 0.00853
7687 42.43018 110.73172 102.76462 0.00973
7688 42.43518 110.48974 104.26598 0.00959
7689 42.44018 110.34714 107.48568 0.00930
7690 42.44518 110.29744 112.81415 0.00886
7691 42.45018 110.33628 103.41490 0.00967
7692 42.45518 110.46147 101.99046 0.00980
7693 42.46018 110.67295 117.13583 0.00854
7694 42.46518 110.97282 105.92773 0.00944
7695 42.47018 111.36548 106.18690 0.00942
7696 42.47518 111.85772 108.10769 0.00925
7697 42.48018 112.45899 108.28384 0.00923
7698 42.48518 113.18168 110.32009 0.00906
7699 42.49018 114.04142 111.24933 0.00899
7700 42.49518 115.05751 118.90482 0.00841
7701 42.50018 116.25326 120.31184 0.00831
7702 42.50518 117.65631 129.41066 0.00773
7703 42.51018 119.29883 117.23030 0.00853
7704 42.51518 121.21124 120.09139 0.00833
7705 42.52018 123.44657 127.45330 0.00785
7706 42.52518 126.04204 128.96509 0.00775
7707 42.53018 129.04169 130.02846 0.00769
7708 42.53518 132.48587 132.55176 0.00754
7709 42.54018 136.40349 134.57384 0.00743
7710 42.54518 140.79842 142.81870 0.00700
7711 42.55018 145.62830 137.52100 0.00727
7712 42.55518 150.77700 146.92242 0.00681
7713 42.56018 156.02830 164.27771 0.00609
7714 42.56518 161.05709 172.56228 0.00580
7715 42.57018 165.45937 165.34112 0.00605
7716 42.57518 168.83196 157.86160 0.00633
7717 42.58018 170.87960 177.38500 0.00564
7718 42.58518 171.49458 167.46321 0.00597
7719 42.59018 170.76458 164.49302 0.00608
7720 42.59518 168.91985 177.46190 0.00564
7721 42.60018 166.26954 165.60772 0.00604
7722 42.60518 163.15736 172.73133 0.00579
7723 42.61018 159.92620 163.83305 0.00610
7724 42.61518 156.89690 156.35079 0.00640
7725 42.62018 154.32164 159.53426 0.00627
7726 42.62518 152.37754 143.52543 0.00697
7727 42.63018 151.18550 147.02882 0.00680
7728 42.63518 150.79381 145.35524 0.00688
7729 42.64018 151.20676 155.79858 0.00642
7730 42.64518 152.38267 142.95375 0.00700
7731 42.65018 154.22849 147.96096 0.00676
7732 42.65518 156.59168 170.04493 0.00588
7733 42.66018 159.26041 163.15703 0.00613
7734 42.66518 161.98565 184.93624 0.00541
7735 42.67018 164.52904 187.64927 0.00533
7736 42.67518 166.71707 170.03777 0.00588
7737 42.68018 168.46330 170.79921 0.00585
7738 42.68518 169.73550 183.83982 0.00544
7739 42.69018 170.49239 181.70480 0.00550
7740 42.69518 170.64557 174.02814 0.00575
7741 42.70018 170.09307 183.90759 0.00544
7742 42.70518 168.79767 171.29230 0.00584
7743 42.71018 166.85879 159.51988 0.00627
7744 42.71518 164.51104 170.45530 0.00587
7745 42.72018 162.05169 144.93992 0.00690
7746 42.72518 159.74417 152.63589 0.00655
7747 42.73018 157.74527 134.18602 0.00745
7748 42.73518 156.07335 141.65426 0.00706
7749 42.74018 154.61496 141.03795 0.00709
7750 42.74518 153.16574 126.48586 0.00791
7751 42.75018 151.50200 142.68490 0.00701
7752 42.75518 149.46605 157.44249 0.00635
7753 42.76018 147.02848 135.69114 0.00737
7754 42.76518 144.29359 128.51277 0.00778
7755 42.77018 141.44916 149.66753 0.00668
7756 42.77518 138.69644 131.86606 0.00758
7757 42.78018 136.19685 120.57958 0.00829
7758 42.78518 134.04810 139.70894 0.00716
7759 42.79018 132.28167 130.56912 0.00766
7760 42.79518 130.86884 132.16922 0.00757
7761 42.80018 129.72829 134.63808 0.00743
7762 42.80518 128.73667 117.13619 0.00854
7763 42.81018 127.74824 138.91726 0.00720
7764 42.81518 126.62732 136.66507 0.00732
7765 42.82018 125.28618 135.96092 0.00736
7766 42.82518 123.70977 122.10293 0.00819
7767 42.83018 121.95174 143.49267 0.00697
7768 42.83518 120.10532 120.17123 0.00832
7769 42.84018 118.26807 133.81119 0.00747
7770 42.84518 116.51777 111.66042 0.00896
7771 42.85018 114.90430 121.55928 0.00823
7772 42.85518 113.45241 102.77093 0.00973
7773 42.86018 112.16891 113.30955 0.00883
7774 42.86518 111.04958 106.36047 0.00940
7775 42.87018 110.08452 101.18622 0.00988
7776 42.87518 109.26147 102.47932 0.00976
7777 42.88018 108.56790 103.85538 0.00963
7778 42.88518 107.98501 116.22540 0.00860
7779 42.89018 107.51632 111.13433 0.00900
7780 42.89518 107.14580 103.97199 0.00962
7781 42.90018 106.86610 110.18230 0.00908
7782 42.90518 106.67163 113.75936 0.00879
7783 42.91018 106.55859 104.32937 0.00959
7784 42.91518 106.52458 103.33340 0.00968
7785 42.92018 106.56653 116.22845 0.00860
7786 42.92518 106.68482 112.80337 0.00886
7787 42.93018 106.87553 119.66680 0.00836
7788 42.93518 107.13499 110.91479 0.00902
7789 42.94018 107.46085 116.98393 0.00855
7790 42.94518 107.85394 105.65241 0.00946
7791 42.95018 108.31898 98.66043 0.01014
7792 42.95518 108.86233 115.05892 0.00869
7793 42.96018 109.48690 113.38987 0.00882
7794 42.96518 110.18570 109.32499 0.00915
7795 42.97018 110.93732 113.17406 0.00884
7796 42.97518 111.70534 117.49292 0.00851
7797 42.98018 112.44341 116.91481 0.00855
7798 42.98518 113.10397 119.21628 0.00839
7799 42.99018 113.64572 117.84527 0.00849
7800 42.99518 114.03546 114.07501 0.00877
7801 43.00018 114.24642 110.81355 0.00902
7802 43.00518 114.26028 119.26872 0.00838
7803 43.01018 114.07677 121.08471 0.00826
7804 43.01518 113.72422 131.66534 0.00760
7805 43.02018 113.26105 128.31105 0.00779
7806 43.02518 112.76463 116.74522 0.00857
7807 43.03018 112.31367 126.21464 0.00792
7808 43.03518 111.97335 106.38580 0.00940
7809 43.04018 111.78736 102.94941 0.00971
7810 43.04518 111.77548 110.85733 0.00902
7811 43.05018 111.93283 114.58646 0.00873
7812 43.05518 112.22832 93.63154 0.01068
7813 43.06018 112.60241 104.87276 0.00954
7814 43.06518 112.96766 98.04271 0.01020
7815 43.07018 113.21806 112.64835 0.00888
7816 43.07518 113.25092 119.27662 0.00838
7817 43.08018 112.99706 108.03363 0.00926
7818 43.08518 112.44470 109.91267 0.00910
7819 43.09018 111.64191 116.17956 0.00861
7820 43.09518 110.67580 112.65090 0.00888
7821 43.10018 109.64242 106.12984 0.00942
7822 43.10518 108.62331 106.01028 0.00943
7823 43.11018 107.67519 111.66150 0.00896
7824 43.11518 106.83024 118.99298 0.00840
7825 43.12018 106.10132 106.13001 0.00942
7826 43.12518 105.48796 104.59435 0.00956
7827 43.13018 104.98139 100.76754 0.00992
7828 43.13518 104.56869 81.42259 0.01228
7829 43.14018 104.23650 108.14463 0.00925
7830 43.14518 103.97444 110.06488 0.00909
7831 43.15018 103.77741 96.84860 0.01033
7832 43.15518 103.64613 96.60288 0.01035
7833 43.16018 103.58581 116.02108 0.00862
7834 43.16518 103.60415 103.64338 0.00965
7835 43.17018 103.70964 109.99335 0.00909
7836 43.17518 103.91080 110.43078 0.00906
7837 43.18018 104.21594 98.09232 0.01019
7838 43.18518 104.63303 98.72669 0.01013
7839 43.19018 105.16908 110.00000 0.00909
7840 43.19518 105.82919 102.85820 0.00972
7841 43.20018 106.61316 102.55206 0.00975
7842 43.20518 107.51164 108.77898 0.00919
7843 43.21018 108.49986 116.26520 0.00860
7844 43.21518 109.53103 120.56377 0.00829
7845 43.22018 110.53148 128.17946 0.00780
7846 43.22518 111.40414 124.92356 0.00800
7847 43.23018 112.04486 135.98681 0.00735
7848 43.23518 112.37151 128.82007 0.00776
7849 43.24018 112.35428 137.33903 0.00728
7850 43.24518 112.02904 138.61914 0.00721
7851 43.25018 111.48481 121.84295 0.00821
7852 43.25518 110.83400 139.47420 0.00717
7853 43.26018 110.18321 136.28964 0.00734
7854 43.26518 109.61664 110.32809 0.00906
7855 43.27018 109.19261 113.25922 0.00883
7856 43.27518 108.94789 96.44411 0.01037
7857 43.28018 108.90425 107.05610 0.00934
7858 43.28518 109.07384 116.67760 0.00857
7859 43.29018 109.46345 102.84984 0.00972
7860 43.29518 110.07502 103.26446 0.00968
7861 43.30018 110.90647 121.47339 0.00823
7862 43.30518 111.95088 125.10718 0.00799
7863 43.31018 113.19486 123.30775 0.00811
7864 43.31518 114.61505 120.84506 0.00828
7865 43.32018 116.17062 126.59104 0.00790
7866 43.32518 117.79142 110.92281 0.00902
7867 43.33018 119.36554 110.02858 0.00909
7868 43.33518 120.73609 122.77899 0.00814
7869 43.34018 121.71498 135.46210 0.00738
7870 43.34518 122.14161 133.96226 0.00746
7871 43.35018 121.91599 137.34311 0.00728
7872 43.35518 121.05301 137.34088 0.00728
7873 43.36018 119.67430 129.00000 0.00775
7874 43.36518 117.96520 137.75413 0.00726
7875 43.37018 116.11683 135.18252 0.00740
7876 43.37518 114.28711 129.60131 0.00772
7877 43.38018 112.58549 122.17222 0.00819
7878 43.38518 111.07655 103.24100 0.00969
7879 43.39018 109.79166 115.05394 0.00869
7880 43.39518 108.74113 115.38531 0.00867
7881 43.40018 107.92384 108.98766 0.00918
7882 43.40518 107.33358 107.51896 0.00930
7883 43.41018 106.96283 115.26568 0.00868
7884 43.41518 106.80450 112.80786 0.00886
7885 43.42018 106.85218 101.25393 0.00988
7886 43.42518 107.09634 111.09628 0.00900
7887 43.43018 107.53206 113.37660 0.00882
7888 43.43518 108.13872 110.91378 0.00902
7889 43.44018 108.88382 112.33560 0.00890
7890 43.44518 109.71255 109.62130 0.00912
7891 43.45018 110.54159 102.32016 0.00977
7892 43.45518 111.26004 117.73791 0.00849
7893 43.46018 111.74397 115.88446 0.00863
7894 43.46518 111.88614 118.41777 0.00844
7895 43.47018 111.63094 118.03726 0.00847
7896 43.47518 110.99494 112.88800 0.00886
7897 43.48018 110.05942 98.02120 0.01020
7898 43.48518 108.93546 108.94983 0.00918
7899 43.49018 107.74282 106.59382 0.00938
7900 43.49518 106.57172 108.65594 0.00920
7901 43.50018 105.47849 91.73728 0.01090
7902 43.50518 104.49327 92.25201 0.01084
7903 43.51018 103.62593 96.24285 0.01039
7904 43.51518 102.87387 98.04664 0.01020
7905 43.52018 102.22754 91.58053 0.01092
7906 43.52518 101.67335 89.00602 0.01124
7907 43.53018 101.19454 90.50473 0.01105
7908 43.53518 100.77179 98.02070 0.01020
7909 43.54018 100.38524 96.38862 0.01037
7910 43.54518 100.01816 92.82803 0.01077
7911 43.55018 99.66082 91.91553 0.01088
7912 43.55518 99.31223 103.13486 0.00970
7913 43.56018 98.97864 102.88443 0.00972
7914 43.56518 98.66978 83.06455 0.01204
7915 43.57018 98.39519 92.87474 0.01077
7916 43.57518 98.16212 92.80877 0.01077
7917 43.58018 97.97485 103.66417 0.00965
7918 43.58518 97.82765 84.84906 0.01179
7919 43.59018 97.73436 91.73599 0.01090
7920 43.59518 97.68456 90.21730 0.01108
7921 43.60018 97.67240 98.58312 0.01014
7922 43.60518 97.68851 84.07740 0.01189
7923 43.61018 97.71942 95.15130 0.01051
7924 43.61518 97.74794 94.46472 0.01059
7925 43.62018 97.75548 88.09816 0.01135
7926 43.62518 97.72642 88.55886 0.01129
7927 43.63018 97.65291 86.46686 0.01157
7928 43.63518 97.53767 92.21814 0.01084
7929 43.64018 97.39249 96.57009 0.01036
7930 43.64518 97.23396 86.28837 0.01159
7931 43.65018 97.07871 98.79029 0.01012
7932 43.65518 96.94028 94.05016 0.01063
7933 43.66018 96.82824 90.96375 0.01099
7934 43.66518 96.74865 91.28706 0.01095
7935 43.67018 96.70520 95.80119 0.01044
7936 43.67518 96.70024 96.12579 0.01040
7937 43.68018 96.73568 93.89796 0.01065
7938 43.68518 96.81357 85.44367 0.01170
7939 43.69018 96.93651 95.45247 0.01048
7940 43.69518 97.10791 94.13849 0.01062
7941 43.70018 97.33218 85.10792 0.01175
7942 43.70518 97.61485 97.08484 0.01030
7943 43.71018 97.96264 95.20110 0.01050
7944 43.71518 98.38340 92.25989 0.01084
7945 43.72018 98.88598 100.16334 0.00998
7946 43.72518 99.47987 93.03067 0.01075
7947 43.73018 100.17434 91.32525 0.01095
7948 43.73518 100.97469 94.02112 0.01064
7949 43.74018 101.88908 94.36928 0.01060
7950 43.74518 102.91054 94.72341 0.01056
7951 43.75018 104.02075 100.78681 0.00992
7952 43.75518 105.18119 96.58851 0.01035
7953 43.76018 106.32779 109.83751 0.00910
7954 43.76518 107.37142 115.18235 0.00868
7955 43.77018 108.20916 110.19308 0.00907
7956 43.77518 108.74830 114.78131 0.00871
7957 43.78018 108.93518 111.46684 0.00897
7958 43.78518 108.77912 103.55974 0.00966
7959 43.79018 108.34615 103.67440 0.00965
7960 43.79518 107.74041 102.79561 0.00973
7961 43.80018 107.07372 101.40382 0.00986
7962 43.80518 106.44298 101.51061 0.00985
7963 43.81018 105.92043 99.47950 0.01005
7964 43.81518 105.55429 94.46406 0.01059
7965 43.82018 105.36860 98.78791 0.01012
7966 43.82518 105.39347 101.41747 0.00986
7967 43.83018 105.63417 105.36021 0.00949
7968 43.83518 106.09736 104.63065 0.00956
7969 43.84018 106.78501 103.15656 0.00969
7970 43.84518 107.69175 108.55794 0.00921
7971 43.85018 108.79960 99.28619 0.01007
7972 43.85518 110.07219 115.87351 0.00863
7973 43.86018 111.44598 115.10273 0.00869
7974 43.86518 112.82848 123.63630 0.00809
7975 43.87018 114.10458 115.79010 0.00864
7976 43.87518 115.15642 111.58477 0.00896
7977 43.88018 115.89161 117.03330 0.00854
7978 43.88518 116.26602 115.29908 0.00867
7979 43.89018 116.28745 107.05291 0.00934
7980 43.89518 115.99940 105.28158 0.00950
7981 43.90018 115.45713 110.93689 0.00901
7982 43.90518 114.70830 111.31658 0.00898
7983 43.91018 113.78439 121.35398 0.00824
7984 43.91518 112.70373 116.41709 0.00859
7985 43.92018 111.48381 108.37596 0.00923
7986 43.92518 110.15481 112.79445 0.00887
7987 43.93018 108.76481 111.25527 0.00899
7988 43.93518 107.37299 108.65765 0.00920
7989 43.94018 106.03681 105.48528 0.00948
7990 43.94518 104.80136 103.89259 0.00963
7991 43.95018 103.69515 108.76533 0.00919
7992 43.95518 102.73150 103.73918 0.00964
7993 43.96018 101.91259 100.68524 0.00993
7994 43.96518 101.23381 89.05404 0.01123
7995 43.97018 100.68725 102.68064 0.00974
7996 43.97518 100.26408 92.12845 0.01085
7997 43.98018 99.95607 84.12907 0.01189
7998 43.98518 99.75642 95.14915 0.01051
7999 43.99018 99.66012 95.99097 0.01042
8000 43.99518 99.66466 94.22589 0.01061
8001 44.00018 99.76949 110.87358 0.00902
8002 44.00518 99.97654 106.27498 0.00941
8003 44.01018 100.29032 104.77622 0.00954
8004 44.01518 100.71805 97.46898 0.01026
8005 44.02018 101.26991 102.58399 0.00975
8006 44.02518 101.95917 96.52106 0.01036
8007 44.03018 102.80073 101.93408 0.00981
8008 44.03518 103.81642 104.15628 0.00960
8009 44.04018 105.02565 102.85701 0.00972
8010 44.04518 106.44964 110.34544 0.00906
8011 44.05018 108.10730 109.36144 0.00914
8012 44.05518 110.01075 106.01988 0.00943
8013 44.06018 112.15789 98.01226 0.01020
8014 44.06518 114.52142 100.63481 0.00994
8015 44.07018 117.03444 110.66409 0.00904
8016 44.07518 119.57600 108.01931 0.00926
8017 44.08018 121.96431 114.78808 0.00871
8018 44.08518 123.96991 121.58256 0.00822
8019 44.09018 125.35889 113.50700 0.00881
8020 44.09518 125.96022 103.59068 0.00965
8021 44.10018 125.72823 106.17636 0.00942
8022 44.10518 124.76200 106.24714 0.00941
8023 44.11018 123.27374 115.45962 0.00866
8024 44.11518 121.51544 114.70325 0.00872
8025 44.12018 119.72054 115.69945 0.00864
8026 44.12518 118.06903 112.23978 0.00891
8027 44.13018 116.68124 108.29142 0.00923
8028 44.13518 115.62737 112.44436 0.00889
8029 44.14018 114.94143 116.24794 0.00860
8030 44.14518 114.63324 112.09462 0.00892
8031 44.15018 114.69640 112.64976 0.00888
8032 44.15518 115.11287 121.14370 0.00825
8033 44.16018 115.85502 122.64348 0.00815
8034 44.16518 116.88534 134.68295 0.00742
8035 44.17018 118.15243 115.86702 0.00863
8036 44.17518 119.58247 124.47420 0.00803
8037 44.18018 121.06827 121.26487 0.00825
8038 44.18518 122.46434 132.96200 0.00752
8039 44.19018 123.59940 124.80238 0.00801
8040 44.19518 124.31136 129.89594 0.00770
8041 44.20018 124.49346 137.60623 0.00727
8042 44.20518 124.12779 139.71597 0.00716
8043 44.21018 123.27952 137.07387 0.00730
8044 44.21518 122.06289 134.61493 0.00743
8045 44.22018 120.59903 131.29154 0.00762
8046 44.22518 118.98862 126.21390 0.00792
8047 44.23018 117.31649 118.46272 0.00844
8048 44.23518 115.64462 120.70975 0.00828
8049 44.24018 114.02821 112.73223 0.00887
8050 44.24518 112.51667 117.57864 0.00850
8051 44.25018 111.15339 118.79461 0.00842
8052 44.25518 109.97313 107.43440 0.00931
8053 44.26018 108.99874 110.63307 0.00904
8054 44.26518 108.23895 119.97282 0.00834
8055 44.27018 107.68799 108.35217 0.00923
8056 44.27518 107.32756 112.90181 0.00886
8057 44.28018 107.13140 107.35768 0.00931
8058 44.28518 107.07274 113.87293 0.00878
8059 44.29018 107.13354 109.81306 0.00911
8060 44.29518 107.31209 113.27850 0.00883
8061 44.30018 107.62492 110.44114 0.00905
8062 44.30518 108.10184 109.54900 0.00913
8063 44.31018 108.77658 104.38922 0.00958
8064 44.31518 109.67673 106.25408 0.00941
8065 44.32018 110.81467 107.11549 0.00934
8066 44.32518 112.17904 100.91264 0.00991
8067 44.33018 113.72453 117.24269 0.00853
8068 44.33518 115.36231 121.89795 0.00820
8069 44.34018 116.95461 111.86271 0.00894
8070 44.34518 118.32274 117.81175 0.00849
8071 44.35018 119.27668 107.08611 0.00934
8072 44.35518 119.66452 128.97283 0.00775
8073 44.36018 119.42292 113.03758 0.00885
8074 44.36518 118.60042 109.10932 0.00917
8075 44.37018 117.33906 115.57464 0.00865
8076 44.37518 115.82646 111.74029 0.00895
8077 44.38018 114.24583 110.48452 0.00905
8078 44.38518 112.74409 107.19090 0.00933
8079 44.39018 111.42162 116.63825 0.00857
8080 44.39518 110.33673 109.77343 0.00911
8081 44.40018 109.51610 113.65900 0.00880
8082 44.40518 108.96523 103.84304 0.00963
8083 44.41018 108.67678 104.73358 0.00955
8084 44.41518 108.63672 109.07523 0.00917
8085 44.42018 108.82972 106.69561 0.00937
8086 44.42518 109.24117 113.11423 0.00884
8087 44.43018 109.85649 111.81900 0.00894
8088 44.43518 110.65398 117.90814 0.00848
8089 44.44018 111.59287 113.07888 0.00884
8090 44.44518 112.60089 117.19320 0.00853
8091 44.45018 113.56794 127.20703 0.00786
8092 44.45518 114.35588 134.87509 0.00741
8093 44.46018 114.82389 130.56622 0.00766
8094 44.46518 114.87082 133.56806 0.00749
8095 44.47018 114.47058 135.34889 0.00739
8096 44.47518 113.68143 147.48213 0.00678
8097 44.48018 112.62211 133.31897 0.00750
8098 44.48518 111.42963 126.51136 0.00790
8099 44.49018 110.23223 122.59925 0.00816
loop_
_refln_index_h
_refln_index_k
_refln_index_l
_refln_d_spacing
_refln_F_squared_calc
_refln_F_squared_meas
_refln_F_squared_sigma
_refln_observed_status
1 1 0 6.57920 0.05 0.05 0.08 o
1 1 1 5.67004 2.06 2.06 4.13 o
0 0 2 5.58925 1.04 1.04 2.74 o
1 0 2 4.83029 0.10 0.09 0.48 o
2 0 0 4.80024 1.04 1.01 3.28 o
0 2 0 4.51705 0.27 0.29 0.46 o
1 1 2 4.25965 0.32 0.31 1.17 o
0 2 1 4.18805 0.04 0.04 0.04 o
2 1 1 3.96359 0.01 0.01 0.01 o
1 2 1 3.83870 0.08 0.08 0.10 o
2 0 2 3.64157 3.73 3.81 8.58 o
0 2 2 3.51319 1.11 1.12 3.09 o
2 1 2 3.37750 0.07 0.07 0.06 o
1 2 2 3.29922 0.12 0.13 0.29 o
2 2 0 3.28960 0.66 0.67 1.88 o
1 1 3 3.24228 0.74 0.74 1.93 o
2 2 1 3.15579 0.11 0.11 0.20 o
3 1 0 3.01650 0.20 0.20 0.48 o
3 1 1 2.91233 0.44 0.43 1.30 o
0 2 3 2.87439 0.14 0.14 0.19 o
1 3 0 2.87333 0.03 0.03 0.04 o
2 2 2 2.83502 0.57 0.56 1.28 o
2 1 3 2.79864 0.14 0.14 0.10 o
0 0 4 2.79463 0.27 0.27 0.43 o
1 3 1 2.78287 1.88 1.97 3.08 o
3 0 2 2.77717 0.91 0.95 0.96 o
1 2 3 2.75362 0.00 0.00 0.00 o
1 0 4 2.68326 0.01 0.01 0.00 o
3 1 2 2.65457 0.18 0.17 0.38 o
1 1 4 2.57220 0.06 0.06 0.00 o
1 3 2 2.55543 0.09 0.09 0.07 o
3 2 1 2.54280 0.00 0.00 0.00 o
2 3 1 2.48702 0.04 0.04 0.02 o
2 2 3 2.46607 0.02 0.02 0.00 o
2 0 4 2.41515 1.19 1.16 2.49 o
4 0 0 2.40012 0.24 0.22 0.41 o
0 2 4 2.37656 0.06 0.05 0.03 o
3 2 2 2.36580 0.00 0.00 0.00 o
3 1 3 2.34454 2.94 2.92 7.41 o
2 1 4 2.33321 0.10 0.10 0.15 o
2 3 2 2.32068 0.36 0.35 0.68 o
1 2 4 2.30693 0.18 0.18 0.15 o
1 3 3 2.27539 1.18 1.16 1.66 o
4 1 1 2.27127 0.00 0.00 0.01 o
0 4 0 2.25853 1.83 0.37 2.53 o
0 4 1 2.21379 0.21 0.22 0.30 o
4 0 2 2.20538 1.37 1.39 4.18 o
3 3 0 2.19307 0.06 0.07 0.01 o
1 4 1 2.15719 0.03 0.03 0.09 o
3 3 1 2.15204 0.88 0.87 2.04 o
4 1 2 2.14247 0.00 0.00 0.00 o
3 2 3 2.13843 0.07 0.07 0.15 o
2 2 4 2.12983 2.61 2.72 5.55 o
4 2 0 2.11950 0.59 0.61 0.43 o
1 1 5 2.11682 1.70 1.72 4.03 o
3 0 4 2.10497 0.06 0.06 0.06 o
2 3 3 2.10493 0.02 0.02 0.02 o
0 4 2 2.09403 0.88 0.95 1.29 o
4 2 1 2.08240 0.09 0.09 0.01 o
3 1 4 2.05005 0.11 0.12 0.09 o
1 4 2 2.04593 0.01 0.01 0.03 o
2 4 0 2.04362 0.62 0.68 0.27 o
3 3 2 2.04154 0.60 0.60 1.83 o
2 4 1 2.01031 0.31 0.33 0.04 o
0 2 5 2.00371 0.03 0.03 0.04 o
1 3 4 2.00335 0.58 0.58 0.81 o
4 2 2 1.98179 1.69 1.62 4.65 o
2 1 5 1.97752 0.08 0.09 0.35 o
4 1 3 1.96925 0.00 0.00 0.00 o
1 2 5 1.96144 0.08 0.08 0.00 o
0 4 3 1.93143 0.20 0.20 0.03 o
2 4 2 1.91935 2.68 2.78 5.23 o
3 2 4 1.90797 0.06 0.06 0.06 o
1 4 3 1.89349 0.03 0.03 0.08 o
3 3 3 1.89001 1.46 1.44 3.39 o
2 3 4 1.88406 0.01 0.01 0.02 o
5 1 0 1.87815 0.02 0.02 0.01 o
0 0 6 1.86308 0.26 0.27 0.07 o
5 1 1 1.85219 1.54 1.47 4.34 o
4 3 1 1.85100 0.05 0.04 0.06 o
2 2 5 1.84908 0.01 0.01 0.02 o
4 2 3 1.84231 0.02 0.02 0.02 o
1 0 6 1.82896 0.00 0.00 0.00 o
4 0 4 1.82079 1.71 1.71 3.80 o
3 4 1 1.82062 0.00 0.00 0.00 o
5 0 2 1.81593 0.01 0.01 0.03 o
3 1 5 1.79616 1.60 1.59 2.70 o
1 1 6 1.79260 0.00 0.00 0.00 o
2 4 3 1.79183 0.47 0.47 0.10 o
4 1 4 1.78489 0.01 0.02 0.04 o
5 1 2 1.78032 0.04 0.04 0.00 o
4 3 2 1.77926 0.00 0.00 0.00 o
1 5 0 1.77565 0.09 0.09 0.07 o
1 3 5 1.76449 0.77 0.77 1.25 o
0 4 4 1.75659 0.52 0.55 0.19 o
1 5 1 1.75366 0.77 0.83 0.68 o
3 4 2 1.75223 0.26 0.27 0.15 o
5 2 1 1.74540 0.10 0.09 0.01 o
2 0 6 1.73685 0.82 0.82 1.28 o
1 4 4 1.72791 0.05 0.05 0.05 o
3 3 4 1.72526 0.06 0.06 0.10 o
0 2 6 1.72233 1.05 1.05 2.19 o
2 1 6 1.70562 0.07 0.07 0.02 o
3 2 5 1.69828 0.05 0.05 0.01 o
1 2 6 1.69527 0.04 0.04 0.02 o
1 5 2 1.69230 0.52 0.60 0.64 o
4 2 4 1.68875 1.14 1.21 2.33 o
5 2 2 1.68488 0.00 0.00 0.01 o
2 3 5 1.68135 0.00 0.00 0.00 o
5 1 3 1.67714 1.04 1.00 2.19 o
4 3 3 1.67626 0.04 0.04 0.04 o
2 5 1 1.67198 0.00 0.00 0.00 o
3 4 3 1.65360 0.01 0.01 0.01 o
2 4 4 1.64961 1.18 1.18 1.24 o
4 4 0 1.64480 0.51 0.48 0.51 o
4 4 1 1.62728 0.45 0.45 0.44 o
2 2 6 1.62114 0.98 0.99 1.24 o
5 3 0 1.61899 0.65 0.63 0.88 o
2 5 2 1.61855 0.03 0.03 0.02 o
3 0 6 1.61010 0.00 0.00 0.00 o
4 1 5 1.60974 0.03 0.03 0.03 o
1 5 3 1.60295 0.50 0.52 0.61 o
5 3 1 1.60228 1.32 1.34 2.74 o
6 0 0 1.60008 0.37 0.37 0.14 o
5 2 3 1.59663 0.03 0.03 0.05 o
0 4 5 1.58889 0.20 0.19 0.06 o
3 1 6 1.58512 0.04 0.04 0.03 o
5 0 4 1.58256 0.17 0.16 0.04 o
4 4 2 1.57790 0.97 0.98 1.20 o
3 5 0 1.57337 0.21 0.23 0.25 o
1 4 5 1.56756 0.01 0.01 0.01 o
3 3 5 1.56559 1.52 1.55 2.11 o
1 3 6 1.56323 0.22 0.22 0.12 o
6 1 1 1.56014 0.18 0.17 0.04 o
5 1 4 1.55882 0.04 0.04 0.02 o
4 3 4 1.55811 0.08 0.08 0.03 o
3 5 1 1.55801 0.31 0.31 0.11 o
5 3 2 1.55507 0.12 0.12 0.17 o
1 1 7 1.55187 1.59 1.60 2.64 o
3 4 4 1.53986 0.07 0.07 0.03 o
2 5 3 1.53985 0.05 0.05 0.02 o
6 0 2 1.53829 0.42 0.42 0.59 o
4 2 5 1.53815 0.07 0.06 0.09 o
3 2 6 1.51663 0.16 0.16 0.02 o
6 1 2 1.51646 0.00 0.00 0.00 o
3 5 2 1.51450 0.07 0.07 0.04 o
2 4 5 1.50840 0.34 0.33 0.67 o
6 2 0 1.50825 0.71 0.67 1.41 o
0 6 0 1.50568 0.11 0.11 0.08 o
0 2 7 1.50561 0.01 0.01 0.00 o
4 4 3 1.50472 0.24 0.23 0.03 o
2 3 6 1.50454 0.00 0.00 0.00 o
1 5 4 1.49871 0.33 0.35 0.04 o
6 2 1 1.49471 0.00 0.00 0.00 o
2 1 7 1.49440 0.16 0.16 0.07 o
5 2 4 1.49355 0.01 0.01 0.00 o
0 6 1 1.49221 0.26 0.28 0.14 o
1 2 7 1.48743 0.02 0.02 0.02 o
5 3 3 1.48489 0.72 0.70 1.18 o
1 6 1 1.47450 0.02 0.02 0.03 o
4 0 6 1.47172 0.53 0.53 0.61 o
6 2 2 1.45616 1.37 1.32 3.16 o
0 6 2 1.45385 0.37 0.39 0.82 o
4 1 6 1.45257 0.00 0.00 0.00 o
6 1 3 1.45116 0.07 0.07 0.02 o
5 4 1 1.45052 0.00 0.00 0.00 o
3 5 3 1.44945 1.00 1.03 0.72 o
2 5 4 1.44676 0.01 0.01 0.01 o
5 1 5 1.43806 0.40 0.40 0.47 o
4 3 5 1.43750 0.02 0.02 0.03 o
1 6 2 1.43747 0.03 0.03 0.03 o
0 4 6 1.43720 0.17 0.18 0.13 o
2 6 0 1.43667 0.28 0.29 0.04 o
2 2 7 1.43660 0.00 0.00 0.00 o
4 5 1 1.43162 0.00 0.00 0.00 o
2 6 1 1.42495 0.38 0.41 0.10 o
3 4 5 1.42313 0.00 0.00 0.00 o
1 4 6 1.42136 0.01 0.01 0.00 o
3 3 6 1.41988 0.38 0.37 0.05 o
4 4 4 1.41751 1.32 1.34 1.57 o
5 4 2 1.41522 0.04 0.04 0.04 o
3 1 7 1.41135 0.51 0.52 0.31 o
6 3 1 1.40185 0.00 0.00 0.00 o
5 3 4 1.40089 0.18 0.18 0.07 o
4 2 6 1.39932 0.61 0.63 0.18 o
6 2 3 1.39806 0.04 0.04 0.00 o
4 5 2 1.39765 0.00 0.00 0.00 o
0 0 8 1.39731 0.34 0.35 0.02 o
0 6 3 1.39602 0.23 0.23 0.26 o
1 3 7 1.39584 1.01 1.02 1.14 o
2 6 2 1.39144 0.34 0.35 0.02 o
1 5 5 1.39046 0.75 0.77 0.31 o
6 0 4 1.38858 0.79 0.78 0.97 o
5 2 5 1.38633 0.01 0.01 0.02 o
1 0 8 1.38274 0.04 0.04 0.03 o
1 6 3 1.38149 0.00 0.00 0.00 o
2 4 6 1.37681 1.04 1.09 1.10 o
6 1 4 1.37247 0.12 0.12 0.01 o
3 5 4 1.37102 0.39 0.40 0.16 o
6 3 2 1.36990 0.00 0.00 0.00 o
1 1 8 1.36683 0.00 0.00 0.00 o
3 2 7 1.36236 0.03 0.03 0.01 o
5 4 3 1.36170 0.00 0.00 0.00 o
7 1 0 1.35596 0.00 0.00 0.00 o
2 3 7 1.35358 0.00 0.00 0.00 o
3 6 1 1.35241 0.00 0.00 0.00 o
2 5 5 1.34867 0.00 0.00 0.00 o
7 1 1 1.34609 1.09 1.03 1.83 o
4 5 3 1.34604 0.00 0.00 0.00 o
2 0 8 1.34163 0.35 0.36 0.14 o
2 6 3 1.34048 0.22 0.22 0.02 o
5 0 6 1.33710 0.00 0.00 0.00 o
0 2 8 1.33490 0.77 0.75 0.66 o
7 0 2 1.33198 0.07 0.07 0.03 o
6 2 4 1.32729 0.42 0.41 0.40 o
2 1 8 1.32707 0.02 0.02 0.02 o
0 6 4 1.32554 0.11 0.11 0.04 o
4 4 5 1.32488 0.17 0.17 0.02 o
3 6 2 1.32366 0.01 0.01 0.00 o
5 1 6 1.32269 0.14 0.14 0.02 o
4 3 6 1.32226 0.00 0.00 0.00 o
1 2 8 1.32218 0.00 0.00 0.00 o
6 3 3 1.32120 0.02 0.02 0.01 o
7 1 2 1.31774 0.00 0.00 0.00 o
5 5 0 1.31584 0.06 0.06 0.04 o
4 1 7 1.31536 0.01 0.01 0.00 o
1 6 4 1.31308 0.06 0.06 0.03 o
5 3 5 1.31128 0.49 0.50 0.32 o
3 4 6 1.31105 0.00 0.00 0.00 o
5 5 1 1.30682 0.70 0.71 0.72 o
6 4 0 1.30563 0.40 0.40 0.24 o
0 4 7 1.30391 0.08 0.08 0.07 o
7 2 1 1.30339 0.00 0.00 0.00 o
6 4 1 1.29681 0.32 0.32 0.11 o
5 4 4 1.29605 0.03 0.03 0.01 o
1 4 7 1.29205 0.01 0.01 0.00 o
3 3 7 1.29094 0.45 0.47 0.07 o
6 1 5 1.28788 0.06 0.06 0.00 o
3 5 5 1.28668 0.64 0.66 0.22 o
2 2 8 1.28610 0.76 0.78 0.72 o
1 5 6 1.28537 0.17 0.17 0.13 o
4 5 4 1.28252 0.02 0.02 0.02 o
5 2 6 1.28211 0.00 0.00 0.00 o
5 5 2 1.28082 0.27 0.28 0.02 o
3 0 8 1.28056 0.03 0.03 0.01 o
3 6 3 1.27957 0.10 0.10 0.04 o
1 7 0 1.27908 0.09 0.09 0.06 o
2 6 4 1.27772 0.97 1.02 0.39 o
7 2 2 1.27760 0.02 0.02 0.01 o
4 6 0 1.27548 0.28 0.28 0.03 o
4 2 7 1.27543 0.06 0.06 0.01 o
7 1 3 1.27422 0.46 0.44 0.18 o
6 4 2 1.27140 0.55 0.53 0.37 o
1 7 1 1.27079 0.39 0.38 0.05 o
3 1 8 1.26789 0.01 0.01 0.00 o
4 6 1 1.26725 0.27 0.27 0.02 o
6 3 4 1.26098 0.00 0.00 0.00 o
2 4 7 1.25832 0.24 0.24 0.06 o
1 3 8 1.25660 0.27 0.26 0.06 o
2 5 6 1.25215 0.12 0.12 0.01 o
6 2 5 1.25033 0.03 0.03 0.01 o
0 6 5 1.24887 0.00 0.00 0.00 o
7 3 0 1.24815 0.04 0.04 0.01 o
1 7 2 1.24685 0.44 0.45 0.17 o
4 6 2 1.24351 0.76 0.75 0.42 o
5 5 3 1.24075 0.36 0.35 0.33 o
7 3 1 1.24044 0.57 0.55 0.59 o
2 7 1 1.23865 0.01 0.01 0.01 o
1 6 5 1.23843 0.08 0.08 0.06 o
7 2 3 1.23781 0.00 0.00 0.00 o
4 4 6 1.23304 0.88 0.87 0.73 o
6 4 3 1.23217 0.17 0.16 0.09 o
3 2 8 1.23201 0.02 0.02 0.01 o
7 0 4 1.23122 0.00 0.00 0.00 o
2 3 8 1.22550 0.00 0.00 0.00 o
3 6 4 1.22464 0.02 0.02 0.01 o
5 4 5 1.22412 0.01 0.01 0.00 o
5 3 6 1.22205 0.02 0.02 0.01 o
1 1 9 1.22050 0.49 0.48 0.18 o
7 1 4 1.21994 0.04 0.04 0.01 o
7 3 2 1.21814 0.34 0.32 0.08 o
5 1 7 1.21660 0.52 0.50 0.21 o
2 7 2 1.21645 0.29 0.28 0.10 o
4 3 7 1.21626 0.01 0.01 0.00 o
6 0 6 1.21386 0.95 0.90 0.82 o
4 5 5 1.21270 0.00 0.00 0.00 o
1 7 3 1.20979 0.31 0.33 0.27 o
2 6 5 1.20863 0.11 0.12 0.01 o
4 0 8 1.20757 0.79 0.82 0.42 o
3 4 7 1.20752 0.00 0.00 0.00 o
4 6 3 1.20674 0.04 0.04 0.02 o
6 1 6 1.20305 0.01 0.02 0.01 o
3 5 6 1.20207 0.19 0.20 0.03 o
8 0 0 1.20006 0.13 0.13 0.01 o
0 2 9 1.19761 0.05 0.05 0.00 o
4 1 8 1.19693 0.06 0.07 0.00 o
3 7 0 1.19692 0.24 0.24 0.01 o
6 3 5 1.19444 0.01 0.01 0.01 o
2 1 9 1.19194 0.02 0.02 0.00 o
6 5 1 1.19106 0.05 0.05 0.01 o
5 5 4 1.19048 0.01 0.01 0.00 o
3 7 1 1.19012 0.28 0.29 0.12 o
1 2 9 1.18840 0.01 0.01 0.00 o
0 4 8 1.18828 0.47 0.47 0.25 o
7 2 4 1.18788 0.00 0.00 0.00 o
1 5 7 1.18737 0.55 0.56 0.22 o
5 2 7 1.18480 0.00 0.00 0.00 o
7 3 3 1.18351 0.72 0.69 0.88 o
8 1 1 1.18293 0.00 0.00 0.00 o
6 4 4 1.18290 0.80 0.78 0.66 o
2 7 3 1.18196 0.00 0.00 0.00 o
1 4 8 1.17928 0.02 0.02 0.01 o
3 3 8 1.17844 0.07 0.07 0.01 o
5 6 1 1.17824 0.08 0.08 0.01 o
8 0 2 1.17332 0.41 0.41 0.17 o
6 2 6 1.17227 0.41 0.42 0.12 o
6 5 2 1.17128 0.00 0.00 0.00 o
0 6 6 1.17106 0.43 0.45 0.10 o
3 7 2 1.17038 0.57 0.60 0.14 o
4 2 8 1.16660 0.32 0.33 0.01 o
7 4 1 1.16589 0.00 0.00 0.00 o
8 1 2 1.16355 0.03 0.03 0.00 o
3 6 5 1.16341 0.04 0.05 0.01 o
1 7 4 1.16305 0.88 0.91 0.29 o
1 6 6 1.16245 0.05 0.05 0.01 o
2 2 9 1.16199 0.01 0.01 0.00 o
2 5 7 1.16103 0.07 0.07 0.01 o
4 6 4 1.16034 0.38 0.37 0.18 o
8 2 0 1.15983 0.36 0.35 0.31 o
7 1 5 1.15939 0.52 0.51 0.45 o
5 6 2 1.15908 0.00 0.00 0.00 o
8 2 1 1.15363 0.01 0.01 0.00 o
2 4 8 1.15346 0.37 0.38 0.08 o
5 4 6 1.15058 0.00 0.00 0.00 o
3 1 9 1.14851 0.50 0.50 0.17 o
7 4 2 1.14732 0.06 0.06 0.01 o
4 4 7 1.14575 0.29 0.29 0.03 o
4 5 6 1.14109 0.01 0.01 0.00 o
6 5 3 1.14040 0.02 0.02 0.01 o
1 3 9 1.14010 0.67 0.67 0.38 o
7 3 4 1.13965 0.08 0.08 0.04 o
3 7 3 1.13957 0.23 0.23 0.09 o
2 7 4 1.13826 0.00 0.00 0.00 o
2 6 6 1.13770 0.41 0.41 0.02 o
5 3 7 1.13692 0.56 0.56 0.23 o
8 2 2 1.13563 0.41 0.40 0.19 o
5 5 5 1.13401 0.21 0.21 0.08 o
8 1 3 1.13326 0.00 0.00 0.00 o
7 2 5 1.13176 0.00 0.00 0.00 o
4 7 1 1.13085 0.02 0.02 0.01 o
5 0 8 1.12981 0.08 0.08 0.01 o
0 8 0 1.12926 0.07 0.07 0.01 o
5 6 3 1.12913 0.06 0.06 0.02 o
6 4 5 1.12745 0.18 0.18 0.03 o
6 3 6 1.12583 0.01 0.01 0.00 o
0 8 1 1.12354 0.20 0.21 0.11 o
3 2 9 1.12164 0.02 0.02 0.00 o
6 1 7 1.12157 0.00 0.00 0.00 o
5 1 8 1.12108 0.01 0.01 0.00 o
4 3 8 1.12081 0.01 0.01 0.00 o
3 5 7 1.12078 0.36 0.38 0.04 o
7 4 3 1.11825 0.00 0.00 0.00 o
0 0 10 1.11785 0.23 0.23 0.01 o
2 3 9 1.11672 0.01 0.01 0.00 o
1 8 1 1.11593 0.03 0.03 0.01 o
3 4 8 1.11396 0.03 0.03 0.00 o
4 7 2 1.11388 0.00 0.00 0.00 o
1 0 10 1.11035 0.11 0.11 0.01 o
1 7 5 1.11022 0.11 0.11 0.01 o
8 3 1 1.10930 0.00 0.00 0.00 o
4 6 5 1.10786 0.22 0.22 0.04 o
8 2 3 1.10742 0.08 0.08 0.03 o
0 8 2 1.10690 0.13 0.12 0.01 o
7 0 6 1.10450 0.00 0.00 0.00 o
8 0 4 1.10269 0.51 0.49 0.35 o
1 1 10 1.10206 0.00 0.00 0.00 o
6 5 4 1.10100 0.03 0.03 0.01 o
3 7 4 1.10025 0.38 0.39 0.03 o
3 6 6 1.09974 0.02 0.02 0.00 o
1 8 2 1.09961 0.08 0.08 0.01 o
2 8 0 1.09925 0.04 0.04 0.00 o
1 5 8 1.09808 0.06 0.06 0.02 o
6 6 0 1.09653 0.36 0.36 0.14 o
6 2 7 1.09650 0.04 0.04 0.02 o
7 1 6 1.09634 0.03 0.03 0.01 o
5 2 8 1.09605 0.00 0.00 0.00 o
0 6 7 1.09552 0.01 0.01 0.00 o
4 1 9 1.09497 0.03 0.03 0.00 o
8 1 4 1.09457 0.00 0.00 0.00 o
2 8 1 1.09398 0.32 0.35 0.07 o
8 3 2 1.09327 0.02 0.02 0.00 o
7 5 0 1.09243 0.09 0.10 0.05 o
6 6 1 1.09130 0.05 0.05 0.01 o
5 6 4 1.09084 0.00 0.00 0.00 o
7 3 5 1.08981 0.48 0.50 0.03 o
2 0 10 1.08872 0.54 0.55 0.04 o
2 7 5 1.08860 0.02 0.02 0.00 o
1 6 7 1.08845 0.01 0.01 0.00 o
0 4 9 1.08834 0.13 0.13 0.01 o
7 5 1 1.08725 0.46 0.47 0.02 o
4 7 3 1.08722 0.05 0.05 0.01 o
0 2 10 1.08512 0.31 0.31 0.05 o
1 4 9 1.08141 0.02 0.02 0.00 o
7 4 4 1.08102 0.00 0.00 0.00 o
