#------------------------------------------------------------------------------
#$Date: 2016-03-24 14:28:49 +0200 (Thu, 24 Mar 2016) $
#$Revision: 179665 $
#$URL: svn://www.crystallography.net/cod/cif/4/51/18/4511859.cif $
#------------------------------------------------------------------------------
#
# This file is available in the Crystallography Open Database (COD),
# http://www.crystallography.net/
#
# All data on this site have been placed in the public domain by the
# contributors.
#
data_4511859
loop_
_publ_author_name
'Miyake, Ryosuke'
'Nakagawa, Yuki'
'Hase, Mariko'
_publ_section_title
;
 Selective Thermal Elongation of Metal--Metal Distances in the
 Two-Dimensional Assembly of Ag(I) Ions Templated by Assembled Peptide
 Ligands
;
_journal_issue                   10
_journal_name_full               'Crystal Growth &amp; Design'
_journal_page_first              4882
_journal_paper_doi               10.1021/cg5009347
_journal_volume                  14
_journal_year                    2014
_chemical_absolute_configuration ad
_chemical_formula_sum            'C7 H11 Ag2 N3 O5'
_chemical_formula_weight         432.93
_space_group_crystal_system      monoclinic
_space_group_IT_number           4
_space_group_name_Hall           'P 2yb'
_space_group_name_H-M_alt        'P 1 21 1'
_symmetry_space_group_name_Hall  'P 2yb'
_symmetry_space_group_name_H-M   'P 1 21 1'
_atom_sites_solution_hydrogens   geom
_cell_angle_alpha                90
_cell_angle_beta                 103.410(2)
_cell_angle_gamma                90
_cell_formula_units_Z            2
_cell_length_a                   4.8111(6)
_cell_length_b                   19.933(3)
_cell_length_c                   5.4830(7)
_cell_measurement_temperature    93
_cell_volume                     511.48(12)
_computing_cell_refinement       'SAINT V8.32B (Bruker AXS)'
_computing_data_collection       'Bruker SMART APEXII ULTRA'
_computing_data_reduction        'SAINT V8.32B (Bruker AXS)'
_computing_molecular_graphics    'XSHELL V6.3.1 (Bruker AXS)'
_computing_publication_material  'Generate Report (Bruker AXS)'
_computing_structure_refinement  'SHELXL-2013 (Sheldrick, 2013)'
_computing_structure_solution    'SHELXS-97 (Sheldrick, 1997)'
_diffrn_ambient_temperature      93
_diffrn_detector_area_resol_mean 8.333
_diffrn_measured_fraction_theta_full 0.960
_diffrn_measured_fraction_theta_max 0.960
_diffrn_measurement_device_type  'Bruker D8 goniometer'
_diffrn_measurement_method       'omega scans'
_diffrn_radiation_monochromator  'multilayered conforcal mirror'
_diffrn_radiation_type           MoK\a
_diffrn_radiation_wavelength     0.71073
_diffrn_reflns_av_R_equivalents  0.0192
_diffrn_reflns_limit_h_max       6
_diffrn_reflns_limit_h_min       -5
_diffrn_reflns_limit_k_max       24
_diffrn_reflns_limit_k_min       -27
_diffrn_reflns_limit_l_max       7
_diffrn_reflns_limit_l_min       -7
_diffrn_reflns_number            3656
_diffrn_reflns_theta_full        30.45
_diffrn_reflns_theta_max         30.45
_diffrn_reflns_theta_min         2.04
_diffrn_source                   'rotating-anode X-ray tube'
_diffrn_source_type              'Bruker Tourbo X-ray Source'
_exptl_absorpt_coefficient_mu    3.843
_exptl_absorpt_correction_T_max  0.96
_exptl_absorpt_correction_T_min  0.82
_exptl_absorpt_correction_type   empirical
_exptl_absorpt_process_details   'SADABS V2012/1 (Bruker AXS)'
_exptl_crystal_colour            colourless
_exptl_crystal_density_diffrn    2.811
_exptl_crystal_density_method    'not measured'
_exptl_crystal_description       plate
_exptl_crystal_F_000             416
_exptl_crystal_size_max          0.055
_exptl_crystal_size_mid          0.023
_exptl_crystal_size_min          0.010
_refine_diff_density_max         1.384
_refine_diff_density_min         -1.150
_refine_ls_abs_structure_details
;
Flack x determined using 876 quotients [(I+)-(I-)]/[(I+)+(I-)]
(Parsons and Flack (2004), Acta Cryst. A60, s61).
;
_refine_ls_abs_structure_Flack   0.01(3)
_refine_ls_extinction_method     none
_refine_ls_goodness_of_fit_ref   1.048
_refine_ls_hydrogen_treatment    constr
_refine_ls_matrix_type           full
_refine_ls_number_parameters     154
_refine_ls_number_reflns         2476
_refine_ls_number_restraints     1
_refine_ls_restrained_S_all      1.048
_refine_ls_R_factor_all          0.0274
_refine_ls_R_factor_gt           0.0257
_refine_ls_shift/su_max          0.001
_refine_ls_shift/su_mean         0.000
_refine_ls_structure_factor_coef Fsqd
_refine_ls_weighting_details
'w=1/[\s^2^(Fo^2^)+(0.0185P)^2^+1.1825P] where P=(Fo^2^+2Fc^2^)/3'
_refine_ls_weighting_scheme      calc
_refine_ls_wR_factor_gt          0.0567
_refine_ls_wR_factor_ref         0.0572
_reflns_number_gt                2372
_reflns_number_total             2476
_reflns_threshold_expression     'I > 2\s(I)'
_cod_data_source_file            cg5009347_si_001.cif
_cod_data_source_block           P21_93K
_cod_depositor_comments
'Adding full bibliography for 4511859--4511871.cif.'
_cod_original_cell_volume        511.48(11)
_cod_database_code               4511859
#BEGIN Tags that were not found in dictionaries:
_shelx_res_file
;
TITL p21(-180) in P2(1)
CELL 0.71073   4.81110  19.93290   5.48300  90.0000 103.4101  90.0000
ZERR    2.00   0.00060   0.00260   0.00070   0.0000   0.0020   0.0000
LATT -1
SYMM -X, 0.5+Y, -Z
SFAC C  H  N  O  Ag
UNIT 14  22  6  10  4
L.S. 10
SHEL 20 0.7
ACTA
BOND $h
FMAP 2
PLAN 20
size 0.055 0.023 0.010
TEMP -180
WGHT    0.018500    1.182500
FVAR       0.18808
AG1   5    0.213863    0.858034    0.424516    11.00000    0.01464    0.00776 =
         0.01611   -0.00124    0.00112    0.00229
AG2   5   -0.442638    0.866656   -0.009752    11.00000    0.01622    0.01116 =
         0.01512   -0.00127    0.00217    0.00295
C1    1   -0.025433    0.756180    0.021391    11.00000    0.01149    0.01395 =
         0.00954   -0.00205    0.00114   -0.00346
C2    1    0.140001    0.694490    0.140672    11.00000    0.01122    0.01404 =
         0.01290   -0.00018    0.00109    0.00091
AFIX  23
H2A   2    0.016757    0.654371    0.099359    11.00000   -1.20000
H2B   2    0.308630    0.688042    0.068520    11.00000   -1.20000
AFIX   0
C3    1    0.239052    0.700616    0.424450    11.00000    0.00744    0.00939 =
         0.01201    0.00388    0.00320    0.00046
AFIX  13
H3    2    0.067849    0.704740    0.497708    11.00000   -1.20000
AFIX   0
C4    1    0.405531    0.637314    0.528925    11.00000    0.00973    0.00898 =
         0.01312    0.00160    0.00483    0.00077
C5    1    0.390824    0.524800    0.696243    11.00000    0.00973    0.00877 =
         0.01384    0.00289    0.00407    0.00211
AFIX  13
H5    2    0.570881    0.520524    0.635919    11.00000   -1.20000
AFIX   0
C6    1    0.472954    0.525587    0.982624    11.00000    0.01444    0.00475 =
         0.01502    0.00156    0.00164   -0.00037
AFIX  23
H6A   2    0.586868    0.566284    1.041286    11.00000   -1.20000
H6B   2    0.297824    0.527127    1.048108    11.00000   -1.20000
AFIX   0
C7    1    0.199641    0.465234    0.592525    11.00000    0.00874    0.01095 =
         0.01178    0.00316    0.00095    0.00220
N1    3    0.419054    0.760729    0.490947    11.00000    0.00934    0.00949 =
         0.01475   -0.00120    0.00141    0.00028
AFIX  23
H1A   2    0.571355    0.759016    0.396784    11.00000   -1.20000
H1B   2    0.513556    0.757791    0.671365    11.00000   -1.20000
AFIX   0
N2    3    0.253965    0.587696    0.598461    11.00000    0.01017    0.01031 =
         0.01604    0.00526    0.00566    0.00320
AFIX  43
H2    2    0.069461    0.593001    0.585146    11.00000   -1.20000
AFIX   0
N3    3    0.640890    0.465281    1.080086    11.00000    0.01364    0.01334 =
         0.01383    0.00230    0.00223    0.00051
AFIX  23
H3A   2    0.706890    0.470599    1.263969    11.00000   -1.20000
H3B   2    0.813420    0.465121    1.010719    11.00000   -1.20000
AFIX   0
O1    4    0.060349    0.789454   -0.137932    11.00000    0.01947    0.02673 =
         0.01279    0.00781    0.00714    0.00489
O2    4   -0.248495    0.770552    0.100873    11.00000    0.01493    0.01441 =
         0.02951    0.00656    0.01098    0.00518
O3    4    0.665078    0.633172    0.542393    11.00000    0.00750    0.01241 =
         0.04168    0.00987    0.00834    0.00207
O4    4    0.266510    0.429281    0.430522    11.00000    0.02005    0.03132 =
         0.02533   -0.01328    0.01097   -0.00802
O5    4   -0.019676    0.456132    0.682176    11.00000    0.00972    0.01527 =
         0.02269   -0.00484    0.00670   -0.00377
HKLF 4

REM  p21(-180) in P2(1)
REM R1 =  0.0257 for    2372 Fo > 4sig(Fo)  and  0.0274 for all    2476 data
REM    154 parameters refined using      1 restraints

END

WGHT      0.0187      1.1615

REM Highest difference peak  1.384,  deepest hole -1.150,  1-sigma level  0.157
Q1    1   0.0727  0.8559  0.4426  11.00000  0.05    1.38
Q2    1  -0.2818  0.8692 -0.0259  11.00000  0.05    1.33
Q3    1   0.3701  0.8581  0.4164  11.00000  0.05    1.30
Q4    1  -0.5937  0.8668 -0.0112  11.00000  0.05    1.08
Q5    1   0.2152  0.8897  0.4097  11.00000  0.05    0.83
Q6    1   0.8707  0.4058  1.0675  11.00000  0.05    0.82
Q7    1  -0.4542  0.8318 -0.0278  11.00000  0.05    0.81
Q8    1   0.2092  0.8266  0.3989  11.00000  0.05    0.73
Q9    1   0.0280  0.8150  0.2961  11.00000  0.05    0.67
Q10   1  -0.1199  0.8614 -0.1477  11.00000  0.05    0.63
Q11   1  -0.2747  0.9085  0.0939  11.00000  0.05    0.61
Q12   1  -0.0742  0.8563  0.0731  11.00000  0.05    0.61
Q13   1   0.1029  0.8671 -0.1601  11.00000  0.05    0.61
Q14   1  -0.2455  0.8574  0.2433  11.00000  0.05    0.58
Q15   1   0.4176  0.8194  0.5326  11.00000  0.05    0.58
Q16   1  -0.4453  0.9067 -0.0160  11.00000  0.05    0.57
Q17   1  -0.0661  0.4110  0.6613  11.00000  0.05    0.57
Q18   1  -0.7568  0.8698  0.1017  11.00000  0.05    0.56
Q19   1   0.1901  0.4513  0.6977  11.00000  0.05    0.54
Q20   1  -0.6579  0.8414  0.0810  11.00000  0.05    0.52
;
_shelx_res_checksum              11363
_shelx_hkl_file
;
   1   0   0  150.99    3.56
   1   0   0  147.39    3.31
   2   0   0   14.84    0.68
   2   0   0   15.02    0.77
   3   0   0   55.15    1.91
   3   0   0   56.04    1.75
   4   0   0   61.55    2.30
   4   0   0   61.23    2.10
   5   0   0   75.50    2.68
   5   0   0   78.63    2.93
   6   0   0   22.17    1.64
   0  -1   0   -1.32    0.02
   0  -1   0   -1.33    0.01
   0   1   0   -1.33    0.01
   0   1   0   -1.34    0.02
   1  -1   0   98.62    2.39
   1  -1   0   96.21    2.18
   1   1   0   93.33    2.21
   2  -1   0  212.40    5.18
   2  -1   0  212.23    4.78
   2   1   0  206.29    5.14
   2   1   0  210.71    4.80
   3  -1   0  151.39    3.76
   3  -1   0  153.10    4.10
   3   1   0  149.63    3.77
   3   1   0  149.87    4.05
   4  -1   0   12.40    1.14
   4  -1   0   12.69    1.00
   4   1   0   13.03    1.00
   4   1   0   12.80    1.11
   5  -1   0   16.14    1.49
   5  -1   0   16.04    1.24
   5   1   0   16.21    1.45
   5   1   0   19.23    1.37
   6  -1   0   75.81    2.92
   6   1   0   73.33    2.87
   0  -2   0  882.98   22.51
   1  -2   0   47.93    1.40
   1  -2   0   46.27    1.22
   1   2   0   53.62    1.27
   1   2   0   53.17    1.39
   1   2   0   51.36    1.29
   2  -2   0    1.04    0.37
   2  -2   0    0.80    0.25
   2   2   0    0.87    0.34
   2   2   0    0.88    0.26
   3  -2   0  126.55    3.57
   3  -2   0  126.20    3.22
   3   2   0  125.61    3.27
   3   2   0  124.77    3.46
   4  -2   0   50.18    2.07
   4  -2   0   50.12    1.83
   4   2   0   51.72    1.88
   4   2   0   48.60    1.98
   5  -2   0   49.22    2.05
   5  -2   0   51.10    2.39
   5   2   0   48.16    2.11
   5   2   0   48.51    2.23
   6  -2   0   14.35    1.44
   6   2   0   14.04    1.44
   0  -3   0   -0.43    0.10
   1  -3   0   68.15    1.68
  -1  -3   0   74.55    1.84
   1  -3   0   73.50    1.93
   1   3   0   74.51    1.81
   1   3   0   72.18    1.77
   2  -3   0  151.82    3.60
   2  -3   0  157.74    3.99
   2   3   0  157.56    3.69
   2   3   0  154.40    3.92
   3  -3   0  266.07    6.11
   3  -3   0  268.51    6.69
   3   3   0  263.73    6.59
   3   3   0  259.29    6.18
   4  -3   0    6.03    0.95
   4  -3   0    5.93    0.73
   4   3   0    5.83    0.72
   4   3   0    7.30    0.97
   5  -3   0    9.19    1.29
   5  -3   0    9.01    1.00
   5   3   0    8.94    1.03
   5   3   0    6.82    1.20
   6  -3   0   71.99    2.87
   6   3   0   79.24    3.03
   0  -4   0  398.46    9.19
   1  -4   0  156.34    3.79
   1  -4   0  148.86    3.38
  -1  -4   0  156.80    3.69
   1   4   0  150.73    3.48
   1   4   0  156.97    3.73
   2  -4   0   19.25    0.76
   2  -4   0   19.80    0.96
   2   4   0   21.97    0.86
   3  -4   0  113.46    2.95
   3  -4   0  115.31    3.34
   3   4   0  111.22    3.20
   3   4   0  112.30    3.02
   4  -4   0   21.40    1.44
   4  -4   0   20.29    1.14
   4   4   0   20.76    1.22
   5  -4   0   28.64    1.83
   5  -4   0   28.54    1.54
   5   4   0   26.27    1.57
   6  -4   0   13.33    1.35
   6   4   0   12.70    1.37
   0  -5   0   -1.19    0.18
   1  -5   0   92.42    2.45
   1  -5   0   89.07    2.10
  -1  -5   0   90.08    2.33
   1   5   0   95.01    2.35
   1   5   0   93.55    2.23
   2  -5   0  268.27    5.97
  -2  -5   0  265.73    6.39
   2  -5   0  283.18    6.65
   2   5   0  257.53    6.41
   2   5   0  271.07    6.10
   3  -5   0  376.36    8.36
   3  -5   0  371.02    9.18
   3   5   0  368.85    8.48
   4  -5   0    1.34    0.47
   4  -5   0    1.93    0.71
   4   5   0    1.25    0.49
   5  -5   0   10.72    1.09
   5  -5   0   11.93    1.44
   5   5   0   11.62    1.19
   6  -5   0   64.90    2.59
   6   5   0   63.86    2.73
   0  -6   0  318.07    7.48
   1  -6   0  162.44    4.00
  -1  -6   0  155.07    3.86
   1  -6   0  155.23    3.50
   1   6   0  160.30    3.64
   1   6   0  158.31    3.92
  -2  -6   0    3.67    0.39
   2  -6   0    4.52    0.61
   2  -6   0    4.30    0.42
   2   6   0    3.56    0.30
   2   6   0    4.69    0.47
  -3  -6   0  196.93    5.06
   3  -6   0  208.59    4.82
   3  -6   0  205.33    5.42
   3   6   0  200.74    4.94
   4  -6   0   15.82    1.30
   4  -6   0   16.55    1.03
  -4  -6   0   15.21    0.91
   4   6   0   18.42    1.14
   5  -6   0   33.16    2.05
   5  -6   0   31.75    1.60
   5   6   0   32.62    1.74
   6  -6   0   10.72    1.19
   6   6   0   13.98    1.45
   0  -7   0   -0.40    0.23
   1  -7   0  243.43    5.37
   1  -7   0  255.24    6.05
  -1  -7   0  242.80    5.89
   1   7   0  247.46    5.52
   1   7   0  246.48    6.02
   2  -7   0  159.43    3.76
  -2  -7   0  162.26    4.09
   2  -7   0  170.46    4.35
   2   7   0  157.60    4.06
   2   7   0  167.46    3.96
   3  -7   0  418.41   10.08
   3  -7   0  418.05    9.10
  -3  -7   0  394.46    9.68
   3   7   0  403.60    9.27
  -4  -7   0    4.07    0.57
   4  -7   0    4.84    0.63
   4  -7   0    5.82    0.97
   4   7   0    3.22    0.64
   5  -7   0    9.94    1.39
   5  -7   0    9.25    0.97
   5   7   0    9.08    1.07
   6  -7   0   52.17    2.29
   6   7   0   51.89    2.46
   0  -8   0  656.28   15.14
  -1  -8   0  191.62    4.71
   1  -8   0  184.29    4.24
   1  -8   0  197.42    4.86
   1   8   0  193.27    4.81
   1   8   0  193.52    4.41
   2  -8   0   48.92    1.78
  -2  -8   0   51.08    1.57
   2  -8   0   49.24    1.39
   2   8   0   47.99    1.48
   2   8   0   50.24    1.56
   3  -8   0   81.73    2.22
  -3  -8   0   77.79    2.34
   3  -8   0   83.47    2.75
   3   8   0   78.35    2.40
   4  -8   0   28.29    1.67
  -4  -8   0   24.05    1.15
   4  -8   0   25.49    1.22
   4   8   0   25.24    1.38
   5  -8   0   49.72    2.55
   5  -8   0   52.53    2.02
   5   8   0   50.26    2.22
   6   8   0   12.23    1.36
   0  -9   0   -0.47    0.27
   1  -9   0   44.99    1.57
   1  -9   0   45.39    1.21
  -1  -9   0   45.75    1.46
  -2  -9   0   40.30    1.39
   2  -9   0   38.79    1.20
   2  -9   0   42.83    1.65
   2   9   0   41.92    1.34
   2   9   0   42.79    1.41
   3  -9   0  120.76    2.96
   3  -9   0  118.63    3.58
  -3  -9   0  115.28    3.17
   3   9   0  103.66    2.99
   3   9   0  115.85    3.17
   4  -9   0    9.73    0.83
  -4  -9   0    9.18    0.76
   4  -9   0   12.45    1.38
   4   9   0   11.36    1.03
   5  -9   0   12.42    1.54
   5   9   0   12.74    1.26
   6   9   0   58.69    2.63
   0 -10   0  782.26   18.09
   1 -10   0   42.62    1.54
   1 -10   0   41.25    1.15
  -1 -10   0   41.71    1.42
   2 -10   0    5.53    0.78
  -2 -10   0    7.01    0.70
   2 -10   0    4.26    0.44
   2  10   0    5.56    0.59
   2  10   0    4.46    0.42
   3 -10   0   58.64    1.76
  -3 -10   0   57.49    1.91
   3 -10   0   56.71    2.27
   3  10   0   57.90    1.95
   3  10   0   57.90    1.75
   4 -10   0   33.65    1.88
  -4 -10   0   32.84    1.41
   4  10   0   34.86    1.63
   5  10   0   60.87    2.49
   6  10   0   12.22    1.37
   0 -11   0    0.56    0.34
   1 -11   0   76.89    2.35
   1 -11   0   71.45    1.84
  -1 -11   0   73.96    2.22
   2 -11   0   84.01    2.68
   2 -11   0   78.38    2.07
  -2 -11   0   82.48    2.42
   2  11   0   80.32    2.31
   3 -11   0  155.12    4.54
  -3 -11   0  151.71    4.11
   3 -11   0  155.80    3.76
   3  11   0  148.20    4.00
  -4 -11   0   31.60    1.40
   4 -11   0   30.44    1.84
   4  11   0   30.33    1.55
   5 -11   0    8.18    1.33
   5  11   0   12.50    1.25
   0 -12   0  754.16   17.59
   1 -12   0   50.06    1.82
  -1 -12   0   52.13    1.75
   1 -12   0   48.86    1.37
   2 -12   0   29.58    1.47
  -2 -12   0   30.41    1.26
   2 -12   0   30.13    1.01
   2  12   0   29.61    1.22
   3 -12   0   79.30    2.20
  -3 -12   0   79.82    2.47
   3 -12   0   80.52    2.87
   3  12   0   74.52    2.44
  -4 -12   0   41.43    1.66
   4 -12   0   37.26    2.06
   4  12   0   39.89    1.79
   5 -12   0   30.25    2.11
   5  12   0   34.78    1.91
   0 -13   0    0.60    0.38
   1 -13   0   31.95    1.03
  -1 -13   0   34.81    1.40
   1 -13   0   33.21    1.47
   2 -13   0  139.60    3.41
  -2 -13   0  151.87    3.97
   2 -13   0  143.10    4.19
   2  13   0  140.99    3.70
  -3 -13   0  120.84    3.44
   3 -13   0  118.73    3.05
   3 -13   0  117.67    3.85
   3  13   0  118.33    3.36
  -4 -13   0   36.74    1.62
   4 -13   0   38.00    2.10
   4  13   0   39.21    1.78
   5 -13   0    3.67    1.12
   5  13   0    5.30    0.91
   0 -14   0  287.72    7.27
   1 -14   0   46.53    1.37
   1 -14   0   49.62    1.90
  -1 -14   0   49.58    1.81
  -2 -14   0   59.04    2.02
   2 -14   0   58.73    2.26
   2 -14   0   55.73    1.61
   3 -14   0   54.22    2.37
  -3 -14   0   54.78    1.97
   3  14   0   52.39    1.95
   4 -14   0   23.39    1.74
  -4 -14   0   24.63    1.31
   4  14   0   24.15    1.44
   5 -14   0    9.67    1.40
   5  14   0   15.63    1.40
   0 -15   0    0.08    0.37
   1 -15   0   64.25    2.30
   1 -15   0   61.70    1.71
  -1 -15   0   62.88    2.20
  -2 -15   0   70.45    2.37
   2 -15   0   70.45    2.61
   3 -15   0  129.26    4.16
  -3 -15   0  126.70    3.71
   3  15   0  123.40    3.56
  -4 -15   0   21.97    1.25
   4 -15   0   19.84    1.68
   4  15   0   20.49    1.35
   5 -15   0    4.66    1.16
   0 -16   0  100.52    3.17
   1 -16   0   40.21    1.26
  -1 -16   0   41.28    1.72
   1 -16   0   37.92    1.76
   2 -16   0   28.77    1.63
  -2 -16   0   28.41    1.39
   3 -16   0   58.38    2.57
  -3 -16   0   56.57    2.15
  -4 -16   0   15.38    1.14
   4 -16   0   14.80    1.56
   4  16   0   15.27    1.21
   5 -16   0    5.12    1.25
   5  16   0   10.40    1.21
   0 -17   0    0.19    0.42
   1 -17   0   37.61    1.79
  -1 -17   0   35.69    1.66
   2 -17   0   63.28    2.57
  -2 -17   0   63.20    2.31
  -3 -17   0   96.11    3.12
   3 -17   0   94.55    3.53
   4 -17   0    0.45    0.86
  -4 -17   0    1.48    0.55
   5 -17   0    4.00    1.25
   5  17   0    8.38    1.07
   0 -18   0  353.49    9.04
   1 -18   0   63.97    2.54
  -1 -18   0   67.76    2.47
  -2 -18   0   16.14    1.13
   2 -18   0   17.61    1.40
   3 -18   0   37.20    2.12
  -3 -18   0   36.35    1.73
   4 -18   0    8.88    1.41
  -4 -18   0   11.12    1.04
   5 -18   0   17.82    1.86
   0 -19   0    0.29    0.47
   1 -19   0   86.64    3.12
  -1 -19   0   84.20    2.97
   2 -19   0   28.14    1.77
  -2 -19   0   28.88    1.55
  -3 -19   0   85.81    3.04
   3 -19   0   88.81    3.49
  -4 -19   0   25.67    1.52
   4 -19   0   20.84    1.89
   5 -19   0    8.17    1.43
   0 -20   0  160.72    4.83
  -1 -20   0   61.73    2.47
   1 -20   0   59.46    2.55
  -2 -20   0   19.11    1.32
   2 -20   0   18.80    1.55
   3 -20   0   30.60    2.03
  -3 -20   0   27.77    1.59
  -4 -20   0   18.12    1.45
   4 -20   0   14.01    1.74
   0 -21   0    0.20    0.55
   1 -21   0   42.19    2.16
  -1 -21   0   43.59    2.06
   2 -21   0   13.42    1.41
  -2 -21   0   15.53    1.25
  -3 -21   0   45.05    2.09
   3 -21   0   41.75    2.44
   4 -21   0   20.90    1.98
   0 -22   0  116.89    3.94
  -1 -22   0   21.53    1.52
   1 -22   0   20.66    1.61
  -2 -22   0   19.24    1.43
   2 -22   0   19.14    1.67
   3 -22   0   15.10    1.66
  -3 -22   0   15.80    1.31
   4 -22   0    7.54    1.42
   0 -23   0    0.44    0.61
   1 -23   0   24.82    1.81
  -1 -23   0   28.44    1.75
   2 -23   0   28.07    1.99
  -2 -23   0   29.53    1.78
  -3 -23   0   42.83    2.15
   3 -23   0   39.16    2.49
   0 -24   0   61.12    2.73
  -1 -24   0   15.23    1.39
   1 -24   0   13.57    1.49
  -2 -24   0   31.69    1.91
   2 -24   0   31.29    2.14
   3 -24   0   33.82    2.40
  -3 -24   0   36.13    2.02
   0 -25   0    0.59    0.70
  -1 -25   0   33.57    2.02
   1 -25   0   34.55    2.20
   2 -25   0   37.19    2.38
  -2 -25   0   36.95    2.10
  -3 -25   0   69.85    3.00
   0 -26   0   68.11    3.06
  -1 -26   0   36.39    2.16
   1 -26   0   32.96    2.22
   2 -26   0   69.73    3.35
  -2 -26   0   71.18    3.09
   0 -27   0    0.39    0.76
  -1 -27   0   27.66    1.95
   1 -27   0   27.93    2.10
  -2 -27   0    6.71    1.22
   6   0  -1    0.52    0.67
   5   0  -1   17.09    1.28
   4   0  -1   41.42    1.63
   4   0  -1   40.85    1.63
   3   0  -1   11.99    0.75
   2   0  -1  769.84   16.46
   1   0  -1   61.10    1.50
   0   0   1    9.23    0.46
   1   0   1  258.63    5.70
   1   0   1  262.16    6.26
   2   0   1  365.32    8.73
   2   0   1  356.20    7.97
   3   0   1   12.62    0.83
   3   0   1   11.47    1.07
   4   0   1    0.62    0.75
   4   0   1    0.91    0.52
   5   0   1   35.57    2.14
   5   0   1   36.48    1.81
   6   0   1    1.38    0.75
   6  -1  -1    2.48    0.82
   6   1  -1    3.11    0.83
   5  -1  -1  178.74    4.84
   5   1  -1  177.79    4.84
   4  -1  -1  130.89    3.53
   4   1  -1  127.32    3.52
   3  -1  -1   12.78    0.76
   3  -1  -1   11.99    0.75
   3   1  -1   12.24    0.77
   2  -1  -1  108.90    2.66
   2   1  -1  108.82    2.67
   1  -1  -1  415.25    8.75
   1   1  -1  400.86    8.72
   0  -1   1   89.08    2.23
   0   1   1   90.09    2.25
   1  -1   1  177.59    3.84
   1  -1   1  176.32    4.31
   1   1   1  166.32    3.88
   1   1   1  168.31    4.28
   2  -1   1    5.45    0.48
   2  -1   1    7.84    0.83
   2   1   1    5.51    0.53
   2   1   1    8.03    0.81
   3  -1   1   24.21    1.10
   3  -1   1   24.25    1.39
   3   1   1   25.77    1.13
   3   1   1   25.07    1.40
   4  -1   1  258.88    6.30
   4  -1   1  257.84    7.05
   4   1   1  261.34    6.38
   4   1   1  254.80    6.96
   5  -1   1   37.88    1.81
   5  -1   1   38.22    2.22
   5   1   1   33.40    1.79
   5   1   1   37.13    2.19
   6  -1   1    1.13    0.71
   6   1   1    1.30    0.78
   6  -2  -1    0.36    0.63
   6   2  -1   -0.40    0.60
   5  -2  -1    7.11    0.91
   5   2  -1    4.51    0.83
   4  -2  -1   56.33    2.03
   4  -2  -1   57.48    1.99
   4   2  -1   57.61    2.01
   3  -2  -1    1.06    0.39
   3  -2  -1    1.90    0.40
   3   2  -1    2.28    0.41
   2  -2  -1  343.59    7.72
   2   2  -1  359.85    7.75
   1  -2  -1  267.83    5.85
   1   2  -1  269.29    5.81
   0  -2   1   45.74    1.25
   0   2  -1   43.11    1.24
   1  -2   1  568.58   12.04
   1  -2   1  560.71   13.13
   1   2   1  570.42   12.16
  -1   2  -1  558.43   13.30
   1   2   1  576.09   13.11
   2  -2   1  260.37    5.81
   2  -2   1  260.81    6.49
   2   2   1  262.28    6.44
   2   2   1  251.11    5.89
   3  -2   1   39.09    1.77
   3  -2   1   39.60    1.41
   3   2   1   37.97    1.45
   3   2   1   38.68    1.70
   4  -2   1    9.30    0.90
   4  -2   1   11.55    1.32
   4   2   1   10.85    1.03
   4   2   1   11.33    1.29
   5  -2   1   24.91    1.50
   5  -2   1   25.59    1.92
   5   2   1   26.20    1.86
   5   2   1   27.51    1.62
   6  -2   1   13.08    1.36
   6   2   1   15.16    1.55
   6  -3  -1    0.49    0.64
   6   3  -1    0.77    0.68
   5  -3  -1   70.43    2.50
   5   3  -1   71.20    2.57
   4  -3  -1  119.47    3.30
   4   3  -1  117.28    3.31
   3  -3  -1   12.14    0.76
   3  -3  -1   12.87    0.80
   3   3  -1   12.13    0.78
   2  -3  -1  130.14    3.08
   2  -3  -1  130.16    3.22
   2   3  -1  123.65    3.08
   1  -3  -1  376.51    8.11
   1  -3  -1  374.78    8.61
   1   3  -1  369.12    8.06
   1   3  -1  383.42    8.93
   0  -3   1    3.09    0.33
   0  -3  -1    2.47    0.28
   1  -3   1  387.29    8.75
   1  -3   1  378.89    7.90
   1   3   1  366.62    8.71
   1   3   1  356.57    8.06
  -1   3  -1  356.58    8.72
   2  -3   1   16.77    0.99
   2  -3   1   15.54    0.69
   2   3   1   15.98    0.79
   2   3   1   16.26    0.97
   3  -3   1   15.94    0.88
   3  -3   1   16.39    1.25
   3   3   1   16.68    0.96
   3   3   1   16.89    1.18
   4  -3   1  187.95    4.83
   4  -3   1  191.51    5.53
   4   3   1  191.71    4.98
   4   3   1  187.54    5.42
   5  -3   1   15.87    1.23
   5  -3   1   15.15    1.63
   5   3   1   17.80    1.58
   5   3   1   15.41    1.35
   6  -3   1    2.23    0.76
   6   3   1    2.21    0.85
   6  -4  -1    0.42    0.58
   6   4  -1    0.12    0.65
   5  -4  -1    8.19    0.94
   5   4  -1    7.18    0.96
   4  -4  -1   40.27    1.62
   4  -4  -1   43.57    1.79
   4   4  -1   42.34    1.65
   3  -4  -1   19.75    0.93
   3  -4  -1   19.08    0.98
   3   4  -1   20.92    0.99
   3   4  -1   17.86    0.79
   2  -4  -1  410.88    9.18
   2  -4  -1  417.33    9.82
   2   4  -1  426.63   10.05
   2   4  -1  429.80    9.23
   1  -4  -1   55.72    1.52
   1  -4  -1   57.39    1.46
   1   4  -1   55.63    1.59
   1   4  -1   54.98    1.40
   0  -4   1   32.91    1.06
   0   4  -1   33.81    1.06
   1  -4   1  524.14   12.31
   1  -4   1  524.21   11.19
  -1   4  -1  534.14   12.42
   2  -4   1  322.13    7.16
   2  -4   1  328.49    8.03
   2   4   1  327.82    7.34
   2   4   1  322.15    7.94
   3  -4   1    7.82    0.66
   3  -4   1   12.04    1.25
   3   4   1    9.30    1.01
   3   4   1    7.46    0.73
   4  -4   1   11.55    1.36
   4  -4   1    7.43    0.79
   4   4   1    9.15    1.18
   4   4   1    8.80    0.92
   5  -4   1    9.36    1.39
   5  -4   1   11.67    1.09
   5   4   1   14.29    1.28
   6  -4   1   19.62    1.54
   6   4   1   19.73    1.65
   6  -5  -1    0.07    0.55
   6   5  -1    0.01    0.64
   5  -5  -1   80.02    2.66
   5   5  -1   76.15    2.72
   4  -5  -1  158.52    4.12
   4   5  -1  158.87    4.21
   3  -5  -1   13.74    0.89
   3  -5  -1   12.47    0.78
   3   5  -1   12.84    0.82
   3   5  -1   12.40    0.66
   2  -5  -1   79.84    2.08
   2  -5  -1   79.36    2.22
   2   5  -1   82.40    2.11
   2   5  -1   77.86    2.21
   1  -5  -1  272.46    6.50
  -1  -5   1  268.33    6.43
   1  -5  -1  277.52    6.08
   1   5  -1  285.96    6.72
   1   5  -1  279.09    6.02
   0  -5   1   35.75    1.16
   0  -5  -1   36.17    1.12
   0   5  -1   37.60    1.16
   1  -5   1  247.40    6.05
  -1  -5  -1  249.79    5.89
  -1   5  -1  238.78    5.97
   2  -5   1   14.20    0.65
   2  -5   1   16.15    0.99
   2   5   1   15.44    0.81
   3  -5   1   22.15    1.38
   3  -5   1   21.48    0.99
   3   5   1   21.96    1.11
   3   5   1   22.83    1.31
   4  -5   1  181.07    4.63
   4  -5   1  186.69    5.50
   4   5   1  179.40    4.82
   5  -5   1   25.76    1.97
   5  -5   1   25.33    1.44
   5   5   1   25.48    1.64
   6   5   1    2.16    0.84
   6  -6  -1    1.60    0.66
   6   6  -1    0.48    0.68
   5  -6  -1    7.89    0.93
   5   6  -1    6.43    0.91
   4  -6  -1   44.22    1.88
  -4  -6   1   40.72    1.43
   4  -6  -1   46.60    1.69
   4   6  -1   44.55    1.75
  -3  -6   1   12.26    0.61
   3  -6  -1   15.04    0.82
   3  -6  -1   13.80    0.94
   3   6  -1   13.66    0.69
   3   6  -1   13.11    0.83
  -2  -6   1  464.09   11.20
   2  -6  -1  479.21   10.61
   2  -6  -1  492.68   11.42
   2   6  -1  496.01   11.65
   2   6  -1  508.91   10.66
  -1  -6   1   87.14    2.28
   1  -6  -1   88.26    2.16
   1  -6  -1   90.02    2.36
   1   6  -1   86.55    2.10
   1   6  -1   89.82    2.42
   0  -6   1   46.14    1.39
   0  -6  -1   44.39    1.34
   0   6  -1   41.69    1.36
  -1  -6  -1  731.72   16.85
   1  -6   1  733.31   17.02
  -1   6  -1  738.66   17.29
  -2  -6  -1  173.97    4.43
   2  -6   1  170.81    3.96
   2  -6   1  174.98    4.68
   2   6   1  175.46    4.23
   3  -6   1   16.70    1.26
   3  -6   1   16.19    0.85
   3   6   1   15.45    0.97
   4  -6   1    0.45    0.43
   4  -6   1   -0.40    0.68
   4   6   1    0.70    0.49
   5  -6   1   28.37    1.49
  -5  -6  -1   27.60    1.52
   5  -6   1   29.51    2.08
   5   6   1   30.26    1.77
   6   6   1    7.69    1.20
   6  -7  -1    2.83    0.74
   6   7  -1    2.45    0.79
   5  -7  -1  108.09    3.34
   5   7  -1  113.15    3.51
   4  -7  -1  106.72    2.98
   4  -7  -1  104.49    3.32
  -4  -7   1   98.35    2.84
   4   7  -1  107.82    3.10
  -3  -7   1   23.52    0.92
   3  -7  -1   25.33    1.07
   3  -7  -1   26.98    1.28
   3   7  -1   24.74    0.99
   3   7  -1   25.13    1.13
   2  -7  -1   67.24    2.03
  -2  -7   1   65.23    1.83
   2  -7  -1   65.67    1.83
   2   7  -1   66.09    1.96
   2   7  -1   70.29    1.87
  -1  -7   1  416.28    9.85
   1  -7  -1  431.05    9.94
   1  -7  -1  414.85    9.19
   1   7  -1  429.11    9.14
   1   7  -1  430.49   10.19
   0  -7   1   65.33    1.92
   0  -7  -1   64.79    1.85
   0   7  -1   66.26    1.92
   1  -7   1  356.03    8.57
  -1  -7  -1  342.54    8.38
  -1   7  -1  365.17    8.62
   2  -7   1   15.90    1.04
  -2  -7  -1   14.16    0.79
   2  -7   1   14.24    0.62
   2   7   1   13.81    0.81
   3  -7   1   11.64    0.73
  -3  -7  -1   10.28    0.80
   3  -7   1   12.51    1.32
   3   7   1   11.75    0.88
  -4  -7  -1  112.79    3.44
   4  -7   1  121.88    4.03
   4   7   1  118.92    3.52
   5  -7   1   35.81    2.32
  -5  -7  -1   34.55    1.71
   5   7   1   38.45    1.97
   6   7   1    1.13    0.81
   6  -8  -1    3.89    0.82
   6   8  -1    4.95    0.94
   5  -8  -1    3.28    0.70
   5   8  -1    5.29    0.89
   4  -8  -1   60.34    1.99
  -4  -8   1   53.77    1.85
   4  -8  -1   57.53    2.23
   4   8  -1   53.64    2.03
   3  -8  -1   11.04    0.93
   3  -8  -1   11.10    0.75
  -3  -8   1   10.89    0.63
   3   8  -1   12.45    0.68
   3   8  -1   13.65    0.86
   2  -8  -1  313.05    7.02
  -2  -8   1  308.38    7.43
   2  -8  -1  320.88    7.66
   2   8  -1  313.89    7.71
   2   8  -1  315.19    7.05
  -1  -8   1   80.57    2.18
   1  -8  -1   80.71    2.26
   1   8  -1   79.75    2.27
   1   8  -1   74.61    1.93
   0  -8   1   56.94    1.78
   0  -8  -1   58.26    1.74
   0   8  -1   58.80    1.78
  -1  -8  -1  341.62    8.20
   1  -8   1  347.15    8.40
   2  -8   1  154.96    3.63
  -2  -8  -1  159.32    4.14
   2  -8   1  162.79    4.46
   2   8   1  158.69    3.99
   3  -8   1   15.67    0.81
   3  -8   1   16.21    1.30
  -3  -8  -1   15.13    0.92
   3   8   1   15.12    1.00
   4  -8   1   17.50    1.04
   4  -8   1   17.00    1.53
  -4  -8  -1   17.91    1.11
   4   8   1   21.64    1.35
   5  -8   1   23.52    2.00
  -5  -8  -1   25.21    1.43
   5   8   1   25.37    1.69
   6  -9  -1    3.88    0.82
   6   9  -1    4.19    0.93
   5   9  -1  103.97    3.34
   4  -9  -1   59.75    2.00
   4  -9  -1   56.86    2.28
   4   9  -1   57.01    2.09
   3  -9  -1   10.57    0.73
   3  -9  -1   10.45    0.92
  -3  -9   1   10.07    0.62
   3   9  -1    8.40    0.76
   3   9  -1    7.90    0.59
  -2  -9   1   82.99    2.36
   2  -9  -1   83.52    2.25
   2  -9  -1   83.92    2.57
   2   9  -1   91.04    2.30
   2   9  -1   87.39    2.47
  -1  -9   1  307.24    7.52
   1  -9  -1  316.81    7.61
   1   9  -1  314.61    6.90
   1   9  -1  321.24    7.76
   0  -9  -1   27.46    1.08
   0  -9   1   25.74    1.10
   0   9  -1   27.63    1.10
   1  -9   1   77.06    2.45
  -1  -9  -1   78.67    2.27
  -2  -9  -1   17.37    0.91
   2  -9   1   15.99    1.13
   2   9   1   17.78    0.94
   3  -9   1   32.51    1.73
  -3  -9  -1   31.46    1.33
   3   9   1   27.81    1.36
  -4  -9  -1  201.56    5.40
   4   9   1  201.47    5.36
  -5  -9  -1   28.98    1.52
   5  -9   1   25.88    2.13
   5   9   1   35.33    1.90
   6  10  -1    2.77    0.85
   5 -10  -1    4.95    0.78
   5  10  -1    6.76    0.95
   4 -10  -1   23.33    1.20
   4 -10  -1   22.58    1.48
   4  10  -1   25.63    1.35
  -3 -10   1    4.87    0.50
   3 -10  -1    5.26    0.58
   3 -10  -1    6.91    0.88
   3  10  -1    5.40    0.52
   3  10  -1    6.27    0.66
  -2 -10   1  203.73    5.11
   2 -10  -1  208.66    5.35
   2 -10  -1  206.48    4.78
   2  10  -1  206.33    4.83
   2  10  -1  200.83    5.27
  -1 -10   1   98.03    2.77
   1 -10  -1  100.89    2.86
   1  10  -1  102.17    2.85
   1  10  -1  100.59    2.45
   0 -10  -1  101.31    2.84
   0 -10   1  101.88    2.89
   0  10  -1  103.35    2.92
   1 -10   1  214.85    5.64
  -1 -10  -1  219.56    5.47
   2 -10   1  116.94    3.60
  -2 -10  -1  119.68    3.31
   3 -10   1   21.03    1.47
  -3 -10  -1   18.74    1.05
   3  10   1   19.16    1.14
   4 -10   1    0.94    0.88
  -4 -10  -1    0.36    0.46
   4  10   1    0.64    0.54
   5 -10   1   24.87    2.07
  -5 -10  -1   27.69    1.51
   5  10   1   30.19    1.84
   6  11  -1    4.00    0.92
   5  11  -1  114.83    3.65
   4 -11  -1   56.94    2.38
   4 -11  -1   59.63    2.00
   4  11  -1   55.19    2.11
  -3 -11   1    3.71    0.51
   3 -11  -1    3.94    0.51
   3 -11  -1    3.88    0.77
   3  11  -1    4.28    0.48
   3  11  -1    5.73    0.67
   2 -11  -1   65.85    2.23
  -2 -11   1   65.24    2.02
   2 -11  -1   65.28    1.86
   2  11  -1   65.24    1.90
   2  11  -1   66.64    2.08
  -1 -11   1  312.28    7.56
   1 -11  -1  316.95    7.64
   1  11  -1  301.50    6.85
   1  11  -1  310.17    7.74
   0 -11   1   47.98    1.74
   0 -11  -1   52.25    1.74
   0  11  -1   52.18    1.76
   1 -11   1  154.44    4.29
  -1 -11  -1  155.68    4.10
   2 -11   1    7.06    0.94
  -2 -11  -1    6.01    0.66
  -3 -11  -1    6.67    0.79
   3 -11   1    6.37    1.04
   3  11   1    4.48    0.65
  -4 -11  -1  114.70    3.49
   4 -11   1  110.33    4.07
   4  11   1  123.17    3.65
  -5 -11  -1   28.20    1.54
   5 -11   1   23.73    2.05
   5  11   1   31.22    1.86
   6  12  -1    9.53    1.25
   5  12  -1   12.11    1.20
   4 -12  -1   31.22    1.38
   4 -12  -1   27.79    1.70
   4  12  -1   31.46    1.52
   3 -12  -1   15.32    0.87
   3 -12  -1   14.12    1.14
  -3 -12   1   14.49    0.84
   3  12  -1   14.38    0.82
   3  12  -1   13.73    0.91
   2 -12  -1  264.92    6.07
  -2 -12   1  265.70    6.60
   2 -12  -1  273.96    6.84
   2  12  -1  261.42    6.12
   2  12  -1  261.48    6.74
   1 -12  -1   70.78    2.26
  -1 -12   1   69.57    2.18
   1  12  -1   68.15    2.21
   0 -12  -1   41.70    1.56
   0 -12   1   42.72    1.61
   0  12  -1   41.34    1.57
   1 -12   1  253.80    6.61
  -1 -12  -1  257.61    6.42
  -2 -12  -1  125.40    3.55
   2 -12   1  125.14    3.87
  -3 -12  -1   16.39    1.04
   3 -12   1   19.36    1.49
   3  12   1   15.94    1.11
  -4 -12  -1    0.05    0.47
   4 -12   1    0.43    0.82
   4  12   1    0.47    0.52
  -5 -12  -1   22.24    1.41
   5 -12   1   18.17    1.87
   5  12   1   23.21    1.70
   5  13  -1   79.86    2.87
   4 -13  -1   91.35    3.34
   4 -13  -1   95.12    2.79
   4  13  -1   95.61    2.98
  -3 -13   1   32.93    1.35
   3 -13  -1   30.62    1.64
   3 -13  -1   32.81    1.28
   3  13  -1   32.48    1.37
   3  13  -1   32.33    1.34
   2 -13  -1   46.87    1.48
   2 -13  -1   49.03    1.90
  -2 -13   1   45.93    1.67
   2  13  -1   43.62    1.50
   2  13  -1   43.26    1.65
   1 -13  -1  131.35    3.73
  -1 -13   1  131.34    3.65
   1  13  -1  130.69    3.71
   0 -13   1   26.57    1.28
   0 -13  -1   27.08    1.26
   0  13  -1   27.51    1.26
   1 -13   1  106.08    3.30
  -1 -13  -1  107.90    3.13
   2 -13   1   35.97    1.79
  -2 -13  -1   36.09    1.52
   3 -13   1   15.15    1.41
  -3 -13  -1   13.90    1.02
  -4 -13  -1  150.91    4.42
   4  13   1  152.68    4.43
  -5 -13  -1   13.33    1.20
   5 -13   1    8.58    1.48
   5  13   1   14.64    1.41
   5  14  -1   10.06    1.12
   4 -14  -1   29.85    1.36
   4 -14  -1   30.95    1.85
   4  14  -1   31.16    1.53
  -3 -14   1   12.88    0.87
   3 -14  -1   12.80    0.82
   3 -14  -1   13.24    1.18
   3  14  -1   11.95    0.81
   3  14  -1   13.40    0.91
  -2 -14   1  189.04    5.04
   2 -14  -1  190.90    5.25
   2 -14  -1  190.38    4.55
   2  14  -1  193.04    5.14
   2  14  -1  186.70    4.61
  -1 -14   1   76.84    2.49
   1 -14  -1   74.86    2.55
   1  14  -1   81.38    2.53
   0 -14   1   62.24    2.18
   0 -14  -1   61.07    2.15
  -1 -14  -1  191.68    5.15
   1 -14   1  194.96    5.36
  -2 -14  -1  166.15    4.60
   2 -14   1  169.47    4.98
  -3 -14  -1   13.81    1.04
   3 -14   1   15.28    1.44
  -4 -14  -1    1.37    0.58
   4 -14   1    0.12    0.85
   5 -14   1    7.13    1.40
  -5 -14  -1   10.17    1.10
   5  15  -1   20.61    1.46
   4  15  -1   61.92    2.28
   3 -15  -1   53.47    1.75
   3 -15  -1   54.50    2.28
  -3 -15   1   53.64    1.95
   3  15  -1   52.32    1.93
   3  15  -1   50.91    1.86
   2 -15  -1   29.05    1.16
  -2 -15   1   29.52    1.37
   2 -15  -1   29.05    1.55
   2  15  -1   29.88    1.20
   2  15  -1   30.01    1.34
   1 -15  -1  100.25    3.15
  -1 -15   1   98.76    3.06
   1  15  -1  101.17    3.10
   0 -15  -1    0.79    0.47
   0 -15   1    1.22    0.49
   1 -15   1   99.76    3.32
  -1 -15  -1  105.32    3.16
   2 -15   1   35.07    1.86
  -2 -15  -1   36.21    1.60
  -3 -15  -1   13.07    1.04
   3 -15   1   13.38    1.43
   4 -15   1   71.02    3.22
  -4 -15  -1   76.39    2.71
   5 -15   1    3.24    1.19
   5  16  -1    7.14    0.97
   4 -16  -1   28.30    1.87
   4  16  -1   33.44    1.60
  -3 -16   1    8.57    0.80
   3 -16  -1    9.93    0.75
   3 -16  -1   11.43    1.35
   3  16  -1    7.24    0.71
   3  16  -1    9.18    0.89
  -2 -16   1  137.29    3.99
   2 -16  -1  140.00    3.51
   2 -16  -1  140.06    4.22
   2  16  -1  134.79    3.99
  -1 -16   1   17.17    1.08
   1 -16  -1   15.81    1.14
   0 -16   1   31.36    1.55
   0 -16  -1   31.01    1.53
   1 -16   1  169.28    4.98
  -1 -16  -1  173.11    4.79
  -2 -16  -1  118.43    3.59
   2 -16   1  117.62    3.95
  -3 -16  -1   27.97    1.50
   3 -16   1   30.94    1.98
  -4 -16  -1    0.78    0.56
   4 -16   1    0.72    0.94
   5 -16   1    7.62    1.50
   5  17  -1   46.48    2.17
   4  17  -1   61.89    2.33
  -3 -17   1   33.25    1.56
   3 -17  -1   33.31    1.86
   3  17  -1   31.84    1.45
   3  17  -1   34.04    1.52
  -2 -17   1   33.14    1.54
   2 -17  -1   30.71    1.72
   2 -17  -1   31.86    1.25
   2  17  -1   33.59    1.51
  -1 -17   1   59.97    2.22
   1 -17  -1   58.63    2.29
   0 -17   1   12.10    1.07
   0 -17  -1   12.70    1.07
  -1 -17  -1   38.51    1.73
   1 -17   1   36.31    1.85
  -2 -17  -1   33.09    1.60
   2 -17   1   29.26    1.82
  -3 -17  -1   30.51    1.60
   3 -17   1   31.25    2.04
  -4 -17  -1   79.35    2.83
   4 -17   1   69.11    3.30
   5 -17   1   18.86    2.03
   5  18  -1   11.68    1.25
   4 -18  -1   15.84    1.54
   4  18  -1   17.99    1.26
  -3 -18   1    6.43    0.93
   3 -18  -1    7.20    1.17
   2 -18  -1  204.68    4.93
  -2 -18   1  192.94    5.50
   2 -18  -1  200.42    5.77
  -1 -18   1   16.85    1.17
   1 -18  -1   18.49    1.29
   0 -18  -1   42.69    1.93
   0 -18   1   45.44    2.01
   1 -18   1   92.00    3.30
  -1 -18  -1   94.75    3.14
  -2 -18  -1   84.47    2.96
   2 -18   1   89.96    3.37
   3 -18   1   18.91    1.72
  -3 -18  -1   19.48    1.31
   4 -18   1    1.06    0.97
  -4 -18  -1    0.08    0.56
   5  19  -1   70.12    2.77
   4 -19  -1   28.20    1.98
   4  19  -1   30.88    1.59
  -3 -19   1   38.65    1.81
   3 -19  -1   39.53    2.12
  -2 -19   1   27.42    1.49
   2 -19  -1   27.18    1.70
   1 -19  -1  100.13    3.41
  -1 -19   1   99.69    3.31
   0 -19   1   21.77    1.46
   0 -19  -1   20.73    1.36
  -1 -19  -1   44.52    2.01
   1 -19   1   44.15    2.16
  -2 -19  -1   19.93    1.33
   2 -19   1   19.84    1.63
  -3 -19  -1   20.44    1.40
   3 -19   1   21.23    1.82
  -4 -19  -1   65.57    2.63
   4 -19   1   56.59    3.07
   4 -20  -1   16.09    1.64
   3 -20  -1    7.51    1.24
  -3 -20   1    8.56    1.09
   2 -20  -1   84.41    3.23
  -2 -20   1   82.87    2.97
  -1 -20   1   56.30    2.33
   1 -20  -1   57.83    2.44
   0 -20  -1   53.67    2.32
   0 -20   1   56.87    2.43
   1 -20   1   93.43    3.43
  -1 -20  -1   89.43    3.21
  -2 -20  -1   39.89    1.94
   2 -20   1   37.36    2.20
  -3 -20  -1   25.76    1.59
   3 -20   1   29.25    2.11
  -4 -20  -1    0.35    0.62
   4 -20   1    0.87    1.03
   4 -21  -1   15.49    1.65
  -3 -21   1   24.16    1.50
   3 -21  -1   23.38    1.78
   2 -21  -1   13.29    1.39
  -2 -21   1   12.24    1.14
  -1 -21   1   89.62    3.17
   1 -21  -1   87.47    3.24
   0 -21  -1   14.24    1.25
   0 -21   1   14.16    1.34
   1 -21   1   33.56    1.97
  -1 -21  -1   32.80    1.83
   2 -21   1   24.77    1.88
  -2 -21  -1   21.13    1.46
  -3 -21  -1   15.98    1.30
   3 -21   1   11.77    1.54
  -4 -21  -1   65.39    2.68
   4 -21   1   53.16    3.18
   4 -22  -1    2.89    1.08
   3 -22  -1    0.78    0.82
  -3 -22   1    2.16    0.69
   2 -22  -1   51.28    2.52
  -2 -22   1   48.69    2.24
  -1 -22   1   32.67    1.81
   1 -22  -1   30.75    1.83
   0 -22  -1   49.51    2.33
   0 -22   1   50.49    2.43
  -1 -22  -1   54.81    2.45
   1 -22   1   52.94    2.58
  -2 -22  -1   31.12    1.79
   2 -22   1   28.47    2.07
  -3 -22  -1   12.85    1.26
   3 -22   1   12.05    1.61
  -4 -22  -1    1.10    0.66
   4 -23  -1    9.90    1.43
  -3 -23   1   22.81    1.58
   3 -23  -1   19.44    1.77
  -2 -23   1   26.81    1.67
   2 -23  -1   23.43    1.83
   1 -23  -1   63.31    2.78
  -1 -23   1   64.07    2.71
   0 -23   1   14.12    1.63
   0 -23  -1   11.09    1.34
   1 -23   1   45.69    2.42
  -1 -23  -1   44.01    2.24
  -2 -23  -1   17.45    1.46
   2 -23   1   19.51    1.82
   3 -23   1    5.52    1.31
  -3 -23  -1   10.67    1.28
   3 -24  -1    5.25    1.19
   2 -24  -1   63.02    2.98
  -2 -24   1   63.60    2.74
   1 -24  -1   25.67    1.83
  -1 -24   1   28.40    1.83
   0 -24   1   51.55    2.58
   0 -24  -1   49.10    2.44
   1 -24   1   76.34    3.31
  -1 -24  -1   78.87    3.16
  -2 -24  -1   26.62    1.79
   2 -24   1   22.74    1.99
  -3 -24  -1   14.64    1.38
   3 -25  -1   40.95    2.56
  -2 -25   1   13.28    1.36
   2 -25  -1   11.96    1.63
  -1 -25   1   36.90    2.15
   1 -25  -1   35.06    2.16
   0 -25   1   11.64    1.53
   0 -25  -1   12.30    1.58
   1 -25   1   38.44    2.33
  -1 -25  -1   36.96    2.15
  -2 -25  -1   30.52    1.99
   2 -25   1   32.95    2.34
  -2 -26   1   56.84    2.68
   2 -26  -1   54.46    2.88
   1 -26  -1    9.69    1.46
  -1 -26   1   13.41    1.59
   0 -26   1   49.86    2.70
   0 -26  -1   55.68    2.71
   1 -26   1   33.03    2.25
  -1 -26  -1   36.00    2.16
  -2 -26  -1   45.34    2.48
  -2 -27   1   19.39    1.70
   1 -27  -1   20.57    1.85
  -1 -27   1   21.19    1.86
   0 -27   1    2.49    1.04
   0 -27  -1    3.90    1.06
  -1 -27  -1   13.16    1.71
   1 -27   1   16.62    2.10
   6   0  -2   74.55    2.86
   5   0  -2    2.80    0.71
   4   0  -2   34.73    1.47
   3   0  -2   -0.14    0.33
   2   0  -2   15.44    0.73
   1   0  -2  845.00   18.06
   0   0   2 1000.00   22.79
  -1   0  -2    3.85    0.35
   1   0   2    4.74    0.63
   2   0   2   20.31    0.92
   2   0   2   18.92    1.19
   3   0   2  164.28    4.17
   3   0   2  160.78    4.79
   4   0   2    6.32    0.83
   4   0   2    7.26    1.22
   5   0   2   41.04    2.55
   5   0   2   43.79    2.06
   6   0   2    1.10    0.78
   6  -1  -2   32.83    1.88
   6   1  -2   34.66    1.89
   5  -1  -2    1.87    0.66
   5   1  -2    2.50    0.70
   4  -1  -2   35.65    1.50
   4   1  -2   38.49    1.56
   3  -1  -2  234.96    5.42
   3   1  -2  223.10    5.39
   2  -1  -2   21.38    0.86
   2   1  -2   19.57    0.83
   1  -1  -2   26.86    0.91
   1   1  -2   25.95    0.87
   0  -1   2  280.97    6.74
   0   1   2  283.66    6.75
   1  -1   2    0.50    0.42
   1   1   2    0.39    0.41
  -1   1  -2   -0.01    0.17
   2  -1   2  153.72    4.27
   2  -1   2  145.76    3.67
   2   1   2  151.94    3.75
   2   1   2  154.54    4.27
   3  -1   2   37.79    1.90
   3  -1   2   37.27    1.46
   3   1   2   37.05    1.87
   3   1   2   37.58    1.50
   4  -1   2    7.87    1.27
   4  -1   2    5.12    0.73
   4   1   2    6.93    1.22
   4   1   2    6.37    0.85
   5  -1   2   89.90    3.15
   5   1   2   95.92    3.26
   6  -1   2   38.97    2.98
   6   1   2   42.10    2.27
   6  -2  -2   65.50    2.64
   6   2  -2   61.29    2.58
   5  -2  -2    4.16    0.78
   5   2  -2    3.62    0.77
   4  -2  -2   51.79    1.89
   4   2  -2   54.48    1.93
   3  -2  -2   22.46    1.06
   3   2  -2   22.87    1.05
   2  -2  -2   18.72    0.80
   2   2  -2   17.15    0.77
   1  -2  -2  545.86   11.60
   1   2  -2  529.64   11.51
   0  -2   2  363.47    8.47
   0   2   2  353.76    8.47
   1  -2   2   28.41    1.27
  -1   2  -2   27.87    0.97
   1   2   2   30.27    1.26
   2  -2   2   50.71    1.58
   2  -2   2   55.59    2.08
   2   2   2   54.00    2.01
   3  -2   2  186.16    5.27
   3  -2   2  176.59    4.49
   3   2   2  181.31    4.62
   3   2   2  181.88    5.17
   4  -2   2   -0.30    0.41
   4  -2   2    0.14    0.79
   4   2   2    0.29    0.49
   4   2   2   -0.35    0.74
   5  -2   2   44.09    2.02
   5  -2   2   43.76    2.64
   5   2   2   47.89    2.17
   5   2   2   40.46    2.50
   6  -2   2   -0.50    1.27
   6   2   2    1.17    0.79
   6   2   2    1.04    1.44
   6  -3  -2   33.16    1.88
   6   3  -2   33.76    1.93
   5  -3  -2    0.80    0.54
   5   3  -2    1.63    0.64
   4  -3  -2   55.59    1.96
   4   3  -2   55.00    1.97
   3  -3  -2  351.97    7.94
   3   3  -2  345.74    7.90
   2  -3  -2   45.20    1.42
   2   3  -2   46.23    1.37
   1  -3  -2   22.07    0.74
   1  -3  -2   21.90    0.83
   1   3  -2   22.14    0.74
   0  -3   2  123.09    3.27
   0   3  -2  129.07    3.31
   1  -3   2    6.38    0.73
   1   3   2    4.14    0.62
   2  -3   2  246.54    6.33
   2  -3   2  225.60    5.43
   2   3   2  243.80    6.23
   3  -3   2   33.74    1.35
   3  -3   2   35.77    1.85
   3   3   2   31.98    1.77
   3   3   2   35.71    1.51
   4  -3   2    2.80    0.99
   4  -3   2    2.47    0.57
   4   3   2    1.38    0.60
   4   3   2    2.25    0.91
   5  -3   2   47.25    2.07
   5  -3   2   42.14    2.66
   5   3   2   49.06    2.26
   5   3   2   46.84    2.61
   6  -3   2   25.84    2.51
   6   3   2   30.17    2.01
   6  -4  -2   45.54    2.17
   6   4  -2   45.85    2.24
   5  -4  -2   21.06    1.34
   5   4  -2   20.22    1.37
   4  -4  -2   63.74    2.10
   4   4  -2   57.67    2.06
   3  -4  -2    5.03    0.58
   3   4  -2    5.54    0.59
   2  -4  -2   15.82    0.77
   2   4  -2   15.78    0.73
   1  -4  -2  283.18    6.76
   1  -4  -2  285.93    6.45
   1   4  -2  308.42    7.15
   1   4  -2  281.41    6.30
   0  -4   2  365.76    9.11
   0  -4  -2  398.06    9.06
   0   4  -2  397.01    9.34
   1  -4   2   12.34    0.90
  -1   4  -2   12.97    0.64
   1   4   2   13.39    0.88
   2  -4   2   63.71    2.28
   2   4   2   56.98    2.16
   3  -4   2  130.26    4.09
   3   4   2  125.62    3.95
   3   4   2  123.51    3.49
   4  -4   2    3.48    0.61
   4  -4   2    4.18    1.10
   4   4   2    3.58    0.71
   4   4   2    4.22    1.03
   5  -4   2    9.36    1.58
   5   4   2   17.03    1.86
   5   4   2   13.73    1.37
   6  -4   2    1.38    1.37
   6  -5  -2   22.76    1.62
   6   5  -2   24.26    1.70
   5  -5  -2    1.46    0.60
   5   5  -2    2.99    0.74
   4  -5  -2  105.92    3.01
   4   5  -2   98.61    2.99
   4   5  -2  104.22    3.01
   3  -5  -2  355.81    8.01
   3   5  -2  359.84    8.00
   3   5  -2  337.00    8.65
   2  -5  -2    1.58    0.33
   2   5  -2    1.93    0.35
   2   5  -2    2.02    0.33
   1  -5  -2   18.51    0.73
   1   5  -2   18.64    0.86
   1   5  -2   16.75    0.62
   0  -5   2   90.21    2.58
   0  -5  -2   95.40    2.50
   0   5  -2   92.91    2.59
   1  -5   2   11.58    0.88
  -1   5  -2   11.89    0.65
   2  -5   2  396.55    9.73
   2   5   2  381.60    9.60
   3  -5   2   35.00    1.89
   3   5   2   35.16    1.54
   3   5   2   34.02    1.77
   4  -5   2    1.57    0.95
   4  -5   2    1.67    0.47
   4   5   2    2.56    0.69
   4   5   2    2.05    0.90
   5  -5   2   30.41    2.35
   5   5   2   39.67    2.04
  -6  -5  -2   54.24    2.69
   6  -6  -2   36.02    1.95
   6   6  -2   39.29    2.07
   5  -6  -2    3.37    0.69
   5   6  -2    3.47    0.78
   4  -6  -2  114.69    3.27
   4   6  -2  114.27    3.34
   4   6  -2  120.83    3.33
   3  -6  -2    0.71    0.40
   3  -6  -2    0.50    0.36
   3   6  -2    0.93    0.40
   3   6  -2    0.66    0.30
   2  -6  -2    7.28    0.59
   2  -6  -2    7.16    0.52
   2   6  -2    6.00    0.52
   2   6  -2    6.97    0.59
   1  -6  -2  157.26    3.88
  -1  -6   2  154.66    3.85
   1   6  -2  161.18    4.12
   1   6  -2  149.31    3.49
   0  -6   2  238.89    6.04
   0  -6  -2  247.00    5.94
   0   6  -2  248.82    6.14
   1  -6   2    5.70    0.73
  -1  -6  -2    6.00    0.60
  -1   6  -2    5.74    0.51
   2  -6   2   62.74    2.37
   3  -6   2  219.15    6.27
   3   6   2  223.83    5.60
   4  -6   2   -0.13    0.86
   4   6   2    1.03    0.56
  -5  -6  -2   18.40    1.37
   5  -6   2   17.91    1.92
   5   6   2   20.42    1.62
   6  -7  -2   23.55    1.62
   6   7  -2   24.75    1.72
   5  -7  -2    7.22    0.92
   5   7  -2    7.77    0.97
   4  -7  -2   82.11    2.47
   4   7  -2   78.70    2.48
   4   7  -2   72.82    2.41
   3  -7  -2  312.40    7.74
   3  -7  -2  321.46    7.35
   3   7  -2  317.38    7.98
   3   7  -2  322.65    7.33
   2  -7  -2   15.95    0.81
   2  -7  -2   17.09    0.84
   2   7  -2   18.57    0.79
   2   7  -2   17.48    0.90
  -1  -7   2   22.91    0.90
   1  -7  -2   23.56    0.93
   1   7  -2   22.84    0.74
   1   7  -2   23.96    1.04
   0  -7  -2  163.70    4.07
   0  -7   2  162.42    4.18
   0   7  -2  152.76    4.18
  -1  -7  -2   46.37    1.58
   1  -7   2   46.13    1.78
  -1   7  -2   46.43    1.55
  -2  -7  -2  286.98    7.19
   2  -7   2  292.24    7.57
   3  -7   2   52.26    2.32
  -3  -7  -2   48.75    1.88
   4  -7   2    8.86    1.40
  -4  -7  -2    9.57    1.01
   4   7   2   10.13    1.11
  -5  -7  -2   52.70    2.32
   5  -7   2   50.04    2.88
   5   7   2   53.35    2.46
   6   8  -2   40.36    2.15
   5  -8  -2   25.22    1.42
   5   8  -2   23.37    1.52
   4  -8  -2   39.60    1.62
   4   8  -2   42.48    1.70
   4   8  -2   39.79    1.57
   3  -8  -2    4.99    0.68
   3  -8  -2    5.96    0.66
   3   8  -2    4.01    0.56
   3   8  -2    4.85    0.59
   2  -8  -2   16.26    0.85
   2  -8  -2   17.51    0.85
   2   8  -2   16.10    0.89
   2   8  -2   15.94    0.75
   1  -8  -2  248.25    6.10
  -1  -8   2  249.63    6.09
   1   8  -2  237.69    5.47
   1   8  -2  266.54    6.40
   0  -8   2  378.58    9.16
   0  -8  -2  381.22    9.04
   0   8  -2  380.65    9.32
  -1  -8  -2   11.61    0.75
   1  -8   2   11.20    0.93
  -1   8  -2   11.32    0.73
   2  -8   2   69.90    2.57
  -2  -8  -2   68.28    2.22
   3  -8   2  107.97    3.68
  -3  -8  -2  101.16    3.16
  -4  -8  -2    3.33    0.74
   4  -8   2    2.85    1.02
   4   8   2    2.50    0.67
   5  -8   2   12.74    1.74
  -5  -8  -2   20.30    1.44
   5   8   2   20.47    1.60
   6   9  -2   20.55    1.61
   5  -9  -2   11.91    1.10
   5   9  -2   12.25    1.19
   4  -9  -2   33.13    1.63
   4  -9  -2   33.71    1.47
   4   9  -2   32.09    1.51
   4   9  -2   32.10    1.40
   3  -9  -2  221.40    5.29
   3  -9  -2  212.26    5.59
   3   9  -2  215.23    5.25
   3   9  -2  224.67    5.75
   2  -9  -2    7.67    0.67
   2  -9  -2    7.39    0.65
   2   9  -2    8.23    0.69
   2   9  -2    8.84    0.58
   1  -9  -2   20.08    0.95
  -1  -9   2   18.52    0.87
   1   9  -2   17.46    0.64
   1   9  -2   19.03    0.97
   0  -9   2  139.03    3.82
   0  -9  -2  141.25    3.71
   0   9  -2  138.19    3.82
   1  -9   2    0.93    0.52
  -1  -9  -2    1.88    0.45
  -1   9  -2    1.78    0.40
  -2  -9  -2  180.03    4.78
   2  -9   2  180.86    5.16
  -3  -9  -2   14.02    1.02
   3  -9   2   15.70    1.44
  -4  -9  -2   11.60    1.06
   4  -9   2    8.35    1.35
   5  -9   2   34.83    2.55
  -5  -9  -2   44.13    2.06
   6  10  -2   56.39    2.50
   5 -10  -2   17.75    1.26
   5  10  -2   13.65    1.27
   4 -10  -2   27.05    1.33
   4 -10  -2   25.11    1.45
   4  10  -2   25.67    1.24
   4  10  -2   28.19    1.40
   3 -10  -2    8.50    0.76
   3 -10  -2    7.83    0.81
   3  10  -2    8.90    0.76
   3  10  -2    7.50    0.72
  -2 -10   2    9.77    0.62
   2 -10  -2   11.36    0.75
   2 -10  -2    9.84    0.77
   2  10  -2    8.83    0.73
   2  10  -2   10.52    0.64
   1 -10  -2  307.10    7.43
  -1 -10   2  296.97    7.40
   1  10  -2  305.61    7.67
   0 -10   2  299.19    7.45
   0 -10  -2  301.83    7.31
   0  10  -2  293.46    7.52
  -1 -10  -2   22.38    1.10
   1 -10   2   21.19    1.27
  -1  10  -2   23.30    1.11
   2 -10   2   25.25    1.50
  -2 -10  -2   24.18    1.19
  -3 -10  -2   95.48    3.02
   3 -10   2   97.77    3.56
  -4 -10  -2    1.51    0.66
   4 -10   2    0.74    0.93
   5 -10   2   23.47    2.17
  -5 -10  -2   24.39    1.54
   6  11  -2   28.60    1.78
   5 -11  -2    2.84    0.69
   5  11  -2    3.57    0.78
   4 -11  -2   48.80    2.10
   4 -11  -2   52.16    1.93
   4  11  -2   53.73    1.94
   4  11  -2   56.11    2.03
   3 -11  -2  164.78    4.17
   3 -11  -2  163.86    4.52
   3  11  -2  162.83    4.53
   3  11  -2  164.82    4.15
   2 -11  -2   16.74    0.89
   2 -11  -2   16.73    0.98
  -2 -11   2   14.70    0.80
   2  11  -2   14.75    0.93
   2  11  -2   15.29    0.77
  -1 -11   2   17.88    0.98
   1 -11  -2   19.33    1.03
   1  11  -2   18.51    0.68
   1  11  -2   20.50    1.06
   0 -11   2   98.40    3.01
   0 -11  -2   99.45    2.87
   0  11  -2   98.57    2.96
  -1 -11  -2   11.34    0.84
   1 -11   2   10.33    0.96
  -1  11  -2   10.79    0.81
  -2 -11  -2   82.18    2.64
   2 -11   2   87.02    3.06
   3 -11   2   54.61    2.56
  -3 -11  -2   51.85    2.02
  -4 -11  -2    9.04    1.04
   4 -11   2    7.14    1.34
  -5 -11  -2   55.09    2.30
   5 -11   2   43.67    2.86
   6  12  -2   44.85    2.25
   5 -12  -2    0.86    0.59
   5  12  -2    0.40    0.53
   4 -12  -2   78.24    2.74
   4 -12  -2   77.34    2.45
   4  12  -2   71.91    2.46
   4  12  -2   73.46    2.47
   3 -12  -2    3.67    0.57
   3 -12  -2    4.97    0.77
   3  12  -2    4.56    0.61
   3  12  -2    4.91    0.62
  -2 -12   2   18.26    0.94
   2 -12  -2   19.69    1.11
   2 -12  -2   19.54    0.97
   2  12  -2   20.48    1.09
   2  12  -2   19.55    0.86
   1 -12  -2  274.67    6.93
  -1 -12   2  275.47    6.92
   1  12  -2  275.30    7.10
   0 -12  -2  206.23    5.39
   0 -12   2  209.68    5.53
   0  12  -2  206.61    5.53
   1 -12   2   42.34    1.89
  -1 -12  -2   43.18    1.68
  -1  12  -2   43.04    1.70
  -2 -12  -2   20.60    1.16
   2 -12   2   18.59    1.43
   3 -12   2  145.49    4.81
  -3 -12  -2  147.53    4.23
   4 -12   2    1.64    1.03
  -4 -12  -2    1.34    0.61
  -5 -12  -2   29.21    1.70
   6  13  -2   16.52    1.58
   5  13  -2    9.50    1.06
   4 -13  -2   46.67    2.11
   4 -13  -2   50.15    1.88
   4  13  -2   50.02    1.91
   4  13  -2   48.62    1.90
  -3 -13   2  143.82    4.01
   3 -13  -2  145.79    4.22
   3 -13  -2  149.74    3.84
   3  13  -2  146.44    3.78
   3  13  -2  141.08    4.16
  -2 -13   2   20.30    1.02
   2 -13  -2   19.47    0.99
   2 -13  -2   20.18    1.17
   2  13  -2   18.92    1.11
   2  13  -2   18.81    0.88
   1 -13  -2   16.90    1.07
  -1 -13   2   14.40    0.97
   1  13  -2   17.87    1.05
   0 -13   2   70.57    2.47
   0 -13  -2   70.35    2.36
   0  13  -2   74.79    2.45
   1 -13   2    7.59    0.97
  -1 -13  -2    7.43    0.79
  -1  13  -2    8.24    0.87
   2 -13   2  119.37    4.02
  -2 -13  -2  124.74    3.63
   3 -13   2   32.02    2.01
  -3 -13  -2   29.05    1.52
  -4 -13  -2   20.20    1.36
   4 -13   2   19.12    1.85
   5 -13   2   26.94    2.37
  -5 -13  -2   34.96    1.85
   5 -14  -2    2.14    0.67
   5  14  -2    2.47    0.68
   4 -14  -2   37.89    1.61
   4 -14  -2   36.23    1.87
   4  14  -2   34.54    1.56
   4  14  -2   37.84    1.65
   3 -14  -2   21.16    1.34
   3 -14  -2   21.69    1.13
   3  14  -2   20.99    1.08
   3  14  -2   20.34    1.15
  -2 -14   2   30.34    1.34
   2 -14  -2   30.05    1.49
   2 -14  -2   32.45    1.30
   2  14  -2   30.92    1.16
   2  14  -2   35.21    1.50
  -1 -14   2  185.46    5.00
   1 -14  -2  187.98    5.03
   1  14  -2  176.79    5.04
   0 -14   2  154.83    4.41
   0 -14  -2  151.48    4.27
   0  14  -2  151.75    4.38
   1 -14   2   59.92    2.42
  -1 -14  -2   61.94    2.20
  -2 -14  -2   32.86    1.57
   2 -14   2   33.88    1.92
  -3 -14  -2   87.28    2.95
   3 -14   2   85.40    3.45
   4 -14   2    2.16    1.07
  -4 -14  -2    2.41    0.74
  -5 -14  -2   19.66    1.46
   5 -14   2   11.60    1.79
   5  15  -2   11.34    1.15
   4 -15  -2   40.62    1.69
   4 -15  -2   36.36    1.95
   4  15  -2   40.77    1.72
   3 -15  -2  163.39    4.19
   3 -15  -2  163.76    4.71
   3  15  -2  155.29    4.12
   3  15  -2  159.34    4.60
  -2 -15   2   23.56    1.18
   2 -15  -2   22.11    1.32
   2 -15  -2   23.79    1.11
   2  15  -2   22.40    0.98
   2  15  -2   23.21    1.26
  -1 -15   2   32.73    1.54
   1 -15  -2   32.95    1.59
   1  15  -2   33.03    1.54
   0 -15   2   41.69    1.85
   0 -15  -2   39.76    1.72
   0  15  -2   41.76    1.78
  -1 -15  -2    4.57    0.75
   1 -15   2    3.85    0.83
   2 -15   2  112.31    3.91
  -2 -15  -2  108.10    3.41
   3 -15   2   26.91    1.94
  -3 -15  -2   25.28    1.47
   4 -15   2   12.48    1.66
  -4 -15  -2   14.74    1.26
  -5 -15  -2   20.49    1.52
   5  16  -2    4.10    0.77
   4 -16  -2   40.05    2.08
   4 -16  -2   41.73    1.73
   4  16  -2   38.60    1.70
   3 -16  -2    3.86    0.61
   3 -16  -2    5.04    0.91
   3  16  -2    5.03    0.73
   3  16  -2    3.91    0.56
   2 -16  -2   34.94    1.69
  -2 -16   2   33.95    1.50
   2 -16  -2   32.80    1.37
   2  16  -2   34.64    1.59
   1 -16  -2  100.29    3.26
  -1 -16   2   97.67    3.21
   1  16  -2  102.77    3.26
   0 -16   2  105.45    3.36
   0 -16  -2   94.49    3.17
   0  16  -2  102.05    3.27
  -1 -16  -2   35.13    1.68
   1 -16   2   41.10    2.01
  -2 -16  -2   26.72    1.45
   2 -16   2   25.49    1.81
  -3 -16  -2   61.03    2.43
   3 -16   2   63.76    2.97
   4 -16   2    0.08    1.02
  -4 -16  -2   -0.27    0.55
   5  17  -2    8.61    1.01
   4 -17  -2   31.25    1.49
   4 -17  -2   26.75    1.79
   4  17  -2   26.78    1.43
   3 -17  -2  115.67    3.77
   3 -17  -2  116.16    3.25
   3  17  -2  107.63    3.16
   3  17  -2  117.50    3.63
   2 -17  -2   18.10    1.29
   2 -17  -2   16.92    1.01
  -2 -17   2   17.91    1.12
   2  17  -2   18.48    1.18
  -1 -17   2   30.17    1.58
   1 -17  -2   29.55    1.58
   1  17  -2   29.46    1.53
   0 -17   2   80.44    2.88
   0 -17  -2   78.25    2.77
   0  17  -2   76.79    2.78
   1 -17   2    3.16    0.89
  -1 -17  -2    2.99    0.73
   2 -17   2  112.41    4.05
  -2 -17  -2  110.03    3.54
  -3 -17  -2   12.81    1.17
   3 -17   2   12.61    1.58
  -4 -17  -2    8.30    1.12
   4 -17   2    5.88    1.40
   5  18  -2    5.76    0.89
   4 -18  -2   21.93    1.70
   4  18  -2   26.46    1.40
   3 -18  -2    0.95    0.43
   3 -18  -2    1.88    0.75
   3  18  -2    0.70    0.41
  -2 -18   2   27.30    1.44
   2 -18  -2   28.85    1.61
   2 -18  -2   29.38    1.31
   2  18  -2   24.37    1.43
   1 -18  -2   94.53    3.23
  -1 -18   2   92.17    3.20
   1  18  -2   93.71    3.17
   0 -18   2  171.58    5.09
   0 -18  -2  169.99    4.98
   1 -18   2   27.17    1.77
  -1 -18  -2   25.77    1.51
  -2 -18  -2   20.90    1.40
   2 -18   2   19.67    1.71
   3 -18   2   51.03    2.78
  -3 -18  -2   51.05    2.22
  -4 -18  -2    3.50    0.84
   4 -18   2    0.97    1.08
   5  19  -2   20.85    1.47
   4 -19  -2   17.68    1.62
   3 -19  -2   80.96    3.12
   3 -19  -2   83.35    2.66
   3  19  -2   79.25    2.89
   2 -19  -2   14.90    1.00
  -2 -19   2   16.23    1.17
   2 -19  -2   14.86    1.29
   2  19  -2   18.20    1.23
   1 -19  -2   38.68    1.94
  -1 -19   2   40.29    1.97
   1  19  -2   35.84    1.82
   0 -19   2   56.66    2.47
   0 -19  -2   57.73    2.42
  -1 -19  -2   10.69    1.10
   1 -19   2    9.35    1.29
   2 -19   2   67.51    3.06
  -2 -19  -2   64.60    2.58
  -3 -19  -2   14.39    1.29
  -4 -19  -2   33.85    1.89
   4 -19   2   28.23    2.44
   4 -20  -2   19.11    1.69
   3 -20  -2    1.65    0.81
   3  20  -2    0.95    0.47
   2 -20  -2   24.03    1.23
  -2 -20   2   24.47    1.47
   2 -20  -2   24.10    1.60
   2  20  -2   22.73    1.44
   1 -20  -2   91.52    3.32
  -1 -20   2   93.22    3.35
   0 -20   2   85.73    3.23
   0 -20  -2   85.49    3.17
   1 -20   2   40.34    2.26
  -1 -20  -2   42.64    2.07
   2 -20   2   14.82    1.61
  -2 -20  -2   15.90    1.31
   3 -20   2   41.31    2.65
  -3 -20  -2   50.93    2.28
   4 -21  -2    6.80    1.16
   3 -21  -2   71.61    3.01
   3  21  -2   67.67    2.69
   2 -21  -2   22.15    1.61
  -2 -21   2   23.03    1.50
  -1 -21   2   27.68    1.77
   1 -21  -2   26.77    1.76
   0 -21   2   38.97    2.12
   0 -21  -2   37.06    2.01
  -1 -21  -2    8.36    1.18
   1 -21   2    9.36    1.41
  -2 -21  -2   52.29    2.38
   2 -21   2   51.38    2.75
   3 -21   2    8.68    1.51
  -3 -21  -2   11.88    1.26
   4 -22  -2   17.18    1.72
   3 -22  -2    1.87    0.85
  -2 -22   2   24.00    1.59
   2 -22  -2   21.01    1.65
  -1 -22   2   76.88    3.09
   1 -22  -2   76.00    3.08
   0 -22  -2   63.61    2.77
   0 -22   2   66.51    2.88
   1 -22   2   47.85    2.55
  -1 -22  -2   45.55    2.28
   2 -22   2    4.90    1.17
  -2 -22  -2    6.22    1.09
   3 -22   2   27.12    2.32
  -3 -22  -2   32.73    1.95
   4 -23  -2   32.27    2.23
   3 -23  -2   47.40    2.55
   2 -23  -2   14.40    1.49
  -2 -23   2   14.27    1.41
  -1 -23   2   23.25    1.75
   1 -23  -2   24.28    1.74
   0 -23  -2   13.11    1.38
   0 -23   2   12.84    1.53
  -1 -23  -2    8.18    1.31
   1 -23   2    7.67    1.35
   2 -23   2   38.97    2.51
  -2 -23  -2   40.28    2.17
   3 -24  -2    3.68    1.09
   2 -24  -2   18.60    1.71
  -2 -24   2   18.28    1.62
  -1 -24   2   47.70    2.46
   1 -24  -2   46.10    2.44
   0 -24   2   26.53    1.94
   0 -24  -2   24.42    1.79
  -1 -24  -2   43.04    2.32
   1 -24   2   41.60    2.53
  -2 -24  -2   14.64    1.48
   2 -24   2   16.12    1.99
   3 -25  -2   46.51    2.73
   2 -25  -2   19.04    1.79
  -2 -25   2   20.51    1.75
   1 -25  -2   16.64    1.63
  -1 -25   2   16.04    1.60
   0 -25  -2   18.85    1.65
   0 -25   2   18.90    1.76
   1 -25   2    8.92    1.48
  -1 -25  -2    8.53    1.31
   2 -26  -2   30.76    2.20
   1 -26  -2   38.76    2.33
  -1 -26   2   35.94    2.30
   0 -26   2   39.79    2.46
   0 -26  -2   43.00    2.43
   1 -26   2   46.74    2.76
  -1 -26  -2   43.03    2.64
  -1 -27   2   23.25    1.98
   0 -27   2   21.37    1.94
   6   0  -3    2.92    0.80
   5   0  -3   14.79    1.26
   4   0  -3   16.22    1.10
   3   0  -3   72.34    2.19
   2   0  -3  170.49    4.13
   1   0  -3    0.32    0.28
   0   0   3   62.44    2.03
  -1   0  -3  334.40    8.21
   1   0   3  341.12    8.46
   2   0   3   49.77    2.13
   3   0   3   11.39    1.43
   4   0   3   52.91    2.72
   5   0   3    0.44    1.22
   6  -1  -3   13.94    1.38
   6   1  -3   14.37    1.39
   5  -1  -3  129.84    3.82
   5   1  -3  127.37    3.83
   4  -1  -3    9.18    0.94
   4   1  -3    9.28    0.90
   3  -1  -3    8.35    0.79
   3   1  -3    8.68    0.77
   2  -1  -3  304.67    6.98
   2   1  -3  308.05    6.94
   1  -1  -3  123.31    3.08
   1   1  -3  124.69    3.04
   0  -1   3   78.47    2.35
   0   1   3   71.70    2.30
   1  -1   3    2.95    0.68
   1   1   3    4.37    0.76
  -1   1  -3    2.02    0.40
   2  -1   3   26.62    1.57
   2   1   3   24.79    1.51
   3  -1   3  146.62    4.66
   3   1   3  143.24    4.59
   4  -1   3  122.68    4.46
   4   1   3  115.96    4.35
   5  -1   3    1.34    1.25
   5   1   3   -0.39    1.16
   6  -2  -3    5.41    0.99
   6   2  -3    4.52    0.93
   5  -2  -3   30.41    1.66
   5   2  -3   32.07    1.72
   4  -2  -3   58.86    2.07
   4   2  -3   58.80    2.07
   3  -2  -3   72.35    2.20
   3   2  -3   69.20    2.13
   2  -2  -3  141.47    3.53
   2   2  -3  139.73    3.46
   1  -2  -3    6.04    0.45
   1  -2  -3    6.02    0.57
   1   2  -3    5.70    0.52
   0  -2   3  127.77    3.62
   0   2   3  139.86    3.69
   1  -2   3  376.76    8.72
   1   2   3  361.94    8.66
  -1   2  -3  301.61    8.38
   2  -2   3   29.94    1.62
   2   2   3   27.89    1.56
  -2   2  -3   25.79    0.98
   3  -2   3   11.51    1.44
   3   2   3   11.17    1.39
   4  -2   3   34.83    2.30
   4   2   3   34.42    2.25
   5  -2   3    4.82    1.39
   5   2   3    4.94    1.45
   6  -3  -3    8.05    1.10
   6   3  -3    8.08    1.13
   5  -3  -3  110.64    3.45
   5   3  -3  110.41    3.46
   4  -3  -3   28.35    1.41
   4   3  -3   28.47    1.38
   3  -3  -3   11.64    0.86
   3   3  -3   10.83    0.83
   2  -3  -3  199.03    4.70
   2   3  -3  192.39    4.59
   1  -3  -3   41.91    1.29
   1  -3  -3   40.99    1.36
   1   3  -3   41.67    1.26
   0  -3   3   83.38    2.52
   0   3  -3   81.15    2.44
   1  -3   3    9.09    0.98
  -1   3  -3    6.49    0.62
   1   3   3   10.77    1.09
   2  -3   3   19.14    1.36
   2   3   3   18.24    1.32
  -2   3  -3   16.68    0.77
   3  -3   3   51.62    2.45
   3   3   3   50.62    2.41
   4  -3   3   51.22    2.74
   4   3   3   54.18    2.74
   5  -3   3    1.42    1.22
   5   3   3    0.81    1.18
   6  -4  -3    4.15    0.89
   6   4  -3    5.97    1.00
   5  -4  -3   12.46    1.21
   5   4  -3   13.98    1.24
   4  -4  -3   38.73    1.66
   4   4  -3   38.32    1.61
   3  -4  -3   97.43    2.76
   3   4  -3   95.59    2.68
   2  -4  -3   93.06    2.55
   2   4  -3   92.39    2.43
   1  -4  -3   17.21    0.76
   1   4  -3   17.51    0.73
   0  -4   3   48.14    1.75
   0  -4  -3   48.48    1.60
   0   4  -3   48.89    1.68
   1  -4   3  412.82   10.14
  -1   4  -3  401.32    9.93
   1   4   3  411.25   10.07
   2  -4   3   13.59    1.26
   2   4   3   15.49    1.24
   3  -4   3    1.97    0.86
   3   4   3    0.83    0.83
   4  -4   3   25.58    2.05
   4   4   3   23.52    1.91
   5  -4   3    3.70    1.38
   6  -5  -3   13.45    1.33
   6   5  -3   14.69    1.43
   5  -5  -3   89.17    2.97
   5   5  -3   83.63    2.90
   5   5  -3   91.00    2.98
   4  -5  -3   16.25    1.13
   4   5  -3   14.65    1.09
   3  -5  -3    4.80    0.61
   3   5  -3    5.57    0.63
   2  -5  -3  210.19    4.99
   2   5  -3  206.14    4.82
   1  -5  -3  102.97    2.73
  -1  -5   3  103.86    2.79
   1   5  -3   99.28    2.48
   1   5  -3  104.89    3.01
   0  -5   3   73.68    2.38
   0  -5  -3   74.53    2.23
   0   5  -3   77.90    2.35
   1  -5   3    1.21    0.60
  -1   5  -3    0.04    0.30
   2  -5   3   12.83    1.25
   2   5   3   14.06    1.19
   3  -5   3   64.79    2.81
   3   5   3   59.96    2.63
   4  -5   3   84.55    3.58
   5  -5   3    0.55    1.18
   6  -6  -3    3.83    0.84
   6   6  -3    2.09    0.82
   5  -6  -3   20.35    1.41
   5   6  -3   20.25    1.40
   4  -6  -3   50.97    1.95
   4   6  -3   52.33    1.98
   4   6  -3   51.56    1.94
   3  -6  -3   68.77    2.12
   3   6  -3   63.91    2.00
   3   6  -3   63.90    2.22
   2  -6  -3  138.27    3.47
   2  -6  -3  124.25    3.42
   2   6  -3  140.23    3.83
   2   6  -3  136.02    3.29
   1  -6  -3    5.33    0.52
  -1  -6   3    5.49    0.59
   1   6  -3    4.71    0.42
   1   6  -3    5.58    0.64
   0  -6   3  113.59    3.30
   0  -6  -3  117.67    3.15
   0   6  -3  111.83    3.26
   1  -6   3  632.58   15.07
  -1  -6  -3  626.05   14.75
  -1   6  -3  623.13   15.05
   2  -6   3   21.94    1.51
   3  -6   3    8.88    1.38
   4  -6   3   29.92    2.15
   5  -6   3    5.74    1.48
  -5  -6  -3    6.51    1.04
   6  -7  -3   11.04    1.24
   6   7  -3   12.42    1.35
   5  -7  -3   77.79    2.80
   5   7  -3   85.13    2.85
   4  -7  -3   14.25    1.07
   4   7  -3   13.86    1.07
   4   7  -3   13.29    0.99
   3  -7  -3   36.52    1.46
   3   7  -3   36.06    1.40
   3   7  -3   36.32    1.54
   2  -7  -3  194.55    5.01
   2  -7  -3  204.05    4.90
   2   7  -3  204.31    4.71
   2   7  -3  207.08    5.43
   1  -7  -3   91.74    2.54
  -1  -7   3   90.67    2.58
   1   7  -3   88.38    2.75
   0  -7   3  106.96    3.19
   0  -7  -3  110.64    3.03
   0   7  -3  105.65    3.14
   1  -7   3    3.65    0.81
  -1  -7  -3    4.18    0.65
  -1   7  -3    2.57    0.48
   2  -7   3   31.77    1.78
  -2  -7  -3   31.53    1.45
   3  -7   3   52.84    2.61
  -3  -7  -3   50.37    2.05
   4  -7   3   74.02    3.42
  -4  -7  -3   73.28    2.76
   5  -7   3    3.94    1.40
  -5  -7  -3    8.26    1.15
   6  -8  -3    1.57    0.66
   6   8  -3    2.02    0.82
   5  -8  -3   12.33    1.21
   5   8  -3   11.95    1.15
   4  -8  -3   21.78    1.28
   4   8  -3   20.99    1.27
   4   8  -3   22.30    1.24
   3  -8  -3   40.34    1.58
   3   8  -3   41.06    1.49
   3   8  -3   38.74    1.65
   2  -8  -3  115.54    3.14
   2  -8  -3  115.55    3.08
   2   8  -3  114.02    2.88
   2   8  -3  117.74    3.43
   1  -8  -3   14.12    0.80
  -1  -8   3   13.20    0.86
   1   8  -3   15.17    0.96
   0  -8   3   78.88    2.56
   0  -8  -3   80.86    2.40
   0   8  -3   75.54    2.48
  -1  -8  -3  183.09    4.88
   1  -8   3  182.38    5.20
  -1   8  -3  188.36    4.96
  -2  -8  -3   23.98    1.27
   2  -8   3   23.26    1.60
   3  -8   3   19.80    2.02
  -3  -8  -3   12.60    1.08
  -4  -8  -3   30.33    1.69
   4  -8   3   29.59    2.22
  -5  -8  -3    5.69    1.03
   5  -8   3    3.74    1.35
   6   9  -3   18.43    1.55
   5  -9  -3  107.81    3.40
   5   9  -3  106.64    3.39
   4  -9  -3    5.94    0.83
   4   9  -3    4.83    0.69
   4   9  -3    4.49    0.73
   3  -9  -3   29.75    1.30
   3  -9  -3   31.94    1.40
   3   9  -3   32.82    1.48
   3   9  -3   31.28    1.27
   2  -9  -3  226.14    5.50
   2  -9  -3  232.22    5.77
   2   9  -3  234.00    6.11
   2   9  -3  226.57    5.27
   1  -9  -3   79.47    2.41
  -1  -9   3   80.53    2.48
   1   9  -3   81.89    2.62
   0  -9   3   70.05    2.40
   0  -9  -3   67.06    2.20
   0   9  -3   70.00    2.31
  -1  -9  -3    5.01    0.72
   1  -9   3    4.04    0.85
  -1   9  -3    4.79    0.64
   2  -9   3   17.26    1.46
  -2  -9  -3   16.86    1.08
   3  -9   3   61.91    2.86
  -3  -9  -3   59.05    2.28
  -4  -9  -3   97.86    3.34
   4  -9   3   91.77    3.97
  -5  -9  -3    7.30    1.15
   5  -9   3    3.69    1.38
   6  10  -3    7.87    1.11
   5 -10  -3   11.13    1.17
   5  10  -3    9.88    1.09
   4 -10  -3   18.13    1.21
   4  10  -3   19.72    1.21
   4  10  -3   20.79    1.23
   3 -10  -3   27.68    1.27
   3 -10  -3   27.47    1.32
   3  10  -3   26.73    1.38
   3  10  -3   26.97    1.18
   2 -10  -3  105.60    2.92
   2 -10  -3  109.00    3.07
   2  10  -3  106.36    3.27
   2  10  -3  103.12    2.68
   1 -10  -3   70.39    2.21
  -1 -10   3   70.10    2.26
   1  10  -3   67.99    2.37
   0 -10  -3   67.77    2.20
   0 -10   3   66.17    2.39
   0  10  -3   65.62    2.27
   1 -10   3  114.01    3.69
  -1 -10  -3  115.55    3.38
  -1  10  -3  116.38    3.43
   2 -10   3   14.25    1.40
  -2 -10  -3   14.90    1.05
  -3 -10  -3    9.02    0.99
   3 -10   3    9.71    1.45
   4 -10   3   26.48    2.24
  -4 -10  -3   31.20    1.75
  -5 -10  -3    4.14    0.97
   6  11  -3   15.33    1.48
   5  11  -3   69.67    2.57
   4 -11  -3    8.02    0.88
   4  11  -3    8.34    0.88
   4  11  -3    8.25    0.94
   3 -11  -3    7.01    0.77
   3 -11  -3    5.42    0.71
   3  11  -3    6.57    0.65
   3  11  -3    6.61    0.81
   2 -11  -3  175.32    4.45
   2 -11  -3  176.43    4.71
   2  11  -3  183.64    4.99
   2  11  -3  172.57    4.16
  -1 -11   3   53.39    1.95
   1 -11  -3   53.95    1.91
   1  11  -3   54.97    2.04
   0 -11  -3   70.85    2.34
   0 -11   3   69.87    2.52
   0  11  -3   69.91    2.43
  -1 -11  -3    3.22    0.64
   1 -11   3    2.55    0.78
  -1  11  -3    2.68    0.56
  -2 -11  -3   12.51    0.98
   2 -11   3   12.84    1.36
  -3 -11  -3   65.73    2.49
   3 -11   3   70.99    3.13
  -4 -11  -3   58.53    2.41
   4 -11   3   56.09    3.10
   6  12  -3   10.17    1.21
   5  12  -3   15.71    1.29
   4 -12  -3   31.76    1.52
   4  12  -3   29.64    1.47
   4  12  -3   29.05    1.51
   3 -12  -3   38.97    1.61
   3 -12  -3   38.82    1.65
   3  12  -3   42.70    1.80
   3  12  -3   38.43    1.47
   2 -12  -3   91.27    2.68
   2 -12  -3   93.16    2.85
  -2 -12   3   93.16    2.74
   2  12  -3   89.59    2.40
   2  12  -3   91.86    2.99
  -1 -12   3   23.77    1.28
   1 -12  -3   23.81    1.23
   1  12  -3   22.16    1.27
   0 -12   3   52.19    2.17
   0 -12  -3   55.70    2.00
   0  12  -3   54.05    2.06
  -1 -12  -3  288.96    7.44
   1 -12   3  285.78    7.81
  -1  12  -3  299.80    7.65
   2 -12   3   23.05    1.72
  -2 -12  -3   24.08    1.34
  -3 -12  -3   10.11    1.11
   3 -12   3    8.31    1.37
   4 -12   3   25.42    2.23
  -4 -12  -3   31.66    1.74
   5  13  -3   70.99    2.61
   4 -13  -3   12.13    1.05
   4  13  -3   13.54    1.06
   4  13  -3   11.38    1.01
   3 -13  -3    9.37    0.89
   3 -13  -3    8.56    0.93
   3  13  -3    8.21    0.92
   3  13  -3    7.93    0.75
   2 -13  -3  141.02    3.81
  -2 -13   3  146.40    4.00
   2 -13  -3  145.56    4.12
   2  13  -3  144.39    4.27
  -1 -13   3   46.00    1.86
   1 -13  -3   43.22    1.79
   1  13  -3   44.55    1.88
   0 -13   3   74.25    2.66
   0 -13  -3   69.99    2.40
   0  13  -3   65.57    2.46
  -1 -13  -3    2.13    0.62
   1 -13   3    2.11    0.78
  -1  13  -3    1.75    0.56
  -2 -13  -3   32.14    1.60
   2 -13   3   33.43    2.02
   3 -13   3   66.19    3.13
  -3 -13  -3   64.70    2.49
   4 -13   3   59.32    3.26
  -4 -13  -3   68.47    2.71
   5 -14  -3    4.62    0.83
   5  14  -3    7.98    0.96
   4 -14  -3   25.70    1.43
   4  14  -3   26.92    1.46
   4  14  -3   26.76    1.38
   3 -14  -3   64.56    2.23
   3 -14  -3   65.53    2.40
   3  14  -3   66.85    2.08
   3  14  -3   67.07    2.47
   2 -14  -3   44.18    1.72
   2 -14  -3   41.03    1.81
  -2 -14   3   45.21    1.74
   2  14  -3   44.32    1.90
  -1 -14   3   46.91    1.95
   1 -14  -3   46.91    1.91
   1  14  -3   45.87    1.95
   0 -14   3   76.01    2.83
   0 -14  -3   75.20    2.63
   0  14  -3   82.55    2.77
   1 -14   3  251.24    7.06
  -1 -14  -3  246.05    6.62
  -1  14  -3  254.82    6.82
  -2 -14  -3   19.73    1.29
   2 -14   3   18.43    1.61
   3 -14   3   10.71    1.57
  -3 -14  -3   10.43    1.09
   4 -14   3    9.91    1.64
  -4 -14  -3   13.78    1.28
   5  15  -3   57.00    2.29
   4 -15  -3   17.84    1.24
   4  15  -3   18.95    1.28
   4  15  -3   16.34    1.13
   3 -15  -3   23.04    1.40
   3 -15  -3   22.06    1.24
   3  15  -3   19.49    1.32
  -2 -15   3   63.66    2.25
   2 -15  -3   63.82    2.35
   2 -15  -3   61.12    2.14
   2  15  -3   60.26    2.39
  -1 -15   3   14.64    1.16
   1 -15  -3   13.92    1.14
   1  15  -3   13.21    1.11
   0 -15   3   27.81    1.65
   0 -15  -3   25.90    1.44
   0  15  -3   25.77    1.48
  -1 -15  -3    3.28    0.76
   1 -15   3    2.81    0.87
  -1  15  -3    2.91    0.65
  -2 -15  -3   21.75    1.38
   2 -15   3   23.35    1.78
  -3 -15  -3   17.08    1.30
   3 -15   3   16.04    1.77
   4 -15   3    9.69    1.66
  -4 -15  -3   15.78    1.36
   5  16  -3    9.40    1.02
   4 -16  -3   33.11    1.63
   4  16  -3   30.37    1.62
   3 -16  -3   47.14    2.11
   3 -16  -3   50.31    1.93
   3  16  -3   50.77    2.13
   2 -16  -3   36.72    1.81
  -2 -16   3   38.05    1.71
   2 -16  -3   38.17    1.64
   2  16  -3   37.15    1.80
   1 -16  -3    2.51    0.71
  -1 -16   3    2.13    0.66
   1  16  -3    1.90    0.60
   0 -16  -3   28.30    1.54
   0 -16   3   26.95    1.69
   0  16  -3   25.00    1.52
   1 -16   3  200.89    6.10
  -1 -16  -3  200.16    5.66
  -1  16  -3  209.83    5.86
  -2 -16  -3   14.57    1.20
   2 -16   3   14.58    1.53
   3 -16   3    4.23    1.18
  -3 -16  -3    6.90    1.06
   4 -16   3    9.45    1.70
  -4 -16  -3   11.73    1.35
   4 -17  -3   20.22    1.33
   4  17  -3   20.35    1.35
   3 -17  -3   35.76    1.62
   3 -17  -3   34.25    1.83
   3  17  -3   37.46    1.82
  -2 -17   3   59.52    2.43
   2 -17  -3   63.55    2.50
   2 -17  -3   62.46    2.20
   2  17  -3   62.33    2.47
   1 -17  -3   36.17    1.85
  -1 -17   3   37.01    1.87
   1  17  -3   35.51    1.80
   0 -17   3   35.08    1.95
   0 -17  -3   34.07    1.77
   0  17  -3   36.68    1.83
  -1 -17  -3    1.69    0.66
   1 -17   3    0.96    0.78
   2 -17   3   25.75    1.94
  -2 -17  -3   25.32    1.53
  -3 -17  -3   36.94    1.91
   3 -17   3   36.55    2.49
   4 -18  -3    6.89    0.88
   4  18  -3    6.47    0.88
   3 -18  -3   32.92    1.83
   3 -18  -3   33.59    1.59
   3  18  -3   32.74    1.73
   2 -18  -3   50.22    2.24
   2 -18  -3   49.40    1.95
   2  18  -3   51.81    2.22
   1 -18  -3   17.44    1.41
  -1 -18   3   16.08    1.35
   1  18  -3   16.74    1.31
   0 -18   3   34.86    1.99
   0 -18  -3   34.01    1.81
   0  18  -3   33.98    1.83
  -1 -18  -3  123.01    3.97
   1 -18   3  125.87    4.43
  -2 -18  -3   16.88    1.32
   2 -18   3   15.82    1.66
   3 -18   3    9.17    1.56
  -3 -18  -3   12.20    1.23
   4  19  -3    7.91    0.98
   3 -19  -3   28.26    1.79
   3 -19  -3   30.76    1.53
   3  19  -3   30.71    1.71
   2 -19  -3   90.63    2.89
   2 -19  -3   91.76    3.27
   2  19  -3   87.61    3.23
  -1 -19   3   37.26    2.00
   1 -19  -3   37.66    2.02
   1  19  -3   37.15    1.92
   0 -19   3   40.02    2.19
   0 -19  -3   38.25    2.00
   0  19  -3   43.18    2.08
   1 -19   3    0.78    0.80
  -1 -19  -3    0.30    0.60
  -2 -19  -3   27.15    1.68
   2 -19   3   28.02    2.12
  -3 -19  -3   38.22    2.03
   3 -19   3   34.08    2.50
   4  20  -3   16.47    1.34
   3 -20  -3   14.59    1.15
   3 -20  -3   14.08    1.43
   3  20  -3   14.46    1.25
   2 -20  -3   46.11    1.92
   2 -20  -3   47.17    2.26
   2  20  -3   47.47    2.23
   1 -20  -3   50.65    2.41
  -1 -20   3   50.45    2.42
   1  20  -3   50.47    2.32
   0 -20  -3   47.88    2.27
   0 -20   3   49.76    2.48
   0  20  -3   43.35    2.21
  -1 -20  -3   62.19    2.63
   1 -20   3   66.09    3.06
  -2 -20  -3   22.61    1.58
   2 -20   3   23.04    1.99
  -3 -20  -3   26.98    1.75
   3 -20   3   22.87    2.21
   4  21  -3   15.56    1.46
   3 -21  -3   16.65    1.54
   3 -21  -3   18.27    1.28
   3  21  -3   18.89    1.45
   2 -21  -3   65.44    2.79
   2 -21  -3   65.22    2.36
   2  21  -3   63.76    2.72
   1 -21  -3   11.29    1.37
  -1 -21   3   11.53    1.40
   1  21  -3   10.65    1.22
   0 -21   3   53.99    2.69
   0 -21  -3   55.61    2.55
  -1 -21  -3    1.11    0.70
   1 -21   3    0.60    0.86
   2 -21   3   23.82    2.06
  -2 -21  -3   24.09    1.66
   3 -22  -3    9.18    1.34
   3  22  -3   10.77    1.18
   2 -22  -3   28.13    1.87
   2 -22  -3   24.41    1.46
   2  22  -3   27.59    1.74
  -1 -22   3   38.55    2.26
   1 -22  -3   42.15    2.27
   1  22  -3   41.27    2.16
   0 -22  -3   20.97    1.69
   0 -22   3   18.76    1.75
  -1 -22  -3   33.90    2.02
   1 -22   3   34.41    2.35
   2 -22   3    6.56    1.36
  -2 -22  -3   10.19    1.36
   3 -23  -3    9.79    1.40
   3  23  -3   12.87    1.31
   2 -23  -3   56.29    2.65
   2 -23  -3   58.35    2.31
   2  23  -3   52.39    2.53
   1 -23  -3   13.08    1.54
  -1 -23   3   12.95    1.59
   0 -23   3   25.87    2.02
   0 -23  -3   27.19    1.92
  -1 -23  -3    0.91    0.73
   1 -23   3    1.52    0.98
   3 -24  -3   16.22    1.68
   3  24  -3   15.13    1.43
   2 -24  -3   24.34    1.84
   1 -24  -3   24.81    1.98
   1 -24  -3   31.01    1.81
  -1 -24   3   28.96    2.08
   0 -24  -3   32.70    2.14
   0 -24   3   32.11    2.26
  -1 -24  -3  115.82    4.26
   1 -24   3  115.75    4.62
   2 -25  -3   31.41    2.12
  -1 -25   3    8.76    1.42
   1 -25  -3    8.54    1.39
   0 -25   3   37.04    2.45
   0 -25  -3   39.03    2.34
  -1 -26   3   20.83    1.94
   0 -26   3   26.10    2.16
   6   0  -4   30.62    1.93
   5   0  -4    0.90    0.64
   4   0  -4    3.17    0.71
   3   0  -4   42.43    1.68
   2   0  -4   78.41    2.33
  -1   0   4  502.12   11.94
   1   0  -4  507.54   11.17
   0   0   4   21.01    1.25
   1   0   4    2.59    0.81
  -1   0  -4    2.18    0.44
   2   0   4  142.16    4.55
   3   0   4   47.09    2.51
   4   0   4    7.90    1.54
   6  -1  -4    0.26    0.64
   6   1  -4    0.58    0.72
   5  -1  -4    1.61    0.69
   5   1  -4    0.95    0.66
   4  -1  -4   76.04    2.60
   4   1  -4   77.01    2.58
   3  -1  -4  160.37    4.23
   3   1  -4  163.18    4.22
   2  -1  -4   12.53    0.89
   2   1  -4   12.88    0.89
  -1  -1   4   45.20    1.65
   1  -1  -4   47.84    1.63
   1   1  -4   44.25    1.53
   0  -1   4   82.78    2.73
   0   1   4   85.79    2.78
   1  -1   4   15.22    1.28
   1   1   4   14.93    1.28
  -1   1  -4   15.38    0.91
   2  -1   4   70.98    2.92
   2   1   4   76.95    2.95
   3  -1   4    3.54    1.10
   3   1   4    5.13    1.18
   4  -1   4    5.84    1.36
   4   1   4    8.24    1.50
   6  -2  -4   38.47    2.09
   6   2  -4   37.32    2.10
   5  -2  -4    5.28    0.92
   5   2  -4    5.70    0.92
   4  -2  -4   11.86    1.13
   4   2  -4   13.22    1.17
   3  -2  -4   36.03    1.54
   3   2  -4   36.01    1.52
   2  -2  -4   14.21    0.93
   2   2  -4   14.07    0.89
   1  -2  -4  276.12    6.52
  -1  -2   4  259.24    6.61
   1  -2  -4  265.43    6.27
   1   2  -4  271.52    6.19
   0  -2   4   24.43    1.34
   0   2   4   23.56    1.35
   1  -2   4    0.62    0.67
  -1   2  -4    0.84    0.35
   1   2   4    0.21    0.62
   2  -2   4  115.74    3.93
   2   2   4  109.84    3.85
   3  -2   4   60.81    2.86
   3   2   4   58.49    2.82
   4  -2   4    5.38    1.40
   4   2   4    7.47    1.51
   6  -3  -4    2.45    0.80
   6   3  -4    1.63    0.78
   5  -3  -4    2.30    0.75
   5   3  -4    1.42    0.66
   4  -3  -4  109.89    3.30
   4   3  -4  106.58    3.24
   3  -3  -4   71.31    2.32
   3   3  -4   72.04    2.28
   2  -3  -4    8.47    0.80
   2   3  -4    8.46    0.76
   1  -3  -4   44.44    1.60
   1  -3  -4   41.49    1.46
  -1  -3   4   42.61    1.58
   1   3  -4   43.79    1.44
   0  -3   4  106.65    3.28
   0   3  -4  106.46    3.17
   1  -3   4   20.37    1.44
   1   3   4   21.42    1.41
  -1   3  -4   19.51    1.05
   2  -3   4   50.58    2.43
   2   3   4   50.30    2.39
   3  -3   4    1.21    0.98
   3   3   4    0.76    0.87
   4  -3   4   10.83    1.68
   4   3   4    8.44    1.52
   6  -4  -4   36.62    2.03
   6   4  -4   35.97    2.03
   5  -4  -4    0.96    0.65
   5   4  -4    0.40    0.57
   4  -4  -4    4.92    0.80
   4   4  -4    4.45    0.78
   3  -4  -4   26.56    1.32
   3   4  -4   28.37    1.31
   2  -4  -4    2.52    0.51
   2   4  -4    1.76    0.44
  -1  -4   4  197.83    5.11
   1  -4  -4  202.58    5.00
   1   4  -4  198.91    4.66
   1   4  -4  195.57    5.37
   0  -4   4   37.41    1.69
   0  -4  -4   40.50    1.54
   0   4  -4   40.00    1.61
   0   4  -4   38.27    1.30
   1  -4   4    5.56    0.98
   1   4   4    7.48    1.05
  -1   4  -4    3.69    0.56
   2  -4   4  122.76    4.11
   2   4   4  115.00    3.98
   3  -4   4   49.42    2.67
   3   4   4   50.70    2.55
   4  -4   4   11.43    1.70
   4   4   4   11.09    1.63
   6  -5  -4    0.57    0.68
   6   5  -4    1.60    0.77
   5  -5  -4    0.83    0.64
   5   5  -4    0.45    0.61
   5   5  -4    1.15    0.57
   4  -5  -4  227.55    5.80
   4   5  -4  220.75    5.65
   3  -5  -4   64.62    2.19
   3   5  -4   63.28    2.07
   2  -5  -4    2.54    0.52
   2   5  -4    2.13    0.52
   2   5  -4    3.41    0.51
  -1  -5   4   17.63    1.02
   1  -5  -4   18.42    0.93
   1   5  -4   17.45    1.08
   1   5  -4   18.88    0.86
   0  -5  -4  116.62    3.32
   0  -5   4  111.18    3.52
   0   5  -4  117.29    3.46
   0   5  -4  118.51    2.88
   1  -5   4   71.03    2.72
  -1   5  -4   67.64    2.30
   2  -5   4   64.37    2.78
   3  -5   4    2.65    1.10
   4  -5   4    5.42    1.42
   6  -6  -4   55.56    2.49
   6   6  -4   54.87    2.52
   5  -6  -4    5.07    0.87
   5   6  -4    6.04    0.92
   5   6  -4    6.40    0.89
   4  -6  -4   28.77    1.57
   4   6  -4   28.19    1.48
   4   6  -4   29.80    1.57
   3  -6  -4   12.61    1.00
   3   6  -4   12.79    1.05
   3   6  -4   12.39    0.92
   2  -6  -4    6.49    0.70
   2   6  -4    6.31    0.61
   2   6  -4    6.02    0.75
   1  -6  -4  223.24    5.47
  -1  -6   4  212.82    5.59
   1   6  -4  214.20    5.85
   0  -6   4   45.05    1.93
   0  -6  -4   45.29    1.71
   0   6  -4   45.05    1.79
   1  -6   4    2.21    0.81
  -1  -6  -4    3.40    0.66
  -1   6  -4    1.82    0.47
   2  -6   4  118.54    4.15
   3  -6   4   38.01    2.35
  -4  -6  -4    4.98    0.98
   4  -6   4    4.98    1.38
   6  -7  -4    1.47    0.76
   6   7  -4    1.86    0.79
   5  -7  -4    7.41    0.99
   5   7  -4    6.71    0.94
   5   7  -4    7.51    0.98
   4  -7  -4  167.10    4.49
   4   7  -4  151.61    4.73
   4   7  -4  166.70    4.37
   3  -7  -4   46.21    1.79
   3   7  -4   44.02    1.61
   3   7  -4   43.25    1.89
   2  -7  -4   14.54    0.81
   2  -7  -4   15.53    0.99
   2   7  -4   15.68    1.08
   2   7  -4   15.85    0.81
   1  -7  -4   36.15    1.41
  -1  -7   4   37.05    1.51
   1   7  -4   39.06    1.65
   1   7  -4   32.89    1.13
   0  -7   4  144.42    4.25
   0  -7  -4  144.48    4.01
   0   7  -4  147.16    4.21
  -1  -7  -4   41.53    1.77
   1  -7   4   44.38    2.14
  -1   7  -4   44.00    1.75
  -2  -7  -4   78.81    2.81
   2  -7   4   84.67    3.34
   3  -7   4    3.32    1.11
  -3  -7  -4    2.50    0.74
  -4  -7  -4   10.04    1.34
   4  -7   4    6.19    1.51
   6  -8  -4   41.65    2.20
   6   8  -4   43.96    2.21
   5  -8  -4    3.64    0.80
   5   8  -4    2.77    0.69
   5   8  -4    3.32    0.74
   4  -8  -4    6.76    0.90
   4   8  -4    7.01    0.91
   4   8  -4    5.87    0.80
   3  -8  -4   18.97    1.16
   3   8  -4   17.72    1.22
   3   8  -4   18.14    1.02
   2  -8  -4   17.64    0.94
   2  -8  -4   18.82    1.07
   2   8  -4   20.20    1.22
   2   8  -4   19.49    0.89
  -1  -8   4  155.20    4.29
   1  -8  -4  158.31    4.20
   1   8  -4  155.61    4.50
   0  -8  -4   67.52    2.27
   0  -8   4   67.79    2.49
   0   8  -4   66.19    2.37
   1  -8   4   13.03    1.29
  -1  -8  -4   11.84    1.00
  -1   8  -4   13.34    1.00
  -2  -8  -4  105.64    3.47
   2  -8   4  114.93    4.07
   3  -8   4   27.37    2.11
  -3  -8  -4   32.06    1.74
  -4  -8  -4    6.42    1.12
   4  -8   4    6.54    1.53
   6  -9  -4    0.36    0.73
   6   9  -4    2.30    0.84
   5  -9  -4    3.64    0.84
   5   9  -4    4.00    0.80
   5   9  -4    4.40    0.76
   4  -9  -4   73.04    2.51
   4   9  -4   63.09    2.51
   4   9  -4   66.34    2.29
   3  -9  -4   65.51    2.30
   3   9  -4   67.40    2.50
   3   9  -4   68.36    2.11
   2  -9  -4   10.60    0.88
   2  -9  -4   10.79    0.79
   2   9  -4   10.41    0.67
   2   9  -4   11.78    1.00
   1  -9  -4   18.51    1.06
  -1  -9   4   20.85    1.19
   1   9  -4   19.25    1.24
   0  -9  -4   89.91    2.82
   0  -9   4   88.92    3.06
   0   9  -4   90.57    2.97
   1  -9   4    2.79    0.87
  -1  -9  -4    3.57    0.71
  -1   9  -4    2.26    0.59
   2  -9   4   63.24    2.89
  -2  -9  -4   61.43    2.37
  -3  -9  -4    9.81    1.19
   3  -9   4    8.51    1.46
   4  -9   4    2.71    1.25
  -4  -9  -4    3.57    0.97
   6  10  -4   31.57    1.94
   5 -10  -4    2.59    0.72
   5  10  -4    1.82    0.64
   5  10  -4    2.47    0.68
   4 -10  -4    3.39    0.73
   4  10  -4    4.04    0.68
   4  10  -4    3.32    0.72
   3 -10  -4   21.84    1.25
   3  10  -4   19.93    1.04
   3  10  -4   20.19    1.32
   2 -10  -4   21.01    1.11
   2 -10  -4   22.43    1.20
   2  10  -4   21.89    1.31
  -1 -10   4  151.74    4.24
   1 -10  -4  146.30    4.09
   1  10  -4  147.23    4.40
   0 -10  -4   21.77    1.24
   0 -10   4   22.96    1.44
   0  10  -4   18.91    1.25
  -1 -10  -4   20.26    1.26
   1 -10   4   19.91    1.56
  -1  10  -4   21.16    1.26
   2 -10   4   96.43    3.74
  -2 -10  -4   97.99    3.23
   3 -10   4   28.87    2.24
  -3 -10  -4   31.08    1.71
   4 -10   4    4.90    1.41
  -4 -10  -4    8.26    1.29
   5 -11  -4    2.38    0.73
   5  11  -4    1.70    0.63
   5  11  -4    2.40    0.70
   4 -11  -4   57.63    2.24
   4  11  -4   54.21    2.01
   4  11  -4   53.85    2.29
   3 -11  -4   73.06    2.45
   3  11  -4   72.43    2.19
   3  11  -4   71.00    2.67
   2 -11  -4    9.28    0.90
   2 -11  -4    8.61    0.83
   2  11  -4   10.25    0.98
  -1 -11   4   46.31    1.92
   1 -11  -4   47.56    1.83
   1  11  -4   48.17    2.04
   0 -11  -4   71.40    2.49
   0 -11   4   71.99    2.74
   0  11  -4   74.46    2.65
   1 -11   4   10.85    1.42
  -1 -11  -4   11.37    1.12
  -1  11  -4    9.17    0.97
   2 -11   4   52.94    2.64
  -2 -11  -4   48.74    2.11
  -3 -11  -4   10.42    1.11
   3 -11   4   10.00    1.60
  -4 -11  -4   10.78    1.35
   4 -11   4    7.56    1.59
   5 -12  -4    8.12    1.05
   5  12  -4    6.76    0.96
   5  12  -4    8.63    1.00
   4 -12  -4   13.43    1.21
   4  12  -4   15.65    1.25
   4  12  -4   14.08    1.07
   3 -12  -4   20.97    1.27
   3  12  -4   19.86    1.37
   2 -12  -4   18.96    1.15
   2 -12  -4   18.50    1.19
   2  12  -4   17.43    1.27
   1 -12  -4  219.99    5.89
  -1 -12   4  224.57    6.01
   1  12  -4  224.98    6.23
   0 -12  -4   14.86    1.12
   0 -12   4   14.41    1.29
   0  12  -4   15.77    1.23
   1 -12   4   23.52    1.71
  -1 -12  -4   22.12    1.39
  -1  12  -4   25.60    1.45
  -2 -12  -4   82.11    2.94
   2 -12   4   84.64    3.49
  -3 -12  -4   34.12    1.84
   3 -12   4   36.34    2.48
   5 -13  -4   13.50    1.29
   5  13  -4   12.89    1.21
   5  13  -4   13.99    1.24
   4 -13  -4   97.78    3.16
   4  13  -4   95.39    3.37
   3 -13  -4   70.74    2.45
   3  13  -4   71.41    2.72
   2 -13  -4   18.01    1.20
   2 -13  -4   18.10    1.21
   2  13  -4   17.59    1.29
  -1 -13   4   16.04    1.22
   1 -13  -4   13.81    1.11
   1  13  -4   14.56    1.23
   0 -13  -4   40.24    1.82
   0 -13   4   41.50    2.06
   0  13  -4   42.43    1.95
   1 -13   4   24.66    1.79
  -1 -13  -4   23.86    1.45
  -1  13  -4   25.01    1.48
   2 -13   4   39.70    2.39
  -2 -13  -4   38.52    1.88
  -3 -13  -4    9.80    1.21
   3 -13   4    7.46    1.47
   4 -14  -4    3.78    0.73
   4  14  -4    2.75    0.71
   3 -14  -4   36.41    1.67
   3  14  -4   34.13    1.81
   2 -14  -4    8.36    0.94
   2 -14  -4    9.13    1.04
   2  14  -4   10.71    1.16
   1 -14  -4  138.74    4.10
  -1 -14   4  142.18    4.25
   1  14  -4  132.52    4.27
   0 -14   4   19.40    1.50
   0 -14  -4   17.86    1.28
   0  14  -4   17.67    1.33
  -1 -14  -4   31.24    1.66
   1 -14   4   26.96    1.92
  -1  14  -4   30.63    1.67
  -2 -14  -4   61.26    2.46
   2 -14   4   60.95    3.01
   3 -14   4   42.42    2.70
  -3 -14  -4   41.67    2.08
   4 -15  -4   67.14    2.51
   4  15  -4   64.23    2.64
   3 -15  -4   28.61    1.49
   3  15  -4   26.94    1.64
   2 -15  -4   17.18    1.28
   2 -15  -4   19.61    1.32
   2  15  -4   15.18    1.27
  -1 -15   4   24.84    1.58
   1 -15  -4   24.89    1.49
   1  15  -4   24.83    1.59
   0 -15   4   49.30    2.36
   0 -15  -4   49.88    2.12
   0  15  -4   49.52    2.20
  -1 -15  -4   15.58    1.27
   1 -15   4   13.92    1.51
  -1  15  -4   16.10    1.30
   2 -15   4   21.38    1.92
  -2 -15  -4   19.55    1.42
  -3 -15  -4   10.13    1.29
   3 -15   4    7.55    1.50
   4 -16  -4   11.20    1.12
   4  16  -4   10.68    1.13
   3 -16  -4   10.13    1.03
   3  16  -4   12.48    1.21
   2 -16  -4    0.78    0.63
   2 -16  -4    0.41    0.58
   2  16  -4    1.47    0.67
  -1 -16   4   90.20    3.20
   1 -16  -4   86.79    3.06
   1  16  -4   82.40    3.14
   0 -16   4   32.13    1.97
   0 -16  -4   30.43    1.71
   0  16  -4   33.69    1.82
   1 -16   4   16.27    1.59
  -1 -16  -4   13.07    1.22
  -1  16  -4   12.73    1.26
  -2 -16  -4   47.01    2.17
   2 -16   4   43.28    2.64
   3 -16   4   23.03    2.20
  -3 -16  -4   25.68    1.64
   4 -17  -4   59.76    2.39
   4  17  -4   61.37    2.60
   3 -17  -4   35.14    1.72
   3  17  -4   35.57    1.93
   2 -17  -4   22.39    1.46
   2 -17  -4   21.78    1.51
   2  17  -4   20.10    1.49
  -1 -17   4   14.15    1.38
   1 -17  -4   14.81    1.32
   1  17  -4   15.00    1.35
   0 -17   4   48.58    2.45
   0 -17  -4   45.80    2.16
   0  17  -4   47.23    2.25
   1 -17   4   20.89    1.81
  -1 -17  -4   22.02    1.53
  -1  17  -4   23.40    1.60
   2 -17   4   34.09    2.38
  -2 -17  -4   32.07    1.83
  -3 -17  -4    3.47    0.93
   3 -17   4    1.96    1.26
   4 -18  -4    6.25    0.88
   4  18  -4    7.90    1.05
   3 -18  -4    8.88    0.98
   3  18  -4   11.19    1.21
   2 -18  -4   23.08    1.58
   2 -18  -4   22.56    1.46
   2  18  -4   20.42    1.52
  -1 -18   4  123.52    4.16
   1 -18  -4  121.07    4.04
   1  18  -4  118.27    4.07
   0 -18  -4   27.32    1.71
   0 -18   4   28.09    1.94
   0  18  -4   28.46    1.79
   1 -18   4   15.76    1.87
  -1 -18  -4   15.01    1.34
  -1  18  -4   13.89    1.35
  -2 -18  -4   58.43    2.58
   2 -18   4   61.08    3.20
   4 -19  -4   44.92    2.05
   4  19  -4   44.08    2.21
   3 -19  -4   25.93    1.52
   3  19  -4   26.58    1.73
   2 -19  -4   46.89    2.26
   2 -19  -4   46.01    2.08
   2  19  -4   44.62    2.22
   1 -19  -4   12.42    1.37
   1  19  -4   12.41    1.36
   0 -19  -4   46.84    2.31
   0 -19   4   46.07    2.52
   0  19  -4   46.26    2.33
   1 -19   4   14.77    1.85
  -1 -19  -4   13.19    1.36
   2 -19   4   31.13    2.41
  -2 -19  -4   32.88    1.96
   4  20  -4   11.59    1.25
   3 -20  -4   16.30    1.27
   3  20  -4   14.09    1.36
   2 -20  -4   21.17    1.46
   2 -20  -4   19.98    1.62
   2  20  -4   19.43    1.55
   1 -20  -4   71.39    3.00
   1  20  -4   67.38    2.93
   0 -20  -4   24.76    1.79
   0 -20   4   24.98    1.99
   0  20  -4   26.94    1.83
   1 -20   4   26.59    2.07
  -1 -20  -4   22.79    1.71
  -2 -20  -4   34.30    1.97
   2 -20   4   31.52    2.49
   3 -21  -4   20.34    1.42
   3  21  -4   20.01    1.57
   2 -21  -4   37.08    1.88
   2 -21  -4   38.87    2.17
   2  21  -4   34.39    2.04
   1 -21  -4   12.41    1.51
   1  21  -4   11.70    1.35
   0 -21   4   37.34    2.38
   0 -21  -4   35.01    2.13
   0  21  -4   36.39    2.17
   1 -21   4    1.61    1.05
  -1 -21  -4    1.12    0.75
   3  22  -4   10.80    1.30
   2 -22  -4    5.32    0.89
   2 -22  -4    7.94    1.25
   2  22  -4    6.74    1.10
   1 -22  -4   44.00    2.44
   1  22  -4   43.44    2.38
   0 -22  -4    8.72    1.34
   0 -22   4    8.83    1.52
   1 -22   4   27.17    2.22
  -1 -22  -4   27.95    1.92
   3 -23  -4   22.95    1.58
   2 -23  -4   15.35    1.60
   2 -23  -4   15.80    1.34
   2  23  -4   15.56    1.53
   1 -23  -4   15.69    1.67
   1  23  -4   15.03    1.54
   0 -23  -4   14.66    1.61
   0 -23   4   17.25    1.86
   1 -23   4    8.48    1.69
   2 -24  -4    3.57    0.81
   2 -24  -4    4.26    1.15
   1 -24  -4   62.58    3.06
   0 -24   4   13.72    1.95
   5   0  -5   43.35    2.16
   4   0  -5    4.81    0.86
   3   0  -5  104.62    3.18
   2   0  -5    0.23    0.47
   1   0  -5    2.25    0.51
   0   0   5  112.33    3.66
   1   0   5   93.48    3.47
   2   0   5    0.84    0.95
   3   0   5   11.96    1.65
   5  -1  -5   33.85    1.95
   5   1  -5   34.72    1.92
   4  -1  -5    1.92    0.68
   4   1  -5    1.65    0.69
   3  -1  -5   76.77    2.54
   3   1  -5   71.62    2.49
   2  -1  -5  126.33    3.49
   2   1  -5  123.92    3.44
  -1  -1   5    6.36    0.80
   1  -1  -5    5.32    0.73
   1  -1  -5    5.72    0.68
   1   1  -5    4.45    0.62
   0  -1   5    8.79    1.10
   0   1   5    8.99    1.13
   1  -1   5   31.02    1.88
   1   1   5   31.60    1.93
  -1   1  -5   26.32    1.52
   2  -1   5   -0.23    0.87
   2   1   5    1.85    1.02
   3  -1   5   76.85    3.58
   3   1   5   73.23    3.58
   5  -2  -5   63.65    2.60
   5   2  -5   56.23    2.49
   4  -2  -5   11.90    1.18
   4   2  -5   11.83    1.15
   3  -2  -5   45.04    1.89
   3   2  -5   49.24    1.93
   2  -2  -5    6.12    0.78
   2   2  -5    5.13    0.70
   1  -2  -5    4.99    0.74
   1  -2  -5    4.58    0.63
  -1  -2   5    4.53    0.73
   1   2  -5    3.42    0.57
   0  -2   5  119.11    3.83
   0   2  -5  124.47    3.73
   1  -2   5  107.07    3.77
  -1   2  -5  108.48    3.31
   1   2   5  106.75    3.77
   2  -2   5   -0.06    0.91
   2   2   5    0.25    0.91
   3  -2   5   17.21    1.82
   3   2   5   14.02    1.85
   5  -3  -5   28.82    1.78
   5   3  -5   25.52    1.72
   4  -3  -5    3.11    0.77
   4   3  -5    2.89    0.72
   3  -3  -5   51.83    2.03
   3   3  -5   48.86    1.93
   2  -3  -5  138.45    3.86
   2   3  -5  145.90    3.76
  -1  -3   5    2.28    0.60
   1  -3  -5    2.18    0.49
   1  -3  -5    2.85    0.62
   1   3  -5    2.05    0.47
   0  -3   5   21.72    1.46
   0   3  -5   20.69    1.26
   0   3  -5   20.77    1.09
   1  -3   5   33.45    1.96
   1   3   5   33.80    2.01
  -1   3  -5   31.94    1.55
   2  -3   5    0.65    0.95
   2   3   5   -0.38    0.80
   3  -3   5   61.85    3.13
   3   3   5   61.65    3.12
   5  -4  -5   35.81    1.97
   5   4  -5   32.98    1.86
   4  -4  -5    1.54    0.67
   4   4  -5    1.42    0.61
   3  -4  -5   35.39    1.72
   3   4  -5   43.73    1.73
   2  -4  -5    6.08    0.80
   2   4  -5    5.06    0.66
   1  -4  -5    2.47    0.67
  -1  -4   5    3.00    0.67
   1  -4  -5    3.14    0.56
   1   4  -5    1.97    0.44
   1   4  -5    2.81    0.65
   0  -4  -5  154.08    4.27
   0  -4   5  143.52    4.50
   0   4  -5  152.29    4.43
   1  -4   5  115.31    3.97
  -1   4  -5  107.84    3.44
   2  -4   5    0.08    0.91
   3  -4   5    5.91    1.38
   5  -5  -5   23.65    1.71
   5   5  -5   27.28    1.79
   5   5  -5   28.23    1.71
   4  -5  -5    1.60    0.70
   4   5  -5    1.86    0.63
   4   5  -5    1.60    0.71
   3  -5  -5   29.83    1.55
   3   5  -5   29.72    1.65
   3   5  -5   28.88    1.42
   2  -5  -5  137.69    3.87
   2   5  -5  140.95    4.30
   2   5  -5  145.06    3.68
   1  -5  -5    0.82    0.57
   1  -5  -5    0.55    0.40
   1   5  -5    0.84    0.39
   1   5  -5    0.89    0.51
   0  -5   5    7.36    1.07
   0  -5  -5    6.71    0.85
   0   5  -5    5.25    0.81
  -1  -5  -5   34.56    1.71
   1  -5   5   34.69    2.03
  -1   5  -5   30.08    1.56
   2  -5   5    0.35    0.94
   3  -5   5   47.57    2.90
   5  -6  -5   38.70    2.05
   5   6  -5   37.50    1.94
   5   6  -5   37.89    2.09
   4  -6  -5    0.95    0.61
   4   6  -5    1.89    0.63
   4   6  -5    0.65    0.62
   3  -6  -5   52.69    2.07
   3   6  -5   49.12    1.82
   3   6  -5   47.69    2.17
   2  -6  -5    2.85    0.62
   2   6  -5    2.61    0.68
   2   6  -5    2.98    0.53
   1  -6  -5    2.05    0.53
   1   6  -5    2.09    0.62
   0  -6   5  139.42    4.41
   0  -6  -5  147.85    4.17
   0   6  -5  146.08    4.34
  -1  -6  -5   95.20    3.21
   1  -6   5   97.49    3.59
  -1   6  -5   97.41    3.15
  -2  -6  -5    7.11    1.05
   2  -6   5    5.40    1.26
   3  -6   5    5.08    1.41
  -3  -6  -5    7.29    1.16
   5  -7  -5   19.79    1.56
   5   7  -5   19.52    1.49
   5   7  -5   19.06    1.50
   4  -7  -5    5.80    0.91
   4   7  -5    6.31    0.82
   4   7  -5    6.08    0.97
   3  -7  -5   47.49    2.00
   3   7  -5   47.96    1.79
   3   7  -5   49.80    2.18
   2  -7  -5  136.22    3.78
   2   7  -5  128.33    4.13
   1  -7  -5    4.01    0.65
   1   7  -5    3.86    0.73
   0  -7  -5   11.53    1.04
   0  -7   5   11.71    1.24
   0   7  -5   11.94    1.12
  -1  -7  -5   25.38    1.49
   1  -7   5   25.31    1.79
  -1   7  -5   25.93    1.47
   2  -7   5    3.03    1.12
  -2  -7  -5    3.90    0.88
  -3  -7  -5   51.45    2.39
   3  -7   5   48.63    2.94
   5  -8  -5   29.97    1.82
   5   8  -5   29.13    1.69
   5   8  -5   29.22    1.80
   4  -8  -5    3.05    0.76
   4   8  -5    2.15    0.70
   4   8  -5    2.42    0.62
   3  -8  -5   48.68    1.99
   3   8  -5   45.49    2.14
   3   8  -5   46.58    1.74
   2  -8  -5   13.40    1.11
   2   8  -5   12.72    1.21
   1  -8  -5    0.47    0.44
   1   8  -5    1.37    0.57
   0  -8   5  116.26    3.89
   0  -8  -5  115.48    3.55
   0   8  -5  116.37    3.73
   1  -8   5   52.04    2.58
  -1  -8  -5   53.62    2.22
  -1   8  -5   57.33    2.24
  -2  -8  -5   15.58    1.30
   2  -8   5   11.56    1.58
  -3  -8  -5    8.90    1.21
   3  -8   5    6.71    1.47
   5  -9  -5   22.63    1.63
   5   9  -5   23.95    1.54
   5   9  -5   23.34    1.62
   4  -9  -5    5.21    0.87
   4   9  -5    4.79    0.91
   4   9  -5    4.21    0.72
   3  -9  -5   37.80    1.79
   3   9  -5   41.08    1.98
   2  -9  -5  141.65    3.98
   2   9  -5  140.80    4.37
   1  -9  -5   10.79    0.93
   1   9  -5   10.44    1.10
   0  -9   5    3.83    0.97
   0  -9  -5    5.18    0.88
   0   9  -5    4.73    0.83
   1  -9   5   15.96    1.60
  -1  -9  -5   15.85    1.25
  -1   9  -5   16.01    1.26
   2  -9   5    4.49    1.24
  -2  -9  -5    3.87    0.87
   3  -9   5   65.27    3.42
  -3  -9  -5   65.66    2.97
   5 -10  -5   31.60    1.85
   5  10  -5   34.31    1.94
   5  10  -5   33.02    1.77
   4 -10  -5    6.57    0.94
   4  10  -5    6.07    0.95
   3 -10  -5   42.19    1.88
   3  10  -5   40.99    2.00
   2 -10  -5    2.51    0.66
   2  10  -5    2.59    0.76
   1 -10  -5   11.12    0.97
   1  10  -5   10.81    1.15
   0 -10   5   85.32    3.24
   0 -10  -5   84.56    2.90
   0  10  -5   87.54    3.09
  -1 -10  -5   44.75    2.03
   1 -10   5   42.82    2.43
  -1  10  -5   48.17    2.08
  -2 -10  -5    5.17    0.99
   2 -10   5    4.46    1.26
   3 -10   5    8.60    1.61
  -3 -10  -5   10.70    1.41
   5 -11  -5   17.13    1.41
   5  11  -5   12.73    1.35
   4 -11  -5    3.22    0.73
   4  11  -5    2.68    0.77
   3 -11  -5   53.93    2.15
   3  11  -5   53.25    2.36
   2 -11  -5   99.15    3.13
   2  11  -5   93.24    3.36
   1 -11  -5    6.31    0.86
   1  11  -5    6.93    1.00
   0 -11   5   12.74    1.36
   0 -11  -5   14.42    1.17
   0  11  -5   13.69    1.30
  -1 -11  -5   19.68    1.38
   1 -11   5   17.85    1.73
  -1  11  -5   18.84    1.38
   2 -11   5   -0.05    1.02
  -2 -11  -5    0.02    0.56
   3 -11   5   50.12    3.07
  -3 -11  -5   52.39    2.40
   5 -12  -5   27.94    1.75
   5  12  -5   27.13    1.80
   4 -12  -5    0.40    0.55
   4  12  -5   -0.20    0.53
   3 -12  -5   43.09    1.96
   3  12  -5   45.38    2.16
   2 -12  -5    3.18    0.74
   2  12  -5    1.68    0.69
   1 -12  -5   12.68    1.08
   1  12  -5   15.12    1.32
   0 -12  -5   72.81    2.73
   0 -12   5   78.51    3.08
   0  12  -5   78.13    2.95
   1 -12   5   71.60    3.22
  -1 -12  -5   72.23    2.75
  -1  12  -5   75.13    2.81
   2 -12   5    2.07    1.15
  -2 -12  -5    4.35    0.92
  -3 -12  -5   11.39    1.49
   3 -12   5    8.10    1.75
   5  13  -5   17.32    1.47
   4 -13  -5    7.06    0.94
   4  13  -5    8.50    1.11
   3 -13  -5   22.14    1.46
   3  13  -5   19.72    1.49
   2 -13  -5   72.60    2.68
   2  13  -5   74.97    2.92
   1 -13  -5   11.02    1.16
   1  13  -5   10.19    1.21
   0 -13   5   12.06    1.50
   0 -13  -5   11.32    1.22
   0  13  -5   12.09    1.35
   1 -13   5   26.49    2.02
  -1 -13  -5   26.49    1.65
   2 -13   5   -0.28    1.01
  -2 -13  -5    0.22    0.69
   5  14  -5   21.89    1.61
   4 -14  -5    0.15    0.53
   4  14  -5    0.20    0.57
   3 -14  -5   25.54    1.55
   3  14  -5   25.57    1.68
   2 -14  -5    1.98    0.70
   2  14  -5    1.49    0.70
   1 -14  -5   19.60    1.36
   1  14  -5   22.15    1.57
   0 -14  -5   82.77    3.05
   0 -14   5   84.16    3.41
   0  14  -5   91.59    3.31
  -1 -14  -5   80.47    3.00
   1 -14   5   79.36    3.47
   2 -14   5    6.11    1.43
  -2 -14  -5    6.79    1.11
   4 -15  -5    9.72    1.11
   4  15  -5   10.26    1.22
   3 -15  -5   20.06    1.44
   3  15  -5   22.13    1.60
   2 -15  -5   63.93    2.50
   2  15  -5   61.73    2.68
   1 -15  -5    5.39    0.91
   1  15  -5    6.79    1.08
   0 -15   5   13.00    1.64
   0 -15  -5   11.79    1.23
   0  15  -5   12.28    1.37
  -1 -15  -5   26.91    1.71
   1 -15   5   24.99    2.05
  -2 -15  -5    1.07    0.71
   2 -15   5    1.34    1.17
   4 -16  -5    1.89    0.65
   4  16  -5    1.27    0.68
   3 -16  -5   20.13    1.43
   3  16  -5   17.18    1.50
   2 -16  -5    2.92    0.76
   2  16  -5    3.13    0.81
   1 -16  -5    9.61    1.20
   1  16  -5   10.51    1.31
   0 -16  -5   70.54    2.83
   0 -16   5   71.71    3.19
   0  16  -5   77.59    3.09
   1 -16   5   54.16    2.96
  -1 -16  -5   59.80    2.60
   2 -16   5   14.71    1.90
  -2 -16  -5   17.01    1.46
   4 -17  -5    8.21    1.03
   4  17  -5    8.93    1.16
   3 -17  -5   31.93    1.80
   3  17  -5   31.64    1.94
   2 -17  -5   48.49    2.20
   2  17  -5   50.26    2.43
   1 -17  -5    6.09    1.05
   1  17  -5    5.65    1.07
   0 -17  -5   12.69    1.45
   0 -17   5   13.80    1.71
   0  17  -5   11.72    1.39
  -1 -17  -5   14.50    1.57
   1 -17   5    9.32    1.54
  -1  17  -5   11.58    1.36
   2 -17   5    3.85    1.44
   3 -18  -5   43.99    2.14
   3  18  -5   47.05    2.42
   2 -18  -5    2.78    0.77
   2  18  -5    1.91    0.75
   1 -18  -5    7.50    1.15
   1  18  -5    8.89    1.22
   0 -18   5   59.18    3.01
   0 -18  -5   61.67    2.75
   0  18  -5   67.33    3.00
   1 -18   5   25.90    2.20
  -1 -18  -5   26.15    1.86
  -1  18  -5   28.57    1.91
   3 -19  -5   21.92    1.56
   3  19  -5   22.56    1.72
   2  19  -5   49.01    2.48
   1 -19  -5    6.56    1.14
   1  19  -5    5.61    1.05
   0 -19  -5    8.68    1.29
   0  19  -5   10.09    1.37
  -1 -19  -5   15.09    1.64
   1 -19   5   10.79    1.73
  -1  19  -5   11.29    1.43
   2 -20  -5    5.71    0.93
   2  20  -5    6.20    1.08
   1 -20  -5   13.44    1.64
   1  20  -5   12.96    1.53
   0 -20  -5   36.02    2.22
   0  20  -5   36.09    2.27
   1 -20   5   21.61    2.16
   2 -21  -5   51.51    2.49
   1 -21  -5    9.68    1.40
   0 -21  -5   19.83    1.83
   1 -22  -5   23.65    2.06
   5   0  -6    0.76    0.73
   4   0  -6   16.17    1.41
   3   0  -6   20.75    1.43
   2   0  -6   98.60    3.07
   1   0  -6   57.69    2.10
   0   0   6    0.14    0.71
   0   0  -6    0.53    0.47
   1   0   6   15.46    1.64
   5  -1  -6    9.34    1.31
   5   1  -6    9.64    1.26
   4  -1  -6   64.46    2.61
   4   1  -6   65.02    2.60
   3  -1  -6    8.63    1.02
   3   1  -6    7.96    0.96
   2  -1  -6    6.76    0.90
   2   1  -6    7.94    0.92
   1  -1  -6   70.53    2.42
   1   1  -6   67.16    2.32
   0  -1   6   13.14    1.43
   0   1  -6   12.32    1.11
   1  -1   6   15.46    1.67
   1   1   6   14.87    1.63
   2  -1   6    5.46    1.39
   2   1   6    5.01    1.32
   5  -2  -6    3.32    0.90
   5   2  -6    2.47    0.85
   4  -2  -6    4.22    0.89
   4   2  -6    3.52    0.86
   3  -2  -6    9.88    1.09
   3   2  -6   12.48    1.16
   2  -2  -6   53.46    2.13
   2   2  -6   53.10    2.06
   1  -2  -6   35.74    1.70
   1   2  -6   36.29    1.85
   0  -2   6    0.44    0.73
   0   2  -6    0.06    0.45
   1  -2   6   20.52    1.82
   2  -2   6   64.49    3.29
   2   2   6   67.68    3.36
   5  -3  -6   14.74    1.51
   5   3  -6   12.89    1.37
   4  -3  -6   85.03    3.06
   4   3  -6   83.07    2.93
   3  -3  -6    5.91    0.90
   3   3  -6    5.67    0.87
   2  -3  -6    7.66    0.94
   2   3  -6    6.69    0.82
   1  -3  -6   78.98    2.71
   1   3  -6   76.98    2.94
   0  -3   6   11.27    1.35
   0  -3  -6   10.27    1.06
   0   3  -6    9.16    1.04
   1  -3   6   22.25    1.83
   2  -3   6    0.49    1.08
   5  -4  -6    2.40    0.88
   5   4  -6    2.08    0.81
   5   4  -6    2.77    0.91
   4  -4  -6   15.29    1.39
   4   4  -6   15.09    1.39
   3  -4  -6   14.17    1.26
   3   4  -6   13.04    1.40
   3   4  -6   15.72    1.25
   2  -4  -6   27.76    1.55
   2   4  -6   24.59    1.65
   1  -4  -6   55.26    2.20
   1   4  -6   54.77    2.38
   0  -4   6   -0.02    0.68
   0  -4  -6   -0.07    0.53
   0   4  -6    0.20    0.49
  -1  -4  -6   29.32    1.76
   1  -4   6   28.25    2.06
   2  -4   6   51.79    2.89
   5  -5  -6   23.61    1.79
   5   5  -6   28.06    2.03
   5   5  -6   25.58    1.72
   4  -5  -6   75.80    2.84
   4   5  -6   75.45    2.75
   4   5  -6   79.95    3.36
   3  -5  -6    5.89    0.91
   3   5  -6    6.23    1.03
   3   5  -6    4.37    0.87
   2  -5  -6    4.31    0.79
   2   5  -6    4.63    0.87
   1  -5  -6   62.96    2.43
   1   5  -6   63.13    2.60
   0  -5  -6    9.79    1.06
   0  -5   6   12.68    1.44
   0   5  -6   10.80    1.13
   1  -5   6   38.97    2.36
  -1  -5  -6   41.47    2.06
  -2  -5  -6    1.10    0.80
   2  -5   6    2.18    1.18
   5   6  -6    6.93    1.02
   5   6  -6    7.12    1.15
   4  -6  -6    6.54    0.99
   4   6  -6    7.97    1.22
   4   6  -6    6.89    0.94
   3  -6  -6    8.63    1.03
   3   6  -6    6.77    1.08
   2  -6  -6   16.16    1.27
   2   6  -6   15.32    1.36
   1  -6  -6   61.22    2.42
   1   6  -6   57.75    2.52
   0  -6   6    3.91    0.97
   0  -6  -6    3.75    0.78
   0   6  -6    3.77    0.80
  -1  -6  -6   29.01    1.73
   1  -6   6   33.56    2.21
  -2  -6  -6   70.04    3.12
   2  -6   6   67.33    3.42
   5   7  -6   24.00    1.70
   5   7  -6   25.61    1.87
   4  -7  -6   51.18    2.30
   4   7  -6   54.98    2.68
   3  -7  -6    4.66    0.87
   3   7  -6    6.32    1.07
   2  -7  -6    2.22    0.69
   2   7  -6    1.52    0.69
   1  -7  -6   94.74    3.15
   1   7  -6   88.00    3.29
   0  -7  -6   20.48    1.36
   0   7  -6   21.40    1.53
  -1  -7  -6   37.78    1.96
   1  -7   6   37.48    2.38
   2  -7   6    1.66    1.21
  -2  -7  -6    2.25    0.91
   4  -8  -6    6.80    1.02
   4   8  -6    8.11    1.23
   3  -8  -6    9.42    1.10
   3   8  -6   10.64    1.32
   2  -8  -6   31.33    1.67
   2   8  -6   31.54    1.85
   1  -8  -6   49.63    2.25
   1   8  -6   45.23    2.23
   0  -8  -6   17.92    1.31
   0   8  -6   17.77    1.44
  -1  -8  -6   26.52    1.66
   1  -8   6   25.74    2.07
  -2  -8  -6   65.67    2.92
   2  -8   6   63.16    3.37
   4  -9  -6   46.00    2.17
   4   9  -6   47.80    2.45
   3  -9  -6    7.45    0.98
   3   9  -6   10.99    1.32
   2  -9  -6    2.76    0.75
   2   9  -6    3.05    0.79
   1  -9  -6   41.92    1.97
   1   9  -6   42.58    2.16
   0  -9  -6    5.90    0.95
   0   9  -6    4.03    0.83
  -1  -9  -6   17.23    1.40
   1  -9   6   16.73    1.79
   2  -9   6    1.70    1.21
  -2  -9  -6    0.58    0.70
   4 -10  -6    2.05    0.70
   4  10  -6    2.30    0.80
   3 -10  -6    7.90    1.02
   3  10  -6    8.03    1.22
   2 -10  -6   44.95    2.07
   2  10  -6   43.41    2.21
   1 -10  -6   27.29    1.64
   1  10  -6   25.31    1.72
   0 -10  -6    2.58    0.76
   0  10  -6    1.65    0.74
  -1 -10  -6   15.04    1.35
   1 -10   6   11.98    1.62
   2 -10   6   64.74    3.46
  -2 -10  -6   67.94    2.92
   4 -11  -6   42.14    2.06
   4  11  -6   40.93    2.25
   3 -11  -6    3.17    0.79
   3  11  -6    4.32    0.95
   2 -11  -6   10.38    1.21
   2  11  -6   11.81    1.32
   1 -11  -6   55.47    2.39
   1  11  -6   59.17    2.66
   0 -11  -6   18.95    1.45
   0  11  -6   18.82    1.60
   1 -11   6   12.89    1.72
  -1 -11  -6   15.73    1.45
   2 -11   6    4.43    1.41
   4 -12  -6    5.87    0.98
   4  12  -6    3.98    0.95
   3 -12  -6    5.59    0.94
   3  12  -6    6.65    1.09
   2 -12  -6   40.91    2.02
   2  12  -6   39.77    2.16
   1 -12  -6   31.27    1.82
   1  12  -6   32.03    2.00
   0 -12  -6    5.58    0.96
   0  12  -6    5.46    0.98
  -1 -12  -6   16.52    1.50
   1 -12   6   17.37    1.88
   3 -13  -6    4.69    0.86
   3  13  -6    5.57    1.07
   2 -13  -6   15.45    1.41
   2  13  -6   14.18    1.46
   1 -13  -6   34.99    1.95
   1  13  -6   34.25    2.05
   0 -13  -6    6.01    1.02
   0  13  -6    5.03    1.06
  -1 -13  -6   19.56    1.57
   1 -13   6   12.29    1.74
   3 -14  -6    9.69    1.18
   3  14  -6   11.03    1.37
   2 -14  -6   28.62    1.80
   2  14  -6   26.91    1.89
   1 -14  -6   27.03    1.77
   1  14  -6   25.00    1.84
   0 -14  -6   12.80    1.44
   0  14  -6   10.93    1.37
   1 -14   6   19.40    2.05
  -1 -14  -6   19.80    1.67
   3 -15  -6    7.15    1.04
   3  15  -6    8.07    1.19
   2 -15  -6    7.01    0.96
   2  15  -6   11.22    1.42
   1 -15  -6   46.30    2.28
   1  15  -6   45.58    2.56
   0 -15  -6    6.16    1.09
   0  15  -6    6.91    1.19
  -1 -15  -6   16.50    1.54
   1 -15   6   11.52    1.73
   2 -16  -6   14.53    1.39
   2  16  -6   14.58    1.50
   1 -16  -6   23.51    1.78
   1  16  -6   25.23    1.92
   0 -16  -6   16.40    1.50
   0  16  -6   16.15    1.54
   1 -16   6   10.03    1.70
   1  17  -6   32.59    2.17
   0 -17  -6    2.00    0.98
   0  17  -6    2.44    0.91
   4   0  -7    9.65    1.21
   3   0  -7   10.40    1.19
   1   0  -7    1.50    0.66
   4  -1  -7    4.64    0.96
   4   1  -7    3.51    0.92
   3  -1  -7   65.35    2.62
   3   1  -7   69.63    2.65
   2  -1  -7   24.02    1.57
   1   1  -7    0.28    0.58
   1  -1   7   17.05    1.88
   4  -2  -7    1.49    0.77
   4   2  -7    2.92    0.88
   3  -2  -7    1.23    0.66
   2  -2  -7    4.48    0.86
   2   2  -7    5.70    1.07
   1  -2  -7    5.48    0.90
   1   2  -7    7.65    1.14
   1  -2   7    4.64    1.33
   4  -3  -7    2.44    0.87
   3  -3  -7   40.19    2.05
   3   3  -7   43.97    2.45
   2  -3  -7   22.35    1.54
   2   3  -7   25.59    2.00
   1  -3  -7    4.25    0.89
   1   3  -7    2.51    0.76
  -1  -3  -7   19.74    1.62
   1  -3   7   14.14    1.78
   4  -4  -7    1.26    0.76
   3  -4  -7    3.98    0.86
   3   4  -7    2.98    1.00
   2  -4  -7    5.55    0.91
   2   4  -7    6.31    1.13
   1  -4  -7   13.62    1.36
   1   4  -7   13.99    1.44
   0  -4  -7   50.42    2.23
  -1  -4  -7    9.13    1.32
   1  -4   7    6.99    1.55
   3  -5  -7   36.68    2.03
   3   5  -7   41.01    2.37
   2  -5  -7   29.11    1.74
   2   5  -7   30.91    2.09
   1  -5  -7    5.70    0.99
   1   5  -7    4.88    0.97
  -1  -5  -7   18.60    1.60
   3  -6  -7    5.75    1.00
   3   6  -7    6.18    1.17
   2  -6  -7    3.09    0.80
   2   6  -7    5.15    1.20
   1  -6  -7   29.30    1.81
   1   6  -7   25.74    1.77
  -1  -6  -7    8.15    1.25
   3  -7  -7   60.68    2.63
   3   7  -7   69.03    3.08
   2  -7  -7   23.72    1.65
   2   7  -7   28.37    1.94
   1  -7  -7   10.01    1.30
   1   7  -7   10.06    1.33
  -1  -7  -7   14.48    1.46
   3  -8  -7    6.84    1.02
   3   8  -7    7.02    1.22
   2  -8  -7   10.06    1.21
   2   8  -7   10.07    1.39
   1  -8  -7    6.68    1.13
   1   8  -7    6.84    1.12
  -1  -8  -7    6.35    1.11
   3  -9  -7   55.52    2.51
   2  -9  -7   10.69    1.23
   2   9  -7   13.16    1.52
   1  -9  -7    1.55    0.78
   1   9  -7    1.52    0.80
   2 -10  -7    3.33    0.87
   2  10  -7    3.61    1.00
   1 -10  -7    1.50    0.81
   1  10  -7    0.33    0.68
   2 -11  -7   18.24    1.61
   2  11  -7   20.10    1.71
   1 -11  -7    2.66    0.88
   1  11  -7    2.74    0.85
   0  11  -7    2.84    0.92
   1  12  -7    6.37    1.21
   0   0   0    0.00    0.00
;
_shelx_hkl_checksum              63273
#END Tags that were not found in dictionaries
loop_
_space_group_symop_operation_xyz
'x, y, z'
'-x, y+1/2, -z'
loop_
_atom_site_type_symbol
_atom_site_label
_atom_site_fract_x
_atom_site_fract_y
_atom_site_fract_z
_atom_site_U_iso_or_equiv
_atom_site_adp_type
_atom_site_calc_flag
_atom_site_refinement_flags_adp
_atom_site_refinement_flags_posn
_atom_site_occupancy
Ag Ag1 0.21386(9) 0.85803(2) 0.42452(8) 0.01323(10) Uani d . . 1
Ag Ag2 -0.44264(9) 0.86666(2) -0.00975(8) 0.01441(11) Uani d . . 1
C C1 -0.0254(13) 0.7562(3) 0.0214(12) 0.0119(12) Uani d . . 1
C C2 0.1400(14) 0.6945(3) 0.1407(13) 0.0130(12) Uani d . . 1
H H2A 0.0168 0.6544 0.0994 0.016 Uiso calc U R 1
H H2B 0.3086 0.688 0.0685 0.016 Uiso calc U R 1
C C3 0.2391(13) 0.7006(3) 0.4244(11) 0.0095(12) Uani d . . 1
H H3 0.0678 0.7047 0.4977 0.011 Uiso calc U R 1
C C4 0.4055(13) 0.6373(3) 0.5289(11) 0.0102(11) Uani d . . 1
C C5 0.3908(13) 0.5248(3) 0.6962(12) 0.0106(11) Uani d . . 1
H H5 0.5709 0.5205 0.6359 0.013 Uiso calc U R 1
C C6 0.4730(14) 0.5256(3) 0.9826(13) 0.0117(12) Uani d . . 1
H H6A 0.5869 0.5663 1.0413 0.014 Uiso calc U R 1
H H6B 0.2978 0.5271 1.0481 0.014 Uiso calc U R 1
C C7 0.1996(13) 0.4652(3) 0.5925(12) 0.0107(11) Uani d . . 1
N N1 0.4191(11) 0.7607(3) 0.4909(10) 0.0114(10) Uani d . . 1
H H1A 0.5714 0.759 0.3968 0.014 Uiso calc U R 1
H H1B 0.5136 0.7578 0.6714 0.014 Uiso calc U R 1
N N2 0.2540(11) 0.5877(3) 0.5985(10) 0.0117(10) Uani d . . 1
H H2 0.0695 0.593 0.5851 0.014 Uiso calc U R 1
N N3 0.6409(12) 0.4653(3) 1.0801(11) 0.0138(11) Uani d . . 1
H H3A 0.7069 0.4706 1.264 0.017 Uiso calc U R 1
H H3B 0.8134 0.4651 1.0107 0.017 Uiso calc U R 1
O O1 0.0603(10) 0.7895(3) -0.1379(9) 0.0191(10) Uani d . . 1
O O2 -0.2485(10) 0.7706(3) 0.1009(10) 0.0187(10) Uani d . . 1
O O3 0.6651(9) 0.6332(2) 0.5424(10) 0.0201(10) Uani d . . 1
O O4 0.2665(11) 0.4293(3) 0.4305(10) 0.0246(12) Uani d . . 1
O O5 -0.0197(10) 0.4561(2) 0.6822(9) 0.0154(10) Uani d . . 1
loop_
_atom_site_aniso_label
_atom_site_aniso_U_11
_atom_site_aniso_U_22
_atom_site_aniso_U_33
_atom_site_aniso_U_12
_atom_site_aniso_U_13
_atom_site_aniso_U_23
Ag1 0.01464(19) 0.0078(2) 0.0161(2) 0.00229(18) 0.00112(15) -0.00124(18)
Ag2 0.0162(2) 0.0112(2) 0.0151(2) 0.00295(18) 0.00217(15) -0.00127(18)
C1 0.011(3) 0.014(3) 0.010(3) -0.003(2) 0.001(2) -0.002(2)
C2 0.011(3) 0.014(3) 0.013(3) 0.001(2) 0.001(2) 0.000(2)
C3 0.007(3) 0.009(3) 0.012(3) 0.000(2) 0.003(2) 0.004(2)
C4 0.010(3) 0.009(3) 0.013(3) 0.001(2) 0.005(2) 0.002(2)
C5 0.010(2) 0.009(3) 0.014(3) 0.002(2) 0.004(2) 0.003(2)
C6 0.014(3) 0.005(3) 0.015(3) 0.000(2) 0.002(2) 0.002(2)
C7 0.009(3) 0.011(3) 0.012(3) 0.002(2) 0.001(2) 0.003(2)
N1 0.009(2) 0.009(3) 0.015(3) 0.000(2) 0.001(2) -0.001(2)
N2 0.010(2) 0.010(2) 0.016(3) 0.0032(18) 0.006(2) 0.0053(19)
N3 0.014(3) 0.013(3) 0.014(3) 0.001(2) 0.002(2) 0.002(2)
O1 0.019(2) 0.027(3) 0.013(2) 0.005(2) 0.007(2) 0.0078(19)
O2 0.015(2) 0.014(2) 0.030(3) 0.0052(19) 0.011(2) 0.007(2)
O3 0.007(2) 0.012(2) 0.042(3) 0.0021(17) 0.008(2) 0.010(2)
O4 0.020(3) 0.031(3) 0.025(3) -0.008(2) 0.011(2) -0.013(2)
O5 0.010(2) 0.015(2) 0.023(3) -0.0038(18) 0.0067(19) -0.005(2)
loop_
_atom_type_symbol
_atom_type_description
_atom_type_scat_dispersion_real
_atom_type_scat_dispersion_imag
_atom_type_scat_source
C C 0.0033 0.0016 'International Tables Vol C Tables 4.2.6.8 and 6.1.1.4'
H H 0.0000 0.0000 'International Tables Vol C Tables 4.2.6.8 and 6.1.1.4'
N N 0.0061 0.0033 'International Tables Vol C Tables 4.2.6.8 and 6.1.1.4'
O O 0.0106 0.0060 'International Tables Vol C Tables 4.2.6.8 and 6.1.1.4'
Ag Ag -0.8971 1.1015 'International Tables Vol C Tables 4.2.6.8 and 6.1.1.4'
loop_
_geom_angle_atom_site_label_1
_geom_angle_atom_site_label_2
_geom_angle_atom_site_label_3
_geom_angle_site_symmetry_1
_geom_angle_site_symmetry_3
_geom_angle
N1 Ag1 O5 . 2_556 173.72(19)
N1 Ag1 Ag2 . 1_656 76.70(15)
O5 Ag1 Ag2 2_556 1_656 107.90(13)
N1 Ag1 Ag2 . 1_655 83.08(14)
O5 Ag1 Ag2 2_556 1_655 90.87(12)
Ag2 Ag1 Ag2 1_656 1_655 118.941(19)
O2 Ag2 N3 . 2_556 173.9(2)
O2 Ag2 Ag1 . 1_454 108.75(15)
N3 Ag2 Ag1 2_556 1_454 76.58(15)
O2 Ag2 Ag1 . 1_455 90.44(12)
N3 Ag2 Ag1 2_556 1_455 84.25(15)
Ag1 Ag2 Ag1 1_454 1_455 118.94(2)
O1 C1 O2 . . 124.2(6)
O1 C1 C2 . . 120.4(6)
O2 C1 C2 . . 115.4(5)
C3 C2 C1 . . 112.4(5)
C3 C2 H2A . . 109.1
C1 C2 H2A . . 109.1
C3 C2 H2B . . 109.1
C1 C2 H2B . . 109.1
H2A C2 H2B . . 107.8
N1 C3 C2 . . 110.2(5)
N1 C3 C4 . . 110.5(5)
C2 C3 C4 . . 109.2(5)
N1 C3 H3 . . 109.0
C2 C3 H3 . . 109.0
C4 C3 H3 . . 109.0
O3 C4 N2 . . 123.0(6)
O3 C4 C3 . . 120.7(5)
N2 C4 C3 . . 116.3(5)
N2 C5 C6 . . 110.9(5)
N2 C5 C7 . . 110.4(5)
C6 C5 C7 . . 112.3(5)
N2 C5 H5 . . 107.7
C6 C5 H5 . . 107.7
C7 C5 H5 . . 107.7
N3 C6 C5 . . 110.7(5)
N3 C6 H6A . . 109.5
C5 C6 H6A . . 109.5
N3 C6 H6B . . 109.5
C5 C6 H6B . . 109.5
H6A C6 H6B . . 108.1
O4 C7 O5 . . 124.7(6)
O4 C7 C5 . . 118.8(5)
O5 C7 C5 . . 116.6(5)
C3 N1 Ag1 . . 117.8(4)
C3 N1 H1A . . 107.8
Ag1 N1 H1A . . 107.8
C3 N1 H1B . . 107.8
Ag1 N1 H1B . . 107.8
H1A N1 H1B . . 107.2
C4 N2 C5 . . 120.8(5)
C4 N2 H2 . . 119.6
C5 N2 H2 . . 119.6
C6 N3 Ag2 . 2_546 119.3(4)
C6 N3 H3A . . 107.5
Ag2 N3 H3A 2_546 . 107.5
C6 N3 H3B . . 107.5
Ag2 N3 H3B 2_546 . 107.5
H3A N3 H3B . . 107.0
C1 O2 Ag2 . . 116.5(4)
C7 O5 Ag1 . 2_546 111.4(4)
loop_
_geom_bond_atom_site_label_1
_geom_bond_atom_site_label_2
_geom_bond_site_symmetry_2
_geom_bond_distance
Ag1 N1 . 2.169(5)
Ag1 O5 2_556 2.187(5)
Ag1 Ag2 1_656 3.1630(7)
Ag1 Ag2 1_655 3.2024(6)
Ag2 O2 . 2.156(5)
Ag2 N3 2_556 2.180(6)
Ag2 Ag1 1_454 3.1630(7)
Ag2 Ag1 1_455 3.2024(6)
C1 O1 . 1.241(7)
C1 O2 . 1.281(7)
C1 C2 . 1.527(9)
C2 C3 . 1.523(9)
C2 H2A . 0.99
C2 H2B . 0.99
C3 N1 . 1.474(8)
C3 C4 . 1.533(9)
C3 H3 . 1.0
C4 O3 . 1.236(7)
C4 N2 . 1.336(8)
C5 N2 . 1.459(8)
C5 C6 . 1.528(9)
C5 C7 . 1.529(9)
C5 H5 . 1.0
C6 N3 . 1.478(9)
C6 H6A . 0.99
C6 H6B . 0.99
C7 O4 . 1.240(8)
C7 O5 . 1.276(7)
N1 H1A . 0.99
N1 H1B . 0.99
N2 H2 . 0.88
N3 Ag2 2_546 2.180(6)
N3 H3A . 0.99
N3 H3B . 0.99
O5 Ag1 2_546 2.188(5)
