#------------------------------------------------------------------------------
#$Date: 2016-03-24 14:28:49 +0200 (Thu, 24 Mar 2016) $
#$Revision: 179665 $
#$URL: svn://www.crystallography.net/cod/cif/4/51/18/4511865.cif $
#------------------------------------------------------------------------------
#
# This file is available in the Crystallography Open Database (COD),
# http://www.crystallography.net/
#
# All data on this site have been placed in the public domain by the
# contributors.
#
data_4511865
loop_
_publ_author_name
'Miyake, Ryosuke'
'Nakagawa, Yuki'
'Hase, Mariko'
_publ_section_title
;
 Selective Thermal Elongation of Metal--Metal Distances in the
 Two-Dimensional Assembly of Ag(I) Ions Templated by Assembled Peptide
 Ligands
;
_journal_issue                   10
_journal_name_full               'Crystal Growth &amp; Design'
_journal_page_first              4882
_journal_paper_doi               10.1021/cg5009347
_journal_volume                  14
_journal_year                    2014
_chemical_absolute_configuration ad
_chemical_formula_sum            'C7 H11 Ag2 N3 O5'
_chemical_formula_weight         432.93
_space_group_crystal_system      monoclinic
_space_group_IT_number           4
_space_group_name_Hall           'P 2yb'
_space_group_name_H-M_alt        'P 1 21 1'
_symmetry_space_group_name_Hall  'P 2yb'
_symmetry_space_group_name_H-M   'P 1 21 1'
_atom_sites_solution_hydrogens   geom
_cell_angle_alpha                90
_cell_angle_beta                 102.953(3)
_cell_angle_gamma                90
_cell_formula_units_Z            2
_cell_length_a                   4.8367(9)
_cell_length_b                   19.970(4)
_cell_length_c                   5.5587(10)
_cell_measurement_temperature    323
_cell_volume                     523.25(17)
_computing_cell_refinement       'SAINT V8.32B (Bruker AXS)'
_computing_data_collection       'Bruker SMART APEXII ULTRA'
_computing_data_reduction        'SAINT V8.32B (Bruker AXS)'
_computing_molecular_graphics    'XSHELL V6.3.1 (Bruker AXS)'
_computing_publication_material  'Generate Report (Bruker AXS)'
_computing_structure_refinement  'SHELXL-2013 (Sheldrick, 2013)'
_computing_structure_solution    'SHELXS-97 (Sheldrick, 1997)'
_diffrn_ambient_temperature      323
_diffrn_detector_area_resol_mean 8.333
_diffrn_measured_fraction_theta_full 0.986
_diffrn_measured_fraction_theta_max 0.986
_diffrn_measurement_device_type  'Bruker D8 goniometer'
_diffrn_measurement_method       'omega scans'
_diffrn_radiation_monochromator  'multilayered conforcal mirror'
_diffrn_radiation_type           MoK\a
_diffrn_radiation_wavelength     0.71073
_diffrn_reflns_av_R_equivalents  0.0193
_diffrn_reflns_limit_h_max       5
_diffrn_reflns_limit_h_min       -6
_diffrn_reflns_limit_k_max       22
_diffrn_reflns_limit_k_min       -27
_diffrn_reflns_limit_l_max       7
_diffrn_reflns_limit_l_min       -7
_diffrn_reflns_number            3467
_diffrn_reflns_theta_full        29.12
_diffrn_reflns_theta_max         29.12
_diffrn_reflns_theta_min         2.04
_diffrn_source                   'rotating-anode X-ray tube'
_diffrn_source_type              'Bruker Tourbo X-ray Source'
_exptl_absorpt_coefficient_mu    3.757
_exptl_absorpt_correction_T_max  0.96
_exptl_absorpt_correction_T_min  0.82
_exptl_absorpt_correction_type   empirical
_exptl_absorpt_process_details   'SADABS V2012/1 (Bruker AXS)'
_exptl_crystal_colour            colorless
_exptl_crystal_density_diffrn    2.748
_exptl_crystal_density_method    'not measured'
_exptl_crystal_description       plate
_exptl_crystal_F_000             416
_exptl_crystal_size_max          0.055
_exptl_crystal_size_mid          0.023
_exptl_crystal_size_min          0.010
_refine_diff_density_max         2.387
_refine_diff_density_min         -1.677
_refine_ls_abs_structure_details
;
Flack x determined using 876 quotients [(I+)-(I-)]/[(I+)+(I-)]
(Parsons and Flack (2004), Acta Cryst. A60, s61).
;
_refine_ls_abs_structure_Flack   0.08(3)
_refine_ls_extinction_method     none
_refine_ls_goodness_of_fit_ref   1.064
_refine_ls_hydrogen_treatment    constr
_refine_ls_matrix_type           full
_refine_ls_number_parameters     154
_refine_ls_number_reflns         2254
_refine_ls_number_restraints     1
_refine_ls_restrained_S_all      1.063
_refine_ls_R_factor_all          0.0446
_refine_ls_R_factor_gt           0.0374
_refine_ls_shift/su_max          0.000
_refine_ls_shift/su_mean         0.000
_refine_ls_structure_factor_coef Fsqd
_refine_ls_weighting_details
'w=1/[\s^2^(Fo^2^)+(0.0282P)^2^+2.1000P] where P=(Fo^2^+2Fc^2^)/3'
_refine_ls_weighting_scheme      calc
_refine_ls_wR_factor_gt          0.0805
_refine_ls_wR_factor_ref         0.0840
_reflns_number_gt                1997
_reflns_number_total             2254
_reflns_threshold_expression     'I > 2\s(I)'
_cod_data_source_file            cg5009347_si_001.cif
_cod_data_source_block           p21_323K
_cod_depositor_comments
'Adding full bibliography for 4511859--4511871.cif.'
_cod_database_code               4511865
#BEGIN Tags that were not found in dictionaries:
_shelx_res_file
;
TITL p21(50) in P2(1)
CELL 0.71073   4.83670  19.96960   5.55870  90.0000 102.9534  90.0000
ZERR    2.00   0.00090   0.00360   0.00100   0.0000   0.0027   0.0000
LATT -1
SYMM -X, 0.5+Y, -Z
SFAC C  H  N  O  Ag
UNIT 14  22  6  10  4
L.S. 10
SHEL 20 0.73
ACTA
BOND $h
FMAP 2
PLAN 20
size 0.055 0.023 0.010
TEMP 50
WGHT    0.028200    2.100000
FVAR       0.19016
AG1   5    0.208831    0.857205    0.439810    11.00000    0.04400    0.01828 =
         0.05094   -0.00539   -0.00637    0.01010
AG2   5   -0.428612    0.867603   -0.007408    11.00000    0.04616    0.02452 =
         0.04457   -0.00613   -0.00393    0.00998
C1    1   -0.023108    0.756460    0.034275    11.00000    0.02258    0.02452 =
         0.02579   -0.00659   -0.00104    0.00222
C2    1    0.139016    0.695677    0.148617    11.00000    0.02957    0.02292 =
         0.03361   -0.00197    0.00514    0.00113
AFIX  23
H2A   2    0.304142    0.689855    0.078809    11.00000   -1.20000
H2B   2    0.019891    0.656409    0.106772    11.00000   -1.20000
AFIX   0
C3    1    0.235249    0.700494    0.428145    11.00000    0.01319    0.01481 =
         0.03100    0.00346    0.00709    0.00069
AFIX  13
H3    2    0.067957    0.704194    0.499349    11.00000   -1.20000
AFIX   0
C4    1    0.398306    0.637062    0.526069    11.00000    0.02022    0.01638 =
         0.02831    0.00492    0.00307    0.00417
C5    1    0.382053    0.524842    0.691989    11.00000    0.01621    0.01384 =
         0.03324    0.00423    0.00574    0.00133
AFIX  13
H5    2    0.556708    0.519952    0.632041    11.00000   -1.20000
AFIX   0
C6    1    0.464756    0.526326    0.971558    11.00000    0.03295    0.01806 =
         0.03238    0.00025    0.00325    0.00187
AFIX  23
H6A   2    0.577657    0.565989    1.024911    11.00000   -1.20000
H6B   2    0.294759    0.528955    1.036286    11.00000   -1.20000
AFIX   0
C7    1    0.188378    0.465295    0.591780    11.00000    0.02366    0.01994 =
         0.03206    0.00441    0.00294   -0.00012
N1    3    0.413665    0.759941    0.496311    11.00000    0.02388    0.01717 =
         0.03150    0.00235   -0.00046   -0.00031
AFIX  23
H1A   2    0.561304    0.758978    0.403595    11.00000   -1.20000
H1B   2    0.506175    0.756159    0.669635    11.00000   -1.20000
AFIX   0
N2    3    0.248436    0.587620    0.593546    11.00000    0.01758    0.01619 =
         0.04395    0.01127    0.00915    0.00397
AFIX  43
H2    2    0.068863    0.592692    0.578939    11.00000   -1.20000
AFIX   0
N3    3    0.628057    0.466365    1.071914    11.00000    0.03471    0.02480 =
         0.02696    0.00712   -0.00112    0.00055
AFIX  23
H3A   2    0.689322    0.472341    1.249063    11.00000   -1.20000
H3B   2    0.797768    0.465440    1.006376    11.00000   -1.20000
AFIX   0
O1    4    0.060004    0.789590   -0.123883    11.00000    0.06332    0.07357 =
         0.04513    0.03025    0.02326    0.02207
O2    4   -0.240207    0.772192    0.112325    11.00000    0.04129    0.03944 =
         0.07597    0.02837    0.03479    0.01615
O3    4    0.656717    0.631890    0.535572    11.00000    0.01437    0.03092 =
         0.10133    0.02773    0.02019    0.00516
O4    4    0.255935    0.428725    0.437602    11.00000    0.06667    0.08322 =
         0.06920   -0.04768    0.03216   -0.03087
O5    4   -0.026391    0.456820    0.673704    11.00000    0.02843    0.03077 =
         0.07466   -0.01068    0.01865   -0.01112
HKLF 4

REM  p21(50) in P2(1)
REM R1 =  0.0374 for    1997 Fo > 4sig(Fo)  and  0.0446 for all    2254 data
REM    154 parameters refined using      1 restraints

END

WGHT      0.0278      2.1174

REM Highest difference peak  2.387,  deepest hole -1.677,  1-sigma level  0.139
Q1    1   0.0918  0.8502  0.5180  11.00000  0.05    2.39
Q2    1  -0.3047  0.8744 -0.0882  11.00000  0.05    1.87
Q3    1  -0.3930  0.8596  0.0609  11.00000  0.05    0.69
Q4    1   0.8985  0.3917  0.9566  11.00000  0.05    0.62
Q5    1   0.3051  0.8569  0.2513  11.00000  0.05    0.55
Q6    1   0.5722  0.8394  0.6588  11.00000  0.05    0.53
Q7    1  -0.5770  0.8517 -0.0745  11.00000  0.05    0.51
Q8    1  -0.4820  0.8693  0.1871  11.00000  0.05    0.47
Q9    1  -0.5375  0.8485 -0.2064  11.00000  0.05    0.45
Q10   1   0.0770  0.8604  0.2222  11.00000  0.05    0.45
Q11   1  -0.1198  0.8402 -0.1281  11.00000  0.05    0.41
Q12   1  -0.5543  0.8765  0.1323  11.00000  0.05    0.41
Q13   1   0.0847  0.3805  0.4460  11.00000  0.05    0.41
Q14   1   0.0706  0.3772  0.2605  11.00000  0.05    0.40
Q15   1  -0.0834  0.8590  0.0720  11.00000  0.05    0.39
Q16   1   0.9641  0.3852  1.1601  11.00000  0.05    0.39
Q17   1   0.5775  0.6374  0.6011  11.00000  0.05    0.38
Q18   1  -0.3544  0.8939  0.1454  11.00000  0.05    0.38
Q19   1   0.2894  0.4129  0.5299  11.00000  0.05    0.37
Q20   1  -0.0825  0.7762 -0.1890  11.00000  0.05    0.37
;
_shelx_res_checksum              53145
_shelx_hkl_file
;
  -1   0   0  116.69    1.94
  -1   0   0  114.42    1.90
  -2   0   0   18.97    0.57
  -2   0   0   18.28    0.62
  -3   0   0   20.82    0.81
  -3   0   0   21.56    0.77
  -4   0   0    3.61    0.52
  -4   0   0    4.17    0.52
  -5   0   0   46.65    1.63
  -6   0   0    7.04    0.93
   0  -1   0   -1.48    0.01
   0   1   0   -1.49    0.02
  -1  -1   0   83.78    1.41
  -1  -1   0   84.49    1.44
  -1   1   0   80.21    1.42
  -1   1   0   81.08    1.44
  -2  -1   0  232.08    3.86
  -2  -1   0  237.89    3.92
  -2   1   0  237.66    3.93
  -2   1   0  226.94    3.86
  -3  -1   0   95.15    2.02
  -3  -1   0   94.62    1.92
  -3   1   0   96.42    2.03
  -3   1   0   95.35    1.93
  -4  -1   0    6.43    0.60
  -4  -1   0    7.17    0.67
  -4   1   0    6.80    0.66
  -5  -1   0    2.88    0.60
  -5   1   0    3.93    0.67
  -6  -1   0    7.81    0.92
  -6   1   0    8.75    1.01
   0  -2   0  983.43   20.07
   1  -2   0   39.62    0.77
  -1  -2   0   37.82    0.78
  -1  -2   0   37.91    0.77
  -1   2   0   41.12    0.80
  -2  -2   0    2.62    0.28
  -2  -2   0    2.86    0.29
  -2   2   0    2.40    0.30
  -3  -2   0   62.54    1.43
  -3  -2   0   60.95    1.49
  -3   2   0   63.17    1.51
  -4  -2   0    6.28    0.64
  -4  -2   0    7.06    0.63
  -4   2   0    5.76    0.61
  -5  -2   0   23.02    1.19
  -5   2   0   25.12    1.24
  -6  -2   0    3.17    0.72
  -6   2   0    2.51    0.69
   0  -3   0   -0.45    0.08
   1  -3   0   50.71    0.97
  -1  -3   0   50.78    0.98
  -1  -3   0   49.83    0.96
  -1   3   0   50.61    0.96
  -1   3   0   51.37    0.99
  -2  -3   0  187.71    3.14
  -2  -3   0  181.40    3.16
   2  -3   0  183.80    3.12
  -2   3   0  183.89    3.19
   3  -3   0  164.38    2.97
  -3  -3   0  167.64    3.01
  -3  -3   0  162.13    3.07
  -3   3   0  163.68    3.09
  -4  -3   0    2.07    0.45
  -4  -3   0    1.87    0.47
   4  -3   0    1.16    0.30
  -4   3   0    2.40    0.47
  -5  -3   0    4.01    0.68
  -5   3   0    3.93    0.67
  -6  -3   0    9.10    1.01
  -6   3   0    7.51    0.94
   0  -4   0  415.01    6.56
   1  -4   0  126.34    2.18
  -1  -4   0  131.25    2.15
  -1  -4   0  127.54    2.20
  -1   4   0  126.84    2.17
  -1   4   0  130.14    2.23
  -2  -4   0   28.43    0.80
   2  -4   0   28.88    0.76
  -2  -4   0   29.52    0.81
  -2   4   0   31.42    0.83
  -3  -4   0   46.95    1.21
  -3  -4   0   47.65    1.27
   3  -4   0   46.70    1.16
  -3   4   0   47.03    1.28
  -4  -4   0    1.60    0.42
  -4  -4   0    1.67    0.44
   4  -4   0    1.06    0.32
  -4   4   0    1.37    0.42
  -5  -4   0   12.50    0.98
  -5   4   0   13.81    1.04
  -6  -4   0    3.50    0.76
  -6   4   0    3.34    0.71
   0  -5   0   -0.93    0.13
  -1  -5   0   64.17    1.27
  -1  -5   0   63.31    1.20
   1  -5   0   63.32    1.26
  -1   5   0   67.33    1.28
  -1   5   0   66.68    1.24
  -2  -5   0  331.93    5.37
  -2  -5   0  319.48    5.31
   2  -5   0  322.92    5.33
  -2   5   0  332.13    5.37
   3  -5   0  237.22    4.11
  -3  -5   0  240.06    4.15
  -3  -5   0  232.87    4.17
  -3   5   0  235.21    4.22
   4  -5   0    1.08    0.32
  -4  -5   0    1.47    0.41
  -4  -5   0    0.62    0.37
  -4   5   0    1.59    0.44
  -5  -5   0    2.26    0.59
  -5   5   0    3.06    0.64
  -6  -5   0    5.96    0.88
  -6   5   0    5.28    0.86
   0  -6   0  338.13    5.46
  -1  -6   0  128.59    2.28
  -1  -6   0  129.98    2.18
   1  -6   0  128.22    2.27
  -1   6   0  126.33    2.21
  -1   6   0  128.79    2.33
   2  -6   0    6.35    0.40
  -2  -6   0    6.20    0.41
  -2  -6   0    6.29    0.47
  -2   6   0    7.15    0.43
   3  -6   0   93.13    1.94
  -3  -6   0   94.72    2.02
  -3  -6   0   94.57    2.00
  -3   6   0   95.94    2.07
  -4  -6   0    1.67    0.45
  -4  -6   0    1.46    0.44
   4  -6   0    1.72    0.35
  -4   6   0    2.78    0.51
  -5  -6   0   14.12    1.01
  -5   6   0   12.87    1.01
  -6  -6   0    4.75    0.78
  -6   6   0    3.75    0.77
   0  -7   0    0.07    0.18
  -1  -7   0  225.47    3.64
   1  -7   0  223.57    3.78
  -1  -7   0  223.13    3.77
  -2  -7   0  191.50    3.33
   2  -7   0  198.58    3.40
  -2  -7   0  196.57    3.42
  -2   7   0  195.95    3.40
  -2   7   0  185.65    3.41
  -3  -7   0  256.92    4.44
   3  -7   0  248.17    4.40
  -3  -7   0  255.03    4.46
  -3   7   0  248.44    4.48
   4  -7   0    0.46    0.31
  -4  -7   0    0.52    0.39
  -4  -7   0    0.76    0.39
  -4   7   0   -0.32    0.35
  -5  -7   0    1.22    0.54
  -5   7   0    0.92    0.55
  -6  -7   0    6.86    0.90
  -6   7   0    5.30    0.88
   0  -8   0  637.89   10.09
  -1  -8   0  182.58    3.05
   1  -8   0  185.20    3.21
  -1  -8   0  183.01    3.21
  -2  -8   0   36.66    1.01
  -2  -8   0   35.62    0.93
   2  -8   0   37.82    0.99
  -2   8   0   35.91    0.97
  -2   8   0   34.32    0.92
  -3  -8   0   43.45    1.24
  -3  -8   0   41.18    1.18
   3  -8   0   39.19    1.13
  -3   8   0   39.67    1.22
  -4  -8   0    5.16    0.60
   4  -8   0    4.87    0.53
  -4  -8   0    4.67    0.58
  -4   8   0    5.95    0.70
  -5  -8   0   22.15    1.18
  -5   8   0   24.90    1.29
  -6  -8   0    1.76    0.62
  -6   8   0    2.55    0.75
   0  -9   0   -0.14    0.19
  -1  -9   0   51.85    1.23
   1  -9   0   51.70    1.22
  -1  -9   0   52.14    1.08
   2  -9   0   42.63    1.13
  -2  -9   0   43.27    1.07
  -2  -9   0   43.92    1.17
  -2   9   0   43.99    1.12
  -3  -9   0   62.38    1.53
  -3  -9   0   61.48    1.56
   3  -9   0   58.11    1.49
  -3   9   0   61.53    1.57
  -4  -9   0    5.96    0.64
  -4  -9   0    4.69    0.57
   4  -9   0    6.06    0.60
  -4   9   0    6.73    0.72
  -5  -9   0    1.99    0.56
  -5   9   0    2.28    0.61
  -6  -9   0    7.63    0.94
  -6   9   0    5.96    0.91
   0 -10   0  685.55   10.94
  -1 -10   0   25.55    0.83
  -1 -10   0   24.69    0.67
   1 -10   0   24.58    0.80
   2 -10   0    1.95    0.37
  -2 -10   0    1.74    0.28
  -2 -10   0    0.97    0.34
  -2  10   0    1.82    0.32
   3 -10   0   23.93    0.91
  -3 -10   0   22.95    0.90
  -3 -10   0   22.13    0.97
  -3  10   0   24.17    0.94
  -4 -10   0    4.51    0.57
   4 -10   0    5.45    0.61
  -4 -10   0    5.36    0.63
  -4  10   0    5.84    0.69
  -5 -10   0   26.01    1.26
  -5  10   0   25.04    1.31
  -6 -10   0    5.10    0.83
  -6  10   0    4.54    0.86
   0 -11   0    0.13    0.24
   1 -11   0   55.20    1.36
  -1 -11   0   55.44    1.36
  -1 -11   0   53.81    1.16
   2 -11   0   74.45    1.71
  -2 -11   0   72.66    1.57
  -2 -11   0   73.79    1.74
   3 -11   0   90.07    2.06
  -3 -11   0   89.93    2.10
  -3 -11   0   92.39    2.01
  -3  11   0   88.53    2.07
  -4 -11   0   14.94    0.88
   4 -11   0   15.21    0.85
  -4 -11   0   14.86    0.95
  -4  11   0   14.76    0.92
  -5 -11   0    1.66    0.52
  -5  11   0    1.88    0.59
  -6 -11   0    4.32    0.79
  -6  11   0    4.34    0.86
   0 -12   0  635.90   10.30
  -1 -12   0   40.03    0.97
   1 -12   0   43.92    1.21
  -1 -12   0   43.30    1.20
  -2 -12   0   20.70    0.90
   2 -12   0   20.70    0.84
  -2 -12   0   20.10    0.73
  -3 -12   0   41.40    1.22
  -3 -12   0   40.60    1.35
   3 -12   0   41.29    1.29
  -3  12   0   39.77    1.27
  -4 -12   0   11.81    0.94
  -4 -12   0   12.79    0.84
   4 -12   0   10.50    0.78
  -4  12   0   10.45    0.83
  -5 -12   0   15.50    1.06
  -5  12   0   17.99    1.17
   0 -13   0    0.64    0.31
  -1 -13   0   38.25    1.16
  -1 -13   0   36.87    0.94
   1 -13   0   38.07    1.17
   2 -13   0  115.20    2.46
  -2 -13   0  112.31    2.23
  -2 -13   0  116.15    2.48
  -3 -13   0   74.36    1.93
  -3 -13   0   73.65    1.76
   3 -13   0   74.80    1.89
   4 -13   0   21.58    1.04
  -4 -13   0   18.30    1.14
  -4 -13   0   21.78    1.02
  -4  13   0   19.42    1.04
  -5 -13   0    1.00    0.49
  -5  13   0    0.57    0.54
   0 -14   0  200.75    3.79
   1 -14   0   38.59    1.23
  -1 -14   0   39.25    0.98
  -1 -14   0   37.75    1.21
  -2 -14   0   37.09    1.05
  -2 -14   0   38.12    1.28
   2 -14   0   36.62    1.22
  -3 -14   0   28.40    1.00
  -3 -14   0   27.17    1.17
   3 -14   0   27.56    1.12
  -4 -14   0    4.01    0.56
  -4 -14   0    4.84    0.71
   4 -14   0    4.91    0.66
   0 -15   0   -0.08    0.28
  -1 -15   0   58.01    1.58
   1 -15   0   58.36    1.61
  -1 -15   0   56.84    1.29
  -2 -15   0   47.92    1.23
  -2 -15   0   47.41    1.48
   2 -15   0   44.74    1.42
  -3 -15   0   69.21    1.94
  -3 -15   0   68.49    1.71
   3 -15   0   70.03    1.92
  -4 -15   0   10.97    0.93
   4 -15   0   11.74    0.91
   0 -16   0   57.83    1.63
   1 -16   0   35.07    1.23
  -1 -16   0   33.24    0.92
  -1 -16   0   30.58    1.17
   2 -16   0   19.10    0.96
  -2 -16   0   18.63    0.75
  -2 -16   0   20.00    1.02
  -3 -16   0   27.36    1.27
   3 -16   0   31.60    1.26
  -4 -16   0    3.91    0.70
   4 -16   0    5.07    0.77
   0 -17   0    0.76    0.37
   1 -17   0   28.43    1.14
  -1 -17   0   25.96    1.12
  -1 -17   0   26.43    0.83
   2 -17   0   39.75    1.40
  -2 -17   0   38.01    1.40
   3 -17   0   45.88    1.59
  -3 -17   0   48.57    1.67
  -4 -17   0    1.06    0.59
   4 -17   0    1.85    0.60
   0 -18   0  241.74    4.66
   1 -18   0   46.81    1.51
  -1 -18   0   42.13    1.47
  -2 -18   0   10.94    0.92
   2 -18   0   11.41    0.86
  -3 -18   0   13.60    1.03
   3 -18   0   14.06    0.97
   4 -18   0    1.09    0.54
  -4 -18   0    1.58    0.65
   0 -19   0    0.56    0.41
  -1 -19   0   71.67    2.00
   1 -19   0   66.70    1.97
  -2 -19   0   17.60    1.09
   2 -19   0   16.16    1.02
   3 -19   0   35.59    1.48
  -3 -19   0   35.20    1.51
   4 -19   0   12.81    1.14
  -4 -19   0   11.50    1.07
   0 -20   0   84.87    2.27
  -1 -20   0   42.79    1.55
   1 -20   0   39.93    1.51
  -2 -20   0   12.62    1.05
   2 -20   0   11.13    0.93
  -3 -20   0   14.09    1.12
   3 -20   0   13.67    1.03
   4 -20   0    6.98    0.91
  -4 -20   0    4.79    0.86
   0 -21   0    0.31    0.41
  -1 -21   0   35.03    1.47
   1 -21   0   36.41    1.46
   2 -21   0    6.12    0.82
  -2 -21   0    7.05    0.85
   3 -21   0   14.77    1.11
  -3 -21   0   18.44    1.25
   4 -21   0   13.38    1.25
  -4 -21   0   12.54    1.17
   0 -22   0   51.98    1.79
   1 -22   0   14.44    1.04
  -1 -22   0   13.59    1.07
   2 -22   0   10.49    1.08
  -2 -22   0    9.18    1.00
   3 -22   0    8.34    1.05
  -3 -22   0    6.69    0.91
   4 -22   0    6.49    0.95
  -4 -22   0    4.62    0.89
   0 -23   0    0.03    0.45
   1 -23   0   19.64    1.21
  -1 -23   0   22.84    1.29
  -2 -23   0   11.40    1.09
   2 -23   0   12.90    1.23
  -3 -23   0   12.88    1.17
   3 -23   0   14.26    1.14
   4 -23   0   12.52    1.31
  -4 -23   0   10.55    1.15
   0 -24   0   23.55    1.31
  -1 -24   0    9.89    1.00
   1 -24   0    9.10    0.99
   2 -24   0    9.38    1.06
  -2 -24   0    9.89    1.07
  -3 -24   0   14.23    1.27
   3 -24   0   15.24    1.40
   0 -25   0    1.50    0.60
   1 -25   0   23.35    1.36
  -1 -25   0   21.30    1.36
  -2 -25   0   12.45    1.17
   2 -25   0   11.79    1.18
   3 -25   0   25.79    1.52
  -3 -25   0   27.26    1.63
   0 -26   0   19.68    1.36
  -1 -26   0   21.38    1.43
   1 -26   0   19.24    1.32
  -2 -26   0   24.28    1.54
   2 -26   0   23.25    1.45
   0 -27   0   -0.12    0.57
   1 -27   0   18.91    1.35
  -1 -27   0   20.04    1.48
  -6   0   1    0.67    0.54
  -5   0   1    3.47    0.64
  -4   0   1   16.31    0.87
  -3   0   1    0.46    0.27
  -2   0   1  562.47    8.85
  -1   0   1   93.66    1.63
   0   0  -1   15.91    0.41
  -1   0  -1  226.12    3.62
  -1   0  -1  220.61    3.69
  -2   0  -1  254.09    4.26
  -2   0  -1  252.77    4.32
  -3   0  -1   23.91    0.91
  -3   0  -1   22.13    0.88
  -4   0  -1    4.92    0.66
  -4   0  -1    3.14    0.53
  -5   0  -1    5.48    0.78
  -5   0  -1    4.91    0.79
  -6   0  -1    1.51    0.64
  -6  -1   1    2.32    0.66
  -6   1   1    2.11    0.65
  -5  -1   1   35.29    1.42
  -5   1   1   36.28    1.42
  -4  -1   1   56.36    1.57
  -4   1   1   54.29    1.56
  -3  -1   1   11.13    0.60
  -3   1   1   11.57    0.62
  -2  -1   1   77.10    1.54
  -2   1   1   76.22    1.54
  -1  -1   1  476.39    7.38
  -1   1   1  475.15    7.35
   0  -1  -1   74.13    1.30
   0   1  -1   76.19    1.32
  -1  -1  -1  222.39    3.50
  -1  -1  -1  217.70    3.60
  -1   1  -1  212.18    3.53
  -1   1  -1  213.17    3.59
  -2  -1  -1    1.56    0.27
  -2  -1  -1    1.84    0.32
  -2   1  -1    2.17    0.33
  -2   1  -1    1.53    0.28
  -3  -1  -1   24.25    0.90
  -3  -1  -1   23.84    0.92
  -3   1  -1   25.68    0.95
  -3   1  -1   25.29    0.92
  -4  -1  -1  114.52    2.55
  -4  -1  -1  110.49    2.53
  -4   1  -1  109.82    2.55
  -4   1  -1  113.03    2.54
  -5  -1  -1    6.75    0.80
  -5  -1  -1    6.83    0.85
  -5   1  -1    9.19    0.94
  -6  -1  -1    2.63    0.71
  -6   1  -1    1.79    0.65
  -6  -2   1    2.22    0.67
  -6   2   1    1.21    0.60
  -5  -2   1    2.81    0.60
  -5   2   1    2.14    0.55
  -4  -2   1   33.16    1.18
  -4   2   1   31.31    1.17
  -3  -2   1   12.66    0.64
  -3   2   1   14.71    0.68
  -2  -2   1  220.59    3.76
  -2   2   1  224.53    3.74
  -1  -2   1  314.34    5.04
  -1   2   1  322.33    4.98
   0  -2   1   41.25    0.81
   0  -2  -1   41.29    0.81
  -1  -2  -1  508.91    8.21
  -1  -2  -1  508.30    8.03
  -1   2  -1  528.55    8.23
  -1   2  -1  535.25    8.12
  -2  -2  -1  175.08    3.09
  -2  -2  -1  175.44    3.18
  -2   2  -1  182.20    3.16
  -2   2  -1  178.00    3.18
  -3  -2  -1   50.50    1.34
  -3  -2  -1   48.86    1.36
  -3   2  -1   49.92    1.36
  -3   2  -1   49.67    1.36
  -4  -2  -1    9.77    0.79
  -4  -2  -1   10.32    0.81
  -4   2  -1    8.92    0.77
  -5  -2  -1    0.69    0.57
  -5  -2  -1    1.27    0.54
  -5   2  -1    1.33    0.57
  -6  -2  -1    6.02    0.90
  -6   2  -1    7.45    0.97
  -6  -3   1    0.90    0.61
  -6   3   1    0.25    0.55
  -5  -3   1    6.04    0.75
  -5   3   1    7.58    0.83
  -4  -3   1   48.14    1.45
  -4   3   1   48.75    1.47
  -3  -3   1    6.23    0.50
  -3   3   1    7.43    0.56
  -3   3   1    5.79    0.38
  -2  -3   1   79.31    1.55
  -2   3   1   72.45    1.49
  -2   3   1   72.55    1.50
  -1  -3   1  391.75    6.17
  -1   3   1  393.09    6.19
  -1   3   1  393.55    6.47
   0  -3   1    5.28    0.26
   0  -3  -1    4.95    0.26
   0   3   1    4.41    0.26
  -1  -3  -1  409.84    6.50
  -1  -3  -1  399.04    6.28
  -2  -3  -1    9.98    0.49
  -2  -3  -1   11.22    0.58
  -2   3  -1   10.81    0.58
  -2   3  -1   11.28    0.55
  -3  -3  -1   15.02    0.77
  -3  -3  -1   13.90    0.73
  -3   3  -1   15.38    0.76
  -4  -3  -1   89.39    2.14
  -4  -3  -1   86.54    2.15
  -4   3  -1   84.23    2.17
  -5  -3  -1    2.01    0.64
  -5  -3  -1    1.35    0.55
   5  -3   1    1.42    0.43
  -5   3  -1    2.86    0.63
  -6  -3  -1    1.41    0.63
  -6   3  -1    1.00    0.62
  -6  -4   1    0.12    0.53
  -6   4   1    0.58    0.55
  -5  -4   1    2.22    0.57
  -5   4   1    1.65    0.55
  -4  -4   1   26.94    1.09
  -4   4   1   27.37    1.10
  -3  -4   1    1.37    0.33
  -3   4   1    1.24    0.32
  -3   4   1    1.56    0.25
  -2  -4   1  255.94    4.28
  -2   4   1  250.42    4.38
  -2   4   1  257.00    4.23
  -1  -4   1   71.84    1.35
  -1   4   1   69.51    1.25
  -1   4   1   70.55    1.40
   0  -4  -1   31.82    0.73
   0  -4   1   30.63    0.71
   0   4   1   33.09    0.75
  -1  -4  -1  424.27    6.92
   1  -4   1  442.45    6.91
  -1  -4  -1  429.68    6.69
  -2  -4  -1  233.69    4.03
  -2  -4  -1  230.42    3.90
  -2   4  -1  230.36    4.00
  -3  -4  -1    9.88    0.65
  -3  -4  -1   10.41    0.72
  -3   4  -1    9.56    0.65
  -4  -4  -1    6.97    0.70
   4  -4   1    6.13    0.59
  -4  -4  -1    7.12    0.72
  -4   4  -1    7.89    0.76
  -5  -4  -1    0.57    0.48
  -5  -4  -1   -0.45    0.52
   5  -4   1    1.14    0.44
  -5   4  -1    0.68    0.53
  -6  -4  -1    4.98    0.83
  -6   4  -1    6.50    0.95
  -6  -5   1   -0.16    0.52
  -6   5   1    0.84    0.61
  -5  -5   1   11.20    0.95
  -5   5   1   11.21    0.98
  -4  -5   1   81.50    2.01
  -4   5   1   81.95    2.02
  -3  -5   1    7.81    0.56
  -3   5   1    7.62    0.45
  -3   5   1    7.71    0.55
  -2  -5   1   56.52    1.27
  -2   5   1   54.95    1.21
  -2   5   1   55.61    1.24
  -1  -5   1  277.02    4.51
   1  -5  -1  274.75    4.52
  -1  -5   1  285.18    4.55
  -1   5   1  280.56    4.42
  -1   5   1  286.46    4.77
   0  -5   1   20.47    0.56
   0  -5  -1   20.00    0.57
   1  -5   1  300.69    4.88
  -1  -5  -1  290.96    4.89
   2  -5   1   10.87    0.54
  -2  -5  -1   10.66    0.60
  -2  -5  -1   11.10    0.50
  -2   5  -1   11.64    0.57
  -3  -5  -1   19.87    0.83
  -3  -5  -1   21.15    0.91
   3  -5   1   19.80    0.80
  -3   5  -1   21.72    0.89
  -4  -5  -1   84.96    2.14
  -4  -5  -1   88.04    2.12
   4  -5   1   86.47    2.07
  -4   5  -1   85.11    2.19
  -5  -5  -1    2.91    0.60
  -5  -5  -1    3.53    0.71
   5  -5   1    3.05    0.58
  -5   5  -1    2.90    0.67
  -6  -5  -1    2.39    0.69
  -6   5  -1    1.78    0.70
  -6  -6   1   -0.43    0.51
  -6   6   1    0.08    0.56
  -5  -6   1    2.17    0.59
  -5   6   1    0.61    0.50
  -4  -6   1   34.99    1.25
  -4   6   1   38.12    1.29
  -3  -6   1    0.81    0.31
  -3   6   1    0.43    0.28
  -3   6   1    0.36    0.20
  -2  -6   1  324.65    5.33
  -2   6   1  321.75    5.25
  -2   6   1  320.27    5.50
  -1  -6   1   99.88    1.84
  -1  -6   1   99.94    1.81
   1  -6  -1  100.46    1.83
  -1   6   1   96.71    1.69
  -1   6   1  100.59    1.93
   0  -6  -1   44.18    0.98
   0  -6   1   44.26    0.97
   0   6   1   43.02    1.00
  -1  -6  -1  617.64    9.80
   1  -6   1  615.66    9.77
  -2  -6  -1  114.09    2.29
  -2  -6  -1  112.46    2.11
   2  -6   1  117.35    2.26
  -2   6  -1  111.43    2.24
   3  -6   1   25.81    0.94
  -3  -6  -1   26.74    1.02
  -3  -6  -1   27.32    0.95
  -3   6  -1   25.71    0.99
   4  -6   1    3.83    0.55
  -4  -6  -1    4.54    0.60
  -4  -6  -1    4.03    0.62
  -4   6  -1    3.89    0.60
  -5  -6  -1    4.63    0.69
   5  -6   1    5.20    0.72
  -5  -6  -1    5.25    0.81
  -5   6  -1    6.65    0.86
  -6  -6  -1    3.59    0.73
  -6   6  -1    1.36    0.67
  -6  -7   1    0.66    0.56
  -6   7   1    0.73    0.59
  -5  -7   1   18.23    1.09
  -5   7   1   18.00    1.10
  -4  -7   1   53.97    1.58
  -4   7   1   53.36    1.57
  -3  -7   1   16.13    0.74
  -3   7   1   15.14    0.71
  -3   7   1   15.31    0.63
  -2  -7   1   47.37    1.08
  -2  -7   1   47.68    1.16
  -2   7   1   48.26    1.16
  -2   7   1   47.84    1.10
  -1  -7   1  401.36    6.43
  -1  -7   1  400.43    6.38
   1  -7  -1  398.68    6.44
  -1   7   1  393.71    6.22
  -1   7   1  404.30    6.72
   0  -7  -1   41.14    0.97
   0  -7   1   40.10    0.95
   0   7   1   39.63    0.98
  -1  -7  -1  356.92    6.01
   1  -7   1  374.26    6.01
   2  -7   1   19.08    0.73
  -2  -7  -1   20.55    0.80
  -2  -7  -1   20.69    0.66
  -2   7  -1   19.45    0.76
  -3  -7  -1   10.60    0.74
  -3  -7  -1   11.12    0.66
   3  -7   1   11.16    0.67
  -3   7  -1   11.45    0.72
   4  -7   1   49.22    1.50
  -4  -7  -1   48.49    1.50
  -4  -7  -1   48.15    1.58
  -4   7  -1   50.41    1.60
  -5  -7  -1    5.16    0.73
  -5  -7  -1    6.09    0.84
   5  -7   1    6.76    0.76
  -5   7  -1    6.86    0.85
  -6  -7  -1    1.39    0.61
  -6   7  -1    0.66    0.61
  -6  -8   1    1.76    0.64
  -6   8   1    2.38    0.70
  -5  -8   1    2.19    0.58
  -5   8   1    1.08    0.53
  -4  -8   1   22.71    1.04
  -4   8   1   21.06    1.01
  -3  -8   1   16.35    0.75
  -3   8   1   14.88    0.66
  -3   8   1   15.90    0.72
  -2  -8   1  187.03    3.31
   2  -8  -1  192.43    3.34
  -2  -8   1  193.43    3.37
  -2   8   1  190.13    3.29
  -2   8   1  188.12    3.49
   1  -8  -1   89.22    1.76
  -1  -8   1   89.49    1.76
  -1  -8   1   90.32    1.73
  -1   8   1   86.53    1.83
   0  -8   1   72.70    1.51
   0  -8  -1   73.60    1.53
   0   8   1   74.24    1.58
   1  -8   1  284.37    4.79
  -1  -8  -1  281.47    4.81
   2  -8   1  108.06    2.20
  -2  -8  -1  110.15    2.27
  -2  -8  -1  107.19    2.03
   3  -8   1   22.29    0.89
  -3  -8  -1   21.34    0.97
  -3  -8  -1   22.18    0.86
  -3   8  -1   22.33    0.94
   4  -8   1    8.00    0.73
  -4  -8  -1    7.23    0.75
  -4  -8  -1    7.84    0.72
  -4   8  -1    6.55    0.74
  -5  -8  -1    5.58    0.82
  -5  -8  -1    3.80    0.67
   5  -8   1    4.00    0.65
  -5   8  -1    5.13    0.81
  -6  -8  -1    2.49    0.69
  -6  -9   1    0.09    0.50
  -6   9   1    0.76    0.61
  -5  -9   1   14.47    1.01
  -5   9   1   14.78    1.05
  -4  -9   1   18.38    0.97
  -4   9   1   17.48    0.76
  -4   9   1   19.94    0.98
  -3  -9   1    9.50    0.62
   3  -9  -1   10.37    0.56
  -3  -9   1   10.23    0.66
  -3   9   1    9.37    0.56
  -3   9   1    8.32    0.58
  -2  -9   1   77.62    1.65
   2  -9  -1   75.94    1.65
  -2  -9   1   77.51    1.68
  -2   9   1   80.63    1.75
  -2   9   1   80.38    1.61
  -1  -9   1  291.25    4.87
   1  -9  -1  285.77    4.88
  -1  -9   1  288.09    4.78
  -1   9   1  292.89    5.08
   0  -9   1   10.95    0.53
   0  -9  -1   12.02    0.55
   1  -9   1   84.61    1.79
  -1  -9  -1   84.90    1.81
   2  -9   1   18.57    0.75
  -2  -9  -1   18.47    0.63
  -2  -9  -1   17.15    0.80
  -3  -9  -1   28.22    1.13
   3  -9   1   30.53    1.06
  -3  -9  -1   28.98    0.99
  -3   9  -1   27.62    1.09
  -4  -9  -1   79.69    2.14
   4  -9   1   77.11    2.02
  -4  -9  -1   83.25    2.05
  -4   9  -1   80.95    2.17
  -5  -9  -1    5.61    0.83
   5  -9   1    6.41    0.76
  -5  -9  -1    5.41    0.75
  -5   9  -1    7.12    0.89
  -6  -9  -1    0.71    0.60
  -6 -10   1    0.68    0.57
  -6  10   1    0.10    0.55
  -5 -10   1    3.36    0.64
  -5  10   1    2.11    0.61
  -4 -10   1   14.41    0.91
  -4  10   1   18.50    0.95
  -4  10   1   15.58    0.74
  -3 -10   1   17.35    0.81
   3 -10  -1   15.47    0.72
  -3 -10   1   16.29    0.77
  -3  10   1   16.34    0.73
  -3  10   1   17.07    0.76
  -2 -10   1  117.90    2.30
   2 -10  -1  117.53    2.34
  -2 -10   1  119.91    2.32
  -2  10   1  118.49    2.43
  -2  10   1  116.15    2.22
  -1 -10   1   90.85    1.87
   1 -10  -1   90.11    1.88
  -1 -10   1   89.93    1.80
  -1  10   1   90.66    1.95
   0 -10   1  107.91    2.17
   0 -10  -1  112.93    2.21
   1 -10   1  175.54    3.25
  -1 -10  -1  178.81    3.30
  -2 -10  -1   79.46    1.60
  -2 -10  -1   80.46    1.89
   2 -10   1   79.18    1.83
   3 -10   1   22.75    0.95
  -3 -10  -1   25.07    1.10
  -3 -10  -1   22.88    0.88
  -4 -10  -1    7.04    0.71
   4 -10   1    8.28    0.77
  -4 -10  -1    8.57    0.84
  -4  10  -1    8.94    0.88
   5 -10   1    7.38    0.81
  -5 -10  -1    6.15    0.77
  -5 -10  -1    7.31    0.95
  -5  10  -1    8.29    0.96
  -6 -11   1    0.36    0.55
  -6  11   1    0.97    0.61
  -5 -11   1   20.92    1.17
  -5  11   1   24.80    1.27
  -4 -11   1   24.64    1.10
   4 -11  -1   23.83    0.94
  -4  11   1   21.81    1.05
  -4  11   1   21.71    0.89
  -3 -11   1    0.23    0.34
  -3 -11   1    0.83    0.33
   3 -11  -1    0.38    0.29
  -3  11   1    1.36    0.36
  -3  11   1    1.63    0.35
  -2 -11   1   52.26    1.33
  -2 -11   1   54.21    1.33
   2 -11  -1   51.63    1.34
  -2  11   1   51.63    1.37
  -2  11   1   52.20    1.22
  -1 -11   1  271.00    4.64
   1 -11  -1  279.83    4.80
  -1 -11   1  276.55    4.77
  -1  11   1  277.60    4.97
   0 -11  -1   31.23    0.97
   0 -11   1   30.95    0.96
  -1 -11  -1  160.80    3.06
   1 -11   1  156.61    3.01
  -2 -11  -1   10.99    0.51
  -2 -11  -1   10.84    0.75
   2 -11   1   10.17    0.67
  -3 -11  -1    6.20    0.68
  -3 -11  -1    5.07    0.50
   3 -11   1    4.69    0.57
  -4 -11  -1   43.26    1.41
   4 -11   1   45.09    1.52
  -4 -11  -1   45.39    1.61
  -5 -11  -1    7.51    0.94
   5 -11   1    6.61    0.83
  -6 -12   1    0.97    0.57
  -6  12   1    2.34    0.67
  -5 -12   1    5.16    0.72
  -5  12   1    5.72    0.74
  -4 -12   1   13.48    0.88
   4 -12  -1   12.94    0.76
  -4 -12   1   12.65    0.91
  -4  12   1   13.22    0.73
  -4  12   1   13.21    0.85
  -3 -12   1    3.90    0.49
  -3 -12   1    4.52    0.51
   3 -12  -1    4.90    0.54
  -3  12   1    4.78    0.53
  -3  12   1    7.03    0.63
  -2 -12   1  161.03    3.09
   2 -12  -1  165.50    3.15
  -2 -12   1  166.17    3.06
  -2  12   1  159.91    2.93
  -2  12   1  160.74    3.24
  -1 -12   1   55.39    1.41
   1 -12  -1   54.53    1.40
  -1 -12   1   54.44    1.30
  -1  12   1   54.76    1.44
   0 -12   1   53.61    1.37
   0 -12  -1   51.73    1.36
   1 -12   1  180.46    3.35
  -1 -12  -1  171.97    3.37
  -2 -12  -1   63.69    1.74
   2 -12   1   67.91    1.70
  -3 -12  -1   16.22    0.74
   3 -12   1   16.42    0.90
  -3 -12  -1   14.53    0.95
   4 -12   1    6.24    0.74
  -4 -12  -1    5.03    0.74
  -4 -12  -1    5.07    0.63
   5 -12   1    3.51    0.71
  -5 -12  -1    4.35    0.81
  -6 -13   1    0.25    0.54
  -6  13   1    0.80    0.57
  -5 -13   1   16.14    1.08
  -5  13   1   17.10    1.09
   4 -13  -1   37.13    1.26
  -4 -13   1   38.60    1.34
  -4 -13   1   37.74    1.36
  -4  13   1   36.57    1.24
  -4  13   1   37.11    1.33
  -3 -13   1   19.42    0.92
  -3 -13   1   18.93    0.86
   3 -13  -1   18.22    0.86
  -3  13   1   17.83    0.85
  -3  13   1   18.46    0.82
   2 -13  -1   33.69    1.11
  -2 -13   1   34.75    1.12
  -2 -13   1   33.29    1.04
  -2  13   1   32.17    1.11
   1 -13  -1  110.86    2.34
  -1 -13   1  109.26    2.17
  -1 -13   1  106.52    2.30
   0 -13  -1   18.89    0.82
   0 -13   1   18.62    0.82
  -1 -13  -1  100.80    2.23
   1 -13   1   97.62    2.18
   2 -13   1   42.77    1.34
  -2 -13  -1   43.57    1.40
  -3 -13  -1   10.03    0.85
   3 -13   1   10.09    0.85
   4 -13   1   56.73    1.81
  -4 -13  -1   60.38    1.93
  -5 -13  -1    2.72    0.75
   5 -13   1    3.53    0.73
  -6 -14   1   -0.37    0.49
  -6  14   1    0.19    0.55
  -5 -14   1    5.84    0.77
  -5  14   1    6.75    0.83
   4 -14  -1   14.62    0.85
  -4 -14   1   16.18    0.95
  -4 -14   1   14.62    0.97
  -4  14   1   14.17    0.89
  -4  14   1   15.68    0.85
   3 -14  -1    1.96    0.45
  -3 -14   1    1.06    0.38
  -3 -14   1    1.63    0.46
  -3  14   1    1.97    0.41
  -3  14   1    1.16    0.37
  -2 -14   1   96.50    2.06
  -2 -14   1   94.33    2.15
   2 -14  -1   90.47    2.15
  -2  14   1   96.29    2.24
  -1 -14   1   56.08    1.53
   1 -14  -1   57.35    1.54
  -1 -14   1   55.34    1.37
   0 -14  -1   73.11    1.82
   0 -14   1   79.00    1.86
  -1 -14  -1  113.80    2.53
   1 -14   1  118.23    2.53
   2 -14   1   88.68    2.15
  -2 -14  -1   87.82    2.17
   3 -14   1   11.44    0.93
  -3 -14  -1   10.85    0.91
  -4 -14  -1    6.03    0.81
   4 -14   1    7.60    0.86
   5 -14   1    3.35    0.71
  -5 -14  -1    2.99    0.78
  -5 -15   1    1.57    0.54
  -5  15   1    1.82    0.56
  -4 -15   1   22.13    1.07
   4 -15  -1   19.45    1.00
  -4 -15   1   22.18    1.13
  -4  15   1   21.27    1.03
  -3 -15   1   28.74    1.16
  -3 -15   1   27.94    1.08
   3 -15  -1   28.99    1.13
  -2 -15   1   24.61    0.92
   2 -15  -1   23.21    0.99
  -2 -15   1   24.03    1.03
  -1 -15   1   76.91    1.73
  -1 -15   1   75.11    1.89
   1 -15  -1   76.99    1.92
   0 -15   1    1.28    0.40
   0 -15  -1    1.21    0.37
  -1 -15  -1   83.00    2.07
   1 -15   1   85.47    2.06
   2 -15   1   42.21    1.40
  -2 -15  -1   40.97    1.44
  -3 -15  -1    7.14    0.81
   3 -15   1    8.84    0.86
   4 -15   1   26.97    1.35
  -4 -15  -1   30.02    1.48
   5 -15   1    0.10    0.54
  -5 -15  -1    0.36    0.66
  -5 -16   1    3.05    0.63
  -5  16   1    3.14    0.63
  -4 -16   1   12.89    1.00
  -4 -16   1   12.77    0.90
   4 -16  -1   12.74    0.86
   3 -16  -1    3.31    0.56
  -3 -16   1    3.43    0.57
  -3 -16   1    2.95    0.50
  -2 -16   1   63.13    1.61
   2 -16  -1   66.95    1.79
  -2 -16   1   65.16    1.77
   1 -16  -1   17.79    0.89
  -1 -16   1   16.81    0.90
  -1 -16   1   15.92    0.73
   0 -16  -1   35.68    1.24
   0 -16   1   35.20    1.25
  -1 -16  -1   89.23    2.24
   1 -16   1   95.49    2.25
   2 -16   1   57.62    1.73
  -2 -16  -1   56.89    1.77
  -3 -16  -1   15.59    1.11
   3 -16   1   14.43    1.01
  -4 -16  -1    0.62    0.60
   4 -16   1    0.38    0.52
   5 -16   1    3.31    0.77
  -5 -16  -1    2.83    0.81
  -4 -17   1   20.06    1.05
   4 -17  -1   20.67    1.07
  -4 -17   1   17.71    1.18
  -3 -17   1   14.61    0.84
   3 -17  -1   12.50    0.88
  -3 -17   1   15.45    0.97
  -2 -17   1   32.94    1.26
   2 -17  -1   31.32    1.23
  -2 -17   1   30.74    1.07
  -1 -17   1   40.18    1.39
  -1 -17   1   41.34    1.19
   1 -17  -1   39.76    1.37
   0 -17   1   10.18    0.82
   0 -17  -1    8.63    0.74
   1 -17   1   29.48    1.21
  -1 -17  -1   30.95    1.25
   2 -17   1   35.69    1.36
  -2 -17  -1   35.88    1.44
   3 -17   1   13.52    1.11
  -3 -17  -1   13.52    1.11
  -4 -17  -1   28.09    1.51
   4 -17   1   28.24    1.43
  -5 -17  -1    5.37    0.94
   5 -17   1    8.13    1.03
   4 -18  -1    5.98    0.78
  -3 -18   1    1.43    0.53
   3 -18  -1    1.31    0.47
  -3 -18   1    1.85    0.43
  -2 -18   1   96.84    2.39
   2 -18  -1   99.25    2.43
  -2 -18   1   96.19    2.18
  -1 -18   1    9.36    0.81
  -1 -18   1    9.72    0.62
   1 -18  -1    9.40    0.77
   0 -18  -1   47.05    1.55
   0 -18   1   49.63    1.57
  -1 -18  -1   46.45    1.59
   1 -18   1   45.53    1.55
  -2 -18  -1   42.90    1.61
   2 -18   1   44.39    1.57
  -3 -18  -1    9.07    0.96
   3 -18   1   10.70    1.05
  -4 -18  -1    2.97    0.76
   4 -18   1    2.86    0.73
   5 -18   1   10.46    1.16
  -5 -18  -1    6.92    1.13
   4 -19  -1   11.05    1.07
  -3 -19   1   19.23    1.14
   3 -19  -1   18.75    1.06
  -2 -19   1   27.34    1.22
  -2 -19   1   24.09    0.98
   2 -19  -1   26.18    1.18
  -1 -19   1   56.89    1.76
   1 -19  -1   52.17    1.69
  -1 -19   1   54.47    1.47
   0 -19   1   11.29    0.93
   0 -19  -1   10.57    0.83
  -1 -19  -1   27.98    1.31
   1 -19   1   28.62    1.26
  -2 -19  -1   19.72    1.21
   2 -19   1   21.24    1.14
  -3 -19  -1   10.31    1.06
   3 -19   1   14.30    1.24
   4 -19   1   17.83    1.31
  -4 -19  -1   19.02    1.40
   4 -20  -1    4.59    0.76
  -3 -20   1    3.15    0.66
   3 -20  -1    4.80    0.76
   2 -20  -1   35.67    1.44
  -2 -20   1   38.38    1.46
  -1 -20   1   26.59    1.25
  -1 -20   1   24.52    0.97
   1 -20  -1   26.15    1.20
   0 -20  -1   46.62    1.62
   0 -20   1   46.77    1.63
   1 -20   1   40.22    1.55
  -1 -20  -1   40.31    1.58
   2 -20   1   19.26    1.16
  -2 -20  -1   22.62    1.29
  -3 -20  -1   13.11    1.17
   3 -20   1   13.30    1.07
  -4 -20  -1    1.72    0.74
   4 -20   1    1.85    0.69
   3 -21  -1   11.10    1.07
  -3 -21   1    9.35    0.99
   2 -21  -1   11.36    0.91
  -2 -21   1   13.38    1.02
   1 -21  -1   38.86    1.51
  -1 -21   1   41.37    1.57
   0 -21  -1    6.02    0.75
   0 -21   1    5.99    0.78
   1 -21   1   19.17    1.16
  -1 -21  -1   19.39    1.22
   2 -21   1   20.99    1.25
  -2 -21  -1   20.30    1.29
  -3 -21  -1    6.63    0.97
   3 -21   1    7.31    0.95
  -4 -21  -1   13.14    1.26
   4 -21   1   17.79    1.29
  -3 -22   1    0.42    0.60
   3 -22  -1    0.26    0.41
  -2 -22   1   22.74    1.26
   2 -22  -1   21.98    1.21
   1 -22  -1   11.54    0.94
  -1 -22   1   12.36    1.03
   0 -22   1   40.89    1.64
   0 -22  -1   39.82    1.59
   1 -22   1   20.57    1.23
  -1 -22  -1   21.22    1.30
  -2 -22  -1   15.72    1.24
   2 -22   1   14.58    1.14
   3 -22   1    7.91    1.01
  -3 -22  -1    6.45    0.97
  -4 -22  -1    4.88    1.00
   3 -23  -1    7.01    0.93
  -3 -23   1    6.62    0.90
   2 -23  -1   17.13    1.12
  -2 -23   1   17.37    1.20
  -1 -23   1   22.74    1.30
   1 -23  -1   23.33    1.24
   0 -23  -1    4.75    0.74
   0 -23   1    4.77    0.79
  -1 -23  -1   21.51    1.35
   1 -23   1   21.15    1.27
   2 -23   1   14.23    1.17
  -2 -23  -1   13.04    1.19
  -3 -23  -1    4.31    0.92
   3 -23   1    4.41    0.89
   3 -24  -1    2.64    0.69
  -3 -24   1    2.61    0.71
   2 -24  -1   24.96    1.36
  -2 -24   1   25.30    1.41
  -1 -24   1    8.40    0.95
   1 -24  -1    5.73    0.79
   0 -24   1   30.57    1.52
   0 -24  -1   27.84    1.45
   1 -24   1   26.33    1.46
  -1 -24  -1   27.32    1.51
   2 -24   1   10.91    1.19
   3 -24   1    5.25    0.93
  -3 -24  -1    4.29    0.96
  -3 -25   1   19.12    1.39
   3 -25  -1   21.00    1.33
  -2 -25   1    6.65    0.93
   2 -25  -1    7.55    0.95
   1 -25  -1   10.14    1.02
  -1 -25   1   12.38    1.12
   0 -25  -1    5.95    0.87
   0 -25   1    5.70    0.88
   1 -25   1   15.42    1.26
  -1 -25  -1   18.06    1.39
   2 -25   1   24.58    1.48
  -2 -25  -1   26.64    1.61
  -3 -26   1    5.47    0.99
  -2 -26   1   19.72    1.37
   2 -26  -1   15.22    1.20
   1 -26  -1    1.85    0.68
  -1 -26   1    2.78    0.75
   0 -26   1   29.81    1.62
   0 -26  -1   29.53    1.61
  -1 -26  -1    8.50    1.08
   1 -26   1    6.85    1.02
  -1 -27   1    6.66    0.98
   1 -27  -1    5.91    0.91
   0 -27  -1    1.46    0.69
   0 -27   1    1.61    0.69
  -6   0   2   15.00    1.27
  -5   0   2    4.95    0.71
  -4   0   2    2.85    0.49
  -3   0   2    0.35    0.30
  -2   0   2   26.57    0.79
  -1   0   2  491.27    7.69
   0   0  -2 1000.00   15.75
  -1   0  -2    8.65    0.50
  -2   0  -2    6.49    0.54
  -2   0  -2    5.78    0.49
  -3   0  -2   59.78    1.59
  -3   0  -2   61.58    1.68
  -4   0  -2    0.29    0.43
  -4   0  -2   -0.17    0.51
  -5   0  -2   29.16    1.52
  -5   0  -2   30.06    1.45
  -6   0  -2    1.01    0.67
  -6  -1   2    5.00    0.83
  -6   1   2    3.74    0.76
  -5  -1   2    0.78    0.48
  -5   1   2    1.08    0.50
  -4  -1   2    4.60    0.55
  -4   1   2    6.52    0.65
  -3  -1   2  111.32    2.27
  -3   1   2  109.90    2.25
  -2  -1   2   49.30    1.15
  -2   1   2   45.22    1.10
  -1  -1   2   32.11    0.79
  -1   1   2   31.61    0.75
   0  -1  -2  177.98    3.05
   0   1  -2  183.82    3.07
  -1  -1  -2    2.56    0.33
  -1   1  -2    2.28    0.32
  -2  -1  -2  149.88    2.81
  -2  -1  -2  149.76    2.94
  -2   1  -2  154.11    2.94
  -2   1  -2  157.64    2.87
  -3  -1  -2   36.28    1.18
  -3  -1  -2   35.19    1.24
  -3   1  -2   36.53    1.27
  -3   1  -2   34.81    1.18
  -4  -1  -2    3.02    0.58
  -4  -1  -2    4.14    0.73
  -4   1  -2    2.22    0.55
  -4   1  -2    3.98    0.70
  -5  -1  -2   20.49    1.27
  -5  -1  -2   20.24    1.43
  -5   1  -2   25.61    1.37
  -6  -1  -2    4.46    0.87
  -6   1  -2    4.20    0.90
  -6  -2   2    7.65    0.92
  -6   2   2    9.87    1.06
  -5  -2   2    3.93    0.66
  -5   2   2    3.69    0.66
  -4  -2   2    7.47    0.68
  -4   2   2    9.29    0.74
  -3  -2   2   16.82    0.76
  -3   2   2   16.42    0.74
  -2  -2   2   27.12    0.83
  -2   2   2   27.92    0.79
  -1  -2   2  304.73    4.92
  -1   2   2  301.48    4.82
   0  -2  -2  377.81    6.09
   0   2  -2  377.41    6.10
   0   2   2  384.11    6.30
  -1  -2  -2   24.51    0.79
  -1   2  -2   24.71    0.79
  -2  -2  -2   19.35    0.71
  -2  -2  -2   20.64    0.83
  -2   2  -2   18.07    0.80
  -3  -2  -2   77.45    1.84
  -3  -2  -2   77.46    1.96
  -3   2  -2   77.06    1.90
  -3   2  -2   76.88    1.94
  -4  -2  -2    3.48    0.69
  -4  -2  -2    4.06    0.61
  -4   2  -2    3.11    0.58
  -4   2  -2    2.75    0.65
  -5  -2  -2   17.99    1.19
  -5  -2  -2   20.57    1.36
  -5   2  -2   19.92    1.30
  -6  -2  -2   -0.15    0.60
  -6  -3   2    2.72    0.71
  -6   3   2    3.79    0.73
  -5  -3   2    1.12    0.49
  -5   3   2    1.30    0.53
  -4  -3   2    8.42    0.69
  -4   3   2    9.93    0.77
  -4   3   2    8.60    0.60
  -3  -3   2  172.08    3.27
  -3   3   2  176.57    3.23
  -2  -3   2   82.35    1.72
  -2   3   2   84.00    1.65
  -1  -3   2   28.62    0.76
  -1   3   2   26.68    0.77
   0  -3  -2   72.95    1.47
   0   3   2   76.68    1.52
  -1  -3  -2    6.32    0.47
  -1   3  -2    5.44    0.45
  -2  -3  -2  223.14    4.03
  -2  -3  -2  218.84    3.82
  -2   3  -2  222.53    4.02
  -3  -3  -2   33.75    1.25
  -3  -3  -2   33.52    1.12
  -3   3  -2   33.95    1.23
  -3   3  -2   34.11    1.19
  -4  -3  -2    1.63    0.50
  -4  -3  -2    1.50    0.60
  -4   3  -2    0.80    0.49
   5  -3   2    6.94    0.83
  -5  -3  -2    7.56    1.00
  -5  -3  -2    7.57    0.88
  -5   3  -2    8.53    0.97
  -6  -3  -2    1.46    0.69
  -6  -4   2    4.95    0.82
  -6   4   2    5.70    0.85
  -5  -4   2   15.61    1.04
  -5   4   2   15.85    1.03
  -4  -4   2   10.06    0.73
  -4   4   2    9.16    0.63
  -4   4   2   10.37    0.77
  -3  -4   2    5.40    0.55
  -3   4   2    6.84    0.52
  -3   4   2    6.42    0.54
  -2  -4   2   22.09    0.75
  -2   4   2   22.34    0.75
  -2   4   2   22.29    0.69
  -1  -4   2  154.32    2.77
  -1   4   2  161.80    2.92
   0  -4  -2  384.89    6.38
   0  -4   2  404.81    6.37
   0   4   2  398.02    6.61
  -1  -4  -2   18.34    0.70
  -2  -4  -2   22.29    0.90
  -2  -4  -2   21.22    0.73
  -3  -4  -2   50.35    1.53
  -3  -4  -2   52.85    1.42
  -3   4  -2   51.40    1.50
  -4  -4  -2    8.72    0.80
  -4  -4  -2    8.12    0.88
  -4   4  -2    8.44    0.86
   5  -4   2    7.18    0.82
  -5  -4  -2    7.64    0.88
  -5  -4  -2    6.47    0.95
  -5   4  -2    7.98    0.95
  -6  -4  -2    0.05    0.58
  -6  -5   2    3.21    0.75
  -6   5   2    1.37    0.60
  -5  -5   2    0.74    0.46
  -5   5   2    0.02    0.45
  -4  -5   2   29.11    1.15
  -4   5   2   31.30    1.17
  -4   5   2   28.87    1.02
  -3  -5   2  189.19    3.51
  -3   5   2  188.25    3.55
  -3   5   2  183.16    3.41
  -2  -5   2   14.26    0.62
  -2   5   2   13.74    0.62
  -2   5   2   13.94    0.53
  -1  -5   2   28.49    0.81
  -1   5   2   29.29    0.85
   0  -5  -2   50.59    1.14
   0  -5   2   50.39    1.12
   0   5   2   50.33    1.17
  -1  -5  -2    7.53    0.51
   1  -5   2    8.00    0.48
   1   5   2    8.03    0.40
  -2  -5  -2  313.52    5.18
   2  -5   2  308.11    5.41
  -2  -5  -2  320.26    5.48
  -3  -5  -2   37.89    1.17
  -3  -5  -2   37.46    1.30
   3  -5   2   35.54    1.22
   4  -5   2    0.53    0.41
  -4  -5  -2    0.54    0.43
  -4  -5  -2    0.48    0.55
  -4   5  -2    0.64    0.46
  -5  -5  -2    8.95    1.13
  -5  -5  -2    8.39    0.93
   5  -5   2    8.33    0.91
  -5   5  -2    8.46    0.95
  -6  -5  -2    7.08    0.92
  -6  -6   2    5.39    0.87
  -6   6   2    5.95    0.84
  -5  -6   2    2.83    0.63
  -5   6   2    2.29    0.58
  -4  -6   2   32.21    1.20
  -4   6   2   33.77    1.21
  -4   6   2   31.59    1.08
  -3  -6   2    3.82    0.49
  -3   6   2    3.65    0.44
  -3   6   2    4.04    0.47
  -2  -6   2    6.51    0.49
  -2   6   2    6.16    0.38
  -2   6   2    6.14    0.48
  -1  -6   2   76.78    1.48
   1  -6  -2   73.98    1.49
  -1  -6   2   77.09    1.59
  -1   6   2   79.50    1.68
   0  -6  -2  228.54    4.00
   0  -6   2  239.04    3.97
   0   6   2  236.07    4.12
  -1  -6  -2   12.84    0.63
   1  -6   2   12.04    0.58
   1   6   2   10.70    0.49
  -2  -6  -2   18.13    0.84
   2  -6   2   17.36    0.76
  -2  -6  -2   15.78    0.62
  -3  -6  -2  100.42    2.16
   3  -6   2  101.09    2.29
  -3  -6  -2   99.48    2.38
  -4  -6  -2    1.66    0.60
  -4  -6  -2    1.69    0.49
   4  -6   2    1.14    0.47
  -4   6  -2    1.16    0.54
  -5  -6  -2   11.64    1.16
   5  -6   2   13.25    1.07
  -5  -6  -2   11.30    1.02
  -5   6  -2   14.69    1.21
  -6  -7   2    2.46    0.72
  -6   7   2    3.14    0.72
  -5  -7   2    1.08    0.52
  -5   7   2    2.12    0.57
  -4  -7   2   15.34    0.87
  -4   7   2   14.14    0.76
  -4   7   2   13.03    0.84
  -3  -7   2  163.21    3.19
  -3   7   2  165.87    3.07
  -3   7   2  161.12    3.21
  -2  -7   2   15.79    0.69
  -2   7   2   15.96    0.70
  -2   7   2   16.02    0.56
  -1  -7   2   34.03    0.86
   1  -7  -2   32.92    0.86
  -1  -7   2   34.43    0.94
  -1   7   2   33.69    0.98
   0  -7   2   95.41    1.84
   0  -7  -2   92.86    1.86
   0   7   2   89.08    1.90
   1  -7   2   35.86    1.02
  -1  -7  -2   36.88    1.07
   1   7   2   36.12    0.96
   2  -7   2  219.64    4.02
  -2  -7  -2  222.59    4.08
  -2  -7  -2  215.65    3.72
  -3  -7  -2   47.07    1.30
  -3  -7  -2   44.94    1.49
   3  -7   2   46.58    1.43
  -4  -7  -2    4.05    0.60
  -4  -7  -2    3.63    0.71
   4  -7   2    5.95    0.76
  -5  -7  -2   11.93    1.17
  -5  -7  -2   13.60    1.08
   5  -7   2   11.92    1.06
  -6  -8   2    4.29    0.80
  -6   8   2    4.37    0.80
  -5  -8   2   12.50    1.00
  -5   8   2   13.19    1.00
  -4  -8   2    6.03    0.68
  -4   8   2    5.47    0.57
  -4   8   2    4.69    0.58
  -3  -8   2   14.78    0.79
  -3   8   2   14.57    0.69
  -3   8   2   14.09    0.74
  -2  -8   2   12.36    0.63
  -2   8   2   11.41    0.48
  -2   8   2   12.01    0.64
  -1  -8   2  145.13    2.71
   1  -8  -2  142.86    2.65
  -1  -8   2  145.68    2.63
  -1   8   2  149.68    2.84
   0  -8  -2  348.82    5.90
   0  -8   2  355.64    5.86
   0   8   2  357.15    6.10
  -1  -8  -2   20.15    0.80
   1  -8   2   19.29    0.75
   1   8   2   18.61    0.70
  -2  -8  -2   33.02    0.87
  -2  -8  -2   34.59    1.19
   2  -8   2   31.81    1.07
  -3  -8  -2   37.13    1.36
  -3  -8  -2   36.47    1.12
   3  -8   2   36.39    1.28
  -4  -8  -2    3.78    0.73
   4  -8   2    3.74    0.63
  -4  -8  -2    3.38    0.55
  -5  -8  -2   12.43    1.20
   5  -8   2   14.78    1.20
  -6  -9   2    1.27    0.64
  -6   9   2    1.07    0.62
  -5  -9   2    1.60    0.57
  -5   9   2    2.10    0.58
  -4  -9   2    4.79    0.61
  -4   9   2    5.51    0.61
  -4   9   2    5.04    0.56
  -3  -9   2  109.45    2.36
  -3   9   2  105.74    2.34
  -3   9   2  104.29    2.17
  -2  -9   2    8.17    0.56
  -2   9   2    7.61    0.56
  -2   9   2    7.53    0.39
   1  -9  -2   28.02    0.84
  -1  -9   2   27.67    0.84
  -1   9   2   28.81    0.94
   0  -9  -2   76.09    1.69
   0  -9   2   77.97    1.67
   0   9   2   75.41    1.72
  -1  -9  -2    4.35    0.48
   1  -9   2    4.62    0.47
   1   9   2    4.54    0.43
   2  -9   2  128.54    2.66
  -2  -9  -2  128.33    2.75
   3  -9   2   12.04    0.82
  -3  -9  -2   13.24    0.69
  -3  -9  -2   12.99    0.93
  -4  -9  -2    7.63    0.91
   4  -9   2    8.03    0.86
  -4  -9  -2    6.67    0.70
   5  -9   2    8.40    0.95
  -5  -9  -2    8.02    1.03
  -6 -10   2    7.02    0.92
  -6  10   2    8.98    0.99
  -5 -10   2    9.46    0.97
  -5  10   2    9.51    0.92
  -4 -10   2    3.20    0.55
  -4  10   2    3.13    0.49
  -4  10   2    3.50    0.53
  -3 -10   2    2.10    0.44
  -3  10   2    2.72    0.41
  -3  10   2    3.34    0.49
  -2 -10   2    9.37    0.61
  -2 -10   2    7.74    0.53
   2 -10  -2    8.01    0.50
  -2  10   2    7.69    0.58
  -2  10   2    8.01    0.41
  -1 -10   2  167.81    3.02
   1 -10  -2  161.13    3.01
  -1  10   2  160.39    3.18
   0 -10   2  265.98    4.54
   0 -10  -2  259.86    4.58
   0  10   2  255.77    4.71
   1 -10   2   22.38    0.86
  -1 -10  -2   23.05    0.92
   2 -10   2    7.42    0.64
  -2 -10  -2    6.47    0.65
  -3 -10  -2   37.13    1.40
   3 -10   2   37.32    1.31
   4 -10   2    2.00    0.56
  -4 -10  -2    2.07    0.66
   5 -10   2   12.33    1.10
  -5 -10  -2   16.34    1.29
  -6 -11   2    4.55    0.80
  -6  11   2    4.84    0.81
  -5 -11   2   -0.31    0.44
  -5  11   2    0.58    0.47
  -4 -11   2   14.28    0.92
  -4  11   2   15.03    0.87
  -4  11   2   14.05    0.82
  -3 -11   2   78.20    1.96
  -3  11   2   77.16    1.75
  -3  11   2   81.05    1.98
  -2 -11   2   21.21    0.80
  -2 -11   2   20.96    0.85
   2 -11  -2   20.30    0.78
  -2  11   2   18.35    0.62
  -2  11   2   20.49    0.87
   1 -11  -2   29.66    0.95
  -1 -11   2   28.67    0.95
  -1  11   2   31.72    1.05
   0 -11  -2   45.83    1.30
   0 -11   2   47.68    1.27
   0  11   2   47.14    1.31
   1 -11   2   14.79    0.76
  -1 -11  -2   14.63    0.82
  -2 -11  -2   61.80    1.73
   2 -11   2   62.68    1.65
   3 -11   2   43.66    1.48
  -3 -11  -2   46.89    1.60
  -4 -11  -2    3.92    0.77
   4 -11   2    3.98    0.67
  -5 -11  -2   11.65    1.17
   5 -11   2   10.24    1.05
  -6 -12   2    6.32    0.89
  -6  12   2    5.55    0.87
  -5 -12   2    0.78    0.50
  -5  12   2   -0.07    0.43
  -4 -12   2   31.04    1.25
  -4  12   2   27.49    1.11
  -4  12   2   27.78    1.14
   3 -12  -2    0.92    0.31
  -3 -12   2    1.27    0.42
  -3  12   2    0.59    0.36
  -3  12   2    1.30    0.33
   2 -12  -2   16.98    0.76
  -2 -12   2   15.83    0.77
  -2 -12   2   18.52    0.83
  -2  12   2   18.86    0.87
   1 -12  -2  148.95    2.90
  -1 -12   2  145.82    2.85
  -1 -12   2  146.24    2.87
  -1  12   2  149.85    3.05
   0 -12   2  165.73    3.19
   0 -12  -2  167.08    3.25
   0  12   2  166.61    3.32
  -1 -12  -2   38.44    1.28
   1 -12   2   36.42    1.19
  -2 -12  -2    6.01    0.67
   2 -12   2    7.13    0.69
  -3 -12  -2   62.81    1.95
   3 -12   2   63.26    1.83
  -4 -12  -2    0.43    0.59
   4 -12   2   -0.38    0.45
  -5 -12  -2   13.25    1.27
   5 -12   2   14.11    1.15
  -6 -13   2    1.45    0.63
  -6  13   2    1.57    0.61
  -5 -13   2    0.09    0.47
  -5  13   2    0.53    0.45
  -4 -13   2   14.47    0.94
  -4  13   2   14.97    0.87
  -4  13   2   15.17    0.88
  -3 -13   2   62.33    1.70
   3 -13  -2   60.01    1.57
  -3 -13   2   58.55    1.54
  -3  13   2   56.75    1.46
  -3  13   2   62.80    1.73
   2 -13  -2   19.62    0.84
  -2 -13   2   18.20    0.85
  -2 -13   2   20.08    0.88
  -2  13   2   18.20    0.90
   1 -13  -2   22.59    0.90
  -1 -13   2   23.16    0.89
  -1 -13   2   21.31    0.92
  -1  13   2   24.50    0.97
   0 -13  -2   31.65    1.13
   0 -13   2   30.89    1.08
   0  13   2   34.75    1.16
  -1 -13  -2    9.67    0.75
   1 -13   2   10.38    0.71
  -2 -13  -2   90.72    2.29
   2 -13   2   90.27    2.22
  -3 -13  -2   31.26    1.40
   3 -13   2   27.99    1.26
  -4 -13  -2   11.62    1.08
   4 -13   2   12.82    1.13
   5 -13   2    6.03    0.91
  -5 -13  -2    6.67    1.02
  -6 -14   2    3.64    0.77
  -6  14   2    3.48    0.71
  -5 -14   2    3.18    0.65
  -5  14   2    3.10    0.61
  -4 -14   2   11.01    0.88
  -4  14   2   10.14    0.81
  -4  14   2   11.00    0.76
  -3 -14   2    3.02    0.50
   3 -14  -2    3.26    0.49
  -3 -14   2    2.87    0.52
  -3  14   2    3.72    0.46
  -3  14   2    3.49    0.55
  -2 -14   2   20.12    0.92
  -2 -14   2   20.97    0.92
   2 -14  -2   21.16    0.89
  -2  14   2   21.93    0.99
  -1 -14   2   79.65    1.93
   1 -14  -2   82.27    1.94
  -1 -14   2   80.83    1.87
  -1  14   2   76.56    2.00
   0 -14  -2  109.30    2.44
   0 -14   2  107.65    2.38
   0  14   2  106.08    2.48
  -1 -14  -2   46.61    1.47
   1 -14   2   42.99    1.39
  -2 -14  -2   11.37    0.92
   2 -14   2   11.52    0.84
  -3 -14  -2   35.79    1.54
   3 -14   2   37.33    1.47
  -4 -14  -2    1.41    0.68
   4 -14   2    1.84    0.64
  -5 -14  -2    3.74    0.87
   5 -14   2    4.92    0.85
  -6  15   2    2.24    0.65
  -5 -15   2    1.09    0.55
  -5  15   2    0.72    0.49
  -4 -15   2   10.80    0.88
  -4  15   2   10.51    0.83
  -4  15   2   10.40    0.75
  -3 -15   2   66.81    1.82
  -3 -15   2   62.96    1.72
   3 -15  -2   65.06    1.75
  -3  15   2   66.50    1.90
  -2 -15   2   21.23    0.96
   2 -15  -2   19.49    0.90
  -2 -15   2   20.16    0.92
  -2  15   2   19.56    0.97
   1 -15  -2   41.02    1.32
  -1 -15   2   41.78    1.27
  -1 -15   2   40.58    1.33
  -1  15   2   41.02    1.38
   0 -15  -2   14.54    0.85
   0 -15   2   13.64    0.81
   1 -15   2    9.28    0.78
  -1 -15  -2    8.30    0.76
   2 -15   2   68.18    1.93
  -2 -15  -2   71.06    2.06
   3 -15   2   20.93    1.19
  -3 -15  -2   24.06    1.35
  -4 -15  -2    8.09    1.02
   4 -15   2    8.08    0.95
  -5 -15  -2    1.09    0.77
   5 -15   2    0.97    0.68
  -5 -16   2    2.29    0.65
  -4 -16   2   11.94    0.93
  -4  16   2   12.55    0.91
  -3 -16   2   10.84    0.83
  -3 -16   2   12.52    0.85
   3 -16  -2   13.72    0.82
  -3  16   2   12.22    0.88
  -2 -16   2   17.37    0.94
   2 -16  -2   16.09    0.86
  -2 -16   2   16.60    0.86
  -2  16   2   15.61    0.94
   1 -16  -2   46.90    1.47
  -1 -16   2   47.94    1.40
  -1 -16   2   47.55    1.48
  -1  16   2   49.55    1.57
   0 -16  -2   67.33    1.86
   0 -16   2   64.71    1.80
   1 -16   2   31.85    1.24
  -1 -16  -2   32.07    1.33
   2 -16   2   13.27    1.01
  -2 -16  -2    9.55    0.93
   3 -16   2   25.06    1.29
  -3 -16  -2   22.25    1.35
   4 -16   2    0.44    0.56
  -4 -16  -2    0.67    0.65
  -5 -17   2    0.07    0.49
  -4 -17   2    8.96    0.87
  -4  17   2    5.89    0.74
   3 -17  -2   44.01    1.48
  -3 -17   2   45.62    1.50
  -3 -17   2   44.24    1.50
  -3  17   2   47.37    1.64
  -2 -17   2    5.23    0.66
  -2 -17   2    6.41    0.65
   2 -17  -2    5.74    0.64
  -2  17   2    5.65    0.69
  -1 -17   2   28.97    1.09
   1 -17  -2   27.26    1.14
  -1 -17   2   28.44    1.19
   0 -17  -2   35.29    1.36
   0 -17   2   36.71    1.35
   1 -17   2    4.33    0.64
  -1 -17  -2    6.01    0.73
  -2 -17  -2   65.67    2.05
   2 -17   2   59.86    1.91
  -3 -17  -2   11.05    1.07
   3 -17   2   14.59    1.17
   4 -17   2    2.15    0.68
  -4 -17  -2    1.52    0.73
  -5 -18   2    2.03    0.64
  -4 -18   2    5.17    0.72
  -4  18   2    7.52    0.88
   3 -18  -2    4.07    0.63
  -3 -18   2    5.61    0.69
  -3 -18   2    6.14    0.73
  -3  18   2    4.21    0.67
   2 -18  -2   12.61    0.84
  -2 -18   2   13.63    0.93
  -2 -18   2   12.80    0.82
  -2  18   2   10.38    0.89
  -1 -18   2   38.80    1.42
  -1 -18   2   39.83    1.30
   1 -18  -2   35.61    1.36
   0 -18  -2  105.77    2.59
   0 -18   2  100.89    2.54
   1 -18   2   22.99    1.17
  -1 -18  -2   23.06    1.24
  -2 -18  -2    7.58    0.89
   2 -18   2    8.10    0.90
  -3 -18  -2   17.25    1.30
   3 -18   2   16.07    1.18
   4 -18   2    0.14    0.57
  -4 -18  -2    0.14    0.66
  -4 -19   2    5.40    0.76
   3 -19  -2   25.75    1.19
  -3 -19   2   25.59    1.17
  -3 -19   2   23.98    1.19
  -2 -19   2    4.91    0.68
   2 -19  -2    4.67    0.64
  -2 -19   2    5.82    0.68
  -1 -19   2   36.69    1.28
  -1 -19   2   35.07    1.41
   1 -19  -2   34.31    1.36
   0 -19   2   20.17    1.17
   0 -19  -2   21.50    1.19
   1 -19   2   10.40    0.96
  -1 -19  -2    8.39    0.87
   2 -19   2   30.56    1.45
  -2 -19  -2   31.26    1.55
  -3 -19  -2   11.83    1.15
   3 -19   2   11.41    1.12
  -4 -19  -2   12.31    1.24
   4 -19   2   15.07    1.35
  -4 -20   2    6.01    0.82
   3 -20  -2    2.59    0.58
  -3 -20   2    1.76    0.54
  -3 -20   2    1.30    0.55
  -2 -20   2   11.64    0.97
   2 -20  -2   10.96    0.87
  -2 -20   2   10.44    0.81
  -1 -20   2   35.25    1.29
  -1 -20   2   35.95    1.48
   1 -20  -2   34.27    1.42
   0 -20   2   45.23    1.70
   0 -20  -2   47.31    1.73
  -1 -20  -2   29.95    1.46
   1 -20   2   28.89    1.40
  -2 -20  -2    4.24    0.81
   2 -20   2    7.08    0.92
   3 -20   2   16.51    1.27
  -3 -20  -2   17.43    1.38
  -3 -21   2   21.90    1.23
  -3 -21   2   20.14    1.11
   3 -21  -2   20.31    1.14
   2 -21  -2    9.28    0.93
  -2 -21   2    8.13    0.88
  -2 -21   2    6.52    0.75
  -1 -21   2   23.06    1.09
   1 -21  -2   26.80    1.29
  -1 -21   2   22.99    1.28
   0 -21   2   11.90    1.05
   0 -21  -2   11.08    1.02
  -1 -21  -2    6.57    0.89
   1 -21   2   10.15    1.04
  -2 -21  -2   21.70    1.45
   2 -21   2   22.24    1.33
   3 -21   2    7.17    0.99
  -3 -21  -2   10.36    1.14
   3 -22  -2    1.67    0.54
  -3 -22   2    1.28    0.63
  -2 -22   2    8.68    0.85
  -2 -22   2   10.09    0.99
   2 -22  -2   11.96    1.05
   1 -22  -2   28.30    1.39
  -1 -22   2   29.65    1.45
  -1 -22   2   28.04    1.20
   0 -22  -2   28.19    1.46
   0 -22   2   28.85    1.44
  -1 -22  -2   25.13    1.47
   1 -22   2   25.33    1.43
   2 -22   2    0.16    0.56
  -2 -22  -2    0.89    0.69
  -3 -22  -2    7.86    1.06
   3 -22   2   10.92    1.20
   3 -23  -2   13.26    1.03
  -3 -23   2   12.17    1.09
   2 -23  -2    2.94    0.64
  -2 -23   2    2.97    0.73
  -1 -23   2   21.12    1.36
   1 -23  -2   20.84    1.28
   0 -23  -2    3.46    0.75
   0 -23   2    2.31    0.71
   1 -23   2    9.31    1.10
  -1 -23  -2    7.36    0.96
  -2 -23  -2   14.30    1.29
   2 -23   2   15.70    1.35
  -3 -24   2    0.55    0.60
   3 -24  -2    0.06    0.48
  -2 -24   2    6.70    0.91
   2 -24  -2    6.51    0.88
   1 -24  -2   16.78    1.26
  -1 -24   2   17.37    1.26
   0 -24   2    7.15    0.96
   0 -24  -2    6.80    0.95
  -1 -24  -2   21.52    1.50
   1 -24   2   23.24    1.46
   2 -24   2    3.31    0.85
  -2 -24  -2    2.33    0.78
   3 -25  -2   11.67    1.13
   2 -25  -2    4.01    0.75
  -2 -25   2    4.40    0.83
  -1 -25   2   14.52    1.25
   1 -25  -2   13.65    1.22
   0 -25  -2    6.41    0.96
   0 -25   2    6.46    0.97
   1 -25   2    9.65    1.13
  -1 -25  -2    7.19    1.02
   2 -26  -2    7.74    0.99
  -2 -26   2    8.99    1.04
   1 -26  -2   11.63    1.20
  -1 -26   2   10.57    1.11
   0 -26  -2   13.11    1.27
   0 -26   2   12.29    1.22
  -1 -26  -2   19.34    1.55
   1 -26   2   18.06    1.44
  -1 -27   2   15.39    1.33
   1 -27  -2   14.47    1.34
  -6   0   3   -0.18    0.50
  -5   0   3    1.66    0.55
  -4   0   3    7.02    0.69
  -3   0   3   10.54    0.68
  -2   0   3  115.01    2.26
  -1   0   3    2.51    0.29
   0   0  -3   15.00    0.61
  -2   0  -3   36.75    1.25
  -3   0  -3   16.46    1.04
  -4   0  -3    7.74    0.97
  -5   0  -3   -0.19    0.71
  -6  -1   3   -0.17    0.51
  -6   1   3    0.52    0.55
  -5  -1   3   16.79    1.06
  -5   1   3   17.68    1.07
  -4  -1   3    5.46    0.67
  -4   1   3    5.39    0.64
  -3  -1   3    3.63    0.49
  -3   1   3    3.03    0.45
  -2  -1   3  134.92    2.58
  -2   1   3  134.36    2.54
  -1  -1   3  124.91    2.35
  -1   1   3  127.64    2.31
   0  -1  -3   43.11    1.08
   0   1  -3   40.93    1.07
  -1  -1  -3   19.94    0.85
  -1   1  -3   19.45    0.82
  -2  -1  -3    7.25    0.65
  -2   1  -3    8.85    0.72
  -3  -1  -3   75.09    2.08
  -3   1  -3   73.97    2.07
  -4  -1  -3   59.14    2.03
  -4   1  -3   57.17    1.99
  -5  -1  -3   -0.03    0.75
  -6  -2   3    0.77    0.57
  -6   2   3    0.52    0.54
  -5  -2   3    7.74    0.85
  -5   2   3    7.55    0.83
  -5   2   3    5.86    0.62
  -4  -2   3   28.88    1.15
  -4   2   3   28.35    1.13
  -3  -2   3    8.73    0.70
  -3   2   3    8.91    0.65
  -2  -2   3   89.78    1.91
  -2   2   3   89.70    1.84
  -1  -2   3    4.47    0.40
  -1   2   3    5.63    0.38
   0  -2  -3   70.40    1.56
   0   2  -3   75.16    1.58
  -1  -2  -3  248.74    4.42
  -1   2  -3  247.28    4.41
  -2  -2  -3   24.66    1.06
  -2   2  -3   23.88    1.03
  -3  -2  -3   15.55    1.01
  -3   2  -3   15.16    1.00
  -4  -2  -3    6.36    0.87
  -4   2  -3    6.24    0.90
  -5  -2  -3   -0.45    0.72
  -6  -3   3   -0.15    0.51
  -6   3   3    0.05    0.53
  -5  -3   3   16.62    1.06
  -5   3   3   14.81    1.03
  -4  -3   3   13.43    0.87
  -4   3   3   16.73    0.87
  -4   3   3   15.89    0.90
  -3  -3   3    4.34    0.53
  -3   3   3    4.14    0.49
  -2  -3   3   77.18    1.72
  -2   3   3   73.57    1.60
  -1  -3   3   48.19    1.19
  -1   3   3   47.88    1.06
   0  -3  -3   40.67    1.06
   0   3   3   38.65    1.05
  -1  -3  -3   18.20    0.81
  -1   3  -3   16.99    0.79
  -2  -3  -3    7.94    0.71
  -2   3  -3    5.82    0.61
  -3  -3  -3   25.53    1.25
  -3   3  -3   27.06    1.24
  -4  -3  -3   25.15    1.24
  -4  -3  -3   24.16    1.37
  -5  -3  -3    0.40    0.58
  -5  -3  -3   -0.21    0.73
   5  -3   3    0.71    0.60
  -6  -4   3    0.89    0.58
  -6   4   3    0.71    0.57
  -5  -4   3    3.06    0.68
  -5   4   3    4.31    0.69
  -5   4   3    3.70    0.56
  -4  -4   3   15.36    0.91
  -4   4   3   14.53    0.85
  -4   4   3   13.88    0.89
  -3  -4   3   12.94    0.76
  -3   4   3   14.06    0.73
  -3   4   3   13.10    0.75
  -2  -4   3   55.19    1.40
  -2   4   3   54.42    1.26
  -2   4   3   56.52    1.45
  -1  -4   3   10.46    0.56
  -1   4   3   11.15    0.60
  -1   4   3   10.10    0.44
   0  -4   3   10.70    0.55
   0  -4  -3   10.47    0.57
   0   4   3   10.86    0.57
  -1  -4  -3  246.00    4.44
   1   4   3  248.70    4.33
  -2  -4  -3   15.45    0.88
  -3  -4  -3    3.14    0.64
  -4  -4  -3    2.85    0.57
  -4  -4  -3    3.29    0.75
  -5  -4  -3    0.39    0.58
   5  -4   3   -0.31    0.54
  -5  -4  -3    0.49    0.75
  -6  -5   3    1.03    0.59
  -6   5   3    0.32    0.57
  -5  -5   3   12.08    0.98
  -5   5   3   12.69    0.85
  -5   5   3   12.12    0.99
  -4  -5   3    6.25    0.70
  -4   5   3    6.60    0.69
  -4   5   3    7.79    0.73
  -3  -5   3    1.91    0.45
  -3   5   3    2.74    0.46
  -3   5   3    2.36    0.40
  -2  -5   3   82.06    1.85
  -2   5   3   81.00    1.66
  -2   5   3   83.53    1.92
  -1   5   3  110.67    2.31
   0  -5   3   42.17    1.10
   0  -5  -3   40.24    1.12
   0   5   3   43.86    1.14
   1  -5   3   22.78    0.85
  -1  -5  -3   21.48    0.92
   1   5   3   20.47    0.74
  -2  -5  -3    6.17    0.68
  -3  -5  -3   36.68    1.47
  -4  -5  -3   37.90    1.68
  -4  -5  -3   39.62    1.45
   5  -5   3   -0.33    0.53
  -5  -5  -3   -0.73    0.69
  -6  -6   3    0.24    0.56
  -6   6   3    0.14    0.52
  -5  -6   3    5.43    0.78
  -5   6   3    5.52    0.75
  -5   6   3    4.55    0.58
  -4  -6   3   25.82    1.14
  -4   6   3   25.07    1.09
  -4   6   3   25.55    1.11
  -3  -6   3    9.07    0.70
  -3   6   3    9.88    0.64
  -3   6   3    9.61    0.71
  -2  -6   3   79.52    1.82
  -2   6   3   78.68    1.88
  -1  -6   3    4.07    0.37
   1  -6  -3    3.61    0.35
  -1   6   3    3.90    0.44
   0  -6   3   47.57    1.21
   0  -6  -3   46.48    1.25
   0   6   3   47.48    1.25
  -1  -6  -3  408.50    6.89
   1  -6   3  400.54    6.80
   1   6   3  404.25    6.88
   2  -6   3   18.00    0.88
  -2  -6  -3   18.64    0.98
  -3  -6  -3   11.84    0.99
   3  -6   3   14.01    0.90
  -4  -6  -3    1.06    0.54
  -4  -6  -3    2.61    0.73
   4  -6   3    2.09    0.59
  -5  -6  -3   -0.07    0.69
   5  -6   3    0.65    0.62
  -6  -7   3    0.16    0.52
  -6   7   3   -0.06    0.53
  -5  -7   3   10.81    0.99
  -5   7   3   11.75    0.97
  -5   7   3    9.81    0.84
  -4  -7   3    7.68    0.78
  -4   7   3    8.29    0.75
  -4   7   3    6.88    0.68
  -3  -7   3   22.04    0.97
  -3   7   3   22.02    0.85
  -3   7   3   21.98    0.97
  -2  -7   3   70.43    1.69
  -2   7   3   69.57    1.75
  -1  -7   3   99.33    1.96
   1  -7  -3  101.93    2.02
  -1   7   3  101.75    2.21
   0  -7  -3   64.12    1.54
   0  -7   3   63.98    1.48
   0   7   3   62.92    1.54
  -1  -7  -3   23.33    0.95
   1  -7   3   20.56    0.88
   1   7   3   20.22    0.81
   2  -7   3   26.69    1.05
  -2  -7  -3   26.44    1.14
  -3  -7  -3   28.21    1.32
   3  -7   3   27.91    1.23
  -3  -7  -3   28.40    1.05
   4  -7   3   31.32    1.44
  -4  -7  -3   32.72    1.60
  -5  -7  -3    2.59    0.84
   5  -7   3    2.42    0.71
  -6  -8   3    0.67    0.57
  -6   8   3    0.51    0.56
  -5  -8   3    0.72    0.53
  -5   8   3    1.21    0.45
  -5   8   3    0.75    0.48
  -4  -8   3    7.83    0.81
  -4   8   3    9.95    0.81
  -4   8   3    8.72    0.78
  -3  -8   3    4.73    0.58
  -3   8   3    5.57    0.61
  -3   8   3    4.99    0.50
  -2  -8   3   66.78    1.66
  -2   8   3   65.88    1.71
  -1  -8   3    3.45    0.38
   1  -8  -3    3.98    0.41
  -1   8   3    3.99    0.48
   0  -8  -3   28.75    0.97
   0  -8   3   26.61    0.91
   0   8   3   26.94    0.95
  -1  -8  -3  112.82    2.47
   1  -8   3  110.39    2.38
   1   8   3  112.74    2.33
  -2  -8  -3   15.54    0.94
   2  -8   3   15.45    0.86
  -3  -8  -3    9.39    0.93
   3  -8   3   11.48    0.93
   4  -8   3    4.59    0.76
  -4  -8  -3    4.56    0.85
   5  -8   3    0.67    0.65
  -5  -8  -3    1.88    0.81
  -6  -9   3    1.17    0.65
  -6   9   3    0.95    0.58
  -5  -9   3   14.72    1.19
  -5   9   3   17.44    1.06
  -5   9   3   16.09    0.98
  -4  -9   3    2.89    0.60
  -4   9   3    3.01    0.56
  -4   9   3    3.22    0.53
  -3  -9   3   15.91    0.87
  -3   9   3   16.02    0.74
  -3   9   3   16.07    0.89
  -2  -9   3   91.95    2.11
  -2   9   3   95.32    2.21
  -1  -9   3   86.46    1.83
   1  -9  -3   85.41    1.87
  -1   9   3   88.03    2.03
   0  -9  -3   37.61    1.17
   0  -9   3   38.16    1.13
   0   9   3   39.61    1.20
  -1  -9  -3    2.67    0.49
   1  -9   3    2.40    0.44
   1   9   3    1.68    0.37
   2  -9   3   12.78    0.82
  -2  -9  -3   13.79    0.91
   3  -9   3   28.42    1.26
  -3  -9  -3   27.87    1.37
   4  -9   3   40.70    1.64
  -4  -9  -3   37.10    1.69
  -5  -9  -3    0.61    0.74
   5  -9   3    0.72    0.65
  -6 -10   3    0.89    0.62
  -6  10   3    1.17    0.63
  -5 -10   3    2.24    0.61
  -5  10   3    1.19    0.44
  -5  10   3    3.40    0.64
  -4 -10   3    7.71    0.78
  -4  10   3    7.79    0.77
  -4  10   3    8.06    0.71
  -3 -10   3    3.79    0.56
  -3  10   3    3.19    0.40
  -3  10   3    3.48    0.55
  -2 -10   3   58.23    1.58
  -2  10   3   58.64    1.63
  -1 -10   3   29.23    0.97
   1 -10  -3   30.64    0.99
  -1  10   3   31.36    1.10
   0 -10   3   25.39    0.94
   0 -10  -3   26.26    0.99
   0  10   3   24.08    0.96
  -1 -10  -3   70.56    1.87
   1 -10   3   70.52    1.78
   1  10   3   72.48    1.76
   2 -10   3   10.31    0.77
  -2 -10  -3   10.72    0.85
   3 -10   3    9.85    0.89
  -3 -10  -3   10.64    1.00
  -4 -10  -3    3.71    0.83
   4 -10   3    3.70    0.71
   5 -10   3    1.60    0.71
  -5 -10  -3    0.38    0.78
  -6 -11   3    0.77    0.58
  -6  11   3    1.62    0.66
  -5 -11   3    8.62    0.96
  -5  11   3    9.82    0.85
  -5  11   3    8.78    0.84
  -4 -11   3    3.98    0.66
  -4  11   3    3.92    0.56
  -4  11   3    4.04    0.59
  -3 -11   3    1.57    0.46
  -3  11   3    1.61    0.45
  -3  11   3    1.20    0.30
  -2 -11   3   62.63    1.68
  -2  11   3   63.73    1.74
   1 -11  -3   50.09    1.37
  -1 -11   3   49.76    1.35
  -1  11   3   51.56    1.50
   0 -11   3   38.21    1.19
   0 -11  -3   36.28    1.21
   0  11   3   37.93    1.23
  -1 -11  -3   11.32    0.82
   1 -11   3    9.74    0.70
   1  11   3   10.71    0.70
  -2 -11  -3    2.04    0.55
   2 -11   3    2.78    0.51
   3 -11   3   28.21    1.28
  -3 -11  -3   26.42    1.37
  -4 -11  -3   25.50    1.49
   4 -11   3   26.56    1.39
  -5 -11  -3   -0.35    0.75
   5 -11   3    0.27    0.64
  -6  12   3    1.51    0.64
  -5 -12   3    5.23    0.82
  -5  12   3    5.25    0.71
  -5  12   3    4.88    0.71
  -4 -12   3   10.75    0.96
  -4  12   3    9.35    0.75
  -4  12   3   10.19    0.86
  -3 -12   3    5.32    0.65
  -3  12   3    6.40    0.70
  -2 -12   3   52.39    1.40
  -2 -12   3   53.66    1.55
   2 -12  -3   54.20    1.42
  -2  12   3   52.50    1.60
  -1 -12   3    8.66    0.69
   1 -12  -3    7.28    0.62
  -1  12   3    6.97    0.65
   0 -12  -3   26.18    1.08
   0 -12   3   26.69    1.04
   0  12   3   26.77    1.07
   1 -12   3  153.45    3.22
  -1 -12  -3  159.63    3.32
   1  12   3  159.10    3.25
  -2 -12  -3   16.26    1.05
   2 -12   3   16.84    0.97
   3 -12   3   11.30    0.98
  -3 -12  -3    9.06    0.96
   4 -12   3    6.95    0.92
  -4 -12  -3    5.76    0.93
  -5 -13   3    9.73    1.01
  -5  13   3    9.34    0.91
  -4 -13   3    1.89    0.57
  -4  13   3    2.42    0.57
  -3 -13   3    3.22    0.60
  -3  13   3    2.98    0.58
  -2 -13   3   58.27    1.64
   2 -13  -3   59.32    1.54
  -2 -13   3   55.28    1.50
  -2  13   3   54.26    1.67
  -1 -13   3   34.69    1.16
   1 -13  -3   34.56    1.17
  -1  13   3   30.32    1.22
   0 -13   3   40.10    1.32
   0 -13  -3   43.70    1.41
   0  13   3   40.91    1.38
  -1 -13  -3   13.30    0.92
   1 -13   3   12.98    0.87
  -2 -13  -3   23.28    1.25
   2 -13   3   23.63    1.15
   3 -13   3   26.99    1.31
  -3 -13  -3   22.75    1.35
  -4 -13  -3   24.49    1.52
   4 -13   3   26.63    1.43
  -5 -14   3    3.66    0.76
  -5  14   3    2.04    0.61
  -4 -14   3    9.61    0.95
  -4  14   3   12.09    1.02
  -3 -14   3   11.99    0.90
  -3  14   3   11.12    0.91
  -2 -14   3   26.74    1.14
   2 -14  -3   27.95    1.06
  -2 -14   3   29.01    1.08
  -2  14   3   25.98    1.18
   1 -14  -3   19.09    0.93
  -1 -14   3   19.98    0.96
  -1  14   3   17.96    0.99
   0 -14   3   62.08    1.73
   0 -14  -3   62.10    1.79
   0  14   3   64.82    1.82
   1 -14   3  115.18    2.69
  -1 -14  -3  123.03    2.82
  -2 -14  -3   12.44    1.04
   2 -14   3   12.69    0.97
  -3 -14  -3    7.29    0.92
   3 -14   3    9.09    0.94
   4 -14   3    3.86    0.81
  -4 -14  -3    2.81    0.79
  -5 -15   3    4.83    0.78
  -4 -15   3    2.99    0.65
  -4  15   3    4.60    0.74
  -3 -15   3   12.28    1.01
  -3  15   3   11.52    0.96
   2 -15  -3   21.18    0.96
  -2 -15   3   18.68    0.95
  -2 -15   3   20.40    1.03
  -2  15   3   19.57    1.06
  -1 -15   3    9.84    0.82
   1 -15  -3    9.10    0.75
  -1  15   3    7.22    0.74
   0 -15  -3   12.94    0.91
   0 -15   3   11.94    0.86
   0  15   3   11.69    0.87
  -1 -15  -3    5.87    0.74
   1 -15   3    8.05    0.82
   2 -15   3   18.83    1.15
  -2 -15  -3   17.65    1.19
  -3 -15  -3    5.67    0.89
   3 -15   3    5.13    0.80
   4 -15   3    6.02    0.93
  -4 -15  -3    4.96    0.95
  -5 -16   3    2.67    0.69
  -4 -16   3    9.44    0.94
  -4  16   3    9.74    0.95
  -3 -16   3   11.70    1.00
  -3  16   3   12.71    1.04
  -2 -16   3   21.22    1.04
   2 -16  -3   21.96    1.02
  -2 -16   3   19.33    1.03
  -2  16   3   19.43    1.10
  -1 -16   3   -0.65    0.40
  -1 -16   3    0.61    0.39
   1 -16  -3    0.09    0.36
  -1  16   3    0.08    0.39
   0 -16  -3   13.98    0.96
   0 -16   3   12.70    0.93
   0  16   3   12.11    0.93
  -1 -16  -3   83.67    2.33
   1 -16   3   77.88    2.19
  -2 -16  -3    7.78    0.92
   2 -16   3    9.30    0.94
   3 -16   3    6.67    0.90
  -3 -16  -3    5.43    0.89
  -4 -16  -3    0.41    0.73
   4 -16   3    0.62    0.68
  -5 -17   3    7.89    0.94
  -4 -17   3    1.82    0.56
  -4  17   3    2.04    0.60
  -3 -17   3   15.66    1.04
  -3  17   3   16.20    1.10
   2 -17  -3   18.95    1.01
  -2 -17   3   20.89    1.09
  -2 -17   3   21.86    1.09
  -2  17   3   22.22    1.18
   1 -17  -3   20.74    1.11
  -1 -17   3   18.46    1.08
  -1 -17   3   20.49    1.05
  -1  17   3   21.93    1.17
   0 -17  -3   21.30    1.15
   0 -17   3   18.07    1.09
  -1 -17  -3    4.01    0.73
   1 -17   3    5.06    0.74
  -2 -17  -3   19.64    1.29
   2 -17   3   17.94    1.19
  -3 -17  -3   13.64    1.26
   3 -17   3   12.23    1.11
  -5 -18   3    1.39    0.61
  -4 -18   3    1.16    0.56
  -4  18   3    2.07    0.57
  -3 -18   3    7.58    0.87
  -3  18   3    6.52    0.82
   2 -18  -3   25.08    1.17
  -2 -18   3   25.94    1.18
  -2 -18   3   24.73    1.19
  -2  18   3   23.64    1.28
  -1 -18   3    4.88    0.73
  -1 -18   3    5.07    0.70
   1 -18  -3    4.15    0.66
  -1  18   3    4.85    0.70
   0 -18   3   17.17    1.11
   0 -18  -3   17.55    1.14
   1 -18   3   41.92    1.64
  -1 -18  -3   45.34    1.77
   2 -18   3    7.95    0.95
  -2 -18  -3    8.04    0.94
   3 -18   3    7.78    0.99
  -3 -18  -3    8.67    1.08
  -5 -19   3    3.68    0.81
  -4 -19   3    0.45    0.52
  -4  19   3    0.49    0.47
  -3 -19   3   11.98    0.98
  -3  19   3   13.90    1.08
  -2 -19   3   30.74    1.32
   2 -19  -3   31.79    1.35
  -2 -19   3   29.99    1.34
  -2  19   3   31.71    1.48
  -1 -19   3   22.37    1.22
  -1 -19   3   22.15    1.13
   1 -19  -3   22.17    1.24
  -1  19   3   21.56    1.29
   0 -19  -3   20.57    1.25
   0 -19   3   20.51    1.21
  -1 -19  -3    3.30    0.76
   1 -19   3    2.28    0.68
   2 -19   3   17.74    1.25
  -2 -19  -3   18.99    1.36
   3 -19   3   14.32    1.30
  -3 -19  -3   10.98    1.22
  -4 -20   3    3.40    0.71
  -4  20   3    2.53    0.69
  -3 -20   3    3.34    0.67
  -3  20   3    5.06    0.81
   2 -20  -3   21.08    1.18
  -2 -20   3   21.06    1.15
  -2 -20   3   23.20    1.24
  -2  20   3   19.49    1.25
  -1 -20   3   17.17    1.17
   1 -20  -3   15.43    1.14
  -1 -20   3   17.70    1.05
   0 -20   3   22.61    1.31
   0 -20  -3   21.60    1.32
   1 -20   3   19.14    1.27
  -1 -20  -3   22.00    1.42
  -2 -20  -3    6.68    1.00
   2 -20   3    8.67    1.03
   3 -20   3   13.38    1.24
  -3 -20  -3   10.93    1.21
  -4 -21   3    1.71    0.63
  -4  21   3    2.24    0.65
  -3 -21   3    7.81    0.92
  -3  21   3    8.31    0.99
  -2 -21   3   16.20    1.16
  -2 -21   3   15.16    1.05
   2 -21  -3   16.31    1.13
  -1 -21   3    5.54    0.77
  -1 -21   3    2.66    0.69
   1 -21  -3    4.33    0.76
   0 -21   3   23.92    1.40
   0 -21  -3   23.59    1.41
  -1 -21  -3    1.53    0.69
   1 -21   3    1.33    0.68
   2 -21   3   16.77    1.35
  -2 -21  -3   17.70    1.44
  -4 -22   3    0.70    0.55
  -3 -22   3    2.14    0.64
  -2 -22   3   13.06    1.12
  -2 -22   3   11.21    1.04
   2 -22  -3   14.07    1.13
  -1 -22   3   13.00    1.12
  -1 -22   3   14.04    1.20
   1 -22  -3   11.07    1.09
   0 -22  -3    9.53    1.04
   0 -22   3   12.66    1.19
   1 -22   3   10.68    1.15
  -1 -22  -3   10.53    1.15
  -2 -22  -3    3.25    0.85
   2 -22   3    3.30    0.84
  -3 -23   3    3.90    0.73
  -2 -23   3   15.53    1.17
  -2 -23   3   14.31    1.09
   2 -23  -3   13.26    1.19
  -1 -23   3    3.91    0.83
  -1 -23   3    3.83    0.71
   1 -23  -3    3.70    0.79
   0 -23   3    9.49    1.11
   0 -23  -3   10.97    1.17
  -1 -23  -3    1.22    0.75
   1 -23   3    1.59    0.72
   2 -24  -3   11.59    1.17
  -2 -24   3   11.04    1.08
  -2 -24   3   12.19    1.15
   1 -24  -3    7.12    0.96
  -1 -24   3    6.56    0.97
  -1 -24   3    5.53    0.84
   0 -24  -3   13.51    1.23
   0 -24   3   15.15    1.37
  -1 -24  -3   37.34    1.93
   1 -24   3   35.72    1.85
   2 -25  -3    6.83    0.98
  -2 -25   3    7.41    0.97
  -1 -25   3    2.03    0.63
   1 -25  -3    1.48    0.72
  -1 -25   3    1.95    0.76
   0 -25  -3   15.23    1.36
   0 -25   3   13.48    1.31
   2 -26  -3    5.74    0.94
  -2 -26   3    4.73    0.90
  -1 -26   3    2.95    0.83
   1 -26  -3    4.74    0.92
  -6   0   4    3.46    0.77
  -5   0   4    0.78    0.53
  -4   0   4    0.18    0.44
  -3   0   4    9.94    0.78
  -2   0   4    9.61    0.66
  -1   0   4  221.82    3.93
   0   0  -4   40.64    1.22
  -1   0  -4    0.23    0.40
  -2   0  -4   42.03    1.51
  -3   0  -4   12.38    1.09
  -4   0  -4    5.00    0.98
  -6  -1   4    0.29    0.58
  -6   1   4    0.25    0.57
  -5  -1   4   -0.34    0.45
  -5   1   4    0.43    0.49
  -4  -1   4    6.88    0.75
  -4   1   4    7.05    0.74
  -3  -1   4   65.30    1.75
  -3   1   4   67.99    1.75
  -2  -1   4    3.60    0.48
  -2   1   4    3.58    0.46
  -1  -1   4    5.13    0.49
  -1   1   4    3.21    0.39
   0  -1  -4   47.55    1.33
   0   1  -4   47.34    1.34
  -1  -1  -4    2.02    0.48
  -1   1  -4    1.97    0.50
  -2  -1  -4   63.47    1.90
  -2   1  -4   67.60    1.93
  -3  -1  -4    4.27    0.78
  -3   1  -4    3.36    0.73
  -4  -1  -4    1.80    0.80
  -4   1  -4    1.61    0.76
  -6  -2   4    3.53    0.77
  -6   2   4    3.76    0.76
  -5  -2   4    0.34    0.49
  -5   2   4    0.26    0.48
  -5   2   4    0.15    0.45
  -4  -2   4    2.08    0.54
  -4   2   4    3.47    0.60
  -3  -2   4    8.01    0.74
  -3   2   4    8.41    0.71
  -2  -2   4    4.59    0.54
  -2   2   4    3.93    0.45
  -1  -2   4  105.89    2.21
  -1   2   4  105.69    2.11
   0  -2  -4   42.83    1.25
   0   2   4   39.05    1.19
   0   2  -4   41.74    1.25
  -1  -2  -4    0.81    0.45
  -1   2  -4    0.17    0.39
  -2  -2  -4   34.23    1.35
  -2   2  -4   31.89    1.33
  -3  -2  -4   19.27    1.27
  -3   2  -4   22.56    1.31
  -4  -2  -4    4.08    0.89
  -6  -3   4    0.19    0.58
  -6   3   4   -0.36    0.51
  -5  -3   4    0.38    0.47
  -5   3   4    0.31    0.50
  -5   3   4    0.11    0.45
  -4  -3   4   12.00    0.91
  -4   3   4   10.74    0.88
  -4   3   4   11.14    0.88
  -3  -3   4   27.70    1.12
  -3   3   4   26.87    1.04
  -2  -3   4    9.45    0.68
  -2   3   4   10.78    0.62
  -1  -3   4    8.09    0.61
  -1   3   4   10.00    0.69
  -1   3   4    7.51    0.50
   0  -3  -4   56.82    1.49
   0   3   4   54.30    1.47
  -1  -3  -4    4.75    0.61
  -1   3  -4    5.33    0.62
  -2  -3  -4   44.72    1.59
  -2   3  -4   44.38    1.56
  -3  -3  -4    1.98    0.66
  -3   3  -4    1.43    0.65
  -4  -3  -4    3.09    0.86
  -6  -4   4    1.31    0.62
  -6   4   4    1.85    0.65
  -5  -4   4    0.49    0.52
  -5   4   4    0.48    0.50
  -5   4   4    0.14    0.45
  -4  -4   4    0.80    0.49
  -4   4   4    1.48    0.46
  -4   4   4    0.59    0.43
  -3  -4   4   10.15    0.78
  -3   4   4   11.14    0.82
  -3   4   4    9.24    0.71
  -2  -4   4    1.87    0.42
  -2   4   4    2.12    0.37
  -2   4   4    3.05    0.49
  -1  -4   4   68.76    1.69
  -1   4   4   69.86    1.77
   0  -4  -4   53.74    1.46
   0  -4   4   54.03    1.41
   0   4   4   52.71    1.45
  -1  -4  -4    1.52    0.47
   1   4   4    1.13    0.32
  -2  -4  -4   40.68    1.53
  -3  -4  -4   22.26    1.33
  -4  -4  -4    7.78    1.07
   4  -4   4    7.32    0.94
  -6  -5   4    0.20    0.57
  -6   5   4    0.11    0.53
  -5  -5   4   -0.35    0.45
  -5   5   4    0.20    0.46
  -5   5   4   -0.67    0.45
  -4  -5   4   43.61    1.55
  -4   5   4   44.58    1.56
  -4   5   4   42.66    1.44
  -3  -5   4   24.89    1.10
  -3   5   4   26.40    1.15
  -3   5   4   26.20    0.99
  -2  -5   4    0.71    0.38
  -2   5   4    1.17    0.41
  -2   5   4    0.73    0.30
  -1   5   4    5.66    0.56
   0  -5   4   50.95    1.38
   0  -5  -4   52.83    1.46
   0   5   4   51.90    1.44
   1  -5   4   24.56    1.03
  -1  -5  -4   23.53    1.07
   1   5   4   24.34    0.89
  -2  -5  -4   55.68    1.78
  -3  -5  -4    2.31    0.73
   3  -5   4    1.38    0.55
   4  -5   4    1.74    0.66
  -4  -5  -4    1.13    0.74
  -6  -6   4    6.57    0.99
  -6   6   4    5.88    0.85
  -5  -6   4    0.64    0.51
  -5   6   4   -0.01    0.43
  -5   6   4   -0.37    0.47
  -4  -6   4   10.64    0.93
  -4   6   4   10.46    0.86
  -4   6   4   10.71    0.91
  -3  -6   4    2.52    0.53
  -3   6   4    2.39    0.42
  -3   6   4    1.63    0.46
  -2  -6   4    1.05    0.40
  -2   6   4    0.49    0.28
  -2   6   4    0.57    0.36
   1  -6  -4   91.26    1.95
  -1   6   4   89.83    2.15
   0  -6   4   49.08    1.36
   0  -6  -4   46.89    1.39
   0   6   4   46.56    1.38
  -1  -6  -4    3.96    0.59
   1  -6   4    3.49    0.53
   1   6   4    3.09    0.42
  -2  -6  -4   31.72    1.38
   2  -6   4   32.75    1.30
   3  -6   4   19.50    1.17
  -3  -6  -4   17.71    1.26
   4  -6   4    4.06    0.77
  -4  -6  -4    5.03    0.95
  -6  -7   4    0.33    0.59
  -6   7   4    0.18    0.54
  -5  -7   4    0.46    0.54
  -5   7   4    1.81    0.58
  -5   7   4    1.21    0.49
  -4  -7   4   26.44    1.26
  -4   7   4   25.66    1.15
  -4   7   4   27.54    1.27
  -3  -7   4   19.78    1.01
  -3   7   4   19.99    1.04
  -2  -7   4    4.39    0.55
  -2   7   4    3.88    0.55
  -1  -7   4    7.17    0.56
   1  -7  -4    8.15    0.62
  -1   7   4    8.55    0.72
   0  -7  -4   63.25    1.67
   0  -7   4   63.03    1.62
   0   7   4   63.09    1.68
   1  -7   4   12.62    0.82
  -1  -7  -4   12.00    0.88
   1   7   4   11.79    0.71
   2  -7   4   54.60    1.71
  -2  -7  -4   56.19    1.82
   3  -7   4    1.14    0.56
  -3  -7  -4    2.69    0.74
   4  -7   4    2.07    0.67
  -4  -7  -4    1.71    0.79
  -6  -8   4    2.70    0.76
  -6   8   4    3.31    0.75
  -5  -8   4    1.12    0.61
  -5   8   4    1.36    0.55
  -5   8   4    0.95    0.53
  -4  -8   4    4.37    0.67
  -4   8   4    2.43    0.53
  -4   8   4    3.51    0.61
  -3  -8   4    4.89    0.67
  -3   8   4    3.00    0.44
  -3   8   4    3.28    0.56
  -2  -8   4    2.89    0.53
  -2   8   4    2.48    0.48
   1  -8  -4   61.82    1.57
  -1  -8   4   61.41    1.51
  -1   8   4   62.47    1.73
   0  -8   4   52.18    1.45
   0  -8  -4   50.74    1.50
   0   8   4   53.18    1.51
  -1  -8  -4   10.83    0.86
   1  -8   4    9.89    0.78
   1   8   4    9.85    0.69
  -2  -8  -4   28.30    1.38
   2  -8   4   27.80    1.25
   3  -8   4   12.07    1.04
  -3  -8  -4   14.10    1.20
   4  -8   4    3.44    0.77
  -4  -8  -4    4.05    0.89
  -6   9   4    0.88    0.60
  -5  -9   4    0.59    0.51
  -5   9   4    1.00    0.54
  -5   9   4    0.78    0.51
  -4  -9   4    4.98    0.75
  -4   9   4    6.14    0.67
  -4   9   4    6.97    0.80
  -3  -9   4   29.82    1.24
  -3   9   4   27.91    1.25
  -2  -9   4    2.56    0.52
  -2   9   4    2.88    0.52
   1  -9  -4    3.23    0.47
  -1  -9   4    3.74    0.47
  -1   9   4    5.07    0.63
   0  -9   4   39.21    1.26
   0  -9  -4   39.17    1.33
   0   9   4   38.62    1.30
  -1  -9  -4    1.20    0.49
   1  -9   4    1.26    0.46
   1   9   4    0.78    0.35
  -2  -9  -4   43.73    1.66
   2  -9   4   42.55    1.55
   3  -9   4    4.57    0.75
  -3  -9  -4    3.74    0.81
  -4  -9  -4    0.96    0.77
   4  -9   4    0.47    0.59
  -5 -10   4    0.34    0.54
  -5  10   4    0.67    0.48
  -4 -10   4    1.36    0.55
  -4  10   4    1.33    0.54
  -3 -10   4    3.47    0.61
  -3  10   4    3.31    0.60
  -2 -10   4    2.76    0.53
  -2  10   4    2.46    0.54
  -1 -10   4   57.33    1.50
   1 -10  -4   56.75    1.54
  -1  10   4   54.48    1.65
   0 -10   4   27.99    1.10
   0 -10  -4   26.92    1.15
   0  10   4   26.62    1.13
   1 -10   4   13.44    0.89
  -1 -10  -4   12.48    0.95
   1  10   4   13.43    0.81
   2 -10   4   24.30    1.19
  -2 -10  -4   22.32    1.30
  -3 -10  -4   11.08    1.12
   3 -10   4   10.06    0.98
  -4 -10  -4    3.30    0.89
   4 -10   4    3.52    0.84
  -5 -11   4    0.78    0.54
  -5  11   4    0.08    0.46
  -4 -11   4    4.21    0.76
  -4  11   4    5.73    0.77
  -3 -11   4   32.19    1.33
  -3  11   4   28.80    1.31
  -2 -11   4    2.09    0.51
  -2  11   4    2.92    0.55
   1 -11  -4   14.18    0.84
  -1 -11   4   15.08    0.83
  -1  11   4   12.98    0.90
   0 -11  -4   30.79    1.25
   0 -11   4   31.24    1.20
   0  11   4   34.03    1.28
   1 -11   4    1.24    0.47
  -1 -11  -4    0.92    0.49
   1  11   4    0.73    0.39
   2 -11   4   36.43    1.46
  -2 -11  -4   38.07    1.59
  -3 -11  -4    7.22    0.99
   3 -11   4    7.14    0.88
  -4 -11  -4    2.59    0.88
   4 -11   4    3.74    0.83
  -5 -12   4    0.20    0.54
  -5  12   4   -0.06    0.46
  -4 -12   4    5.07    0.78
  -4  12   4    5.54    0.75
  -3 -12   4    4.90    0.71
  -3  12   4    3.90    0.65
  -2 -12   4    2.15    0.51
  -2  12   4    2.37    0.54
   1 -12  -4   87.56    2.12
  -1 -12   4   87.09    2.06
  -1  12   4   87.07    2.28
   0 -12  -4   15.95    0.98
   0 -12   4   14.12    0.92
   0  12   4   14.49    0.94
   1 -12   4   15.58    0.99
  -1 -12  -4   16.14    1.09
   1  12   4   16.90    0.96
  -2 -12  -4   18.40    1.24
   2 -12   4   20.79    1.20
  -3 -12  -4    9.90    1.09
   3 -12   4   11.53    1.06
  -4 -12  -4    4.12    0.98
   4 -12   4    4.58    0.89
  -5 -13   4    1.84    0.65
  -5  13   4    2.60    0.64
  -4 -13   4   18.65    1.20
  -4  13   4   17.27    1.15
  -3 -13   4   27.45    1.31
  -3  13   4   26.60    1.30
  -2 -13   4    5.79    0.72
   2 -13  -4    6.32    0.61
  -2  13   4    7.17    0.76
  -1 -13   4    6.34    0.70
   1 -13  -4    4.40    0.60
  -1  13   4    6.65    0.74
   0 -13   4   18.58    1.02
   0 -13  -4   18.22    1.05
   0  13   4   17.15    1.02
  -1 -13  -4    6.90    0.81
   1 -13   4    8.43    0.83
   1  13   4    7.63    0.73
   2 -13   4   28.53    1.35
  -2 -13  -4   29.16    1.47
  -3 -13  -4    6.52    0.97
   3 -13   4    7.79    0.96
  -5 -14   4    0.39    0.57
  -5  14   4    0.39    0.55
  -4 -14   4    1.61    0.63
  -4  14   4    2.46    0.63
  -3 -14   4    5.34    0.74
  -3  14   4    5.39    0.78
  -2 -14   4    4.32    0.65
  -2 -14   4    4.46    0.62
   2 -14  -4    4.50    0.57
  -2  14   4    6.30    0.78
  -1 -14   4   44.12    1.46
   1 -14  -4   42.67    1.49
  -1  14   4   42.77    1.58
   0 -14  -4   11.38    0.94
   0 -14   4   11.34    0.94
   0  14   4   14.19    0.97
  -1 -14  -4   16.35    1.17
   1 -14   4   17.03    1.07
   1  14   4   16.70    1.03
  -2 -14  -4   15.96    1.21
   2 -14   4   13.29    1.08
  -3 -14  -4   13.95    1.31
   3 -14   4   15.97    1.22
  -5 -15   4    0.93    0.61
  -5  15   4    0.64    0.60
  -4 -15   4    8.35    0.94
  -4  15   4   11.31    1.08
  -3 -15   4    7.76    0.88
  -3  15   4    8.28    0.92
  -2 -15   4    6.92    0.83
   2 -15  -4    6.29    0.65
  -2 -15   4    6.07    0.69
  -2  15   4    6.00    0.80
  -1 -15   4   11.40    0.91
   1 -15  -4   11.95    0.92
  -1  15   4   13.26    1.08
   0 -15   4   16.15    1.05
   0 -15  -4   18.81    1.14
   0  15   4   16.97    1.07
   1 -15   4    4.52    0.72
  -1 -15  -4    4.23    0.75
   2 -15   4   14.64    1.14
  -2 -15  -4   12.87    1.16
  -3 -15  -4    7.19    1.03
   3 -15   4    6.14    0.91
  -5 -16   4    1.32    0.64
  -5  16   4    1.61    0.61
  -4 -16   4    4.49    0.81
  -4  16   4    5.93    0.89
  -3 -16   4    2.64    0.63
  -3  16   4    3.89    0.76
   2 -16  -4    0.86    0.41
  -2 -16   4    0.33    0.47
  -2 -16   4    1.36    0.51
  -2  16   4    1.59    0.59
   1 -16  -4   29.64    1.33
  -1 -16   4   26.97    1.25
  -1 -16   4   28.29    1.31
  -1  16   4   29.30    1.40
   0 -16  -4   17.55    1.15
   0 -16   4   16.74    1.09
   0  16   4   18.48    1.12
   1 -16   4   11.99    1.04
  -1 -16  -4    9.62    0.99
  -2 -16  -4    9.04    1.02
   2 -16   4   11.67    1.11
   3 -16   4    8.17    1.02
  -3 -16  -4    7.86    1.06
  -5  17   4    0.11    0.53
  -4 -17   4    6.70    0.90
  -4  17   4    7.78    0.96
  -3 -17   4    9.41    0.97
  -3  17   4    9.99    1.02
   2 -17  -4    2.18    0.53
  -2 -17   4    3.53    0.67
  -2 -17   4    3.72    0.67
  -2  17   4    6.04    0.86
  -1 -17   4    8.20    0.89
   1 -17  -4    8.03    0.86
  -1 -17   4    8.78    0.94
  -1  17   4   10.38    1.04
   0 -17  -4   15.18    1.15
   0 -17   4   15.13    1.09
   0  17   4   14.85    1.08
   1 -17   4    6.14    0.87
  -1 -17  -4    5.92    0.86
   2 -17   4   17.25    1.23
  -2 -17  -4   17.92    1.39
  -3 -17  -4    1.87    0.81
   3 -17   4    0.95    0.69
  -4 -18   4    2.94    0.72
  -4  18   4    3.15    0.72
  -3 -18   4    2.08    0.64
  -3  18   4    2.04    0.69
  -2 -18   4    5.13    0.78
   2 -18  -4    5.03    0.72
  -2  18   4    4.69    0.81
  -1 -18   4   41.13    1.61
  -1 -18   4   42.12    1.63
   1 -18  -4   43.48    1.69
  -1  18   4   41.66    1.73
   0 -18  -4   13.71    1.15
   0 -18   4   14.04    1.16
   0  18   4   12.71    1.13
  -1 -18  -4   10.79    1.11
   1 -18   4   10.06    1.03
  -2 -18  -4   12.25    1.26
   2 -18   4   12.46    1.21
  -4 -19   4    4.89    0.83
  -4  19   4    6.81    0.93
  -3 -19   4    7.83    0.96
  -3  19   4    6.62    0.94
  -2 -19   4   13.19    1.06
   2 -19  -4   13.18    1.05
  -2  19   4   14.99    1.22
  -1 -19   4    6.17    0.89
   1 -19  -4    5.18    0.77
  -1 -19   4    6.05    0.86
  -1  19   4    5.03    0.81
   0 -19   4   15.12    1.26
   0 -19  -4   13.34    1.18
  -1 -19  -4    3.24    0.79
   1 -19   4    2.46    0.74
   2 -19   4   17.38    1.34
  -2 -19  -4   13.30    1.29
  -4 -20   4    5.53    0.89
  -4  20   4    6.02    0.95
  -3 -20   4    2.16    0.67
  -3  20   4    1.23    0.64
  -2 -20   4    6.02    0.85
  -2  20   4    6.90    0.96
   1 -20  -4   20.58    1.33
  -1 -20   4   22.17    1.28
  -1 -20   4   21.23    1.35
  -1  20   4   22.92    1.44
   0 -20   4    8.93    1.02
   0 -20  -4    9.57    1.06
   1 -20   4   17.79    1.33
  -1 -20  -4   13.32    1.23
  -2 -20  -4    3.59    0.90
   2 -20   4    6.16    0.96
  -3 -21   4    4.39    0.82
  -3  21   4    3.95    0.81
  -2 -21   4    8.86    1.02
  -2  21   4   10.49    1.10
  -1 -21   4    4.58    0.87
  -1 -21   4    3.49    0.73
   1 -21  -4    4.92    0.83
   0 -21  -4    8.76    1.07
   0 -21   4    7.31    1.04
   1 -21   4    0.27    0.62
  -1 -21  -4   -0.37    0.61
  -3 -22   4    0.96    0.63
  -2 -22   4    1.19    0.59
  -2  22   4    2.00    0.70
  -1 -22   4   11.29    1.11
  -1 -22   4   12.18    1.20
   1 -22  -4    9.95    1.10
   0 -22   4    4.88    0.94
   0 -22  -4    3.54    0.87
  -1 -22  -4   12.74    1.28
   1 -22   4   12.75    1.27
  -2 -23   4    4.29    0.81
  -1 -23   4    9.04    1.12
  -1 -23   4    9.85    1.10
   1 -23  -4    9.64    1.12
   0 -23  -4    4.35    0.97
   0 -23   4    3.50    0.92
  -2 -24   4    0.77    0.63
  -1 -24   4   14.98    1.36
   1 -24  -4   14.23    1.32
  -1 -24   4   15.74    1.37
   0 -24   4    0.97    0.80
  -6   0   5    0.51    0.57
  -6   0   5   -0.87    0.52
  -5   0   5    2.18    0.65
  -4   0   5   -0.33    0.43
  -3   0   5   25.82    1.18
  -2   0   5    1.25    0.43
  -1   0   5    0.93    0.37
   0   0  -5   22.17    1.06
  -1   0  -5   42.38    1.57
  -2   0  -5    0.01    0.56
  -3   0  -5   -0.15    0.63
  -6  -1   5   -0.27    0.57
  -6   1   5    1.05    0.61
  -6   1   5    0.42    0.57
  -5  -1   5    3.28    0.70
  -5   1   5    3.86    0.72
  -4  -1   5    0.67    0.50
  -4   1   5    0.91    0.50
  -3  -1   5   13.52    0.95
  -3   1   5   12.34    0.91
  -2  -1   5   28.25    1.13
  -2   1   5   27.87    1.08
  -1  -1   5   10.93    0.76
  -1   1   5   11.69    0.70
   0  -1  -5    6.74    0.71
   0   1  -5    7.87    0.76
   0   1   5    7.10    0.67
  -1  -1  -5    2.11    0.60
  -1   1  -5    2.42    0.61
  -2  -1  -5   -0.79    0.53
  -2   1  -5    0.18    0.57
  -3  -1  -5   30.22    1.67
  -3   1  -5   28.09    1.59
  -6  -2   5    0.85    0.63
  -6   2   5    0.76    0.60
  -6   2   5    0.37    0.62
  -5  -2   5    5.45    0.81
  -5   2   5    3.98    0.72
  -5   2   5    3.93    0.77
  -4  -2   5    7.18    0.82
  -4   2   5    6.50    0.75
  -3  -2   5    6.24    0.74
  -3   2   5    5.74    0.68
  -2  -2   5    6.53    0.69
  -2   2   5    5.51    0.57
  -1  -2   5    1.42    0.42
  -1   2   5    1.11    0.35
   0  -2  -5   24.50    1.11
   0   2   5   25.26    1.09
  -1  -2  -5   59.22    1.89
  -1   2  -5   61.47    1.89
  -2  -2  -5   -0.09    0.56
  -2   2  -5    0.27    0.59
  -3  -2  -5    1.72    0.71
  -6   3   5    0.22    0.56
  -6   3   5    0.13    0.57
  -5  -3   5    2.95    0.70
  -5   3   5    2.92    0.66
  -5   3   5    2.54    0.72
  -4  -3   5    1.67    0.60
  -4   3   5    2.23    0.61
  -4   3   5    2.46    0.57
  -3  -3   5    6.17    0.72
  -3   3   5    6.56    0.65
  -3   3   5    4.39    0.67
  -2  -3   5   37.08    1.30
  -2   3   5   35.05    1.39
  -2   3   5   35.99    1.17
  -1  -3   5    5.38    0.53
  -1  -3   5    3.85    0.55
  -1   3   5    4.44    0.49
  -1   3   5    6.68    0.72
   0  -3  -5   13.97    0.90
   0   3   5   11.78    0.84
  -1  -3  -5    3.26    0.64
  -2  -3  -5    0.06    0.57
  -3  -3  -5   16.82    1.38
  -6   4   5    1.59    0.67
  -6   4   5    0.70    0.60
  -5  -4   5    2.78    0.72
  -5   4   5    2.09    0.67
  -5   4   5    2.68    0.63
  -4  -4   5    1.60    0.55
  -4   4   5    0.80    0.47
  -4   4   5    0.74    0.53
  -3  -4   5    3.53    0.63
  -3   4   5    2.39    0.57
  -3   4   5    2.90    0.51
  -2  -4   5    6.58    0.68
  -2   4   5    5.16    0.67
  -2   4   5    5.31    0.53
   1  -4  -5    0.66    0.38
  -1  -4   5    0.66    0.41
  -1   4   5    0.13    0.28
  -1   4   5    1.04    0.46
   0  -4   5   31.98    1.19
   0  -4  -5   30.81    1.23
   0   4   5   33.25    1.24
  -1  -4  -5   61.53    1.92
  -2  -4  -5   -0.19    0.57
  -3  -4  -5    0.20    0.65
   3  -4   5    0.01    0.57
  -6   5   5    1.91    0.69
  -6   5   5    2.30    0.69
  -5  -5   5    3.15    0.72
  -5   5   5    3.06    0.72
  -5   5   5    2.40    0.63
  -4  -5   5    0.00    0.48
  -4   5   5   -0.17    0.44
  -4   5   5    0.02    0.48
  -3  -5   5    2.26    0.56
  -3   5   5    1.60    0.44
  -3   5   5    1.68    0.54
  -2  -5   5   40.70    1.43
  -2   5   5   41.61    1.52
  -1  -5   5    1.29    0.37
  -1  -5   5    1.41    0.48
   1  -5  -5    0.79    0.39
  -1   5   5    1.31    0.48
   0  -5   5    6.08    0.65
   0  -5  -5    5.76    0.68
   0   5   5    6.47    0.69
  -1  -5  -5    2.37    0.61
   1  -5   5    2.53    0.56
  -2  -5  -5    1.01    0.66
   2  -5   5    1.15    0.58
  -3  -5  -5   17.14    1.37
   3  -5   5   18.25    1.32
  -6   6   5    0.11    0.56
  -6   6   5    0.13    0.55
  -5  -6   5    3.71    0.75
  -5   6   5    3.26    0.74
  -5   6   5    3.43    0.69
  -4  -6   5    0.54    0.53
  -4   6   5    1.08    0.58
  -4   6   5    1.25    0.50
  -3  -6   5    7.88    0.85
  -3   6   5    7.91    0.81
  -2  -6   5    4.39    0.63
  -2   6   5    4.49    0.67
  -1  -6   5    0.52    0.44
  -1  -6   5    0.01    0.33
   1  -6  -5    0.48    0.36
  -1   6   5    0.07    0.38
   0  -6  -5   33.31    1.29
   0  -6   5   31.62    1.21
   0   6   5   32.49    1.26
   1  -6   5   55.06    1.72
  -1  -6  -5   52.95    1.79
  -2  -6  -5    4.50    0.83
   2  -6   5    3.12    0.69
  -3  -6  -5    1.20    0.73
   3  -6   5   -0.21    0.58
  -6   7   5    2.54    0.74
  -5  -7   5    2.34    0.66
  -5   7   5    2.73    0.69
  -4  -7   5    0.23    0.50
  -4   7   5    0.65    0.56
  -3  -7   5    5.88    0.76
  -3   7   5    6.35    0.79
  -2  -7   5   34.76    1.37
  -2   7   5   34.10    1.40
  -1  -7   5   -0.65    0.36
   1  -7  -5    0.28    0.37
  -1  -7   5   -0.06    0.35
  -1   7   5   -0.15    0.37
   0  -7  -5    9.35    0.82
   0  -7   5    8.98    0.79
   0   7   5    9.90    0.83
  -1  -7  -5    1.96    0.60
   1  -7   5    1.68    0.55
  -2  -7  -5    4.48    0.81
   2  -7   5    3.74    0.71
  -3  -7  -5   17.77    1.43
   3  -7   5   16.28    1.28
  -6   8   5    0.69    0.62
  -5  -8   5    2.03    0.67
  -5   8   5    2.73    0.70
  -4  -8   5    0.67    0.56
  -4   8   5    1.20    0.56
  -3  -8   5    6.27    0.78
  -3   8   5    6.64    0.80
  -2  -8   5    6.08    0.77
  -2   8   5    5.61    0.70
   1  -8  -5    0.24    0.37
  -1  -8   5    0.32    0.37
  -1   8   5    0.15    0.42
   0  -8  -5   21.51    1.10
   0  -8   5   23.94    1.07
   0   8   5   21.43    1.09
   1  -8   5   26.60    1.28
  -1  -8  -5   30.13    1.39
  -2  -8  -5    4.41    0.82
   2  -8   5    3.61    0.73
   3  -8   5    0.64    0.62
  -3  -8  -5   -0.17    0.64
  -5  -9   5    3.25    0.77
  -5   9   5    2.75    0.69
  -4  -9   5    0.77    0.58
  -4   9   5   -0.08    0.51
  -3  -9   5    6.24    0.80
  -3   9   5    5.98    0.78
  -2  -9   5   37.36    1.46
  -2   9   5   37.49    1.49
   1  -9  -5   14.64    0.87
  -1  -9   5   16.69    0.90
  -1   9   5   14.44    0.98
   0  -9  -5    6.18    0.74
   0  -9   5    6.36    0.71
   0   9   5    6.29    0.72
  -1  -9  -5    0.99    0.57
   1  -9   5    0.25    0.48
   2  -9   5    2.97    0.69
  -2  -9  -5    2.86    0.78
   3  -9   5   17.84    1.34
  -3  -9  -5   19.22    1.47
  -5 -10   5    2.46    0.72
  -5  10   5    3.40    0.75
  -4 -10   5    2.41    0.70
  -4  10   5    2.92    0.69
  -3 -10   5    5.97    0.80
  -3  10   5    5.74    0.78
  -2 -10   5    4.05    0.68
  -2  10   5    4.01    0.67
   1 -10  -5    2.78    0.52
  -1 -10   5    2.98    0.55
  -1  10   5    3.02    0.60
   0 -10  -5   19.35    1.10
   0 -10   5   20.80    1.07
   0  10   5   20.18    1.09
   1 -10   5   18.13    1.11
  -1 -10  -5   20.83    1.24
  -2 -10  -5    1.24    0.68
   2 -10   5    1.88    0.64
   3 -10   5    0.34    0.64
  -3 -10  -5    1.33    0.74
  -5 -11   5    2.42    0.70
  -5  11   5    1.55    0.68
  -4 -11   5   -0.18    0.51
  -4  11   5    0.26    0.54
  -3 -11   5    8.46    0.90
  -3  11   5    8.65    0.95
  -2 -11   5   19.35    1.16
  -2  11   5   21.68    1.21
  -1 -11   5    0.95    0.47
   1 -11  -5    1.90    0.49
  -1  11   5    1.65    0.52
   0 -11   5   12.43    0.94
   0 -11  -5   11.53    0.96
   0  11   5   11.27    0.96
  -1 -11  -5    1.05    0.63
   1 -11   5    1.19    0.55
  -2 -11  -5    0.28    0.65
   2 -11   5    0.73    0.57
  -3 -11  -5   10.09    1.20
   3 -11   5   14.56    1.26
  -5 -12   5    3.06    0.77
  -5  12   5    2.56    0.70
  -4 -12   5   -0.30    0.49
  -4  12   5   -0.74    0.49
  -3 -12   5   10.46    1.04
  -3  12   5   10.23    0.98
  -2 -12   5    2.53    0.64
  -2  12   5    2.21    0.59
  -1 -12   5    4.55    0.63
  -1 -12   5    5.34    0.79
   1 -12  -5    5.09    0.65
  -1  12   5    3.21    0.66
   0 -12  -5   15.09    1.05
   0 -12   5   15.62    1.03
   0  12   5   16.94    1.11
   1 -12   5   26.86    1.34
  -1 -12  -5   27.33    1.45
  -2 -12  -5    0.85    0.71
   2 -12   5    0.14    0.60
  -3 -12  -5    0.61    0.75
   3 -12   5    1.00    0.69
  -5  13   5    1.92    0.68
  -4 -13   5    0.53    0.57
  -4  13   5    0.59    0.56
  -3 -13   5    1.38    0.58
  -3  13   5    1.93    0.59
  -2 -13   5   16.05    1.12
  -2  13   5   16.55    1.12
  -1 -13   5    1.88    0.58
   1 -13  -5    2.16    0.54
  -1 -13   5    2.36    0.58
  -1  13   5    3.46    0.66
   0 -13  -5    8.03    0.87
   0 -13   5    7.24    0.84
   0  13   5    9.10    0.93
  -1 -13  -5    2.35    0.70
   1 -13   5    2.10    0.63
  -2 -13  -5    0.87    0.69
   2 -13   5    1.02    0.64
  -4 -14   5    0.19    0.54
  -4  14   5    0.77    0.61
  -3 -14   5    4.76    0.81
  -3  14   5    4.73    0.83
  -2 -14   5    2.75    0.68
  -2  14   5    1.85    0.64
  -1 -14   5    6.87    0.86
  -1 -14   5    5.92    0.78
   1 -14  -5    6.03    0.79
  -1  14   5    6.92    0.89
   0 -14   5   16.18    1.11
   0 -14  -5   17.47    1.16
   0  14   5   17.96    1.16
   1 -14   5   35.46    1.56
  -1 -14  -5   34.42    1.64
   2 -14   5    2.24    0.74
  -2 -14  -5    2.09    0.78
  -4 -15   5    0.63    0.59
  -4  15   5    0.41    0.62
  -3 -15   5    3.53    0.76
  -3  15   5    3.69    0.76
  -2 -15   5   14.26    1.14
  -2  15   5   14.20    1.17
   1 -15  -5    0.73    0.53
  -1 -15   5    0.64    0.50
  -1 -15   5    0.21    0.54
  -1  15   5    1.90    0.66
   0 -15  -5    7.24    0.89
   0 -15   5    7.50    0.96
   0  15   5    7.02    0.89
   1 -15   5    2.43    0.69
  -1 -15  -5    1.09    0.66
  -2 -15  -5    1.41    0.77
   2 -15   5    0.80    0.65
  -4 -16   5    1.06    0.63
  -4  16   5    0.47    0.65
  -3 -16   5    3.51    0.77
  -3  16   5    4.32    0.80
  -2 -16   5    3.06    0.72
  -2  16   5    3.77    0.80
   1 -16  -5    2.66    0.66
  -1 -16   5    0.69    0.59
  -1 -16   5    3.14    0.68
  -1  16   5    4.44    0.84
   0 -16   5   12.04    1.11
   0 -16  -5   12.11    1.11
   0  16   5   11.08    1.08
   1 -16   5   23.39    1.38
  -1 -16  -5   24.22    1.48
   2 -16   5    7.49    1.04
  -2 -16  -5    3.72    0.92
  -4  17   5    0.76    0.69
  -3 -17   5    8.35    0.98
  -3  17   5   10.00    1.13
  -2 -17   5    8.95    1.00
  -2  17   5   12.64    1.19
  -1 -17   5    1.55    0.65
   1 -17  -5    1.58    0.63
  -1 -17   5    1.10    0.56
  -1  17   5    1.14    0.66
   0 -17   5    7.95    0.97
   0 -17  -5    6.35    0.94
   0  17   5    8.08    0.98
   1 -17   5   -0.03    0.64
  -1 -17  -5    1.01    0.65
   2 -17   5    4.85    0.94
  -2 -17  -5    4.10    1.00
  -3 -18   5   10.55    1.18
  -3  18   5   10.51    1.14
  -2 -18   5    0.45    0.57
  -2  18   5    0.86    0.63
  -1 -18   5    1.83    0.71
  -1 -18   5    2.02    0.64
   1 -18  -5    2.79    0.72
  -1  18   5    2.10    0.72
   0 -18  -5   10.87    1.12
   0 -18   5   11.32    1.10
   0  18   5   11.76    1.16
   1 -18   5    7.14    1.02
  -1 -18  -5    5.14    0.91
  -3 -19   5    3.38    0.81
  -3  19   5    3.10    0.81
  -2 -19   5    9.33    1.05
  -2  19   5   10.14    1.17
  -1 -19   5    0.46    0.65
  -1 -19   5    1.40    0.60
  -1  19   5    0.55    0.63
   0 -19  -5    5.00    0.91
   0 -19   5    4.37    0.91
   0  19   5    5.62    0.93
  -1 -19  -5    1.31    0.74
   1 -19   5    0.38    0.67
  -2 -20   5    0.77    0.60
  -2  20   5    1.88    0.73
   1 -20  -5    2.21    0.74
  -1 -20   5    2.38    0.69
  -1 -20   5    1.81    0.76
  -1  20   5    3.15    0.79
   0 -20   5    5.28    0.94
   0 -20  -5    5.22    0.91
  -2 -21   5    6.14    0.99
   1 -21  -5    0.88    0.73
  -1 -21   5    0.76    0.58
  -1  21   5    1.67    0.75
   0 -21  -5   11.84    1.24
   0 -21   5    9.11    1.17
   1 -22  -5    3.50    0.89
  -5   0   6    0.47    0.58
  -4   0   6    1.69    0.61
  -3   0   6    4.66    0.71
  -2   0   6    8.99    0.85
  -1   0   6   19.44    1.01
   0   0  -6    2.16    0.61
   0   0   6    1.22    0.52
  -1   0  -6    1.47    0.67
  -2   0  -6   31.09    1.74
  -5  -1   6   -0.05    0.53
  -5   1   6    1.15    0.74
  -5   1   6    1.13    0.62
  -4  -1   6    3.83    0.72
  -4   1   6    3.14    0.65
  -3  -1   6    3.50    0.66
  -3   1   6    2.45    0.60
  -2  -1   6    0.98    0.50
  -2   1   6    1.67    0.50
  -1  -1   6    8.75    0.81
  -1   1   6    8.22    0.87
  -1   1   6    7.08    0.70
   0  -1  -6    5.49    0.77
   0   1   6    5.28    0.72
  -1  -1  -6    3.05    0.75
  -1   1  -6    3.02    0.75
  -2   1  -6    8.59    1.13
  -5  -2   6    0.36    0.58
  -5   2   6   -0.35    0.63
  -5   2   6    0.80    0.60
  -4  -2   6   -0.37    0.53
  -4   2   6    0.11    0.61
  -4   2   6    0.78    0.53
  -3  -2   6    0.62    0.54
  -3   2   6    1.60    0.64
  -3   2   6    1.46    0.54
  -2  -2   6    3.52    0.64
  -2   2   6    2.62    0.56
  -2   2   6    3.82    0.71
  -1  -2   6   13.02    0.95
  -1   2   6   14.60    1.05
   0  -2  -6    1.23    0.57
   0   2   6    1.13    0.50
  -1  -2  -6    1.58    0.66
  -2  -2  -6   10.94    1.21
  -5  -3   6    0.51    0.62
  -5   3   6    0.04    0.65
  -5   3   6    0.34    0.57
  -4  -3   6    6.93    0.91
  -4   3   6    6.21    0.92
  -4   3   6    7.29    0.84
  -3  -3   6    3.09    0.66
  -3   3   6    4.08    0.76
  -2  -3   6    3.41    0.64
  -2   3   6    2.82    0.68
  -1  -3   6    9.67    0.90
  -1   3   6    9.25    0.94
   0  -3  -6    6.56    0.81
   0  -3   6    7.18    0.81
   0   3   6    7.31    0.79
  -1  -3  -6    4.98    0.85
  -2  -3  -6    2.71    0.83
  -5  -4   6    1.77    0.62
  -5   4   6   -0.78    0.61
  -4  -4   6    0.78    0.61
  -4   4   6    1.66    0.73
  -3  -4   6    2.65    0.65
  -3   4   6    1.45    0.62
  -2  -4   6    2.08    0.59
  -2   4   6    0.22    0.52
  -1  -4   6   17.95    1.09
  -1   4   6   17.73    1.14
   0  -4   6    0.96    0.51
   0  -4  -6    2.16    0.61
   0   4   6    0.94    0.47
  -1  -4  -6    2.53    0.72
   1  -4   6    2.44    0.62
  -2  -4  -6   11.25    1.27
   2  -4   6   10.74    1.09
  -5  -5   6    0.79    0.61
  -5   5   6    0.80    0.69
  -4  -5   6    5.62    0.85
  -4   5   6    5.47    0.90
  -3  -5   6    2.37    0.65
  -3   5   6    2.19    0.69
  -2  -5   6    1.21    0.54
  -2   5   6    0.81    0.55
  -1  -5   6    4.83    0.71
  -1   5   6    5.11    0.77
   0  -5   6    6.55    0.79
   0  -5  -6    7.06    0.84
   0   5   6    5.92    0.76
  -1  -5  -6   10.30    1.09
   1  -5   6    9.14    0.96
   2  -5   6    2.97    0.76
  -2  -5  -6    3.35    0.92
  -5  -6   6    0.82    0.62
  -5   6   6    0.23    0.67
  -4  -6   6    0.65    0.62
  -4   6   6    1.40    0.67
  -3  -6   6    1.13    0.60
  -3   6   6    0.10    0.56
  -2  -6   6    0.56    0.50
  -2   6   6    0.94    0.58
  -1  -6   6   16.53    1.09
  -1   6   6   14.84    1.09
   0  -6  -6    2.71    0.66
   0  -6   6    3.17    0.62
   0   6   6    3.00    0.61
  -1  -6  -6    2.50    0.72
   1  -6   6    1.91    0.64
   2  -6   6   12.63    1.17
  -2  -6  -6   15.96    1.43
  -5  -7   6    0.36    0.64
  -5   7   6    0.65    0.68
  -4  -7   6    4.32    0.80
  -4   7   6    5.11    0.88
  -3  -7   6    0.03    0.53
  -3   7   6    0.88    0.62
  -2  -7   6    0.59    0.53
  -2   7   6    0.44    0.54
  -1  -7   6    8.41    0.90
  -1   7   6   12.67    1.05
   0  -7   6   10.18    0.93
   0  -7  -6    9.70    0.97
   0   7   6    8.24    0.87
   1  -7   6    6.86    0.88
  -1  -7  -6    8.05    1.00
  -2  -7  -6    6.59    1.06
   2  -7   6    5.54    0.89
  -4  -8   6   -0.16    0.58
  -4   8   6    0.43    0.62
  -3  -8   6    1.68    0.60
  -3   8   6    0.70    0.60
  -2  -8   6    2.33    0.65
  -2   8   6    2.81    0.68
  -1  -8   6   14.09    1.09
  -1   8   6   14.73    1.11
   0  -8   6    5.39    0.74
   0  -8  -6    5.88    0.81
   0   8   6    5.36    0.74
  -1  -8  -6    5.05    0.87
   1  -8   6    6.85    0.92
  -2  -8  -6   12.92    1.32
   2  -8   6   12.00    1.16
  -4  -9   6    3.32    0.76
  -4   9   6    3.40    0.82
  -3  -9   6    2.79    0.69
  -3   9   6    2.88    0.76
  -2  -9   6    0.31    0.52
  -2   9   6    1.38    0.60
  -1  -9   6    3.42    0.70
  -1   9   6    4.01    0.73
   0  -9   6    3.21    0.64
   0  -9  -6    3.34    0.73
   0   9   6    2.37    0.59
  -1  -9  -6    1.97    0.73
   1  -9   6    0.55    0.57
  -2  -9  -6    3.10    0.90
   2  -9   6    2.62    0.74
  -4 -10   6   -0.99    0.50
  -4  10   6    0.60    0.63
  -3 -10   6   -0.15    0.53
  -3  10   6    0.58    0.62
  -2 -10   6    4.55    0.76
  -2  10   6    4.84    0.79
  -1 -10   6    9.62    0.98
  -1  10   6    9.63    1.03
   0 -10   6    0.29    0.52
   0 -10  -6    1.02    0.63
   0  10   6    0.13    0.49
   1 -10   6    0.64    0.58
  -1 -10  -6    2.71    0.78
   2 -10   6   10.76    1.18
  -2 -10  -6   10.82    1.30
  -4 -11   6    3.15    0.76
  -4  11   6    3.97    0.85
  -3 -11   6    1.61    0.65
  -3  11   6    1.13    0.68
  -2 -11   6    2.10    0.66
  -2  11   6    2.16    0.64
  -1 -11   6    6.40    0.85
  -1  11   6    7.53    0.92
   0 -11  -6    4.87    0.82
   0 -11   6    5.34    0.79
   0  11   6    5.60    0.83
  -1 -11  -6    3.90    0.85
   1 -11   6    2.58    0.75
  -2 -11  -6    5.41    1.03
   2 -11   6    4.91    0.91
  -4 -12   6    0.48    0.60
  -4  12   6    0.86    0.63
  -3 -12   6    0.27    0.59
  -3  12   6    2.00    0.70
  -2 -12   6    4.72    0.78
  -2  12   6    4.19    0.81
  -1 -12   6   11.70    1.12
  -1  12   6    9.04    0.99
   0 -12   6    1.23    0.62
   0 -12  -6    1.84    0.67
   0  12   6    1.94    0.67
   1 -12   6    3.73    0.80
  -1 -12  -6    3.48    0.83
  -3 -13   6    0.50    0.61
  -3  13   6    0.23    0.57
  -2 -13   6    3.36    0.75
  -2  13   6    2.38    0.74
  -1 -13   6    3.14    0.72
  -1  13   6    2.77    0.70
   0 -13  -6    3.97    0.81
   0 -13   6    2.70    0.73
   0  13   6    3.65    0.80
   1 -13   6    3.75    0.81
  -1 -13  -6    3.02    0.91
  -3 -14   6    1.48    0.67
  -3  14   6    1.10    0.68
  -2 -14   6    1.84    0.69
  -2  14   6    2.81    0.76
  -1 -14   6    6.22    0.87
  -1  14   6    7.35    0.96
   0 -14  -6    0.95    0.67
   0 -14   6    1.17    0.65
   0  14   6    0.65    0.62
   1 -14   6    3.26    0.83
  -1 -14  -6    4.14    0.92
  -3 -15   6    1.27    0.67
  -3  15   6    1.86    0.72
  -2 -15   6    2.44    0.76
  -2  15   6    2.58    0.78
  -1 -15   6    3.25    0.75
  -1  15   6    3.40    0.85
   0 -15  -6    1.75    0.74
   0 -15   6    1.17    0.69
   0  15   6    2.02    0.67
   1 -15   6    5.25    0.95
  -1 -15  -6    3.78    0.92
  -2 -16   6    0.69    0.62
  -2  16   6    0.73    0.64
  -1 -16   6    6.78    0.98
  -1  16   6    8.44    1.14
   0 -16  -6    2.35    0.77
   0 -16   6    1.56    0.72
   0  16   6    2.56    0.75
   1 -16   6    3.24    0.85
  -2 -17   6    0.04    0.59
  -2  17   6    1.03    0.70
  -1 -17   6    2.74    0.78
  -1  17   6    2.75    0.78
   0 -17  -6   -0.73    0.64
   0 -17   6    0.09    0.63
   0  17   6    1.78    0.69
  -1  18   6    9.18    1.21
   0 -18   6    0.48    0.68
   0 -18  -6    0.81    0.74
   0  18   6    1.20    0.68
  -4   0   7   -0.42    0.67
  -1   0   7    0.23    0.56
  -4  -1   7    1.06    0.65
  -4   1   7    0.60    0.75
  -3  -1   7    3.52    0.80
  -2   1   7    4.89    0.94
  -1  -1   7    0.04    0.55
  -1   1   7    0.17    0.55
  -1  -1  -7    3.72    0.94
  -4  -2   7    0.23    0.62
  -4   2   7   -0.20    0.67
  -3  -2   7    0.66    0.60
  -3   2   7    0.60    0.67
  -2  -2   7   -0.12    0.53
  -2   2   7   -0.10    0.58
  -1   2   7    0.26    0.56
   1  -2   7    4.82    0.88
  -1  -2  -7    3.04    0.88
  -4  -3   7   -0.20    0.59
  -3  -3   7    1.60    0.68
  -3   3   7    1.21    0.72
  -2  -3   7    3.46    0.73
  -2   3   7    3.46    0.79
  -1  -3   7    1.41    0.59
  -1   3   7    0.28    0.58
  -1  -3  -7    1.40    0.80
   1  -3   7    2.16    0.70
  -4  -4   7   -0.17    0.61
  -3  -4   7   -0.06    0.56
  -3   4   7    0.08    0.65
  -2  -4   7    0.34    0.58
  -2   4   7    0.50    0.63
  -1  -4   7    0.43    0.56
  -1   4   7    0.50    0.57
  -1  -4  -7    5.08    1.00
   1  -4   7    4.07    0.83
  -4  -5   7    0.72    0.65
  -3  -5   7    1.13    0.65
  -3   5   7    1.65    0.75
  -2  -5   7    3.33    0.74
  -2   5   7    4.15    0.86
  -1  -5   7    0.30    0.60
  -1   5   7    0.59    0.56
   1  -5   7    1.74    0.71
  -1  -5  -7    2.38    0.86
  -4  -6   7    0.24    0.65
  -3  -6   7    0.70    0.63
  -3   6   7    1.64    0.75
  -2  -6   7    0.47    0.60
  -2   6   7   -0.39    0.58
  -1  -6   7    1.65    0.66
  -1   6   7    1.79    0.66
  -1  -6  -7    3.66    0.93
   1  -6   7    3.85    0.82
  -3  -7   7    3.98    0.85
  -3   7   7    4.32    0.89
  -2  -7   7    5.03    0.84
  -2   7   7    3.80    0.84
  -1  -7   7    1.49    0.66
  -1   7   7    1.07    0.59
  -1  -7  -7    0.11    0.74
   1  -7   7    0.94    0.70
  -3  -8   7    0.15    0.59
  -3   8   7    0.99    0.70
  -2  -8   7    0.01    0.59
  -2   8   7    1.00    0.66
  -1  -8   7    1.59    0.67
  -1   8   7    0.21    0.60
  -1  -8  -7    3.15    0.89
   1  -8   7    3.28    0.83
  -3  -9   7    3.21    0.78
  -3   9   7    4.59    0.94
  -2  -9   7    2.50    0.74
  -2   9   7    3.25    0.86
  -1  -9   7    0.14    0.61
  -1   9   7    0.89    0.62
   1  -9   7    0.20    0.61
  -1  -9  -7    0.55    0.75
  -3 -10   7    1.17    0.67
  -2 -10   7    0.12    0.56
  -2  10   7    0.49    0.63
  -1 -10   7   -0.03    0.54
  -1  10   7    0.10    0.53
   1 -10   7    1.97    0.79
  -2 -11   7    2.55    0.76
  -2  11   7    2.89    0.76
  -1 -11   7   -0.16    0.56
  -1  11   7    0.95    0.63
  -2 -12   7   -0.13    0.58
  -2  12   7   -0.56    0.52
  -1 -12   7    0.47    0.62
  -1  12   7   -0.09    0.58
  -1  13   7    0.34    0.67
   0   0   0    0.00    0.00
;
_shelx_hkl_checksum              48073
#END Tags that were not found in dictionaries
loop_
_space_group_symop_operation_xyz
'x, y, z'
'-x, y+1/2, -z'
loop_
_atom_site_type_symbol
_atom_site_label
_atom_site_fract_x
_atom_site_fract_y
_atom_site_fract_z
_atom_site_U_iso_or_equiv
_atom_site_adp_type
_atom_site_calc_flag
_atom_site_refinement_flags_adp
_atom_site_refinement_flags_posn
_atom_site_occupancy
Ag Ag1 0.20883(16) 0.85721(3) 0.43981(14) 0.0404(2) Uani d . . 1
Ag Ag2 -0.42861(16) 0.86760(4) -0.00741(14) 0.0406(2) Uani d . . 1
C C1 -0.0231(19) 0.7565(5) 0.0343(16) 0.0253(18) Uani d . . 1
C C2 0.139(2) 0.6957(5) 0.1486(18) 0.029(2) Uani d . . 1
H H2A 0.3041 0.6899 0.0788 0.035 Uiso calc U R 1
H H2B 0.0199 0.6564 0.1068 0.035 Uiso calc U R 1
C C3 0.2352(16) 0.7005(5) 0.4281(16) 0.0193(17) Uani d . . 1
H H3 0.068 0.7042 0.4993 0.023 Uiso calc U R 1
C C4 0.3983(17) 0.6371(4) 0.5261(15) 0.0220(16) Uani d . . 1
C C5 0.3821(17) 0.5248(4) 0.6920(16) 0.0211(17) Uani d . . 1
H H5 0.5567 0.52 0.632 0.025 Uiso calc U R 1
C C6 0.465(2) 0.5263(5) 0.9716(18) 0.028(2) Uani d . . 1
H H6A 0.5777 0.566 1.0249 0.034 Uiso calc U R 1
H H6B 0.2948 0.529 1.0363 0.034 Uiso calc U R 1
C C7 0.1884(19) 0.4653(5) 0.5918(18) 0.0257(19) Uani d . . 1
N N1 0.4137(16) 0.7599(4) 0.4963(15) 0.0252(16) Uani d . . 1
H H1A 0.5613 0.759 0.4036 0.03 Uiso calc U R 1
H H1B 0.5062 0.7562 0.6696 0.03 Uiso calc U R 1
N N2 0.2484(14) 0.5876(4) 0.5935(15) 0.0256(16) Uani d . . 1
H H2 0.0689 0.5927 0.5789 0.031 Uiso calc U R 1
N N3 0.6281(18) 0.4664(4) 1.0719(15) 0.0301(18) Uani d . . 1
H H3A 0.6893 0.4723 1.2491 0.036 Uiso calc U R 1
H H3B 0.7978 0.4654 1.0064 0.036 Uiso calc U R 1
O O1 0.060(2) 0.7896(5) -0.1239(15) 0.059(3) Uani d . . 1
O O2 -0.2402(16) 0.7722(5) 0.1123(17) 0.049(2) Uani d . . 1
O O3 0.6567(13) 0.6319(4) 0.5356(18) 0.048(2) Uani d . . 1
O O4 0.256(2) 0.4287(6) 0.4376(18) 0.070(3) Uani d . . 1
O O5 -0.0264(15) 0.4568(4) 0.6737(16) 0.044(2) Uani d . . 1
loop_
_atom_site_aniso_label
_atom_site_aniso_U_11
_atom_site_aniso_U_22
_atom_site_aniso_U_33
_atom_site_aniso_U_12
_atom_site_aniso_U_13
_atom_site_aniso_U_23
Ag1 0.0440(4) 0.0183(3) 0.0509(4) 0.0101(3) -0.0064(3) -0.0054(3)
Ag2 0.0462(4) 0.0245(4) 0.0446(4) 0.0100(3) -0.0039(3) -0.0061(3)
C1 0.023(4) 0.025(5) 0.026(4) 0.002(4) -0.001(4) -0.007(4)
C2 0.030(5) 0.023(5) 0.034(5) 0.001(4) 0.005(4) -0.002(4)
C3 0.013(3) 0.015(4) 0.031(5) 0.001(3) 0.007(3) 0.003(3)
C4 0.020(4) 0.016(4) 0.028(4) 0.004(3) 0.003(3) 0.005(3)
C5 0.016(3) 0.014(4) 0.033(5) 0.001(3) 0.006(3) 0.004(3)
C6 0.033(5) 0.018(5) 0.032(5) 0.002(4) 0.003(4) 0.000(3)
C7 0.024(4) 0.020(4) 0.032(5) 0.000(4) 0.003(4) 0.004(4)
N1 0.024(4) 0.017(4) 0.031(4) 0.000(3) 0.000(3) 0.002(3)
N2 0.018(3) 0.016(3) 0.044(5) 0.004(3) 0.009(3) 0.011(3)
N3 0.035(4) 0.025(4) 0.027(4) 0.001(4) -0.001(3) 0.007(3)
O1 0.063(6) 0.074(7) 0.045(5) 0.022(5) 0.023(4) 0.030(5)
O2 0.041(4) 0.039(5) 0.076(6) 0.016(4) 0.035(4) 0.028(4)
O3 0.014(3) 0.031(4) 0.101(6) 0.005(3) 0.020(4) 0.028(4)
O4 0.067(6) 0.083(8) 0.069(7) -0.031(5) 0.032(5) -0.048(6)
O5 0.028(3) 0.031(4) 0.075(6) -0.011(3) 0.019(4) -0.011(4)
loop_
_atom_type_symbol
_atom_type_description
_atom_type_scat_dispersion_real
_atom_type_scat_dispersion_imag
_atom_type_scat_source
C C 0.0033 0.0016 'International Tables Vol C Tables 4.2.6.8 and 6.1.1.4'
H H 0.0000 0.0000 'International Tables Vol C Tables 4.2.6.8 and 6.1.1.4'
N N 0.0061 0.0033 'International Tables Vol C Tables 4.2.6.8 and 6.1.1.4'
O O 0.0106 0.0060 'International Tables Vol C Tables 4.2.6.8 and 6.1.1.4'
Ag Ag -0.8971 1.1015 'International Tables Vol C Tables 4.2.6.8 and 6.1.1.4'
loop_
_geom_angle_atom_site_label_1
_geom_angle_atom_site_label_2
_geom_angle_atom_site_label_3
_geom_angle_site_symmetry_1
_geom_angle_site_symmetry_3
_geom_angle
N1 Ag1 O5 . 2_556 170.6(3)
N1 Ag1 Ag2 . 1_656 77.5(2)
O5 Ag1 Ag2 2_556 1_656 108.4(2)
N1 Ag1 Ag2 . 1_655 82.3(2)
O5 Ag1 Ag2 2_556 1_655 88.5(2)
Ag2 Ag1 Ag2 1_656 1_655 116.40(3)
O2 Ag2 N3 . 2_556 171.3(3)
O2 Ag2 Ag1 . 1_454 110.1(3)
N3 Ag2 Ag1 2_556 1_454 76.9(2)
O2 Ag2 Ag1 . 1_455 88.4(2)
N3 Ag2 Ag1 2_556 1_455 83.8(2)
Ag1 Ag2 Ag1 1_454 1_455 116.41(3)
O1 C1 O2 . . 122.6(10)
O1 C1 C2 . . 120.6(9)
O2 C1 C2 . . 116.7(9)
C1 C2 C3 . . 113.0(8)
C1 C2 H2A . . 109.0
C3 C2 H2A . . 109.0
C1 C2 H2B . . 109.0
C3 C2 H2B . . 109.0
H2A C2 H2B . . 107.8
N1 C3 C2 . . 110.0(7)
N1 C3 C4 . . 110.6(7)
C2 C3 C4 . . 109.1(7)
N1 C3 H3 . . 109.0
C2 C3 H3 . . 109.0
C4 C3 H3 . . 109.0
O3 C4 N2 . . 122.2(8)
O3 C4 C3 . . 121.2(7)
N2 C4 C3 . . 116.5(7)
N2 C5 C6 . . 111.1(7)
N2 C5 C7 . . 110.2(7)
C6 C5 C7 . . 112.7(8)
N2 C5 H5 . . 107.5
C6 C5 H5 . . 107.5
C7 C5 H5 . . 107.5
N3 C6 C5 . . 111.6(8)
N3 C6 H6A . . 109.3
C5 C6 H6A . . 109.3
N3 C6 H6B . . 109.3
C5 C6 H6B . . 109.3
H6A C6 H6B . . 108.0
O4 C7 O5 . . 123.7(10)
O4 C7 C5 . . 118.5(9)
O5 C7 C5 . . 117.8(9)
C3 N1 Ag1 . . 117.6(5)
C3 N1 H1A . . 107.9
Ag1 N1 H1A . . 107.9
C3 N1 H1B . . 107.9
Ag1 N1 H1B . . 107.9
H1A N1 H1B . . 107.2
C4 N2 C5 . . 121.4(7)
C4 N2 H2 . . 119.3
C5 N2 H2 . . 119.3
C6 N3 Ag2 . 2_546 119.4(6)
C6 N3 H3A . . 107.5
Ag2 N3 H3A 2_546 . 107.5
C6 N3 H3B . . 107.5
Ag2 N3 H3B 2_546 . 107.5
H3A N3 H3B . . 107.0
C1 O2 Ag2 . . 116.2(7)
C7 O5 Ag1 . 2_546 109.4(7)
loop_
_geom_bond_atom_site_label_1
_geom_bond_atom_site_label_2
_geom_bond_site_symmetry_2
_geom_bond_distance
Ag1 N1 . 2.171(8)
Ag1 O5 2_556 2.210(8)
Ag1 Ag2 1_656 3.1850(11)
Ag1 Ag2 1_655 3.3545(12)
Ag2 O2 . 2.152(8)
Ag2 N3 2_556 2.190(9)
Ag2 Ag1 1_454 3.1850(11)
Ag2 Ag1 1_455 3.3545(12)
C1 O1 . 1.237(12)
C1 O2 . 1.262(12)
C1 C2 . 1.506(14)
C2 C3 . 1.522(13)
C2 H2A . 0.97
C2 H2B . 0.97
C3 N1 . 1.467(11)
C3 C4 . 1.527(12)
C3 H3 . 0.98
C4 O3 . 1.243(10)
C4 N2 . 1.328(11)
C5 N2 . 1.460(10)
C5 C6 . 1.516(13)
C5 C7 . 1.539(12)
C5 H5 . 0.98
C6 N3 . 1.474(13)
C6 H6A . 0.97
C6 H6B . 0.97
C7 O4 . 1.225(12)
C7 O5 . 1.236(11)
N1 H1A . 0.97
N1 H1B . 0.97
N2 H2 . 0.86
N3 Ag2 2_546 2.190(9)
N3 H3A . 0.97
N3 H3B . 0.97
O5 Ag1 2_546 2.210(8)
