#------------------------------------------------------------------------------
#$Date: 2016-03-24 14:28:49 +0200 (Thu, 24 Mar 2016) $
#$Revision: 179665 $
#$URL: svn://www.crystallography.net/cod/cif/4/51/18/4511885.cif $
#------------------------------------------------------------------------------
#
# This file is available in the Crystallography Open Database (COD),
# http://www.crystallography.net/
#
# All data on this site have been placed in the public domain by the
# contributors.
#
data_4511885
loop_
_publ_author_name
'Demadis, Konstantinos D.'
'Armakola, Eirini'
'Papathanasiou, Konstantinos E.'
'Mezei, Gellert'
'Kirillov, Alexander M.'
_publ_section_title
;
 Structural Systematics and Topological Analysis of Coordination Polymers
 with Divalent Metals and a Glycine-Derived Tripodal Phosphonocarboxylate
;
_journal_issue                   10
_journal_name_full               'Crystal Growth &amp; Design'
_journal_page_first              5234
_journal_paper_doi               10.1021/cg501029b
_journal_volume                  14
_journal_year                    2014
_chemical_formula_sum            'C4 H11 Ca N O9 P2'
_chemical_formula_weight         319.16
_chemical_name_systematic
;
 ?
;
_space_group_crystal_system      triclinic
_space_group_IT_number           2
_space_group_name_Hall           '-P 1'
_space_group_name_H-M_alt        'P -1'
_symmetry_space_group_name_Hall  '-P 1'
_symmetry_space_group_name_H-M   'P -1'
_atom_sites_solution_hydrogens   mixed
_audit_creation_method           SHELXL-2013
_cell_angle_alpha                78.615(5)
_cell_angle_beta                 80.272(5)
_cell_angle_gamma                88.585(5)
_cell_formula_units_Z            2
_cell_length_a                   7.1200(4)
_cell_length_b                   7.2986(5)
_cell_length_c                   10.5043(6)
_cell_measurement_reflns_used    1441
_cell_measurement_temperature    296(2)
_cell_measurement_theta_max      22.29
_cell_measurement_theta_min      2.90
_cell_volume                     527.41(6)
_computing_cell_refinement       'Bruker SAINT'
_computing_data_collection       'Bruker APEX2'
_computing_data_reduction        'Bruker SAINT'
_computing_molecular_graphics    'Bruker SHELXTL'
_computing_publication_material  'Bruker SHELXTL'
_computing_structure_refinement  'SHELXL-97 (Sheldrick, 2008)'
_computing_structure_solution    'SHELXS-97 (Sheldrick, 2008)'
_diffrn_ambient_temperature      296(2)
_diffrn_measured_fraction_theta_full 0.999
_diffrn_measured_fraction_theta_max 0.999
_diffrn_measurement_device_type  'Bruker APEX-II CCD'
_diffrn_measurement_method       '\f and \w scans'
_diffrn_radiation_type           MoK\a
_diffrn_radiation_wavelength     0.71073
_diffrn_reflns_av_R_equivalents  0.0737
_diffrn_reflns_av_unetI/netI     0.0497
_diffrn_reflns_Laue_measured_fraction_full 0.999
_diffrn_reflns_Laue_measured_fraction_max 0.999
_diffrn_reflns_limit_h_max       8
_diffrn_reflns_limit_h_min       -8
_diffrn_reflns_limit_k_max       9
_diffrn_reflns_limit_k_min       -9
_diffrn_reflns_limit_l_max       12
_diffrn_reflns_limit_l_min       -12
_diffrn_reflns_number            11139
_diffrn_reflns_point_group_measured_fraction_full 0.999
_diffrn_reflns_point_group_measured_fraction_max 0.999
_diffrn_reflns_theta_full        25.242
_diffrn_reflns_theta_max         26.021
_diffrn_reflns_theta_min         2.006
_exptl_absorpt_coefficient_mu    0.939
_exptl_absorpt_correction_T_max  0.7461
_exptl_absorpt_correction_T_min  0.6632
_exptl_absorpt_correction_type   multi-scan
_exptl_crystal_colour            colourless
_exptl_crystal_density_diffrn    2.010
_exptl_crystal_description       prism
_exptl_crystal_F_000             328
_exptl_crystal_size_max          0.300
_exptl_crystal_size_mid          0.020
_exptl_crystal_size_min          0.010
_refine_diff_density_max         0.575
_refine_diff_density_min         -0.439
_refine_diff_density_rms         0.116
_refine_ls_extinction_method     none
_refine_ls_goodness_of_fit_ref   1.057
_refine_ls_hydrogen_treatment    mixed
_refine_ls_matrix_type           full
_refine_ls_number_parameters     169
_refine_ls_number_reflns         2074
_refine_ls_number_restraints     5
_refine_ls_restrained_S_all      1.056
_refine_ls_R_factor_all          0.0600
_refine_ls_R_factor_gt           0.0417
_refine_ls_shift/su_max          0.000
_refine_ls_shift/su_mean         0.000
_refine_ls_structure_factor_coef Fsqd
_refine_ls_weighting_details
;
 w=1/[\s^2^(Fo^2^)+(0.0502P)^2^+0.3667P]
 where P=(Fo^2^+2Fc^2^)/3
;
_refine_ls_weighting_scheme      calc
_refine_ls_wR_factor_gt          0.0963
_refine_ls_wR_factor_ref         0.1056
_reflns_Friedel_coverage         0.000
_reflns_number_gt                1622
_reflns_number_total             2074
_reflns_threshold_expression     'I > 2\s(I)'
_cod_data_source_file            cg501029b_si_002.cif
_cod_data_source_block           CaBPMGLY
_cod_depositor_comments
'Adding full bibliography for 4511884--4511887.cif.'
_cod_database_code               4511885
#BEGIN Tags that were not found in dictionaries:
_shelx_space_group_comment
;
The symmetry employed for this shelxl refinement is uniquely defined
by the following loop, which should always be used as a source of
symmetry information in preference to the above space-group names.
They are only intended as comments.
;
_shelx_estimated_absorpt_t_min   0.766
_shelx_estimated_absorpt_t_max   0.991
_shelxl_version_number           2013-2
_shelx_res_file
;
TITL GMKDE2A2_0m in P-1
CELL 0.71073 7.1200 7.2986 10.5043 78.615 80.272 88.585
ZERR 2.00 0.0004 0.0005 0.0006 0.005 0.005 0.005
LATT 1
SFAC C  H  O  P  Ca N
UNIT 8  22  18  4  2  2
L.S. 12
ACTA
BOND $H
FMAP 2
PLAN 5
HTAB C3 O8_$7
HTAB C3 O4_$6
HTAB C2 O5_$4
HTAB C2 O1_$5
HTAB C1 O5_$4
HTAB C1 O5
HTAB N1 O4
HTAB N1 O1
HTAB O9 O4_$3
HTAB O9 O8_$1
HTAB O5 O2_$2
HTAB O3 O8_$1
HTAB O3 O7_$1
HTAB C3 O8_$7
HTAB C3 O4_$6
HTAB C2 O5_$4
HTAB C2 O1_$5
HTAB C1 O5_$4
HTAB C1 O5
HTAB N1 O4
HTAB N1 O1
HTAB O9 O4_$3
HTAB O9 O8_$1
HTAB O5 O2_$2
HTAB O3 O8_$1
HTAB O3 O7_$1
SIZE 0.010 0.020 0.300
HTAB
CONF
EQIV $1 -x+1, -y+1, -z+1
HTAB O3 O7_$1
HTAB O3 O8_$1
EQIV $2 -x+1, -y, -z+2
HTAB O5 O2_$2
HTAB O9 O8_$1
EQIV $3 -x+1, -y, -z+1
HTAB O9 O4_$3
HTAB N1 O1
HTAB N1 O4
HTAB C1 O5
EQIV $4 -x, -y, -z+2
HTAB C1 O5_$4
EQIV $5 x-1, y, z
HTAB C2 O1_$5
HTAB C2 O5_$4
EQIV $6 x, y+1, z
HTAB C3 O4_$6
EQIV $7 -x, -y+1, -z+1
HTAB C3 O8_$7
HTAB O3 O7_$1
HTAB O3 O8_$1
HTAB O5 O2_$2
HTAB O9 O8_$1
HTAB O9 O4_$3
HTAB N1 O1
HTAB N1 O4
HTAB C1 O5
HTAB C1 O5_$4
HTAB C2 O1_$5
HTAB C2 O5_$4
HTAB C3 O4_$6
HTAB C3 O8_$7
DFIX 0.82 O3 H3 O5 H5 O9 H9A O9 H9B
DFIX 0.86 N1 H1
TEMP 23.000
WGHT    0.050200    0.366700
FVAR       0.19074
P1    4    0.520717    0.273584    0.882908    11.00000    0.01281    0.01782 =
         0.01600   -0.00248   -0.00226   -0.00109
P2    4    0.112158   -0.115962    0.788683    11.00000    0.00779    0.02216 =
         0.02096   -0.00223   -0.00203   -0.00118
CA1   5    0.623315   -0.178809    0.749007    11.00000    0.00720    0.01840 =
         0.01716   -0.00379   -0.00271    0.00048
O1    3    0.602356    0.112829    0.824268    11.00000    0.02314    0.02086 =
         0.02609   -0.00661   -0.00008   -0.00093
O2    3    0.532305    0.270308    1.024216    11.00000    0.01689    0.02556 =
         0.01850   -0.00357   -0.00505   -0.00045
O3    3    0.610246    0.461448    0.795378    11.00000    0.02176    0.02274 =
         0.01600   -0.00500    0.00370   -0.00334
H3    2    0.659899    0.441266    0.723577    11.00000   -1.20000
O4    3    0.304212   -0.148824    0.711550    11.00000    0.00939    0.03252 =
         0.02117   -0.00661   -0.00092    0.00230
O5    3    0.126377   -0.157293    0.938381    11.00000    0.01308    0.04529 =
         0.02080   -0.00091   -0.00091    0.00886
H5    2    0.232196   -0.197848    0.947666    11.00000   -1.20000
O6    3   -0.059523   -0.211072    0.767502    11.00000    0.01061    0.02293 =
         0.04363   -0.00383   -0.00838   -0.00288
O7    3    0.329893    0.286352    0.469888    11.00000    0.04097    0.02313 =
         0.02664   -0.00517    0.00040    0.00583
O8    3    0.215181    0.573017    0.425152    11.00000    0.03336    0.02213 =
         0.02038   -0.00130   -0.00096    0.00343
O9    3    0.696270    0.066071    0.564247    11.00000    0.08190    0.02758 =
         0.02013   -0.00149   -0.01237   -0.01636
H9A   2    0.722530    0.169109    0.570974    11.00000   -1.20000
H9B   2    0.691073    0.064905    0.486359    11.00000   -1.20000
N1    6    0.238336    0.256459    0.735415    11.00000    0.01083    0.02195 =
         0.01834   -0.00383   -0.00268   -0.00097
H1    2    0.338049    0.202536    0.700964    11.00000   -1.20000
C1    1    0.270202    0.279896    0.870415    11.00000    0.01465    0.02896 =
         0.01703   -0.00627   -0.00064   -0.00346
AFIX  23
H1A   2    0.203461    0.180832    0.936812    11.00000   -1.20000
H1B   2    0.217583    0.398219    0.887508    11.00000   -1.20000
AFIX   0
C2    1    0.067436    0.133379    0.743703    11.00000    0.00954    0.02355 =
         0.02538   -0.00116   -0.00682   -0.00672
AFIX  23
H2A   2    0.024802    0.158164    0.659033    11.00000   -1.20000
H2B   2   -0.035101    0.167006    0.808122    11.00000   -1.20000
AFIX   0
C3    1    0.221291    0.440561    0.647588    11.00000    0.02058    0.01958 =
         0.02315   -0.00366   -0.00622   -0.00184
AFIX  23
H3A   2    0.312290    0.527647    0.662333    11.00000   -1.20000
H3B   2    0.094559    0.489249    0.669872    11.00000   -1.20000
AFIX   0
C4    1    0.256624    0.427407    0.503922    11.00000    0.01592    0.01935 =
         0.02040   -0.00181    0.00041   -0.00265
HKLF 4 1 1 0 0 0 1 0 0 0 1

REM  GMKDE2A2_0m in P-1
REM R1 =  0.0417 for    1622 Fo > 4sig(Fo)  and  0.0600 for all    2074 data
REM    169 parameters refined using      5 restraints

END

WGHT      0.0502      0.3667

REM Instructions for potential hydrogen bonds
HTAB O3 O7_$1
HTAB O3 O8_$1
HTAB O5 O2_$2
HTAB O9 O8_$1
HTAB O9 O4_$3
HTAB N1 O1
HTAB N1 O4
HTAB C1 O5
HTAB C1 O5_$4
HTAB C2 O1_$5
HTAB C2 O5_$4
HTAB C3 O4_$6
HTAB C3 O8_$7

REM Highest difference peak  0.575,  deepest hole -0.439,  1-sigma level  0.116
Q1    1   0.0973  0.0176  0.7747  11.00000  0.05    0.58
Q2    1   0.3903  0.2824  0.3598  11.00000  0.05    0.51
Q3    1   0.5275  0.1451  0.8534  11.00000  0.05    0.48
Q4    1   0.6258 -0.2907  0.7476  11.00000  0.05    0.45
Q5    1   0.6038 -0.3494  0.7706  11.00000  0.05    0.43
;
_shelx_res_checksum              70849
_shelx_hkl_file
;
  -1   0   0  119.91    3.56
  -2   0   0   12.98    0.90
  -2   0   0   12.52    0.82
  -3   0   0    6.70    0.94
  -3   0   0    7.62    0.91
  -3   0   0    5.84    0.70
  -3   0   0    6.64    0.84
  -4   0   0   14.77    1.20
  -4   0   0   12.99    1.02
  -4   0   0   14.64    1.40
  -4   0   0   13.78    1.42
  -4   0   0   13.74    1.47
   4   0   0   14.99    1.38
  -5   0   0   13.17    1.32
  -5   0   0   11.48    1.51
  -5   0   0   11.96    1.38
  -5   0   0   11.66    1.45
  -5   0   0   12.18    1.63
   5   0   0   10.81    1.32
  -6   0   0    6.29    1.18
  -6   0   0    6.28    1.30
  -6   0   0    9.20    1.47
  -6   0   0    7.73    1.55
  -6   0   0    6.82    1.11
   6   0   0    7.11    1.19
  -7   0   0   13.14    1.89
  -7   0   0   14.44    1.85
  -7   0   0   15.84    2.23
  -7   0   0   13.91    1.96
   7   0   0   12.67    1.76
  -8   0   0   32.27    3.09
  -8   0   0   27.50    2.76
  -8   0   0   25.55    2.77
  -8   0   0   25.44    3.01
   8   0   0   28.67    2.79
   8  -1   0    8.21    1.67
  -8   1   0   11.13    1.94
  -8   1   0   13.27    2.11
  -8   1   0   10.17    1.97
   7  -1   0    1.82    0.94
  -7   1   0    4.72    1.25
  -7   1   0    2.03    0.91
  -7   1   0    5.20    1.41
  -7   1   0    2.46    1.04
   6  -1   0   80.42    3.61
  -6   1   0   65.79    3.38
  -6   1   0   69.23    3.49
  -6   1   0   63.89    3.21
  -6   1   0   68.53    3.71
   5  -1   0   19.45    1.29
   5  -1   0   18.29    1.80
  -5   1   0   16.73    1.68
  -5   1   0   18.38    1.71
  -5   1   0   17.70    1.74
  -5   1   0   19.51    2.01
  -5   1   0   19.40    1.85
   4  -1   0    6.39    0.83
   4  -1   0    7.71    1.05
  -4   1   0    6.99    1.09
  -4   1   0    6.85    0.99
  -4   1   0    8.43    1.09
  -4   1   0    9.07    1.05
  -4   1   0    7.39    0.98
   3  -1   0    0.44    0.35
  -3   1   0    0.17    0.33
  -3   1   0    0.12    0.35
  -3   1   0   -0.34    0.34
  -2   1   0   -0.04    0.29
  -2   1   0    0.21    0.31
  -1   1   0   35.35    1.24
   0  -1   0   28.39    0.86
   0   1   0   28.95    0.85
  -1  -1   0    0.27    0.25
  -2  -1   0   58.15    2.14
  -2  -1   0   54.75    2.04
  -2  -1   0   56.34    2.17
  -2  -1   0   54.58    2.25
  -3  -1   0   42.09    1.98
  -3  -1   0   38.26    2.01
  -3  -1   0   41.37    1.90
  -3  -1   0   39.29    1.81
  -4  -1   0  129.50    4.49
  -4  -1   0  129.13    4.69
  -4  -1   0  136.48    4.74
  -4  -1   0  130.28    5.06
  -4  -1   0  124.57    4.77
  -5  -1   0    8.23    1.23
  -5  -1   0    6.01    1.16
  -5  -1   0    6.69    1.02
  -5  -1   0    7.84    1.33
  -5  -1   0    8.89    1.27
   5   1   0    8.01    1.13
  -6  -1   0   81.72    4.01
  -6  -1   0   92.42    4.39
  -6  -1   0   82.32    3.91
  -6  -1   0   83.27    3.63
  -6  -1   0   89.32    4.00
   6   1   0   79.93    3.61
  -7  -1   0    8.80    1.44
  -7  -1   0   14.43    2.05
  -7  -1   0   14.72    1.98
  -7  -1   0   12.97    1.98
  -7  -1   0   13.15    1.88
   7   1   0   14.06    1.78
  -8  -1   0    2.21    1.18
  -8  -1   0    3.29    1.21
  -8  -1   0    1.30    0.98
  -8  -1   0    0.34    0.96
   8  -2   0    3.75    1.28
  -8   2   0    3.53    1.33
  -8   2   0    1.91    1.09
  -8   2   0    2.90    1.26
   7  -2   0   15.59    2.09
  -7   2   0   17.79    2.12
  -7   2   0   14.06    2.17
  -7   2   0   20.59    2.29
  -7   2   0   18.17    2.08
   6  -2   0   18.86    2.10
   6  -2   0   19.08    1.78
  -6   2   0   18.63    1.93
  -6   2   0   19.09    1.97
  -6   2   0   19.79    2.11
  -6   2   0   20.06    2.30
   5  -2   0   17.22    1.81
   5  -2   0   19.14    1.67
  -5   2   0   18.32    1.66
  -5   2   0   15.60    1.82
  -5   2   0   18.09    1.74
  -5   2   0   14.30    1.54
  -5   2   0   17.18    1.34
  -5   2   0   18.39    1.91
   4  -2   0   17.10    1.25
   4  -2   0   17.86    1.41
   4  -2   0   17.68    0.99
  -4   2   0   18.07    1.34
  -4   2   0   16.44    1.26
  -4   2   0   17.82    1.36
  -4   2   0   14.83    1.58
   3  -2   0   10.77    1.15
   3  -2   0   11.45    0.78
   3  -2   0    8.12    0.95
  -3   2   0   10.39    1.17
  -3   2   0   10.52    1.00
  -3   2   0   12.06    1.18
   2  -2   0   99.58    3.20
   2  -2   0   99.35    3.25
   2  -2   0   91.35    3.37
  -2   2   0  100.89    3.19
  -2   2   0   99.86    3.58
  -2   2   0  103.97    3.48
   1  -2   0    0.97    0.32
   1  -2   0    0.35    0.36
   1  -2   0    0.77    0.32
  -1   2   0    0.44    0.36
  -1   2   0    0.45    0.17
  -1   2   0    0.64    0.30
   0  -2   0  136.75    4.25
   0  -2   0  132.89    3.78
   0  -2   0  130.10    4.18
   0  -2   0  134.79    4.09
   0   2   0  140.19    4.27
  -1  -2   0  137.47    4.29
  -1  -2   0  138.44    4.36
  -1  -2   0  138.42    4.25
  -1  -2   0  136.47    4.17
   1   2   0  137.30    4.34
  -2  -2   0    2.49    0.55
  -2  -2   0    3.70    0.68
  -2  -2   0    4.43    0.66
  -2  -2   0    3.25    0.62
  -3  -2   0    4.54    0.75
  -3  -2   0    5.37    0.81
  -3  -2   0    3.20    0.64
  -3  -2   0    5.25    0.86
  -3  -2   0    5.83    0.91
  -4  -2   0   -0.40    0.42
  -4  -2   0    1.50    0.61
  -4  -2   0    1.69    0.64
  -4  -2   0    1.39    0.61
  -4  -2   0    0.50    0.56
  -5  -2   0    4.99    1.06
  -5  -2   0    4.67    1.05
  -5  -2   0    3.50    0.97
  -5  -2   0    2.88    0.89
  -5  -2   0    3.23    0.85
   5   2   0    4.69    0.85
  -6  -2   0   64.91    3.50
  -6  -2   0   63.20    3.29
  -6  -2   0   68.81    3.69
  -6  -2   0   60.28    3.11
  -6  -2   0   61.61    3.32
  -7  -2   0    0.43    0.77
  -7  -2   0    0.39    0.79
  -7  -2   0   -0.62    0.70
  -7  -2   0    0.18    0.80
  -7  -2   0   -0.02    0.92
  -8  -2   0    2.16    1.06
  -8  -2   0    3.23    1.11
  -8  -2   0    2.35    1.04
  -8  -2   0    1.87    1.19
   8  -3   0   12.99    2.15
  -8   3   0   13.05    2.14
  -8   3   0   11.47    2.33
   7  -3   0   29.44    2.91
  -7   3   0   26.53    2.58
  -7   3   0   26.20    2.67
  -7   3   0   25.46    2.90
  -7   3   0   26.07    2.53
   6  -3   0    0.24    0.81
   6  -3   0    0.39    0.64
  -6   3   0   -0.57    0.63
  -6   3   0   -0.51    0.62
  -6   3   0    1.21    0.80
  -6   3   0    0.33    0.70
   5  -3   0    3.79    0.99
   5  -3   0    2.47    0.90
  -5   3   0    1.22    0.87
  -5   3   0    1.66    0.65
  -5   3   0   -0.01    0.51
  -5   3   0    1.14    0.68
  -5   3   0    1.04    0.71
   4  -3   0   19.12    1.75
   4  -3   0   21.01    1.29
   4  -3   0   19.20    1.78
  -4   3   0   18.13    1.38
  -4   3   0   21.67    2.05
  -4   3   0   19.13    1.37
  -4   3   0   19.54    1.84
   3  -3   0   27.53    1.47
   3  -3   0   24.40    1.55
   3  -3   0   24.69    1.60
   3  -3   0   25.64    1.38
  -3   3   0   26.94    1.38
  -3   3   0   24.56    1.60
  -3   3   0   27.41    1.48
  -3   3   0   26.34    1.69
   2  -3   0    2.97    0.56
   2  -3   0    1.73    0.53
   2  -3   0    2.37    0.56
  -2   3   0    3.09    0.70
  -2   3   0    3.12    0.58
  -2   3   0    2.05    0.56
  -2   3   0    3.01    0.40
   1  -3   0  136.67    4.33
   1  -3   0  138.88    4.50
   1  -3   0  129.33    4.49
  -1   3   0  138.79    4.69
  -1   3   0  137.10    4.55
   0  -3   0  167.45    5.39
   0  -3   0  167.67    5.12
   0  -3   0  166.10    4.68
   0  -3   0  169.67    5.35
   0  -3   0  164.84    5.21
   0  -3   0  169.10    5.58
   0   3   0  166.74    5.53
   0   3   0  161.71    5.38
  -1  -3   0   55.56    2.24
  -1  -3   0   55.33    1.97
  -1  -3   0   52.87    2.27
  -1  -3   0   53.99    2.33
  -1  -3   0   49.88    2.23
   1   3   0   53.22    2.27
  -2  -3   0    1.15    0.47
  -2  -3   0    0.54    0.42
  -2  -3   0    1.42    0.49
  -2  -3   0    1.38    0.44
  -2  -3   0    1.33    0.50
  -2  -3   0    1.24    0.52
   2   3   0    1.34    0.49
  -3  -3   0    6.31    0.90
  -3  -3   0    8.12    1.05
  -3  -3   0    5.51    0.99
  -3  -3   0    4.80    0.88
  -3  -3   0    5.35    0.87
   3   3   0    5.69    0.94
  -4  -3   0  131.60    5.08
  -4  -3   0  140.33    4.99
  -4  -3   0  133.16    4.52
  -4  -3   0  129.13    5.02
  -4  -3   0  135.21    5.37
  -4  -3   0  130.11    5.05
  -5  -3   0   25.44    2.03
  -5  -3   0   32.15    2.21
  -5  -3   0   28.72    2.05
  -5  -3   0   34.43    2.31
  -5  -3   0   31.76    2.34
  -6  -3   0   17.37    2.15
  -6  -3   0   19.70    2.29
  -6  -3   0   13.75    1.97
  -6  -3   0   17.43    2.06
  -6  -3   0   14.05    1.75
  -7  -3   0    8.61    1.75
  -7  -3   0    9.65    1.69
  -7  -3   0    9.36    1.65
  -7  -3   0    7.83    1.63
  -7  -3   0   10.38    1.81
  -8  -3   0    1.08    1.02
  -8  -3   0    0.71    0.90
  -8  -3   0    0.00    0.72
   7  -4   0    0.13    0.86
   7  -4   0    0.30    0.85
  -7   4   0    0.31    0.76
  -7   4   0   -0.08    0.88
   6  -4   0    0.16    0.68
   6  -4   0    0.57    0.78
  -6   4   0    0.95    0.68
  -6   4   0   -0.11    0.69
  -6   4   0    0.30    0.79
   5  -4   0    0.71    0.84
   5  -4   0    0.65    0.73
  -5   4   0    0.99    0.96
  -5   4   0   -0.60    0.56
  -5   4   0   -1.04    0.62
   4  -4   0   39.99    2.48
   4  -4   0   49.62    2.28
   4  -4   0   50.70    2.69
   4  -4   0   47.33    2.32
  -4   4   0   43.53    2.65
  -4   4   0   45.12    2.59
  -4   4   0   40.14    2.27
   3  -4   0   25.65    1.68
   3  -4   0   29.28    1.90
   3  -4   0   25.02    1.69
   3  -4   0   30.05    1.65
  -3   4   0   31.52    2.01
  -3   4   0   26.86    1.68
  -3   4   0   28.66    1.87
  -3   4   0   32.38    1.66
   2  -4   0   20.51    1.29
   2  -4   0   21.29    1.47
   2  -4   0   18.23    1.30
   2  -4   0   22.15    1.49
  -2   4   0   19.26    1.43
  -2   4   0   20.33    1.36
  -2   4   0   21.48    1.52
  -2   4   0   20.30    1.28
   1  -4   0   53.37    2.28
   1  -4   0   56.58    2.46
   1  -4   0   53.23    2.49
  -1   4   0   47.81    2.38
  -1   4   0   49.25    2.44
  -1   4   0   54.03    2.30
   0  -4   0    0.68    0.44
   0  -4   0    0.15    0.37
   0  -4   0    0.55    0.54
   0  -4   0    0.53    0.16
   0  -4   0    0.83    0.52
   0   4   0    0.54    0.49
   0   4   0    0.38    0.45
  -1  -4   0   10.95    1.10
  -1  -4   0    9.60    0.74
  -1  -4   0    8.05    1.08
  -1  -4   0   12.46    1.28
  -1  -4   0    8.73    1.08
  -1  -4   0   11.78    1.27
   1   4   0   10.44    1.24
   1   4   0    9.48    1.16
  -2  -4   0    0.16    0.41
  -2  -4   0    0.90    0.49
  -2  -4   0   -0.29    0.36
  -2  -4   0    0.56    0.55
  -2  -4   0    1.08    0.36
  -2  -4   0    0.72    0.54
  -2  -4   0    0.20    0.38
   2   4   0    0.33    0.52
  -3  -4   0    4.94    0.96
  -3  -4   0    5.25    0.95
  -3  -4   0    4.49    0.87
  -3  -4   0    5.15    1.02
  -3  -4   0    5.68    1.06
  -3  -4   0    8.19    1.26
   3   4   0    4.23    0.91
  -4  -4   0   34.08    2.42
  -4  -4   0   39.68    2.37
  -4  -4   0   36.65    2.36
  -4  -4   0   37.89    2.31
  -4  -4   0   40.01    2.38
   4   4   0   39.46    2.42
  -5  -4   0    0.28    0.57
  -5  -4   0    1.34    0.80
  -5  -4   0    1.31    0.73
  -5  -4   0    0.52    0.74
  -5  -4   0    0.88    0.77
   5   4   0   -0.32    0.62
  -6  -4   0    9.68    1.66
  -6  -4   0   10.82    1.80
  -6  -4   0   13.71    1.85
  -6  -4   0   13.53    1.89
  -6  -4   0   13.18    1.91
  -7  -4   0    5.84    1.36
  -7  -4   0    4.28    1.36
  -7  -4   0    4.34    1.36
  -7  -4   0    6.21    1.53
  -7  -4   0    4.58    1.31
   7  -5   0    6.82    1.79
   7  -5   0    7.00    1.58
  -7   5   0    5.68    1.52
  -7   5   0    5.94    1.62
   6  -5   0    8.21    1.64
   6  -5   0    9.45    1.61
  -6   5   0    5.39    1.53
  -6   5   0    5.73    1.37
   5  -5   0   16.23    2.00
   5  -5   0   18.08    2.10
  -5   5   0   19.83    2.33
  -5   5   0   16.79    2.06
  -5   5   0   18.92    1.97
   4  -5   0    1.77    0.72
   4  -5   0    2.23    0.94
   4  -5   0    2.13    0.87
   4  -5   0    1.81    0.72
  -4   5   0    1.15    0.78
  -4   5   0    4.03    1.18
  -4   5   0    1.76    0.74
   3  -5   0   -0.48    0.51
   3  -5   0    0.03    0.67
   3  -5   0   -0.79    0.43
   3  -5   0    0.15    0.64
  -3   5   0   -0.63    0.52
  -3   5   0    0.20    0.58
  -3   5   0    0.46    0.55
  -3   5   0   -0.28    0.72
   2  -5   0    6.00    1.08
   2  -5   0    5.74    0.92
   2  -5   0    4.79    0.98
  -2   5   0    6.25    1.11
  -2   5   0    5.93    0.94
  -2   5   0    4.86    0.94
  -2   5   0    5.95    1.19
   1  -5   0    8.25    1.22
   1  -5   0    5.44    0.92
   1  -5   0    4.73    0.95
  -1   5   0    6.21    1.00
  -1   5   0    6.60    1.12
  -1   5   0    7.61    1.17
   0  -5   0   10.23    1.39
   0  -5   0    6.11    1.07
   0  -5   0    8.45    1.10
   0  -5   0    8.07    1.08
   0  -5   0    9.43    1.06
   0   5   0    6.74    1.23
   0   5   0    7.51    1.20
  -1  -5   0    0.13    0.53
  -1  -5   0   -0.40    0.48
  -1  -5   0    0.00    0.39
  -1  -5   0    0.07    0.51
  -1  -5   0   -0.54    0.50
   1   5   0    0.06    0.62
   1   5   0   -0.24    0.56
  -2  -5   0   46.90    2.67
  -2  -5   0   44.79    2.51
  -2  -5   0   45.50    2.52
  -2  -5   0   48.56    2.52
  -2  -5   0   48.49    2.62
   2   5   0   45.85    2.57
  -3  -5   0   38.01    2.28
  -3  -5   0   37.40    2.32
  -3  -5   0   35.64    2.04
  -3  -5   0   33.57    2.37
  -3  -5   0   35.99    2.28
  -3  -5   0   33.55    2.31
   3   5   0   38.73    2.47
  -4  -5   0    5.70    1.25
  -4  -5   0    6.98    1.31
  -4  -5   0    8.03    1.43
  -4  -5   0    6.38    1.29
  -4  -5   0    6.84    1.23
  -4  -5   0    5.72    1.10
   4   5   0    7.27    1.47
  -5  -5   0   22.94    2.40
  -5  -5   0   18.00    2.22
  -5  -5   0   18.25    2.19
  -5  -5   0   21.75    2.47
  -5  -5   0   18.08    2.07
   5   5   0   18.63    2.28
  -6  -5   0    1.78    1.01
  -6  -5   0    1.71    1.02
  -6  -5   0    1.65    1.12
  -6  -5   0    0.36    0.86
  -6  -5   0    2.17    1.05
   6   5   0    3.11    1.22
  -7  -5   0    0.25    0.84
  -7  -5   0   -0.17    0.90
  -7  -5   0   -0.73    0.90
  -7  -5   0   -0.66    0.90
  -7  -5   0    0.61    1.08
   7   5   0    1.28    1.19
   6  -6   0    0.85    1.13
   6  -6   0    0.54    0.89
  -6   6   0   -0.87    0.76
  -6   6   0    1.02    1.14
   5  -6   0    1.78    1.00
   5  -6   0    1.88    0.91
  -5   6   0    0.42    0.91
  -5   6   0    1.81    1.05
  -5   6   0    2.45    1.01
   4  -6   0   33.67    2.36
   4  -6   0   32.87    2.37
   4  -6   0   39.77    2.73
  -4   6   0   35.21    2.55
  -4   6   0   32.87    2.55
  -4   6   0   30.61    2.21
   3  -6   0   72.62    3.82
   3  -6   0   78.44    3.46
   3  -6   0   75.22    3.50
   3  -6   0   77.92    3.76
  -3   6   0   80.76    3.63
  -3   6   0   80.24    4.08
  -3   6   0   75.51    3.42
  -3   6   0   80.44    3.91
   2  -6   0   -0.10    0.60
   2  -6   0   -0.07    0.49
   2  -6   0    0.65    0.73
  -2   6   0   -0.22    0.47
  -2   6   0   -0.80    0.70
  -2   6   0   -0.56    0.53
  -2   6   0    0.82    0.64
   1  -6   0    3.69    0.95
   1  -6   0    6.20    1.18
   1  -6   0    3.46    0.89
  -1   6   0    5.68    1.24
  -1   6   0    5.69    1.17
  -1   6   0    5.15    1.02
   0  -6   0    4.80    1.17
   0  -6   0    5.22    1.07
   0  -6   0    4.48    0.99
   0  -6   0    3.65    0.87
   0   6   0    4.38    1.12
   0   6   0    6.10    1.30
  -1  -6   0    3.34    0.99
  -1  -6   0    3.71    0.99
  -1  -6   0    2.68    0.74
  -1  -6   0    2.62    0.96
  -1  -6   0    2.44    0.79
  -1  -6   0    3.58    1.08
   1   6   0    2.65    0.90
   1   6   0    3.01    1.01
  -2  -6   0    0.29    0.77
  -2  -6   0   -0.61    0.50
  -2  -6   0    0.03    0.55
  -2  -6   0    1.87    0.79
  -2  -6   0    0.60    0.65
   2   6   0    0.29    0.64
   2   6   0    0.18    0.67
  -3  -6   0    4.61    1.17
  -3  -6   0    3.49    1.09
  -3  -6   0    2.48    0.94
  -3  -6   0    2.60    0.83
  -3  -6   0    4.65    1.15
   3   6   0    3.93    1.14
  -4  -6   0    6.77    1.45
  -4  -6   0   11.06    1.76
  -4  -6   0   12.53    1.66
  -4  -6   0   10.84    1.78
  -4  -6   0    7.90    1.50
   4   6   0   10.33    1.75
  -5  -6   0    7.84    1.49
  -5  -6   0    7.45    1.53
  -5  -6   0    9.60    1.67
  -5  -6   0    8.88    1.74
   5   6   0    6.07    1.45
  -6  -6   0    1.24    0.99
  -6  -6   0    1.90    1.22
  -6  -6   0    0.77    0.98
  -6  -6   0    1.55    1.08
   6   6   0    1.60    1.28
   5  -7   0    9.20    1.79
   5  -7   0   10.95    1.82
  -5   7   0    9.44    1.86
  -5   7   0    6.69    1.67
   4  -7   0    0.95    0.80
   4  -7   0   -0.21    0.89
  -4   7   0    0.25    0.75
  -4   7   0    1.58    1.22
  -4   7   0   -0.98    0.72
   3  -7   0    3.40    1.15
   3  -7   0    2.04    0.87
   3  -7   0    2.47    1.08
  -3   7   0    1.93    0.99
  -3   7   0    3.46    1.29
  -3   7   0    3.05    1.02
  -3   7   0    1.46    0.84
   2  -7   0    2.74    0.92
   2  -7   0    2.30    0.96
   2  -7   0    1.17    0.78
  -2   7   0    1.23    0.76
  -2   7   0    2.56    1.15
  -2   7   0    0.70    0.68
  -2   7   0    3.01    1.23
   1  -7   0    1.31    0.76
   1  -7   0   -0.15    0.61
   1  -7   0    0.59    0.70
  -1   7   0   -0.27    0.57
  -1   7   0    0.16    0.78
  -1   7   0    1.11    0.96
   0  -7   0   26.58    2.01
   0  -7   0   30.44    2.36
   0  -7   0   31.78    2.29
   0   7   0   31.59    2.44
   0   7   0   32.96    2.46
  -1  -7   0   12.33    1.72
  -1  -7   0   16.68    2.00
  -1  -7   0   13.64    2.00
   1   7   0   18.22    2.21
   1   7   0   15.58    1.97
  -2  -7   0    1.97    0.92
  -2  -7   0    0.78    0.89
  -2  -7   0    1.21    0.85
  -2  -7   0    1.96    0.97
   2   7   0    1.09    1.01
   2   7   0    2.54    1.07
  -3  -7   0   33.03    2.52
  -3  -7   0   34.26    2.73
  -3  -7   0   34.98    2.56
  -3  -7   0   35.83    2.59
  -3  -7   0   35.19    2.72
   3   7   0   33.63    2.78
   3   7   0   31.53    3.03
  -4  -7   0    6.31    1.46
  -4  -7   0    7.39    1.45
  -4  -7   0    6.93    1.41
  -4  -7   0    4.64    1.37
  -4  -7   0    4.78    1.35
   4   7   0    4.92    1.53
  -5  -7   0   -1.33    0.92
  -5  -7   0    0.86    1.02
  -5  -7   0    1.02    1.06
  -5  -7   0    0.62    1.05
   5   7   0    0.83    0.98
   3  -8   0    2.74    1.19
   3  -8   0    3.09    1.18
  -3   8   0    3.87    1.22
  -3   8   0    3.33    1.33
  -3   8   0    3.89    1.39
   2  -8   0    0.30    0.78
   2  -8   0    1.15    0.95
   2  -8   0   -0.67    0.61
  -2   8   0   -0.19    1.03
  -2   8   0    0.73    0.90
  -2   8   0    0.66    0.64
  -2   8   0   -0.61    0.71
   1  -8   0    8.12    1.53
   1  -8   0    7.31    1.60
  -1   8   0    6.67    1.52
  -1   8   0    6.50    1.39
  -1   8   0    7.37    1.47
  -1   8   0    4.67    1.36
   0  -8   0   -0.64    0.82
   0  -8   0    0.19    0.64
   0  -8   0    1.00    0.82
   0   8   0   -0.38    0.96
   0   8   0   -0.54    0.95
  -1  -8   0    0.34    0.79
  -1  -8   0   -0.39    0.76
  -1  -8   0   -0.06    0.86
   1   8   0   -0.40    0.94
   1   8   0    0.18    1.02
  -2  -8   0   11.29    1.82
  -2  -8   0    9.63    1.80
  -2  -8   0    9.33    1.91
   2   8   0    9.26    1.96
   2   8   0   10.98    2.04
  -3  -8   0    6.20    1.58
  -3  -8   0    5.11    1.37
  -3  -8   0    9.42    1.80
  -3  -8   0    7.06    1.64
   3   8   0    9.96    2.00
   3   8   0    8.27    1.80
   3   8  -1   -1.19    0.92
   3   8  -1   -2.50    0.86
  -3  -8   1    0.36    1.03
  -3  -8   1   -0.81    0.80
  -3  -8   1    0.39    0.95
  -3  -8   1    0.15    0.80
   2   8  -1    4.62    1.44
   2   8  -1    4.56    1.42
  -2  -8   1    3.93    1.20
  -2  -8   1    3.44    1.29
  -2  -8   1    2.23    1.20
   1   8  -1   18.39    2.36
   1   8  -1   18.43    2.39
  -1  -8   1   17.47    2.28
  -1  -8   1   17.76    2.36
  -1  -8   1   18.45    2.18
   0   8  -1    0.61    0.92
   0   8  -1    2.83    1.40
   0  -8   1    3.85    1.23
   0  -8   1    3.23    1.18
   0  -8   1    4.12    1.11
  -1   8  -1   -0.41    0.72
  -1   8  -1    0.63    0.96
  -1   8  -1    1.24    0.99
   1  -8   1    0.42    0.76
   1  -8   1    0.74    0.81
   1  -8   1    0.34    0.88
  -2   8  -1    0.21    0.78
  -2   8  -1    0.92    1.06
  -2   8  -1    1.28    0.94
  -2   8  -1    2.63    1.13
   2  -8   1    0.30    0.96
   2  -8   1    1.93    1.04
   2  -8   1    2.06    0.92
  -3   8  -1    4.26    1.50
  -3   8  -1    0.71    1.05
   3  -8   1    7.13    1.66
   3  -8   1    6.37    1.58
   4   7  -1    3.04    1.22
  -4  -7   1    0.51    1.04
  -4  -7   1   -0.32    0.70
  -4  -7   1    1.26    0.89
  -4  -7   1    1.55    0.87
  -4  -7   1    0.83    0.90
   3   7  -1   -0.49    0.91
   3   7  -1   -0.76    0.70
  -3  -7   1    1.32    0.98
  -3  -7   1    0.16    0.87
  -3  -7   1    1.01    0.85
  -3  -7   1    0.62    0.91
  -3  -7   1    0.46    0.66
   2   7  -1    1.21    1.04
   2   7  -1    1.18    1.17
  -2  -7   1    2.23    1.10
  -2  -7   1    1.60    0.80
  -2  -7   1    0.90    0.96
  -2  -7   1    0.34    0.73
  -2  -7   1    0.94    0.91
   1   7  -1   37.55    2.74
   1   7  -1   38.31    2.76
  -1  -7   1   38.95    2.56
  -1  -7   1   40.15    2.87
  -1  -7   1   39.49    2.88
   0   7  -1    8.23    1.49
   0   7  -1    9.52    1.67
   0  -7   1    7.63    1.36
   0  -7   1    5.82    1.28
   0  -7   1    8.13    1.31
   0  -7   1    6.44    1.34
  -1   7  -1    7.50    1.52
  -1   7  -1    9.39    1.54
  -1   7  -1    8.03    1.33
   1  -7   1   10.16    1.51
   1  -7   1    7.53    1.41
   1  -7   1    7.42    1.41
  -2   7  -1   12.67    1.92
  -2   7  -1   10.60    1.51
  -2   7  -1   10.17    1.45
  -2   7  -1   12.29    1.85
   2  -7   1   11.38    1.53
   2  -7   1   11.45    1.83
   2  -7   1   13.93    1.90
  -3   7  -1    0.99    0.84
  -3   7  -1    1.50    0.92
  -3   7  -1    1.65    1.10
   3  -7   1    1.57    0.94
   3  -7   1    1.06    0.93
  -4   7  -1    4.24    1.39
  -4   7  -1    3.33    1.35
   4  -7   1    3.32    1.15
   4  -7   1    1.95    1.18
  -5   7  -1    0.54    1.16
  -5   7  -1    1.55    1.26
   5  -7   1    0.26    0.94
   5  -7   1    1.37    1.08
   6   6  -1    3.34    1.41
  -6  -6   1    1.13    1.16
  -6  -6   1    3.12    1.21
  -6  -6   1    3.73    1.48
  -6  -6   1    0.35    0.90
   5   6  -1    2.87    1.26
  -5  -6   1    0.77    1.02
  -5  -6   1    1.06    0.93
  -5  -6   1    0.73    0.97
  -5  -6   1    2.89    1.27
   4   6  -1    1.20    0.98
  -4  -6   1   -0.34    0.66
  -4  -6   1   -0.24    0.71
  -4  -6   1   -0.21    0.54
  -4  -6   1   -1.12    0.66
  -4  -6   1    0.11    0.81
   3   6  -1    1.94    0.90
  -3  -6   1    2.08    0.89
  -3  -6   1    3.78    1.12
  -3  -6   1    2.23    0.91
  -3  -6   1    2.44    0.89
  -3  -6   1    2.92    0.93
   2   6  -1    4.49    1.13
   2   6  -1    2.28    1.04
  -2  -6   1    2.20    0.88
  -2  -6   1    2.64    0.98
  -2  -6   1    3.70    1.00
  -2  -6   1    1.53    0.80
  -2  -6   1    2.47    0.92
   1   6  -1    1.90    0.92
   1   6  -1    2.47    0.88
  -1  -6   1    1.93    0.78
  -1  -6   1    2.24    0.91
  -1  -6   1    1.84    0.76
  -1  -6   1    1.44    0.73
   0   6  -1   11.40    1.58
   0   6  -1    7.55    1.34
   0  -6   1   11.71    1.63
   0  -6   1   11.65    1.67
   0  -6   1   11.22    1.39
   0  -6   1   12.70    1.51
  -1   6  -1   -0.03    0.65
  -1   6  -1   -0.14    0.64
  -1   6  -1    1.47    0.71
   1  -6   1    0.14    0.53
   1  -6   1    0.68    0.63
   1  -6   1    0.27    0.62
  -2   6  -1    0.66    0.68
  -2   6  -1    0.00    0.71
  -2   6  -1    0.69    0.57
  -2   6  -1    0.88    0.63
   2  -6   1    0.65    0.54
   2  -6   1    0.99    0.70
   2  -6   1    0.43    0.78
  -3   6  -1    7.50    1.23
  -3   6  -1    5.71    1.07
  -3   6  -1    4.22    1.28
  -3   6  -1    4.99    1.20
   3  -6   1    6.06    1.28
   3  -6   1    7.28    1.17
   3  -6   1    4.49    1.10
  -4   6  -1   -0.52    0.66
  -4   6  -1    0.42    0.81
   4  -6   1    0.78    0.82
   4  -6   1   -0.17    0.72
   4  -6   1    0.18    0.65
  -5   6  -1   21.54    2.59
  -5   6  -1   22.23    2.58
   5  -6   1   27.79    2.85
   5  -6   1   27.79    2.68
  -6   6  -1   19.42    2.74
  -6   6  -1   16.30    2.37
   6  -6   1   16.59    2.26
   6  -6   1   16.72    2.33
   6   5  -1    1.23    1.12
  -6  -5   1    1.70    1.08
  -6  -5   1    1.92    1.12
  -6  -5   1   -0.29    0.67
  -6  -5   1    0.64    0.86
  -6  -5   1    0.77    0.96
   5   5  -1    1.22    0.86
  -5  -5   1    0.25    0.74
  -5  -5   1    0.59    0.86
  -5  -5   1    0.17    0.85
  -5  -5   1    0.10    0.84
  -5  -5   1    1.29    0.79
   4   5  -1    0.03    0.67
  -4  -5   1    0.10    0.56
  -4  -5   1    0.43    0.73
  -4  -5   1    0.25    0.61
  -4  -5   1    0.60    0.64
  -4  -5   1    1.11    0.70
  -4  -5   1    0.05    0.56
   3   5  -1   30.32    2.14
  -3  -5   1   31.68    2.15
  -3  -5   1   32.94    2.25
  -3  -5   1   28.67    2.09
  -3  -5   1   27.65    2.08
  -3  -5   1   31.34    2.28
  -3  -5   1   31.99    2.00
   2   5  -1    0.63    0.73
  -2  -5   1   -0.02    0.67
  -2  -5   1   -0.02    0.58
  -2  -5   1    0.60    0.65
  -2  -5   1    0.51    0.60
  -2  -5   1    1.11    0.62
   1   5  -1   44.87    2.62
   1   5  -1   47.95    2.64
  -1  -5   1   53.73    2.73
  -1  -5   1   48.88    2.50
  -1  -5   1   54.24    2.83
  -1  -5   1   46.67    2.43
  -1  -5   1   49.58    2.65
   0   5  -1   98.22    4.09
   0   5  -1   96.83    4.04
   0  -5   1   92.13    4.02
   0  -5   1   89.75    3.77
   0  -5   1  101.99    3.85
   0  -5   1   97.02    3.65
   0  -5   1   98.00    4.17
  -1   5  -1    3.77    0.92
  -1   5  -1    2.19    0.81
   1  -5   1    3.67    0.76
   1  -5   1    2.39    0.82
   1  -5   1    4.44    0.95
  -2   5  -1    0.15    0.52
  -2   5  -1    0.48    0.53
  -2   5  -1    0.53    0.52
  -2   5  -1   -0.07    0.57
   2  -5   1    0.40    0.59
   2  -5   1    0.45    0.46
   2  -5   1    0.81    0.54
  -3   5  -1    0.73    0.54
  -3   5  -1    0.69    0.70
  -3   5  -1    0.37    0.73
   3  -5   1   -0.34    0.50
   3  -5   1   -0.30    0.57
   3  -5   1   -0.25    0.57
   3  -5   1    0.04    0.49
  -4   5  -1    3.43    1.11
  -4   5  -1    4.06    0.93
  -4   5  -1    2.73    0.91
   4  -5   1    4.91    1.14
   4  -5   1    3.91    1.02
   4  -5   1    5.05    1.02
  -5   5  -1    0.95    0.85
  -5   5  -1   -0.84    0.69
   5  -5   1    0.01    0.77
   5  -5   1    0.53    0.73
  -6   5  -1   -0.72    0.75
  -6   5  -1    0.07    0.99
   6  -5   1   -0.08    0.76
   6  -5   1   -0.92    0.67
  -7   5  -1    6.98    1.69
  -7   5  -1    5.98    1.78
   7  -5   1    4.34    1.44
   7  -5   1    5.89    1.50
   7   4  -1    6.06    1.58
  -7  -4   1    7.58    1.79
  -7  -4   1    6.88    1.54
  -7  -4   1    9.15    1.85
  -7  -4   1    7.63    1.56
  -7  -4   1    7.62    1.70
   6   4  -1    5.81    1.46
  -6  -4   1    8.16    1.56
  -6  -4   1    5.66    1.55
  -6  -4   1    5.52    1.45
  -6  -4   1    9.41    1.62
  -6  -4   1    5.01    1.40
   5   4  -1    1.65    0.86
  -5  -4   1    0.83    0.85
  -5  -4   1    0.63    0.80
  -5  -4   1    0.39    0.71
  -5  -4   1   -0.06    0.58
  -5  -4   1    0.56    0.80
   4   4  -1   35.26    2.27
  -4  -4   1   36.51    2.37
  -4  -4   1   38.03    2.46
  -4  -4   1   37.00    2.10
  -4  -4   1   35.20    2.27
  -4  -4   1   35.16    2.37
  -4  -4   1   36.26    2.20
   3   4  -1    0.28    0.65
  -3  -4   1    0.18    0.46
  -3  -4   1    0.41    0.54
  -3  -4   1    1.30    0.67
  -3  -4   1    0.15    0.52
  -3  -4   1    0.93    0.60
  -3  -4   1    0.48    0.58
   2   4  -1   18.43    1.41
  -2  -4   1   17.42    1.42
  -2  -4   1   15.24    1.00
  -2  -4   1   15.54    1.58
  -2  -4   1   15.37    1.17
  -2  -4   1   16.87    1.61
  -2  -4   1   15.21    1.48
  -2  -4   1   17.15    1.39
   1   4  -1    0.11    0.42
  -1  -4   1   -0.36    0.38
  -1  -4   1    0.36    0.46
  -1  -4   1   -0.27    0.34
  -1  -4   1    0.03    0.33
  -1  -4   1    0.34    0.48
  -1  -4   1   -0.35    0.28
   0   4  -1   11.29    1.28
   0   4  -1   10.19    1.16
   0  -4   1    9.02    1.17
   0  -4   1    9.43    1.05
   0  -4   1    9.68    0.64
   0  -4   1   10.83    1.26
   0  -4   1   10.79    1.16
  -1   4  -1   -0.46    0.36
  -1   4  -1    0.96    0.59
   1  -4   1   -0.11    0.33
   1  -4   1   -0.06    0.43
   1  -4   1   -0.18    0.38
  -2   4  -1    3.18    0.75
  -2   4  -1    7.17    0.86
  -2   4  -1    8.75    1.18
  -2   4  -1    5.97    0.85
   2  -4   1    4.78    0.71
   2  -4   1    5.85    0.97
   2  -4   1    5.51    0.86
   2  -4   1    6.13    0.96
  -3   4  -1   79.99    3.04
  -3   4  -1   84.58    3.22
  -3   4  -1   83.66    3.60
  -3   4  -1   75.99    3.53
   3  -4   1   80.65    3.06
   3  -4   1   86.91    3.69
   3  -4   1   78.96    3.29
   3  -4   1   76.58    3.36
  -4   4  -1   14.66    1.77
  -4   4  -1   16.01    1.86
  -4   4  -1   16.42    1.57
   4  -4   1   17.08    1.88
   4  -4   1   14.91    1.73
   4  -4   1   18.39    1.38
   4  -4   1   16.00    1.43
  -5   4  -1    0.99    0.71
  -5   4  -1    0.55    0.82
  -5   4  -1    1.84    0.90
   5  -4   1    1.44    0.84
   5  -4   1    2.19    0.90
  -6   4  -1   12.92    1.97
  -6   4  -1   13.76    1.91
   6  -4   1    9.40    1.62
   6  -4   1   13.01    1.96
  -7   4  -1    2.59    1.30
  -7   4  -1    4.38    1.32
   7  -4   1    2.36    1.30
   7  -4   1    5.20    1.34
  -7  -3   1    1.13    0.92
  -7  -3   1    1.90    0.97
  -7  -3   1   -1.04    0.59
  -7  -3   1    0.62    0.87
  -7  -3   1   -0.53    0.72
  -6  -3   1   10.92    1.81
  -6  -3   1   12.08    1.81
  -6  -3   1   16.21    2.05
  -6  -3   1   10.98    1.72
  -6  -3   1    9.71    1.50
  -5  -3   1   17.64    2.07
  -5  -3   1   20.36    2.08
  -5  -3   1   15.88    1.80
  -5  -3   1   18.36    2.07
  -5  -3   1   21.02    2.10
  -4  -3   1   58.04    2.90
  -4  -3   1   57.79    2.85
  -4  -3   1   56.08    3.04
  -4  -3   1   57.88    2.82
  -4  -3   1   57.45    2.99
   3   3  -1   66.35    2.90
  -3  -3   1   65.31    2.98
  -3  -3   1   66.78    2.95
  -3  -3   1   65.87    2.87
  -3  -3   1   64.09    2.89
  -3  -3   1   67.60    3.09
   2   3  -1   99.23    3.75
  -2  -3   1  101.50    3.97
  -2  -3   1  107.74    3.84
  -2  -3   1  100.39    3.77
  -2  -3   1  103.12    3.66
  -2  -3   1  103.94    3.82
   1   3  -1   14.90    1.06
  -1  -3   1   14.12    1.04
  -1  -3   1   13.82    1.07
  -1  -3   1   11.70    0.83
  -1  -3   1   13.43    0.86
  -1  -3   1   12.87    0.99
   0   3  -1    5.17    0.74
   0   3  -1    3.83    0.73
   0  -3   1    4.60    0.48
   0  -3   1    3.87    0.66
   0  -3   1    5.11    0.74
   0  -3   1    3.52    0.58
   0  -3   1    4.84    0.69
  -1   3  -1    2.78    0.59
  -1   3  -1    4.56    0.79
   1  -3   1    3.50    0.36
   1  -3   1    2.69    0.62
   1  -3   1    3.44    0.64
   1  -3   1    2.84    0.54
  -2   3  -1   73.66    2.44
  -2   3  -1   74.98    3.00
  -2   3  -1   76.26    2.97
   2  -3   1   77.72    2.62
   2  -3   1   75.25    3.00
   2  -3   1   69.56    2.82
   2  -3   1   70.16    2.42
  -3   3  -1    5.09    0.68
  -3   3  -1    6.98    1.04
  -3   3  -1    5.25    0.89
  -3   3  -1    6.01    0.74
   3  -3   1    6.83    0.84
   3  -3   1    6.64    0.78
   3  -3   1    5.92    0.97
   3  -3   1    4.75    0.92
  -4   3  -1    7.11    1.21
  -4   3  -1    6.76    0.95
  -4   3  -1    8.37    1.23
  -4   3  -1    8.05    1.00
  -4   3  -1    5.97    0.79
   4  -3   1    7.54    0.86
   4  -3   1    6.64    1.16
   4  -3   1    6.60    1.05
  -5   3  -1   29.22    1.82
  -5   3  -1   24.97    2.02
  -5   3  -1   30.99    2.17
  -5   3  -1   30.14    1.89
   5  -3   1   28.19    1.94
   5  -3   1   30.75    2.14
  -6   3  -1   33.40    2.45
  -6   3  -1   28.31    2.06
  -6   3  -1   29.51    2.40
   6  -3   1   30.05    2.75
   6  -3   1   32.44    2.20
  -7   3  -1    2.06    1.05
  -7   3  -1    3.09    1.16
  -7   3  -1    1.34    0.92
   7  -3   1    2.51    1.05
  -8   3  -1    1.31    1.16
  -8   3  -1    0.45    0.88
   8  -3   1    1.48    1.19
  -8  -2   1   11.50    2.05
  -8  -2   1   12.90    2.06
  -8  -2   1   14.27    2.30
  -8  -2   1   16.13    2.17
  -7  -2   1    4.97    1.22
  -7  -2   1    6.21    1.36
  -7  -2   1    3.54    1.18
  -7  -2   1    4.58    1.40
  -7  -2   1    3.66    1.20
  -6  -2   1    4.17    1.29
  -6  -2   1    3.42    1.03
  -6  -2   1    2.30    1.08
  -6  -2   1    3.42    1.10
  -6  -2   1    0.82    0.72
  -5  -2   1   -0.09    0.55
  -5  -2   1   -0.04    0.57
  -5  -2   1    0.49    0.61
  -5  -2   1    0.07    0.52
  -5  -2   1   -0.04    0.55
  -4  -2   1   99.76    4.26
  -4  -2   1   97.24    3.92
  -4  -2   1  105.26    4.14
  -4  -2   1   98.68    4.06
  -4  -2   1  104.62    3.99
  -3  -2   1    6.32    0.95
  -3  -2   1    4.63    0.78
  -3  -2   1    3.86    0.73
  -3  -2   1    3.65    0.75
  -3  -2   1    4.69    0.80
   2   2  -1    0.78    0.39
  -2  -2   1    0.69    0.40
  -2  -2   1    1.27    0.46
  -2  -2   1    1.02    0.39
  -2  -2   1    1.03    0.43
   1   2  -1   11.39    0.81
  -1  -2   1   11.58    0.84
  -1  -2   1    9.82    0.80
  -1  -2   1   12.09    0.79
  -1  -2   1   10.36    0.79
   0   2  -1    9.25    0.87
   0  -2   1    7.25    0.68
   0  -2   1    8.92    0.55
  -1   2  -1    3.22    0.36
  -1   2  -1    3.95    0.58
   1  -2   1    2.67    0.33
   1  -2   1    2.37    0.51
   1  -2   1    3.11    0.50
  -2   2  -1   68.29    2.58
  -2   2  -1   65.46    2.28
  -2   2  -1   64.38    2.54
   2  -2   1   64.33    2.52
   2  -2   1   63.11    2.33
  -3   2  -1   60.15    2.13
  -3   2  -1   57.64    2.60
  -3   2  -1   60.66    2.36
  -3   2  -1   58.39    2.55
   3  -2   1   58.54    2.48
   3  -2   1   61.17    2.19
   3  -2   1   58.34    2.53
  -4   2  -1   54.21    2.65
  -4   2  -1   50.40    2.25
  -4   2  -1   51.07    2.01
  -4   2  -1   51.06    2.52
  -4   2  -1   49.42    2.37
   4  -2   1   54.01    2.59
   4  -2   1   52.59    1.94
   4  -2   1   49.73    2.40
   4  -2   1   49.37    2.22
  -5   2  -1    2.55    0.77
  -5   2  -1    1.02    0.80
  -5   2  -1    1.75    0.75
  -5   2  -1    1.66    0.76
  -5   2  -1    1.92    0.70
   5  -2   1    1.74    0.80
   5  -2   1    1.16    0.68
  -6   2  -1   -0.51    0.52
  -6   2  -1    0.73    0.67
  -6   2  -1    0.55    0.68
  -6   2  -1   -0.55    0.60
  -6   2  -1    0.41    0.66
   6  -2   1   -0.29    0.60
   6  -2   1    0.40    0.57
  -7   2  -1    2.28    0.96
  -7   2  -1    3.99    1.13
  -7   2  -1    4.97    1.33
   7  -2   1    5.48    1.27
  -8   2  -1   -0.18    0.81
  -8   2  -1    1.06    1.03
  -8   2  -1   -0.10    0.89
   8  -2   1    1.63    1.03
  -8  -1   1    1.69    1.00
  -8  -1   1    0.03    0.89
  -8  -1   1    0.15    0.93
  -8  -1   1    0.18    1.10
   7   1  -1    1.50    0.83
  -7  -1   1    0.86    0.72
  -7  -1   1    0.05    0.82
  -7  -1   1    1.04    0.90
  -7  -1   1    1.37    0.89
  -7  -1   1    1.11    0.85
   6   1  -1   -0.10    0.61
  -6  -1   1    0.04    0.54
  -6  -1   1    0.14    0.75
  -6  -1   1   -0.18    0.60
  -6  -1   1    1.10    0.69
  -6  -1   1    2.49    0.97
   5   1  -1    2.81    0.81
  -5  -1   1    2.75    0.98
  -5  -1   1    2.70    0.84
  -5  -1   1    2.15    0.74
  -5  -1   1    2.34    0.85
  -5  -1   1    1.91    0.75
  -4  -1   1  149.43    5.39
  -4  -1   1  155.48    5.36
  -4  -1   1  146.53    5.67
  -4  -1   1  146.20    5.24
  -4  -1   1  153.20    5.19
  -3  -1   1   32.68    1.77
  -3  -1   1   33.12    1.77
  -3  -1   1   29.96    1.59
  -3  -1   1   33.89    1.86
  -3  -1   1   32.92    1.69
  -2  -1   1   53.22    2.30
  -2  -1   1   58.39    2.13
  -2  -1   1   57.75    2.24
  -2  -1   1   56.57    2.19
  -1  -1   1   64.14    2.22
   0  -1   1   47.37    1.54
  -1   1  -1   20.64    0.85
   1  -1   1   21.09    0.87
  -2   1  -1   25.26    1.28
  -2   1  -1   21.84    1.13
  -3   1  -1    1.34    0.48
  -3   1  -1    1.25    0.48
  -3   1  -1    1.42    0.52
   3  -1   1    1.96    0.49
  -4   1  -1   38.37    1.92
  -4   1  -1   38.27    2.16
  -4   1  -1   38.25    2.01
  -4   1  -1   38.09    1.66
  -4   1  -1   40.83    2.10
   4  -1   1   37.42    1.79
   4  -1   1   35.86    1.98
  -5   1  -1   -0.29    0.42
  -5   1  -1   -0.34    0.39
  -5   1  -1   -0.58    0.48
  -5   1  -1   -0.11    0.56
  -5   1  -1   -0.05    0.51
  -5   1  -1   -0.28    0.47
   5  -1   1   -0.07    0.46
   5  -1   1    1.00    0.58
  -6   1  -1    5.65    1.27
  -6   1  -1    6.20    1.19
  -6   1  -1    6.20    1.22
  -6   1  -1    6.34    1.27
   6  -1   1    6.34    1.35
  -7   1  -1    1.97    0.97
  -7   1  -1    0.57    0.88
  -7   1  -1    1.70    0.93
  -7   1  -1    3.14    1.05
   7  -1   1    1.61    0.99
  -8   1  -1   13.23    2.23
  -8   1  -1   11.49    1.91
  -8   1  -1   12.16    1.88
  -8   1  -1   13.63    2.07
   8  -1   1    8.48    1.68
   8   0  -1    7.94    1.69
  -8   0   1    8.66    1.62
  -8   0   1    8.45    1.83
  -8   0   1   10.69    1.83
  -8   0   1    6.77    1.67
   7   0  -1    0.95    0.95
  -7   0   1    0.16    0.72
  -7   0   1    1.49    1.11
  -7   0   1    1.60    0.87
  -7   0   1    1.49    0.87
  -7   0   1    1.81    1.07
   6   0  -1   54.67    2.90
  -6   0   1   48.63    3.20
  -6   0   1   58.44    3.18
  -6   0   1   49.22    2.90
  -6   0   1   54.95    2.82
  -6   0   1   53.62    2.89
   5   0  -1   18.52    1.73
  -5   0   1   18.60    1.80
  -5   0   1   19.22    1.89
  -5   0   1   20.43    1.84
  -5   0   1   16.28    1.58
  -5   0   1   14.59    1.83
   4   0  -1   24.43    1.52
  -4   0   1   25.65    1.76
  -4   0   1   24.74    1.54
  -4   0   1   21.80    1.56
  -4   0   1   25.88    1.59
  -4   0   1   24.56    1.51
  -3   0   1   -0.30    0.31
  -3   0   1    0.42    0.47
  -3   0   1    1.17    0.47
  -3   0   1    0.73    0.35
  -2   0   1    7.71    0.72
  -2   0   1    6.01    0.69
  -2   0   1    8.07    0.79
  -1   0   1   20.86    0.94
   0   0   1    3.16    0.25
  -1   0  -1    4.95    0.44
  -2   0  -1  978.62   27.38
  -2   0  -1 1000.00   27.25
  -3   0  -1  332.59    9.50
  -3   0  -1  342.00   10.44
  -3   0  -1  338.46   10.09
  -3   0  -1  344.82   10.15
  -4   0  -1    6.09    0.96
  -4   0  -1    8.91    1.21
  -4   0  -1    7.62    1.07
  -4   0  -1    6.61    0.94
  -4   0  -1    7.31    0.81
   4   0   1    4.88    0.81
  -5   0  -1    1.67    0.76
  -5   0  -1    1.06    0.48
  -5   0  -1    1.27    0.68
  -5   0  -1    0.82    0.62
  -5   0  -1    1.57    0.64
   5   0   1    0.07    0.63
  -6   0  -1   42.68    2.84
  -6   0  -1   51.06    2.82
  -6   0  -1   47.38    2.66
  -6   0  -1   44.83    2.74
   6   0   1   42.51    2.54
  -7   0  -1   -0.98    0.57
  -7   0  -1    0.66    0.76
  -7   0  -1   -0.23    0.73
  -7   0  -1    0.39    0.81
   7   0   1   -0.36    0.62
  -8   0  -1   -0.38    0.77
  -8   0  -1   -0.67    0.80
  -8   0  -1   -0.79    0.77
  -8   0  -1    0.84    0.81
   8   0   1   -0.29    0.84
   8  -1  -1    4.06    1.27
  -8   1   1    3.21    1.16
  -8   1   1    6.28    1.67
  -8   1   1    5.42    1.41
   7  -1  -1   -0.12    0.85
  -7   1   1    0.73    0.91
  -7   1   1    1.22    0.89
  -7   1   1   -0.27    0.79
  -7   1   1    0.75    0.72
   6  -1  -1   25.46    2.37
  -6   1   1   25.54    1.97
  -6   1   1   21.87    2.22
  -6   1   1   20.02    2.31
  -6   1   1   26.71    1.83
  -6   1   1   23.86    2.15
  -6   1   1   24.78    1.96
   5  -1  -1    0.24    0.46
   5  -1  -1    0.35    0.60
  -5   1   1    0.77    0.62
  -5   1   1    0.35    0.56
  -5   1   1    0.62    0.75
  -5   1   1   -0.16    0.51
  -5   1   1   -0.04    0.53
  -5   1   1    0.92    0.68
   4  -1  -1   72.84    2.72
   4  -1  -1   74.15    3.11
  -4   1   1   73.00    3.07
  -4   1   1   72.60    3.11
  -4   1   1   77.92    2.97
  -4   1   1   70.24    3.06
  -4   1   1   79.02    3.42
  -4   1   1   69.99    2.87
   3  -1  -1  197.58    5.85
  -3   1   1  203.42    6.04
  -3   1   1  184.33    6.17
  -3   1   1  196.06    6.59
  -3   1   1  203.43    6.27
  -2   1   1   49.89    1.91
  -2   1   1   49.37    2.12
  -2   1   1   50.86    1.90
  -2   1   1   50.75    1.94
  -1   1   1   14.36    0.71
   0  -1  -1    3.02    0.26
   0   1   1    2.74    0.24
  -1  -1  -1   23.66    1.02
  -2  -1  -1    0.26    0.32
  -2  -1  -1    0.00    0.27
  -3  -1  -1    0.42    0.48
  -3  -1  -1    1.46    0.48
  -3  -1  -1    0.90    0.43
  -4  -1  -1   81.88    3.27
  -4  -1  -1   77.51    3.25
  -4  -1  -1   68.68    3.17
  -4  -1  -1   78.07    3.40
  -5  -1  -1    2.00    0.81
  -5  -1  -1    1.82    0.73
  -5  -1  -1    1.76    0.79
  -5  -1  -1    2.08    0.77
   5   1   1    3.91    0.85
  -6  -1  -1   51.47    2.99
  -6  -1  -1   53.95    2.95
  -6  -1  -1   52.03    2.89
  -6  -1  -1   48.22    3.04
   6   1   1   51.32    2.74
  -7  -1  -1    1.32    0.76
  -7  -1  -1    0.24    0.72
  -7  -1  -1    0.66    0.79
  -7  -1  -1    1.23    0.97
   7   1   1    0.82    0.82
  -8  -1  -1   13.15    1.94
  -8  -1  -1   15.04    2.18
  -8  -1  -1   11.59    1.94
  -8  -1  -1   12.78    2.12
   8   1   1   11.81    1.79
   8  -2  -1    7.53    1.82
  -8   2   1    7.11    1.64
  -8   2   1    8.57    1.67
  -8   2   1   10.76    2.02
   7  -2  -1    3.66    1.24
  -7   2   1    6.05    1.39
  -7   2   1    4.93    1.27
  -7   2   1    6.15    1.39
  -7   2   1    2.47    1.19
   6  -2  -1    1.71    0.82
  -6   2   1    0.19    0.70
  -6   2   1   -0.04    0.66
  -6   2   1    0.81    0.82
  -6   2   1    1.02    0.95
  -6   2   1    1.34    0.72
   5  -2  -1   26.75    1.96
   5  -2  -1   28.48    1.72
  -5   2   1   26.19    2.05
  -5   2   1   24.58    1.81
  -5   2   1   29.46    1.80
  -5   2   1   29.06    1.99
  -5   2   1   29.58    1.97
   4  -2  -1    0.44    0.45
   4  -2  -1   -0.23    0.45
   4  -2  -1    0.23    0.30
  -4   2   1   -0.55    0.38
  -4   2   1    1.07    0.47
  -4   2   1    0.77    0.48
  -4   2   1    0.68    0.51
  -4   2   1    0.38    0.52
   3  -2  -1    6.11    0.82
   3  -2  -1    5.20    0.64
   3  -2  -1    4.61    0.82
  -3   2   1    5.06    0.79
  -3   2   1    5.54    0.89
  -3   2   1    4.28    0.69
  -3   2   1    4.62    0.69
   2  -2  -1   12.78    0.91
   2  -2  -1   12.12    0.85
   2  -2  -1   14.52    0.91
  -2   2   1   12.83    0.82
  -2   2   1   13.31    0.85
  -2   2   1   14.36    1.02
  -2   2   1   12.27    0.88
   1  -2  -1   22.01    1.09
   1  -2  -1   21.03    1.12
   1  -2  -1   24.87    1.20
  -1   2   1   21.67    0.86
  -1   2   1   21.22    1.06
  -1   2   1   24.56    1.23
  -1   2   1   24.75    1.15
   0  -2  -1  433.63   11.67
   0  -2  -1  417.28   11.90
   0  -2  -1  437.17   12.15
   0  -2  -1  407.26   11.83
   0   2   1  437.38   11.67
   0   2   1  439.33   12.14
  -1  -2  -1    1.58    0.39
  -1  -2  -1    2.18    0.48
  -1  -2  -1    1.92    0.44
  -1  -2  -1    1.54    0.34
   1   2   1    1.48    0.41
  -2  -2  -1   34.46    1.65
  -2  -2  -1   36.45    1.73
  -2  -2  -1   36.35    1.62
  -2  -2  -1   36.85    1.67
  -3  -2  -1  181.70    5.91
  -3  -2  -1  176.49    5.62
  -3  -2  -1  180.03    5.90
  -3  -2  -1  175.30    5.86
  -3  -2  -1  177.64    5.29
  -3  -2  -1  177.84    6.10
  -4  -2  -1    1.71    0.61
  -4  -2  -1    3.13    0.69
  -4  -2  -1    1.72    0.60
  -4  -2  -1    1.55    0.39
  -4  -2  -1    1.88    0.61
  -4  -2  -1    2.15    0.75
  -5  -2  -1    4.45    1.00
  -5  -2  -1    2.81    0.82
  -5  -2  -1    2.36    0.79
  -5  -2  -1    2.75    0.83
  -5  -2  -1    2.11    0.69
   5   2   1    2.77    0.73
  -6  -2  -1    1.57    0.71
  -6  -2  -1    2.14    0.94
  -6  -2  -1    0.63    0.65
  -6  -2  -1    2.61    0.95
  -6  -2  -1    2.22    0.85
   6   2   1    3.07    0.87
  -7  -2  -1    0.13    0.74
  -7  -2  -1    0.55    0.77
  -7  -2  -1    0.24    0.77
  -7  -2  -1    0.00    0.62
  -8  -2  -1   28.52    3.10
  -8  -2  -1   26.98    2.91
  -8  -2  -1   30.28    3.03
   8  -3  -1   27.19    3.07
  -8   3   1   27.31    2.91
  -8   3   1   28.64    3.38
  -8   3   1   27.85    2.91
   7  -3  -1    5.96    1.58
  -7   3   1   11.90    1.73
  -7   3   1    8.57    1.74
  -7   3   1   12.89    1.85
  -7   3   1    8.94    1.59
   6  -3  -1   47.92    2.68
   6  -3  -1   42.87    2.86
  -6   3   1   47.50    2.71
  -6   3   1   51.37    2.92
  -6   3   1   45.93    2.79
  -6   3   1   45.68    3.06
   5  -3  -1   42.28    2.41
   5  -3  -1   46.47    2.70
  -5   3   1   45.78    2.46
  -5   3   1   45.34    2.58
  -5   3   1   44.63    2.77
  -5   3   1   44.13    2.52
  -5   3   1   47.66    2.34
   4  -3  -1    5.43    0.97
   4  -3  -1    7.42    1.17
   4  -3  -1    7.09    0.86
  -4   3   1    4.71    0.90
  -4   3   1    5.56    0.99
  -4   3   1    6.09    1.18
  -4   3   1    6.68    0.96
  -4   3   1    3.86    0.76
   3  -3  -1    0.34    0.41
   3  -3  -1    0.31    0.38
   3  -3  -1    0.20    0.51
   3  -3  -1   -0.21    0.32
  -3   3   1   -0.22    0.30
  -3   3   1    0.14    0.43
  -3   3   1   -0.16    0.40
  -3   3   1   -0.53    0.34
  -3   3   1    1.28    0.46
   2  -3  -1   32.07    1.72
   2  -3  -1   32.20    1.59
   2  -3  -1   34.85    1.71
  -2   3   1   34.29    1.69
  -2   3   1   34.31    1.61
  -2   3   1   31.17    1.79
  -2   3   1   31.50    1.34
   1  -3  -1    6.69    0.83
   1  -3  -1    6.47    0.78
   1  -3  -1    8.53    0.96
  -1   3   1    8.14    0.91
  -1   3   1    7.51    0.87
  -1   3   1    8.18    0.86
   0  -3  -1    0.35    0.35
   0  -3  -1    0.45    0.36
   0  -3  -1    0.14    0.36
   0  -3  -1    0.51    0.13
   0  -3  -1    0.05    0.32
   0  -3  -1    0.82    0.38
   0   3   1    0.21    0.33
   0   3   1    0.21    0.35
  -1  -3  -1   14.71    1.09
  -1  -3  -1   16.03    1.09
  -1  -3  -1   13.44    1.01
  -1  -3  -1   13.88    0.80
  -1  -3  -1   14.39    1.01
   1   3   1   12.45    1.01
  -2  -3  -1   14.27    1.02
  -2  -3  -1   14.78    1.00
  -2  -3  -1   12.33    1.14
  -2  -3  -1   14.70    1.14
  -2  -3  -1   14.01    1.10
   2   3   1   14.18    1.13
  -3  -3  -1   42.26    2.15
  -3  -3  -1   39.22    2.18
  -3  -3  -1   41.73    2.08
  -3  -3  -1   42.58    2.12
  -3  -3  -1   41.48    2.15
  -4  -3  -1    0.03    0.47
  -4  -3  -1    1.03    0.49
  -4  -3  -1    0.52    0.48
  -4  -3  -1    0.48    0.38
  -4  -3  -1    0.93    0.69
  -4  -3  -1    0.64    0.63
  -5  -3  -1    6.05    1.06
  -5  -3  -1    5.74    1.15
  -5  -3  -1    8.56    1.37
  -5  -3  -1    4.98    1.09
  -5  -3  -1    5.69    1.14
  -6  -3  -1   42.35    2.75
  -6  -3  -1   43.65    2.82
  -6  -3  -1   46.79    2.66
  -6  -3  -1   43.24    2.83
  -6  -3  -1   46.14    3.06
  -7  -3  -1   48.89    3.21
  -7  -3  -1   54.96    3.32
  -7  -3  -1   51.52    3.50
  -7  -3  -1   49.12    2.96
  -8  -3  -1    1.97    1.24
  -8  -3  -1    0.39    1.03
  -8  -3  -1    0.41    0.89
   7  -4  -1    8.37    1.73
  -7   4   1    9.23    1.93
  -7   4   1   11.64    1.83
  -7   4   1   11.44    1.90
   6  -4  -1    2.98    0.99
   6  -4  -1    1.09    0.90
  -6   4   1    2.15    1.09
  -6   4   1    2.63    0.92
  -6   4   1    3.96    1.20
   5  -4  -1    1.25    0.81
   5  -4  -1    0.78    0.77
  -5   4   1    0.76    0.62
  -5   4   1    0.15    0.69
  -5   4   1    0.16    0.71
  -5   4   1   -0.81    0.69
   4  -4  -1   26.11    1.71
   4  -4  -1   25.41    1.84
   4  -4  -1   25.54    1.92
  -4   4   1   29.37    1.80
  -4   4   1   28.11    1.84
  -4   4   1   26.69    2.07
  -4   4   1   28.41    1.94
   3  -4  -1   12.93    1.46
   3  -4  -1   11.75    1.28
   3  -4  -1   12.31    1.33
   3  -4  -1   14.33    1.55
  -3   4   1   14.40    1.36
  -3   4   1   10.28    1.27
  -3   4   1   13.78    1.58
  -3   4   1   13.55    1.50
   2  -4  -1   61.62    2.79
   2  -4  -1   65.12    2.89
   2  -4  -1   65.71    2.70
   2  -4  -1   62.28    2.64
  -2   4   1   62.18    2.64
  -2   4   1   63.46    2.80
  -2   4   1   70.77    3.07
  -2   4   1   65.15    2.77
   1  -4  -1   20.38    1.40
   1  -4  -1   25.18    1.44
   1  -4  -1   22.48    1.52
  -1   4   1   22.31    1.50
  -1   4   1   22.98    1.41
  -1   4   1   23.44    1.54
  -1   4   1   24.86    1.43
   0  -4  -1   41.05    2.14
   0  -4  -1   45.93    2.09
   0  -4  -1   46.48    2.05
   0  -4  -1   43.41    2.26
   0   4   1   44.24    2.20
   0   4   1   45.39    2.25
  -1  -4  -1   80.35    3.34
  -1  -4  -1   81.16    3.21
  -1  -4  -1   78.51    2.61
  -1  -4  -1   75.20    3.16
  -1  -4  -1   78.60    3.14
   1   4   1   79.02    3.32
   1   4   1   76.12    3.16
  -2  -4  -1    0.98    0.48
  -2  -4  -1    2.83    0.72
  -2  -4  -1    1.85    0.51
  -2  -4  -1    0.48    0.49
  -2  -4  -1    2.85    0.51
  -2  -4  -1    2.64    0.66
  -2  -4  -1    2.06    0.64
   2   4   1    2.73    0.73
  -3  -4  -1    1.08    0.53
  -3  -4  -1    2.21    0.66
  -3  -4  -1    3.35    0.80
  -3  -4  -1    2.61    0.75
  -3  -4  -1    3.10    0.83
  -3  -4  -1    4.02    0.89
   3   4   1    2.18    0.71
  -4  -4  -1    1.47    0.81
  -4  -4  -1    2.27    0.84
  -4  -4  -1    2.60    0.88
  -4  -4  -1    2.06    0.62
  -4  -4  -1    2.22    0.79
  -4  -4  -1    1.71    0.72
   4   4   1    1.75    0.90
  -5  -4  -1    0.45    0.67
  -5  -4  -1   -0.50    0.59
  -5  -4  -1   -0.10    0.60
  -5  -4  -1   -0.27    0.52
  -5  -4  -1    0.54    0.70
  -6  -4  -1   19.67    2.37
  -6  -4  -1   21.12    2.30
  -6  -4  -1   15.04    2.04
  -6  -4  -1   20.75    2.15
  -6  -4  -1   15.12    2.09
  -7  -4  -1    0.70    1.00
  -7  -4  -1    0.21    0.77
  -7  -4  -1    1.00    0.95
  -7  -4  -1    2.55    1.18
  -7  -4  -1    0.82    0.86
   7  -5  -1   13.98    2.12
   7  -5  -1   12.83    2.13
  -7   5   1   12.14    2.21
  -7   5   1   15.31    2.09
  -7   5   1   18.04    2.44
   6  -5  -1    2.81    1.30
   6  -5  -1    3.72    1.14
  -6   5   1    1.83    1.05
  -6   5   1    4.19    1.32
  -6   5   1    3.75    1.44
   5  -5  -1    5.44    1.20
   5  -5  -1    5.14    1.37
  -5   5   1    4.87    1.22
  -5   5   1    5.73    1.52
  -5   5   1    7.64    1.32
   4  -5  -1    0.37    0.64
   4  -5  -1    0.15    0.55
   4  -5  -1    0.26    0.54
   4  -5  -1    0.17    0.54
  -4   5   1    0.14    0.69
  -4   5   1   -0.35    0.84
  -4   5   1   -0.18    0.50
  -4   5   1    0.72    0.62
   3  -5  -1   21.09    1.97
   3  -5  -1   23.08    1.68
   3  -5  -1   28.60    2.01
   3  -5  -1   27.24    1.84
  -3   5   1   26.97    1.84
  -3   5   1   24.39    1.69
  -3   5   1   23.36    1.96
  -3   5   1   24.84    1.97
   2  -5  -1    0.17    0.54
   2  -5  -1    0.34    0.47
   2  -5  -1    0.13    0.53
   2  -5  -1    1.23    0.52
  -2   5   1    0.08    0.54
  -2   5   1    0.45    0.42
  -2   5   1    0.51    0.67
  -2   5   1    0.19    0.70
   1  -5  -1    3.83    0.87
   1  -5  -1    3.81    0.80
   1  -5  -1    4.21    0.85
  -1   5   1    5.87    1.08
  -1   5   1    4.28    0.89
  -1   5   1    5.27    0.92
  -1   5   1    3.75    0.89
   0  -5  -1   29.64    1.79
   0  -5  -1   24.85    1.74
   0  -5  -1   23.35    1.58
   0  -5  -1   27.08    1.86
   0   5   1   23.84    1.74
   0   5   1   23.34    1.75
  -1  -5  -1   26.49    1.82
  -1  -5  -1   24.79    1.58
  -1  -5  -1   27.98    1.92
  -1  -5  -1   27.76    1.59
  -1  -5  -1   25.50    1.78
  -1  -5  -1   28.60    1.78
   1   5   1   29.93    1.97
   1   5   1   26.78    1.84
  -2  -5  -1   45.70    2.07
  -2  -5  -1   47.45    2.49
  -2  -5  -1   50.30    2.54
  -2  -5  -1   47.31    2.55
  -2  -5  -1   44.72    2.38
  -2  -5  -1   45.95    2.67
   2   5   1   47.53    2.57
  -3  -5  -1   -0.64    0.57
  -3  -5  -1   -0.26    0.44
  -3  -5  -1    0.38    0.54
  -3  -5  -1   -0.94    0.37
  -3  -5  -1   -0.68    0.48
  -3  -5  -1    0.00    0.59
   3   5   1   -0.41    0.48
  -4  -5  -1   38.85    2.52
  -4  -5  -1   37.35    2.18
  -4  -5  -1   40.34    2.63
  -4  -5  -1   36.34    2.45
  -4  -5  -1   36.37    2.39
  -4  -5  -1   36.62    2.21
   4   5   1   35.17    2.41
  -5  -5  -1    8.67    1.51
  -5  -5  -1   10.57    1.55
  -5  -5  -1   10.69    1.76
  -5  -5  -1    9.41    1.59
  -5  -5  -1    7.44    1.36
   5   5   1    5.11    1.26
  -6  -5  -1    2.41    1.07
  -6  -5  -1    0.65    0.86
  -6  -5  -1    0.54    0.89
  -6  -5  -1    2.65    1.13
  -6  -5  -1    1.87    0.99
   6   5   1   -0.33    0.74
  -7  -5  -1   11.27    1.97
  -7  -5  -1    9.54    1.89
  -7  -5  -1    8.23    1.56
  -7  -5  -1    9.54    2.02
  -7  -5  -1   11.54    2.07
   7   5   1    8.79    1.76
   6  -6  -1    0.45    1.05
   6  -6  -1    0.86    0.94
  -6   6   1   -0.54    0.81
  -6   6   1    1.40    1.40
  -6   6   1    1.65    1.10
   5  -6  -1    7.17    1.54
   5  -6  -1    9.44    1.71
  -5   6   1    5.10    1.57
  -5   6   1    7.82    1.52
  -5   6   1    6.65    1.33
   4  -6  -1    5.71    1.25
   4  -6  -1    4.07    1.18
   4  -6  -1    3.69    1.05
   4  -6  -1    5.59    1.21
  -4   6   1    5.80    1.16
  -4   6   1    5.96    1.30
  -4   6   1    0.33    0.84
  -4   6   1    7.31    1.25
   3  -6  -1    3.93    1.10
   3  -6  -1    4.50    1.06
   3  -6  -1    5.93    1.25
   3  -6  -1    4.86    1.09
  -3   6   1    5.30    1.25
  -3   6   1    7.14    1.25
  -3   6   1    5.75    1.10
  -3   6   1    6.86    1.40
   2  -6  -1   43.23    2.46
   2  -6  -1   45.62    2.70
   2  -6  -1   46.54    2.70
  -2   6   1   43.20    2.80
  -2   6   1   40.44    2.61
  -2   6   1   43.94    2.46
  -2   6   1   44.56    2.56
   1  -6  -1   67.87    3.16
   1  -6  -1   61.24    3.34
   1  -6  -1   71.92    3.36
  -1   6   1   67.05    3.49
  -1   6   1   65.05    3.10
  -1   6   1   73.38    3.46
  -1   6   1   73.85    3.34
   0  -6  -1    8.21    1.32
   0  -6  -1    7.39    1.24
   0  -6  -1    7.77    1.21
   0  -6  -1    8.98    1.43
   0   6   1    7.54    1.33
   0   6   1    6.65    1.30
  -1  -6  -1    0.82    0.71
  -1  -6  -1    2.22    0.73
  -1  -6  -1    3.21    0.93
  -1  -6  -1    0.21    0.60
  -1  -6  -1    2.22    0.84
   1   6   1    0.36    0.74
   1   6   1    2.32    0.99
  -2  -6  -1    7.74    1.34
  -2  -6  -1    8.18    1.28
  -2  -6  -1    8.03    1.26
  -2  -6  -1    6.29    1.21
  -2  -6  -1    6.29    1.30
   2   6   1    7.37    1.41
   2   6   1    4.70    1.24
  -3  -6  -1    9.01    1.44
  -3  -6  -1    7.12    1.29
  -3  -6  -1    7.30    1.39
  -3  -6  -1    9.45    1.49
  -3  -6  -1    8.47    1.50
   3   6   1    8.46    1.49
  -4  -6  -1    0.85    0.61
  -4  -6  -1    0.39    0.77
  -4  -6  -1    0.26    0.66
  -4  -6  -1    0.38    0.75
  -4  -6  -1    0.14    0.84
   4   6   1    0.14    0.70
  -5  -6  -1   -0.62    0.70
  -5  -6  -1    1.04    0.86
  -5  -6  -1   -0.11    0.66
  -5  -6  -1    0.29    0.81
   5   6   1    1.36    1.00
  -6  -6  -1    1.03    0.81
  -6  -6  -1    1.65    0.96
  -6  -6  -1    2.30    1.09
  -6  -6  -1    0.65    1.13
   6   6   1    3.58    1.46
   5  -7  -1   12.50    2.04
   5  -7  -1   10.69    1.94
  -5   7   1   11.02    1.95
  -5   7   1    9.17    1.65
  -5   7   1    8.38    1.98
   4  -7  -1    3.29    1.06
   4  -7  -1    2.56    1.01
   4  -7  -1    2.71    1.08
   4  -7  -1    3.07    1.21
  -4   7   1    1.52    0.98
  -4   7   1    2.83    1.16
  -4   7   1    4.03    1.30
   3  -7  -1    6.65    1.30
   3  -7  -1   11.00    1.76
   3  -7  -1    7.23    1.46
  -3   7   1    7.15    1.43
  -3   7   1    8.96    1.61
  -3   7   1    5.92    1.57
  -3   7   1    7.85    1.40
   2  -7  -1   -0.15    0.62
   2  -7  -1    0.08    0.70
   2  -7  -1    0.34    0.75
  -2   7   1   -0.15    0.55
  -2   7   1   -0.05    0.68
  -2   7   1    0.24    0.81
  -2   7   1   -0.84    0.60
   1  -7  -1    0.99    0.75
   1  -7  -1    0.75    0.71
   1  -7  -1    0.19    0.60
  -1   7   1   -0.23    0.69
  -1   7   1    0.86    0.84
  -1   7   1    0.09    0.60
  -1   7   1    0.45    0.94
   0  -7  -1    1.03    0.73
   0  -7  -1    1.07    0.74
   0  -7  -1    0.28    0.75
   0   7   1    1.72    1.02
   0   7   1    0.50    0.86
  -1  -7  -1    9.65    1.49
  -1  -7  -1    8.00    1.29
  -1  -7  -1   10.30    1.61
  -1  -7  -1    9.15    1.65
   1   7   1    9.18    1.58
   1   7   1   10.70    1.72
  -2  -7  -1   16.41    2.09
  -2  -7  -1   17.52    2.00
  -2  -7  -1   20.35    2.20
  -2  -7  -1   16.15    2.09
   2   7   1   18.10    2.27
   2   7   1   11.72    1.84
  -3  -7  -1   13.04    1.78
  -3  -7  -1   10.94    1.74
  -3  -7  -1   15.50    1.90
  -3  -7  -1   10.57    1.75
  -3  -7  -1   10.27    1.75
   3   7   1   16.44    2.22
   3   7   1   13.06    1.95
  -4  -7  -1    6.00    1.43
  -4  -7  -1    5.28    1.40
  -4  -7  -1    5.03    1.36
  -4  -7  -1    2.72    1.00
  -4  -7  -1    2.52    1.31
   4   7   1    8.00    1.59
  -5  -7  -1   16.11    2.19
  -5  -7  -1   12.19    2.10
  -5  -7  -1   13.94    2.26
  -5  -7  -1   10.74    1.92
   5   7   1   11.10    2.01
   3  -8  -1   27.04    2.86
   3  -8  -1   28.20    2.73
   3  -8  -1   28.81    2.97
  -3   8   1   25.47    3.09
  -3   8   1   26.64    2.58
  -3   8   1   27.04    2.72
  -3   8   1   26.62    2.91
   2  -8  -1    1.39    1.03
   2  -8  -1    1.28    0.83
   2  -8  -1    1.26    0.99
  -2   8   1    1.82    0.99
  -2   8   1    1.26    1.02
  -2   8   1    1.65    0.99
  -2   8   1    4.09    1.23
   1  -8  -1    8.93    1.71
   1  -8  -1    4.87    1.25
   1  -8  -1    2.01    0.97
  -1   8   1    3.71    1.09
  -1   8   1    5.34    1.36
  -1   8   1    4.63    1.46
  -1   8   1    5.97    1.43
   0  -8  -1    6.58    1.39
   0  -8  -1    9.72    1.66
   0  -8  -1    9.35    1.73
   0   8   1    6.90    1.72
   0   8   1    8.38    1.64
   0   8   1    6.61    1.32
  -1  -8  -1   14.23    2.13
  -1  -8  -1   16.36    2.15
  -1  -8  -1   13.42    1.94
   1   8   1   11.04    1.86
   1   8   1   14.03    2.09
  -2  -8  -1    0.05    0.68
  -2  -8  -1    0.88    0.83
  -2  -8  -1   -0.71    0.87
   2   8   1    1.52    1.11
   2   8   1    1.08    1.09
  -3  -8  -1   -0.33    0.73
  -3  -8  -1   -0.35    0.79
  -3  -8  -1    0.29    0.89
  -3  -8  -1   -0.81    0.69
   3   8   1    1.05    1.02
   3   8   1   -0.52    0.83
   2   8  -2    2.97    1.35
   2   8  -2    0.49    1.02
  -2  -8   2    0.28    1.06
  -2  -8   2    1.37    0.98
  -2  -8   2    1.37    1.13
   1   8  -2   -0.21    1.00
   1   8  -2   -0.06    0.92
  -1  -8   2   -0.15    0.96
  -1  -8   2   -0.38    0.76
  -1  -8   2   -1.13    0.73
   0   8  -2    6.90    1.74
   0   8  -2    2.98    1.19
   0  -8   2    4.89    1.38
   0  -8   2    2.80    1.09
  -1   8  -2    3.83    1.25
  -1   8  -2    1.56    1.25
  -1   8  -2    2.99    1.12
   1  -8   2    4.69    1.38
   1  -8   2    4.22    1.30
   1  -8   2    3.95    1.18
  -2   8  -2    1.86    1.09
  -2   8  -2    3.29    1.41
   2  -8   2    2.21    1.02
   2  -8   2    2.65    1.12
  -3   8  -2    1.98    1.18
  -3   8  -2    1.46    1.06
   3  -8   2   -0.07    0.78
   3  -8   2    0.40    0.97
   4   7  -2    4.07    1.31
  -4  -7   2    5.39    1.40
  -4  -7   2    2.79    1.20
  -4  -7   2    2.73    1.27
  -4  -7   2    4.71    1.35
  -4  -7   2    3.35    1.22
   3   7  -2    2.10    1.10
   3   7  -2    1.97    1.28
  -3  -7   2    1.48    1.09
  -3  -7   2    2.47    1.19
  -3  -7   2    4.49    1.32
  -3  -7   2    4.80    1.44
  -3  -7   2    5.27    1.43
   2   7  -2    0.08    0.87
   2   7  -2   -0.26    0.80
  -2  -7   2    1.37    0.98
  -2  -7   2    0.60    0.84
  -2  -7   2    1.65    0.85
  -2  -7   2   -0.37    0.59
   1   7  -2   -0.88    0.62
   1   7  -2    0.36    0.85
  -1  -7   2   -0.22    0.70
  -1  -7   2    0.03    0.70
  -1  -7   2    0.31    0.85
   0   7  -2    1.16    0.92
   0   7  -2   -0.08    0.74
   0  -7   2    0.91    0.86
   0  -7   2    0.42    0.71
   0  -7   2    0.63    0.67
  -1   7  -2   14.71    2.03
  -1   7  -2   10.94    1.67
  -1   7  -2   11.46    1.58
   1  -7   2   13.90    1.96
   1  -7   2   11.90    1.79
   1  -7   2   12.87    1.74
  -2   7  -2    3.12    1.12
  -2   7  -2    3.66    1.22
   2  -7   2    6.55    1.42
   2  -7   2    7.21    1.43
   2  -7   2    5.84    1.12
  -3   7  -2   12.64    2.12
  -3   7  -2   14.86    2.08
   3  -7   2   15.95    2.04
   3  -7   2   15.14    2.13
  -4   7  -2    4.36    1.48
  -4   7  -2    4.09    1.40
   4  -7   2    2.06    1.07
   4  -7   2    4.61    1.31
  -5   7  -2    6.97    1.77
  -5   7  -2    2.58    1.42
   5  -7   2    5.65    1.58
   5   6  -2   11.23    1.97
  -5  -6   2   13.90    2.22
  -5  -6   2    9.38    1.72
  -5  -6   2   11.02    1.91
  -5  -6   2   12.37    2.00
   4   6  -2   23.00    2.59
  -4  -6   2   20.26    2.46
  -4  -6   2   23.73    2.49
  -4  -6   2   22.01    2.58
  -4  -6   2   14.85    1.99
  -4  -6   2   19.01    2.31
   3   6  -2   -0.23    0.81
  -3  -6   2    0.25    0.70
  -3  -6   2   -0.30    0.56
  -3  -6   2   -0.64    0.59
  -3  -6   2    0.23    0.64
  -3  -6   2   -0.66    0.76
   2   6  -2   -1.05    0.56
   2   6  -2    1.39    0.91
  -2  -6   2   -0.82    0.60
  -2  -6   2   -0.03    0.59
  -2  -6   2   -0.94    0.60
  -2  -6   2   -0.31    0.65
  -2  -6   2    0.13    0.66
   1   6  -2   13.50    1.72
   1   6  -2   13.54    1.86
  -1  -6   2   11.24    1.50
  -1  -6   2   13.55    1.79
  -1  -6   2   14.10    1.81
  -1  -6   2   11.36    1.50
   0   6  -2    2.67    1.03
   0   6  -2    1.28    0.68
   0  -6   2    2.65    0.93
   0  -6   2    2.53    0.82
   0  -6   2    1.80    0.70
   0  -6   2    1.16    0.74
   0  -6   2    1.47    0.74
  -1   6  -2   17.19    2.03
  -1   6  -2   16.48    1.84
   1  -6   2   18.48    2.01
   1  -6   2   19.97    1.85
   1  -6   2   15.90    1.86
  -2   6  -2    5.61    1.20
  -2   6  -2    7.78    1.17
  -2   6  -2    7.29    1.40
   2  -6   2    4.05    1.11
   2  -6   2    5.58    1.03
   2  -6   2    7.91    1.44
  -3   6  -2    9.03    1.53
  -3   6  -2   13.66    1.91
   3  -6   2    9.10    1.57
   3  -6   2    8.94    1.46
  -4   6  -2   -0.27    0.58
  -4   6  -2    0.85    0.97
   4  -6   2    1.33    0.81
   4  -6   2    0.82    0.80
   4  -6   2    0.53    0.73
  -5   6  -2   -0.41    0.78
  -5   6  -2    0.81    0.97
   5  -6   2    1.22    0.95
   5  -6   2    0.13    0.79
  -6   6  -2    0.73    1.14
  -6   6  -2   -0.26    0.85
   6  -6   2    0.92    0.97
   6  -6   2    0.51    0.96
   6   5  -2   28.88    2.89
  -6  -5   2   31.51    3.07
  -6  -5   2   22.30    2.59
  -6  -5   2   21.13    2.56
  -6  -5   2   20.94    2.77
  -6  -5   2   19.85    2.55
   5   5  -2    1.30    0.88
  -5  -5   2    1.80    1.01
  -5  -5   2    2.71    0.94
  -5  -5   2    0.58    0.91
  -5  -5   2    1.01    1.04
  -5  -5   2    1.12    0.82
   4   5  -2    4.27    1.17
  -4  -5   2    6.07    1.14
  -4  -5   2    5.42    1.29
  -4  -5   2    4.80    1.23
  -4  -5   2    6.39    1.25
  -4  -5   2    6.65    1.31
  -4  -5   2    7.90    1.53
   3   5  -2   12.38    1.64
  -3  -5   2   16.19    1.87
  -3  -5   2   10.53    1.55
  -3  -5   2   13.13    1.68
  -3  -5   2   13.61    1.61
  -3  -5   2   14.08    1.85
   2   5  -2    0.22    0.70
  -2  -5   2    0.70    0.70
  -2  -5   2   -0.15    0.44
  -2  -5   2   -0.78    0.52
  -2  -5   2   -0.01    0.59
  -2  -5   2    0.14    0.68
   1   5  -2   25.80    1.87
   1   5  -2   24.20    1.96
  -1  -5   2   25.28    1.76
  -1  -5   2   27.88    1.94
  -1  -5   2   26.22    1.84
  -1  -5   2   25.58    1.79
  -1  -5   2   23.90    1.83
   0   5  -2    5.23    1.07
   0   5  -2    4.22    0.94
   0  -5   2    2.91    0.80
   0  -5   2    3.96    0.95
   0  -5   2    5.57    1.14
   0  -5   2    4.56    0.90
   0  -5   2    4.10    0.92
  -1   5  -2   10.44    1.37
  -1   5  -2   12.64    1.61
   1  -5   2   13.14    1.37
   1  -5   2   11.95    1.49
   1  -5   2   13.72    1.37
   1  -5   2   11.73    1.50
  -2   5  -2   50.40    2.41
  -2   5  -2   50.23    2.76
  -2   5  -2   47.92    2.65
   2  -5   2   48.31    2.77
   2  -5   2   52.67    2.39
   2  -5   2   51.87    2.77
  -3   5  -2    2.65    1.05
  -3   5  -2    0.74    0.80
   3  -5   2    0.48    0.66
   3  -5   2    1.56    0.73
   3  -5   2    2.22    0.81
  -4   5  -2    0.92    0.77
  -4   5  -2    1.02    0.81
   4  -5   2    0.73    0.79
   4  -5   2    1.56    0.84
   4  -5   2    0.67    0.60
  -5   5  -2    0.83    0.86
  -5   5  -2    0.65    0.77
   5  -5   2    1.63    0.87
   5  -5   2    1.16    1.00
  -6   5  -2   -0.20    0.79
  -6   5  -2    0.16    0.74
   6  -5   2   -0.11    0.75
   6  -5   2    0.62    0.94
  -7   5  -2    1.31    1.07
  -7   5  -2    0.01    1.05
   7  -5   2    4.27    1.39
   7  -5   2   -0.07    1.03
   7   4  -2    9.90    1.87
  -7  -4   2    7.28    1.69
  -7  -4   2    7.47    1.65
  -7  -4   2    6.79    1.63
  -7  -4   2    9.09    1.77
  -7  -4   2    8.01    1.76
   6   4  -2   20.10    2.30
  -6  -4   2   16.00    2.23
  -6  -4   2   19.74    2.36
  -6  -4   2   21.96    2.57
  -6  -4   2   17.73    2.12
  -6  -4   2   20.78    2.44
   5   4  -2   -1.00    0.53
  -5  -4   2    0.27    0.81
  -5  -4   2    0.45    0.74
  -5  -4   2    2.30    0.87
  -5  -4   2    0.17    0.65
  -5  -4   2   -0.20    0.67
   4   4  -2   29.86    2.11
  -4  -4   2   34.29    2.20
  -4  -4   2   32.83    2.20
  -4  -4   2   32.19    2.29
  -4  -4   2   33.45    2.36
  -4  -4   2   29.77    2.24
   3   4  -2   -0.03    0.55
  -3  -4   2   -0.56    0.58
  -3  -4   2    1.08    0.65
  -3  -4   2   -0.76    0.39
  -3  -4   2    0.42    0.59
  -3  -4   2    0.31    0.49
   2   4  -2   18.03    1.48
  -2  -4   2   21.09    1.57
  -2  -4   2   20.22    1.59
  -2  -4   2   18.59    1.72
  -2  -4   2   19.71    1.53
  -2  -4   2   23.80    1.51
   1   4  -2    5.38    1.03
  -1  -4   2    5.59    0.92
  -1  -4   2    6.04    0.97
  -1  -4   2    7.49    0.86
  -1  -4   2    5.05    0.92
  -1  -4   2    5.67    0.92
   0   4  -2    0.44    0.44
   0   4  -2   -0.10    0.53
   0  -4   2    0.52    0.41
   0  -4   2    0.49    0.49
   0  -4   2    0.52    0.44
   0  -4   2    1.24    0.55
   0  -4   2    0.69    0.39
  -1   4  -2   -0.13    0.43
  -1   4  -2    1.51    0.56
   1  -4   2    1.54    0.37
   1  -4   2    0.47    0.40
   1  -4   2    1.58    0.58
   1  -4   2    1.04    0.52
   1  -4   2    1.90    0.60
  -2   4  -2    1.12    0.55
  -2   4  -2    0.86    0.58
   2  -4   2    2.26    0.68
   2  -4   2    1.39    0.69
   2  -4   2    1.35    0.48
   2  -4   2    1.71    0.65
  -3   4  -2   21.34    1.29
  -3   4  -2   20.08    1.63
  -3   4  -2   21.32    2.01
  -3   4  -2   19.47    1.33
   3  -4   2   20.46    1.50
   3  -4   2   19.59    1.25
   3  -4   2   21.32    1.67
   3  -4   2   19.39    1.52
  -4   4  -2    6.67    1.34
  -4   4  -2    9.25    1.46
   4  -4   2   11.22    1.56
   4  -4   2    9.77    1.44
   4  -4   2    9.99    1.17
  -5   4  -2   25.77    2.12
  -5   4  -2   24.65    2.06
   5  -4   2   27.35    2.14
   5  -4   2   26.91    2.48
  -6   4  -2   21.46    2.39
  -6   4  -2   21.14    2.48
   6  -4   2   21.72    2.41
   6  -4   2   23.43    2.40
  -7   4  -2    0.14    0.94
  -7   4  -2   -0.03    0.96
   7  -4   2    1.19    0.98
   7  -4   2   -0.38    0.75
  -7  -3   2    0.04    0.80
  -7  -3   2    0.76    0.79
  -7  -3   2    0.62    0.91
  -7  -3   2    0.50    0.91
  -7  -3   2   -0.36    0.70
  -6  -3   2    1.21    0.97
  -6  -3   2   -0.16    0.75
  -6  -3   2    0.41    0.77
  -6  -3   2    0.58    0.82
  -6  -3   2    0.03    0.69
  -5  -3   2   16.67    2.06
  -5  -3   2   15.52    1.89
  -5  -3   2   16.04    1.80
  -5  -3   2   13.70    1.82
  -5  -3   2   10.81    1.66
   4   3  -2    5.10    1.07
  -4  -3   2    5.52    1.13
  -4  -3   2    5.83    1.08
  -4  -3   2    4.74    0.95
  -4  -3   2    5.94    1.16
  -4  -3   2    6.83    1.23
   3   3  -2    1.41    0.59
  -3  -3   2    0.31    0.52
  -3  -3   2    1.16    0.61
  -3  -3   2    0.67    0.60
  -3  -3   2    0.91    0.56
  -3  -3   2    0.37    0.50
   2   3  -2   12.37    1.29
  -2  -3   2   16.19    1.49
  -2  -3   2   13.65    1.09
  -2  -3   2   12.08    1.27
  -2  -3   2   14.28    1.39
  -2  -3   2   13.36    1.28
   1   3  -2   78.18    3.01
  -1  -3   2   75.74    2.84
  -1  -3   2   73.87    2.71
  -1  -3   2   77.28    3.01
  -1  -3   2   77.50    3.02
  -1  -3   2   80.02    3.04
   0   3  -2  295.83    9.11
   0   3  -2  304.56    9.23
   0  -3   2  296.74    8.66
   0  -3   2  291.09    9.22
   0  -3   2  306.88    8.75
   0  -3   2  307.94    8.83
  -1   3  -2    0.50    0.40
  -1   3  -2    1.19    0.49
   1  -3   2    0.85    0.47
   1  -3   2    0.59    0.30
   1  -3   2   -0.03    0.28
  -2   3  -2    9.58    1.12
  -2   3  -2    7.98    0.74
  -2   3  -2    8.28    0.94
   2  -3   2    8.91    0.70
   2  -3   2    8.56    0.66
   2  -3   2    8.37    0.96
   2  -3   2    7.72    1.02
  -3   3  -2   19.08    1.26
  -3   3  -2   19.27    1.15
  -3   3  -2   17.29    1.40
  -3   3  -2   18.65    1.03
  -3   3  -2   15.76    1.28
   3  -3   2   20.51    1.30
   3  -3   2   20.63    1.15
   3  -3   2   18.78    1.34
   3  -3   2   16.44    1.00
   3  -3   2   18.34    1.43
  -4   3  -2    1.14    0.60
  -4   3  -2    4.05    0.95
  -4   3  -2    1.95    0.61
  -4   3  -2    2.02    0.79
   4  -3   2    2.49    0.56
   4  -3   2    3.20    0.86
   4  -3   2    1.90    0.66
   4  -3   2    2.71    0.83
  -5   3  -2   -0.20    0.52
  -5   3  -2    1.04    0.86
  -5   3  -2    0.79    0.64
  -5   3  -2    0.11    0.73
   5  -3   2    1.98    0.84
   5  -3   2    0.48    0.63
  -6   3  -2    1.37    0.94
  -6   3  -2    1.39    0.74
  -6   3  -2    1.09    0.84
   6  -3   2    0.20    0.68
   6  -3   2    2.27    0.94
  -7   3  -2   32.43    3.20
  -7   3  -2   28.10    2.92
   7  -3   2   33.46    3.10
   7  -3   2   29.33    2.28
  -8   3  -2   12.01    2.08
  -8   3  -2    8.84    2.00
   8  -3   2   12.19    2.03
  -8  -2   2   23.02    2.81
  -8  -2   2   19.09    2.44
  -8  -2   2   21.52    2.81
  -8  -2   2   21.58    2.60
  -7  -2   2    9.40    1.77
  -7  -2   2    8.08    1.76
  -7  -2   2    7.43    1.52
  -7  -2   2    8.99    1.58
  -7  -2   2    7.44    1.45
  -6  -2   2   20.51    2.25
  -6  -2   2   19.05    2.15
  -6  -2   2   17.82    2.14
  -6  -2   2   13.93    1.98
  -6  -2   2   19.58    2.08
  -5  -2   2    9.31    1.43
  -5  -2   2   11.61    1.65
  -5  -2   2   12.63    1.53
  -5  -2   2   12.36    1.60
  -5  -2   2    8.08    1.42
  -4  -2   2    0.24    0.50
  -4  -2   2    1.21    0.65
  -4  -2   2   -0.13    0.45
  -4  -2   2    2.53    0.81
  -4  -2   2   -0.29    0.54
  -3  -2   2   11.92    1.31
  -3  -2   2   13.30    1.26
  -3  -2   2    9.36    1.16
  -3  -2   2   14.94    1.41
  -3  -2   2   11.64    1.25
   2   2  -2   43.67    1.87
  -2  -2   2   40.83    1.98
  -2  -2   2   40.80    1.92
  -2  -2   2   39.75    1.96
  -2  -2   2   41.64    1.85
  -2  -2   2   40.96    1.97
   1   2  -2   59.75    2.27
  -1  -2   2   59.50    2.29
  -1  -2   2   59.36    2.34
  -1  -2   2   57.66    2.33
  -1  -2   2   62.24    2.30
   0   2  -2   23.23    1.19
   0  -2   2   24.41    1.09
   0  -2   2   22.88    1.16
   0  -2   2   18.59    1.06
  -1   2  -2    1.18    0.33
  -1   2  -2    1.75    0.47
   1  -2   2    0.82    0.31
   1  -2   2    0.52    0.36
  -2   2  -2   13.95    1.05
  -2   2  -2   15.39    0.90
   2  -2   2   14.94    1.07
   2  -2   2   15.80    0.90
  -3   2  -2   -0.32    0.38
  -3   2  -2    0.24    0.40
  -3   2  -2    0.00    0.35
   3  -2   2    0.21    0.40
   3  -2   2    0.29    0.30
   3  -2   2    0.28    0.36
  -4   2  -2   12.72    1.44
  -4   2  -2   13.89    1.46
  -4   2  -2   13.87    1.35
  -4   2  -2   14.46    1.36
   4  -2   2   12.03    0.83
   4  -2   2   13.40    1.37
   4  -2   2   13.15    1.27
   4  -2   2   13.58    1.41
  -5   2  -2    0.61    0.69
  -5   2  -2    0.76    0.59
  -5   2  -2    1.22    0.70
  -5   2  -2    0.10    0.64
  -5   2  -2    1.35    0.65
   5  -2   2    0.78    0.65
   5  -2   2    0.35    0.56
   5  -2   2    0.82    0.64
  -6   2  -2   52.27    2.91
  -6   2  -2   51.02    3.07
  -6   2  -2   51.05    3.04
  -6   2  -2   56.04    2.84
   6  -2   2   52.79    2.77
   6  -2   2   50.99    2.75
   6  -2   2   50.76    3.02
  -7   2  -2    2.45    1.08
  -7   2  -2    0.69    0.87
  -7   2  -2    2.21    1.09
  -7   2  -2    3.30    1.23
   7  -2   2    0.78    0.85
  -8   2  -2   -0.84    0.84
  -8   2  -2   -0.45    0.99
  -8   2  -2   -0.10    0.80
   8  -2   2    0.38    0.84
  -8  -1   2    2.82    1.12
  -8  -1   2    0.80    1.08
  -8  -1   2    0.55    0.84
  -8  -1   2    0.88    1.01
  -7  -1   2    3.26    1.24
  -7  -1   2    6.02    1.51
  -7  -1   2    4.46    1.29
  -7  -1   2    2.07    0.99
  -7  -1   2    4.76    1.25
   6   1  -2   23.73    1.80
  -6  -1   2   24.59    2.63
  -6  -1   2   26.56    2.41
  -6  -1   2   28.14    2.23
  -6  -1   2   25.80    2.01
  -6  -1   2   22.92    2.21
   5   1  -2   18.66    1.70
  -5  -1   2   20.21    1.91
  -5  -1   2   20.48    2.00
  -5  -1   2   19.39    1.82
  -5  -1   2   17.25    1.99
  -5  -1   2   16.60    1.81
  -4  -1   2   11.39    1.22
  -4  -1   2   17.08    1.79
  -4  -1   2   14.24    1.50
  -4  -1   2    8.70    1.24
  -4  -1   2   13.70    1.46
  -3  -1   2    1.58    0.61
  -3  -1   2    1.66    0.62
  -3  -1   2    2.69    0.63
  -3  -1   2    0.47    0.45
  -3  -1   2    1.57    0.47
  -2  -1   2   23.39    1.35
  -2  -1   2   25.68    1.43
  -2  -1   2   26.17    1.25
  -2  -1   2   25.32    1.39
  -1  -1   2   68.59    2.43
  -1  -1   2   66.75    2.44
   0  -1   2  104.33    3.28
  -1   1  -2   24.03    1.10
   1  -1   2   25.49    1.11
  -2   1  -2    0.09    0.35
  -2   1  -2   -0.16    0.24
   2  -1   2    0.24    0.32
  -3   1  -2   16.03    1.14
  -3   1  -2   15.35    1.13
  -3   1  -2   15.27    1.14
   3  -1   2   15.85    1.08
  -4   1  -2    1.26    0.59
  -4   1  -2    0.80    0.43
  -4   1  -2    0.70    0.56
  -4   1  -2    0.81    0.33
  -4   1  -2    0.51    0.54
   4  -1   2    1.55    0.51
   4  -1   2    1.33    0.61
  -5   1  -2    0.26    0.52
  -5   1  -2    0.47    0.65
  -5   1  -2   -0.48    0.48
  -5   1  -2   -0.42    0.56
   5  -1   2    0.10    0.43
   5  -1   2    0.85    0.59
  -6   1  -2   41.45    2.63
  -6   1  -2   44.85    2.79
  -6   1  -2   42.67    2.62
  -6   1  -2   44.43    2.55
   6  -1   2   39.03    2.51
  -7   1  -2    1.69    0.88
  -7   1  -2    3.86    1.23
  -7   1  -2    0.42    0.74
  -7   1  -2    2.43    0.99
   7  -1   2    1.10    0.87
  -8   1  -2    5.14    1.45
  -8   1  -2    2.25    1.22
  -8   1  -2    4.20    1.33
  -8   1  -2    2.28    1.34
   8  -1   2    6.39    1.50
   8   0  -2   10.01    1.89
  -8   0   2   10.68    1.89
  -8   0   2    9.19    1.74
  -8   0   2   13.18    2.32
  -8   0   2   11.71    2.09
   7   0  -2   24.42    2.38
  -7   0   2   17.88    2.29
  -7   0   2   18.84    2.23
  -7   0   2   25.04    2.47
  -7   0   2   21.73    2.28
  -7   0   2   15.42    2.23
   6   0  -2   24.36    1.89
  -6   0   2   20.52    2.11
  -6   0   2   21.92    2.45
  -6   0   2   23.93    2.19
  -6   0   2   19.99    2.14
  -6   0   2   25.30    2.29
   5   0  -2   -0.65    0.50
  -5   0   2   -0.68    0.54
  -5   0   2   -0.65    0.49
  -5   0   2   -0.49    0.48
  -5   0   2    1.01    0.66
  -5   0   2   -0.46    0.44
   4   0  -2   34.21    1.82
  -4   0   2   37.49    2.07
  -4   0   2   31.91    1.89
  -4   0   2   33.19    1.84
  -4   0   2   37.72    2.25
  -4   0   2   33.64    1.90
  -3   0   2   10.26    1.09
  -3   0   2   11.02    1.12
  -3   0   2    9.20    1.09
  -3   0   2   11.37    1.05
  -3   0   2    9.33    1.17
  -2   0   2   73.42    2.74
  -2   0   2   73.30    2.88
  -2   0   2   77.07    2.80
  -1   0   2   26.84    1.27
  -1   0   2   30.62    1.30
   0   0   2  145.28    4.33
  -1   0  -2    0.81    0.29
   1   0   2    0.61    0.27
  -2   0  -2    5.61    0.72
  -2   0  -2    6.51    0.71
  -3   0  -2  105.26    3.77
  -3   0  -2  111.38    3.75
  -3   0  -2   94.51    3.75
  -4   0  -2  143.53    5.00
  -4   0  -2  143.49    5.30
  -4   0  -2  148.88    5.13
  -4   0  -2  139.24    4.37
  -4   0  -2  144.68    5.11
   4   0   2  141.57    4.90
   4   0   2  141.48    4.49
  -5   0  -2   27.65    2.01
  -5   0  -2   25.47    1.86
  -5   0  -2   32.82    2.03
  -5   0  -2   27.59    1.83
   5   0   2   28.60    1.82
   5   0   2   28.03    1.48
  -6   0  -2    9.00    1.45
  -6   0  -2    6.43    1.27
  -6   0  -2    7.30    1.34
  -6   0  -2    9.84    1.60
   6   0   2    8.58    1.32
  -7   0  -2   -0.64    0.55
  -7   0  -2   -0.21    0.76
  -7   0  -2   -0.12    0.71
  -7   0  -2    0.67    0.87
   7   0   2    0.28    0.73
  -8   0  -2    5.25    1.40
  -8   0  -2    0.88    0.88
  -8   0  -2    1.91    1.04
  -8   0  -2    3.31    1.36
   8   0   2    2.39    1.21
   8  -1  -2   -1.04    0.86
  -8   1   2   -1.34    0.71
  -8   1   2    0.45    1.19
  -8   1   2    0.01    1.03
   7  -1  -2    1.70    0.87
  -7   1   2    2.57    1.26
  -7   1   2    5.39    1.30
  -7   1   2    3.36    1.24
  -7   1   2    1.94    0.90
   6  -1  -2    1.31    0.80
  -6   1   2   -0.84    0.55
  -6   1   2   -0.73    0.65
  -6   1   2   -0.53    0.57
  -6   1   2    0.55    0.73
  -6   1   2    0.48    0.65
  -6   1   2   -0.36    0.60
   5  -1  -2    2.12    0.79
  -5   1   2    0.75    0.68
  -5   1   2    0.26    0.60
  -5   1   2    1.53    0.65
  -5   1   2    1.68    0.86
  -5   1   2    1.30    0.68
  -5   1   2    2.46    0.72
   4  -1  -2   36.04    2.02
   4  -1  -2   37.21    1.68
  -4   1   2   33.84    1.87
  -4   1   2   35.46    2.02
  -4   1   2   36.77    2.07
  -4   1   2   34.20    1.90
  -4   1   2   32.69    2.10
  -4   1   2   35.12    1.80
   3  -1  -2   27.21    1.32
  -3   1   2   25.52    1.51
  -3   1   2   25.25    1.48
  -3   1   2   28.00    1.46
  -3   1   2   26.99    1.65
  -3   1   2   27.31    1.52
  -2   1   2    2.21    0.50
  -2   1   2    3.04    0.63
  -2   1   2    2.39    0.51
  -2   1   2    2.21    0.44
   1  -1  -2  193.27    5.90
  -1   1   2  200.94    5.93
  -1   1   2  217.62    5.98
   0   1   2   29.60    1.15
  -1  -1  -2   22.50    1.02
   1   1   2   20.13    0.96
  -2  -1  -2   11.47    0.98
  -2  -1  -2    9.23    0.86
  -3  -1  -2   29.50    1.62
  -3  -1  -2   28.84    1.64
  -3  -1  -2   31.13    1.65
  -3  -1  -2   30.53    1.63
  -3  -1  -2   31.69    1.35
  -4  -1  -2   16.00    1.30
  -4  -1  -2   16.57    1.57
  -4  -1  -2   16.04    1.01
  -4  -1  -2   15.94    1.54
  -4  -1  -2   12.38    1.38
   4   1   2   14.89    1.12
  -5  -1  -2    0.73    0.58
  -5  -1  -2    0.63    0.57
  -5  -1  -2    1.92    0.75
  -5  -1  -2    0.85    0.50
  -5  -1  -2    0.37    0.66
   5   1   2    2.10    0.64
  -6  -1  -2   44.52    2.73
  -6  -1  -2   51.81    3.01
  -6  -1  -2   40.59    2.68
  -6  -1  -2   48.74    2.92
   6   1   2   52.49    2.66
  -7  -1  -2    0.34    0.78
  -7  -1  -2    3.91    1.21
  -7  -1  -2    0.60    0.86
  -7  -1  -2    1.18    0.83
   7   1   2    2.06    0.93
  -8  -1  -2    3.43    1.25
  -8  -1  -2    4.04    1.33
  -8  -1  -2    4.99    1.36
  -8  -1  -2    2.64    1.06
   8   1   2    2.93    1.14
   8  -2  -2    0.00    0.96
  -8   2   2   -0.40    0.85
  -8   2   2    1.02    0.88
  -8   2   2   -1.13    0.92
   7  -2  -2   12.31    1.91
  -7   2   2   11.14    1.73
  -7   2   2   11.40    1.81
  -7   2   2   10.43    1.70
  -7   2   2    8.69    1.83
   6  -2  -2   26.69    2.53
  -6   2   2   27.41    2.74
  -6   2   2   22.07    2.29
  -6   2   2   22.91    2.29
  -6   2   2   27.47    2.06
  -6   2   2   23.97    1.92
   5  -2  -2   22.08    2.09
   5  -2  -2   24.46    1.58
  -5   2   2   24.49    2.22
  -5   2   2   24.68    2.39
  -5   2   2   21.86    1.69
  -5   2   2   21.39    1.72
  -5   2   2   22.56    2.04
   4  -2  -2    2.54    0.58
   4  -2  -2    2.72    0.65
   4  -2  -2    2.33    0.79
  -4   2   2    1.92    0.74
  -4   2   2    2.31    0.69
  -4   2   2    2.48    0.69
  -4   2   2    2.61    0.80
  -4   2   2    2.95    0.75
   3  -2  -2    2.77    0.61
   3  -2  -2    4.04    0.73
   3  -2  -2    3.45    0.59
  -3   2   2    2.71    0.60
  -3   2   2    2.03    0.61
  -3   2   2    3.82    0.67
  -3   2   2    2.99    0.62
  -3   2   2    3.83    0.82
   2  -2  -2    2.92    0.57
   2  -2  -2    1.06    0.40
   2  -2  -2    2.22    0.49
  -2   2   2    2.85    0.52
  -2   2   2    2.44    0.46
  -2   2   2    2.41    0.52
  -2   2   2    2.03    0.56
   1  -2  -2    0.03    0.32
   1  -2  -2    0.22    0.34
   1  -2  -2    0.39    0.33
  -1   2   2    0.40    0.33
  -1   2   2   -0.17    0.27
  -1   2   2    0.33    0.27
  -1   2   2    0.14    0.30
   0  -2  -2    1.04    0.37
   0  -2  -2    0.50    0.23
   0  -2  -2    0.66    0.31
   0   2   2    0.69    0.30
   0   2   2    0.50    0.24
  -1  -2  -2    5.06    0.62
  -1  -2  -2    6.42    0.67
  -1  -2  -2    7.22    0.73
  -1  -2  -2    6.27    0.59
   1   2   2    6.12    0.67
  -2  -2  -2  105.85    3.41
  -2  -2  -2   97.84    3.55
  -2  -2  -2  105.85    3.54
  -2  -2  -2  105.54    3.69
  -3  -2  -2   57.38    2.55
  -3  -2  -2   55.36    2.26
  -3  -2  -2   60.06    2.61
  -3  -2  -2   59.15    2.07
  -3  -2  -2   59.32    2.51
  -3  -2  -2   55.37    2.48
  -4  -2  -2    6.67    0.99
  -4  -2  -2    8.39    1.16
  -4  -2  -2    7.44    1.09
  -4  -2  -2    8.92    1.17
  -4  -2  -2    7.32    0.90
  -5  -2  -2   39.79    2.41
  -5  -2  -2   37.86    2.42
  -5  -2  -2   39.05    2.36
  -5  -2  -2   44.06    2.49
   5   2   2   37.16    2.03
  -6  -2  -2    1.12    0.78
  -6  -2  -2    1.49    0.88
  -6  -2  -2    0.49    0.76
  -6  -2  -2    1.60    0.92
   6   2   2    1.07    0.70
  -7  -2  -2   -0.40    0.85
  -7  -2  -2    0.92    0.79
  -7  -2  -2    1.20    0.88
  -7  -2  -2    0.21    0.64
  -8  -2  -2   -0.10    0.79
  -8  -2  -2    0.69    0.84
  -8  -2  -2    0.55    0.76
  -8  -2  -2    0.82    1.03
   7  -3  -2   11.82    1.87
  -7   3   2   11.46    1.93
  -7   3   2    8.94    1.81
  -7   3   2   10.77    1.80
  -7   3   2   15.40    2.05
   6  -3  -2   16.77    1.78
   6  -3  -2   16.37    2.08
  -6   3   2   13.24    1.78
  -6   3   2   12.55    1.90
  -6   3   2   17.71    1.96
  -6   3   2   16.18    1.84
  -6   3   2   15.09    1.94
   5  -3  -2   18.46    1.82
   5  -3  -2   16.99    1.90
  -5   3   2   17.03    2.02
  -5   3   2   19.06    1.82
  -5   3   2   17.28    1.85
  -5   3   2   17.17    1.80
  -5   3   2   22.69    1.93
   4  -3  -2   81.25    3.22
   4  -3  -2   85.48    3.64
   4  -3  -2   82.74    3.49
  -4   3   2   83.37    3.35
  -4   3   2   86.46    3.57
  -4   3   2   81.59    3.43
  -4   3   2   76.45    3.78
  -4   3   2   85.36    3.42
   3  -3  -2  161.01    5.62
   3  -3  -2  159.97    5.46
   3  -3  -2  174.76    5.72
  -3   3   2  173.07    6.10
  -3   3   2  175.87    5.72
  -3   3   2  171.91    5.65
  -3   3   2  163.03    5.53
  -3   3   2  171.09    5.43
   2  -3  -2   34.82    1.76
   2  -3  -2   34.55    1.79
   2  -3  -2   37.21    1.87
   2  -3  -2   33.55    1.71
  -2   3   2   34.46    1.46
  -2   3   2   35.78    1.78
  -2   3   2   31.96    1.67
  -2   3   2   34.41    1.91
  -2   3   2   34.13    1.68
   1  -3  -2    4.70    0.75
   1  -3  -2    4.39    0.67
   1  -3  -2    2.53    0.56
  -1   3   2    4.13    0.70
  -1   3   2    2.78    0.56
  -1   3   2    4.20    0.41
  -1   3   2    4.80    0.68
   0  -3  -2   41.85    1.87
   0  -3  -2   44.88    2.02
   0  -3  -2   45.58    1.90
   0  -3  -2   43.63    2.04
   0  -3  -2   45.72    1.92
   0   3   2   43.94    2.02
   0   3   2   41.88    1.90
   0   3   2   45.16    1.47
  -1  -3  -2   31.99    1.57
  -1  -3  -2   31.42    1.41
  -1  -3  -2   31.35    1.53
  -1  -3  -2   30.84    1.30
  -1  -3  -2   32.94    1.67
  -1  -3  -2   32.38    1.62
   1   3   2   34.23    1.68
   1   3   2   28.31    1.51
  -2  -3  -2    0.13    0.30
  -2  -3  -2    0.54    0.35
  -2  -3  -2   -0.36    0.30
  -2  -3  -2    0.56    0.40
  -2  -3  -2    0.04    0.35
   2   3   2    0.51    0.38
  -3  -3  -2   14.39    1.13
  -3  -3  -2   15.24    1.17
  -3  -3  -2   13.73    1.01
  -3  -3  -2   14.42    1.45
  -3  -3  -2   15.94    1.52
  -3  -3  -2   16.19    1.31
  -4  -3  -2   37.74    2.26
  -4  -3  -2   37.24    2.25
  -4  -3  -2   38.55    2.01
  -4  -3  -2   41.03    2.29
  -4  -3  -2   36.98    2.20
  -4  -3  -2   36.31    1.71
  -5  -3  -2    8.56    1.30
  -5  -3  -2    7.35    1.13
  -5  -3  -2    7.51    1.32
  -5  -3  -2    7.67    1.33
  -5  -3  -2    8.14    1.43
  -6  -3  -2    0.27    0.70
  -6  -3  -2    0.91    0.87
  -6  -3  -2    1.43    0.84
  -6  -3  -2   -0.52    0.52
  -6  -3  -2   -0.02    0.55
  -7  -3  -2    1.23    0.97
  -7  -3  -2    1.27    1.01
  -7  -3  -2    1.96    1.12
  -7  -3  -2    1.47    0.92
  -8  -3  -2    2.42    1.21
  -8  -3  -2    8.23    1.84
  -8  -3  -2    5.50    1.43
  -8  -3  -2    5.77    1.70
   7  -4  -2    5.32    1.47
  -7   4   2    5.80    1.48
  -7   4   2    6.28    1.67
  -7   4   2    4.24    1.40
   6  -4  -2    5.58    1.24
   6  -4  -2    5.20    1.37
  -6   4   2    3.94    1.11
  -6   4   2    1.71    1.12
  -6   4   2    3.86    1.05
  -6   4   2    6.34    1.28
   5  -4  -2   19.01    2.09
   5  -4  -2   26.60    2.01
  -5   4   2   21.66    2.02
  -5   4   2   25.03    2.54
  -5   4   2   23.27    2.20
  -5   4   2   25.67    1.99
   4  -4  -2    0.62    0.62
   4  -4  -2   -0.18    0.43
   4  -4  -2    0.15    0.60
  -4   4   2    0.77    0.71
  -4   4   2    0.29    0.66
  -4   4   2    0.16    0.68
  -4   4   2    2.48    0.75
   3  -4  -2   12.79    1.38
   3  -4  -2   11.82    1.39
   3  -4  -2   13.41    1.47
   3  -4  -2   14.41    1.46
  -3   4   2   10.98    1.29
  -3   4   2   12.76    1.34
  -3   4   2   14.17    1.63
  -3   4   2   11.98    1.39
   2  -4  -2   19.57    1.45
   2  -4  -2   15.01    1.42
   2  -4  -2   15.53    1.49
   2  -4  -2   16.69    1.51
  -2   4   2   18.30    1.72
  -2   4   2   17.64    1.34
  -2   4   2   17.21    1.32
  -2   4   2   14.88    1.19
   1  -4  -2    3.80    0.76
   1  -4  -2    3.25    0.69
   1  -4  -2    3.80    0.78
  -1   4   2    3.70    0.75
  -1   4   2    3.50    0.72
  -1   4   2    4.66    0.80
  -1   4   2    2.78    0.64
   0  -4  -2   65.06    2.69
   0  -4  -2   66.41    2.86
   0  -4  -2   63.34    2.92
   0  -4  -2   63.80    2.70
   0  -4  -2   66.25    2.76
   0   4   2   64.23    1.96
   0   4   2   68.38    2.94
   0   4   2   66.87    2.81
  -1  -4  -2   23.61    1.10
  -1  -4  -2   23.59    1.49
  -1  -4  -2   27.17    1.55
  -1  -4  -2   28.06    1.68
  -1  -4  -2   21.96    1.30
  -1  -4  -2   26.91    1.64
   1   4   2   25.94    1.62
   1   4   2   24.93    1.53
  -2  -4  -2    0.39    0.47
  -2  -4  -2    0.64    0.52
  -2  -4  -2    0.08    0.29
  -2  -4  -2    0.56    0.44
  -2  -4  -2    0.06    0.34
  -2  -4  -2    0.32    0.43
  -2  -4  -2    0.08    0.46
   2   4   2    0.46    0.51
  -3  -4  -2   80.68    3.20
  -3  -4  -2   76.49    3.19
  -3  -4  -2   79.14    3.56
  -3  -4  -2   80.86    3.47
  -3  -4  -2   80.72    3.31
  -3  -4  -2   76.26    3.37
   3   4   2   75.09    3.39
  -4  -4  -2    0.36    0.65
  -4  -4  -2    0.34    0.54
  -4  -4  -2   -0.57    0.43
  -4  -4  -2   -0.01    0.48
  -4  -4  -2    0.11    0.55
  -4  -4  -2    0.29    0.44
  -5  -4  -2    0.89    0.67
  -5  -4  -2    0.32    0.77
  -5  -4  -2    1.51    0.87
  -5  -4  -2   -0.04    0.59
  -5  -4  -2    0.70    0.68
  -6  -4  -2    0.99    0.81
  -6  -4  -2    2.34    1.00
  -6  -4  -2    2.20    0.92
  -6  -4  -2    2.06    0.91
  -6  -4  -2    0.23    0.76
  -7  -4  -2   -0.22    0.73
  -7  -4  -2   -0.25    0.67
  -7  -4  -2   -0.02    0.83
  -7  -4  -2    0.49    0.94
  -7  -4  -2    0.32    0.78
   7  -5  -2    0.85    1.20
   7  -5  -2    0.81    0.95
  -7   5   2    0.42    1.05
  -7   5   2   -1.77    0.76
  -7   5   2    1.50    1.18
   6  -5  -2    0.49    0.84
   6  -5  -2    1.63    0.96
  -6   5   2    0.95    0.90
  -6   5   2    0.93    0.96
  -6   5   2    1.47    1.06
   5  -5  -2   36.68    2.59
   5  -5  -2   33.81    2.53
  -5   5   2   41.17    2.93
  -5   5   2   39.66    2.60
  -5   5   2   38.69    2.64
  -5   5   2   39.01    2.41
   4  -5  -2    4.65    1.02
   4  -5  -2    3.45    0.89
   4  -5  -2    3.19    0.92
   4  -5  -2    3.15    1.06
  -4   5   2    5.11    1.15
  -4   5   2    6.83    1.44
  -4   5   2    6.26    1.21
  -4   5   2    5.85    1.15
   3  -5  -2    8.59    1.29
   3  -5  -2    9.78    1.36
   3  -5  -2    8.83    1.28
   3  -5  -2    9.43    1.42
  -3   5   2   10.71    1.48
  -3   5   2    9.20    1.32
  -3   5   2   10.42    1.37
  -3   5   2   11.30    1.60
   2  -5  -2    0.85    0.69
   2  -5  -2    1.74    0.67
   2  -5  -2    1.30    0.68
   2  -5  -2    1.02    0.54
  -2   5   2    0.46    0.50
  -2   5   2    0.88    0.68
  -2   5   2    2.00    0.78
  -2   5   2    1.42    0.69
   1  -5  -2    9.23    1.18
   1  -5  -2    7.23    1.12
   1  -5  -2    4.98    0.95
  -1   5   2    5.78    1.05
  -1   5   2    7.02    1.03
  -1   5   2    5.77    1.07
  -1   5   2    9.31    1.23
   0  -5  -2    0.94    0.51
   0  -5  -2    0.68    0.55
   0  -5  -2    0.09    0.41
   0  -5  -2    0.28    0.40
   0   5   2    0.21    0.51
   0   5   2    0.68    0.64
  -1  -5  -2    6.31    1.09
  -1  -5  -2    6.50    1.10
  -1  -5  -2    6.99    0.98
  -1  -5  -2    5.26    1.03
  -1  -5  -2    5.58    0.97
   1   5   2    6.16    1.06
   1   5   2    5.27    1.00
  -2  -5  -2   11.06    1.33
  -2  -5  -2    9.37    1.23
  -2  -5  -2   10.89    1.07
  -2  -5  -2   10.10    1.40
  -2  -5  -2   11.11    1.48
  -2  -5  -2   10.17    1.33
   2   5   2   12.35    1.53
  -3  -5  -2   38.95    2.13
  -3  -5  -2   40.74    2.58
  -3  -5  -2   43.69    2.47
  -3  -5  -2   47.11    2.45
  -3  -5  -2   40.88    2.39
  -3  -5  -2   46.07    2.58
   3   5   2   43.04    2.56
  -4  -5  -2    4.64    1.11
  -4  -5  -2    3.59    0.95
  -4  -5  -2    5.37    1.11
  -4  -5  -2    4.74    1.10
  -4  -5  -2    4.00    1.07
   4   5   2    4.41    1.06
  -5  -5  -2    1.68    0.83
  -5  -5  -2   -0.86    0.63
  -5  -5  -2   -0.04    0.66
  -5  -5  -2    0.74    0.70
  -5  -5  -2    1.77    0.79
   5   5   2    1.13    0.81
  -6  -5  -2   10.51    1.67
  -6  -5  -2   10.30    1.84
  -6  -5  -2   10.04    1.73
  -6  -5  -2    8.84    1.61
  -6  -5  -2   10.39    1.64
   6   5   2    9.21    1.74
  -7  -5  -2   16.51    2.26
  -7  -5  -2   15.49    2.29
  -7  -5  -2   19.15    2.51
  -7  -5  -2   14.04    2.32
  -7  -5  -2   15.29    2.04
   7   5   2   12.61    2.11
   6  -6  -2    0.83    1.06
   6  -6  -2   -0.16    0.91
  -6   6   2    1.73    1.18
  -6   6   2    1.65    1.16
  -6   6   2    1.82    1.26
   5  -6  -2   -0.23    0.80
   5  -6  -2    2.16    1.00
  -5   6   2    0.63    0.86
  -5   6   2    0.47    0.84
  -5   6   2    2.19    1.01
  -5   6   2    1.22    1.03
   4  -6  -2    1.84    0.95
   4  -6  -2    0.41    0.76
   4  -6  -2    0.60    0.84
   4  -6  -2    1.58    0.86
  -4   6   2    2.35    0.83
  -4   6   2   -0.08    0.71
  -4   6   2    1.30    0.99
  -4   6   2    2.49    0.91
   3  -6  -2   45.69    2.64
   3  -6  -2   42.52    2.71
   3  -6  -2   44.85    2.59
   3  -6  -2   40.44    2.64
  -3   6   2   41.79    2.59
  -3   6   2   43.85    2.65
  -3   6   2   37.86    2.76
  -3   6   2   41.41    2.51
   2  -6  -2    1.59    0.78
   2  -6  -2   -0.43    0.54
   2  -6  -2    1.05    0.70
   2  -6  -2    0.33    0.53
  -2   6   2   -0.61    0.45
  -2   6   2    0.78    0.61
  -2   6   2    1.95    0.96
  -2   6   2    0.48    0.68
   1  -6  -2   14.64    1.69
   1  -6  -2   10.69    1.42
   1  -6  -2   15.20    1.79
  -1   6   2   13.99    1.57
  -1   6   2   14.21    1.76
  -1   6   2   17.00    1.88
  -1   6   2   12.98    1.55
   0  -6  -2   31.36    2.07
   0  -6  -2   33.09    2.28
   0  -6  -2   31.45    2.02
   0  -6  -2   32.77    2.27
   0   6   2   28.81    2.17
   0   6   2   34.51    2.13
   0   6   2   37.64    2.33
  -1  -6  -2  101.67    4.74
  -1  -6  -2  106.85    4.58
  -1  -6  -2  109.31    4.42
  -1  -6  -2  100.57    4.05
  -1  -6  -2  105.52    4.52
   1   6   2  104.85    4.58
   1   6   2  105.38    4.69
  -2  -6  -2    5.61    1.20
  -2  -6  -2    9.32    1.42
  -2  -6  -2    7.01    1.24
  -2  -6  -2    6.20    1.21
   2   6   2    6.58    1.39
   2   6   2    5.56    1.21
  -3  -6  -2    0.65    0.66
  -3  -6  -2    0.12    0.65
  -3  -6  -2    1.58    0.85
  -3  -6  -2    0.72    0.74
  -3  -6  -2    0.87    0.72
   3   6   2   -0.15    0.60
  -4  -6  -2   -1.15    0.48
  -4  -6  -2   -0.02    0.58
  -4  -6  -2    0.51    0.80
  -4  -6  -2   -0.79    0.66
  -4  -6  -2    0.21    0.77
   4   6   2    1.12    0.93
  -5  -6  -2    1.64    0.82
  -5  -6  -2    7.71    1.56
  -5  -6  -2    2.29    0.95
  -5  -6  -2    2.55    1.07
   5   6   2    3.35    1.23
  -6  -6  -2    0.78    0.89
  -6  -6  -2    1.30    1.03
  -6  -6  -2    1.85    1.07
  -6  -6  -2    1.77    0.93
   6   6   2    1.61    1.03
   5  -7  -2   12.14    2.06
   5  -7  -2    8.01    1.57
  -5   7   2    7.81    1.92
  -5   7   2    8.71    1.82
  -5   7   2   10.03    1.83
   4  -7  -2    0.35    0.83
   4  -7  -2    2.63    1.15
   4  -7  -2    2.41    0.96
   4  -7  -2    3.80    1.18
  -4   7   2    4.42    1.48
  -4   7   2    1.61    0.90
  -4   7   2    1.97    0.94
  -4   7   2    1.60    1.04
   3  -7  -2    5.84    1.31
   3  -7  -2    6.07    1.42
   3  -7  -2    6.14    1.35
  -3   7   2    6.87    1.61
  -3   7   2    6.73    1.43
  -3   7   2    4.64    1.16
  -3   7   2    4.63    1.22
   2  -7  -2   -0.01    0.61
   2  -7  -2    1.60    0.85
   2  -7  -2   -0.08    0.59
  -2   7   2    1.46    0.81
  -2   7   2    1.42    0.91
  -2   7   2   -0.07    0.63
  -2   7   2    1.07    0.91
   1  -7  -2    2.19    0.90
   1  -7  -2    2.70    1.02
   1  -7  -2    1.79    0.91
  -1   7   2    3.40    1.18
  -1   7   2    1.17    0.92
  -1   7   2    1.29    0.79
  -1   7   2    1.98    0.97
   0  -7  -2   -0.51    0.62
   0  -7  -2    1.08    0.66
   0  -7  -2    0.10    0.54
   0   7   2    0.04    0.69
   0   7   2   -1.05    0.59
   0   7   2    0.17    0.69
  -1  -7  -2    7.15    1.21
  -1  -7  -2    9.20    1.53
  -1  -7  -2   10.26    1.78
  -1  -7  -2    9.14    1.58
   1   7   2   13.40    1.89
   1   7   2   11.85    1.82
  -2  -7  -2    1.90    0.91
  -2  -7  -2   -0.95    0.73
  -2  -7  -2   -0.04    0.59
  -2  -7  -2    0.06    0.74
   2   7   2    2.77    1.13
   2   7   2    0.71    0.84
  -3  -7  -2    5.72    1.37
  -3  -7  -2    8.34    1.58
  -3  -7  -2    6.59    1.47
  -3  -7  -2    7.86    1.46
   3   7   2    7.27    1.52
   3   7   2    5.82    1.41
  -4  -7  -2    0.68    0.95
  -4  -7  -2    0.31    0.77
  -4  -7  -2    0.79    0.94
  -4  -7  -2    1.60    0.88
  -4  -7  -2    0.77    0.79
   4   7   2    1.09    0.95
  -5  -7  -2    9.12    1.67
  -5  -7  -2    7.19    1.59
  -5  -7  -2    6.27    1.50
  -5  -7  -2    4.38    1.38
   5   7   2    6.26    1.54
   3  -8  -2   -0.40    0.76
   3  -8  -2    3.75    1.31
   3  -8  -2    3.09    1.25
  -3   8   2    3.63    1.46
  -3   8   2    2.70    1.11
  -3   8   2    3.65    1.23
  -3   8   2    0.99    0.89
   2  -8  -2    2.55    1.09
   2  -8  -2    2.23    1.15
   2  -8  -2    1.91    1.10
  -2   8   2    0.10    1.06
  -2   8   2    2.92    1.09
  -2   8   2    1.84    0.92
  -2   8   2    0.13    0.91
   1  -8  -2   14.69    1.93
   1  -8  -2   21.08    2.27
   1  -8  -2   19.57    2.43
  -1   8   2   18.06    2.05
  -1   8   2   18.35    2.32
  -1   8   2   15.40    2.16
  -1   8   2   14.83    1.94
   0  -8  -2    1.35    0.80
   0  -8  -2    0.04    0.71
   0  -8  -2    0.85    0.89
   0   8   2    2.68    1.18
   0   8   2    0.64    0.81
   0   8   2    0.65    0.99
   0   8   2    1.56    0.91
  -1  -8  -2    5.38    1.32
  -1  -8  -2    6.21    1.47
  -1  -8  -2    8.42    1.60
   1   8   2    6.86    1.57
   1   8   2    8.24    1.62
  -2  -8  -2    7.46    1.50
  -2  -8  -2    9.07    1.66
  -2  -8  -2    6.23    1.59
  -2  -8  -2    9.98    1.97
   2   8   2    6.12    1.63
   2   8   2    9.40    1.88
  -3  -8  -2    3.16    1.19
  -3  -8  -2    4.40    1.30
  -3  -8  -2    4.31    1.28
  -3  -8  -2    2.62    1.06
   3   8   2    3.08    1.39
   3   8   2    3.42    1.38
  -4  -8  -2   -0.79    0.83
  -4  -8  -2    0.69    1.00
  -4  -8  -2   -0.04    0.76
  -4  -8  -2   -0.81    0.72
   4   8   2   -0.01    1.01
   4   8   2    2.33    1.30
   0  -9  -2   -0.71    0.77
   0  -9  -2    0.68    1.00
   0  -9  -2   -0.53    0.91
   0   9   2    1.40    1.11
   0   9   2   -0.63    0.96
   0   9   2    0.94    1.02
   0   9   2    1.38    1.05
   1   8  -3   23.22    2.69
   1   8  -3   26.98    2.97
  -1  -8   3   21.06    2.60
  -1  -8   3   29.72    2.82
  -1  -8   3   29.69    3.09
   0   8  -3    0.96    1.29
   0   8  -3    1.32    1.06
   0  -8   3    3.81    1.28
   0  -8   3    2.79    1.08
  -1   8  -3    1.17    1.12
   1  -8   3    2.17    1.14
   1  -8   3    0.52    0.85
  -2   8  -3    0.48    0.94
   2  -8   3    0.64    0.90
   2  -8   3   -0.93    0.73
   3   7  -3   -1.67    1.08
   3   7  -3    1.00    0.93
  -3  -7   3   -0.16    0.80
  -3  -7   3    1.79    1.03
  -3  -7   3    0.44    0.93
  -3  -7   3   -0.17    0.80
  -3  -7   3    0.52    0.82
   2   7  -3    2.78    1.14
   2   7  -3    4.76    1.51
  -2  -7   3    6.52    1.41
  -2  -7   3    5.67    1.52
  -2  -7   3   10.18    1.82
  -2  -7   3    5.34    1.33
   1   7  -3    9.64    1.61
   1   7  -3   13.41    2.03
  -1  -7   3   13.66    1.82
  -1  -7   3   11.52    1.89
  -1  -7   3   12.05    1.79
  -1  -7   3    9.47    1.74
   0   7  -3    3.23    1.24
   0   7  -3    4.10    1.19
   0  -7   3    5.86    1.43
   0  -7   3    4.51    1.13
   0  -7   3    3.39    1.01
  -1   7  -3    0.23    0.81
  -1   7  -3    0.61    0.97
   1  -7   3    1.03    0.86
   1  -7   3    0.96    0.92
   1  -7   3    0.13    0.65
  -2   7  -3    1.23    0.92
  -2   7  -3    0.73    0.83
   2  -7   3   -0.69    0.74
   2  -7   3   -0.10    0.79
  -3   7  -3   14.53    2.19
  -3   7  -3   14.11    2.30
   3  -7   3   15.51    2.15
   3  -7   3   18.90    2.25
  -4   7  -3    0.17    0.84
   4  -7   3    0.17    0.78
   4  -7   3   -0.37    0.76
   5   6  -3    4.08    1.31
  -5  -6   3    4.12    1.26
  -5  -6   3    5.06    1.37
  -5  -6   3    2.47    1.27
  -5  -6   3    4.29    1.49
   4   6  -3    0.66    1.01
  -4  -6   3    1.65    0.93
  -4  -6   3    3.47    1.35
  -4  -6   3    2.02    1.06
  -4  -6   3    0.69    1.11
  -4  -6   3    1.10    0.83
   3   6  -3    2.95    1.21
  -3  -6   3    4.62    1.17
  -3  -6   3    5.40    1.38
  -3  -6   3    2.29    0.93
  -3  -6   3    3.95    1.15
  -3  -6   3    2.98    1.05
   2   6  -3    9.23    1.72
   2   6  -3    6.59    1.34
  -2  -6   3    6.89    1.37
  -2  -6   3    6.58    1.40
  -2  -6   3    7.63    1.48
  -2  -6   3    5.55    1.25
  -2  -6   3    9.74    1.50
   1   6  -3    5.23    1.39
   1   6  -3    3.72    1.06
  -1  -6   3    6.52    1.26
  -1  -6   3    5.11    1.17
  -1  -6   3    7.26    1.45
  -1  -6   3    7.42    1.30
   0   6  -3    2.68    1.12
   0   6  -3    2.70    0.91
   0  -6   3    5.11    1.07
   0  -6   3    4.47    1.03
   0  -6   3    4.38    0.98
   0  -6   3    3.03    0.97
   0  -6   3    2.64    0.97
  -1   6  -3    8.22    1.47
  -1   6  -3    5.29    1.11
   1  -6   3    6.61    1.09
   1  -6   3    5.88    1.37
   1  -6   3    9.55    1.51
  -2   6  -3    7.25    1.48
  -2   6  -3    5.32    1.22
   2  -6   3    5.10    1.21
   2  -6   3    7.45    1.44
  -3   6  -3   14.44    2.08
  -3   6  -3   17.28    2.12
   3  -6   3   15.45    1.93
   3  -6   3   16.69    2.11
  -4   6  -3    0.96    0.96
  -4   6  -3    3.90    1.25
   4  -6   3    2.27    0.95
   4  -6   3    0.95    0.92
  -5   6  -3   18.28    2.40
  -5   6  -3   18.79    2.42
   5  -6   3   20.41    2.35
   5  -6   3   23.41    2.71
  -6   6  -3    3.89    1.48
   6  -6   3    3.20    1.15
   6  -6   3    2.93    1.41
   6   5  -3    0.51    1.05
  -6  -5   3   -0.44    0.99
  -6  -5   3    2.94    1.32
  -6  -5   3    2.15    1.14
  -6  -5   3    1.98    1.29
  -6  -5   3    2.66    1.16
   5   5  -3    2.38    1.16
  -5  -5   3    1.50    0.98
  -5  -5   3    1.57    1.04
  -5  -5   3    0.32    1.00
  -5  -5   3    1.62    1.04
  -5  -5   3    2.25    1.05
   4   5  -3   26.10    2.53
  -4  -5   3   19.94    2.27
  -4  -5   3   27.59    2.73
  -4  -5   3   24.85    2.57
  -4  -5   3   26.77    2.43
  -4  -5   3   22.52    2.44
   3   5  -3    1.52    0.89
  -3  -5   3    1.59    0.88
  -3  -5   3    2.54    0.99
  -3  -5   3    1.88    0.85
  -3  -5   3    2.24    0.83
   2   5  -3   -0.11    0.65
  -2  -5   3    0.96    0.75
  -2  -5   3    0.04    0.51
  -2  -5   3    0.16    0.56
  -2  -5   3   -0.76    0.59
   1   5  -3   28.56    1.99
   1   5  -3   29.03    2.15
  -1  -5   3   32.00    2.02
  -1  -5   3   30.29    2.00
  -1  -5   3   29.98    2.03
   0   5  -3   11.31    1.52
   0   5  -3   13.79    1.51
   0  -5   3   10.87    1.41
   0  -5   3   11.06    1.37
   0  -5   3   12.82    1.48
   0  -5   3   13.91    1.52
  -1   5  -3    1.46    0.89
  -1   5  -3    2.15    0.75
   1  -5   3    1.28    0.60
   1  -5   3    1.35    0.68
   1  -5   3    3.86    0.95
   1  -5   3    1.68    0.78
  -2   5  -3    5.38    1.21
  -2   5  -3    3.87    1.01
   2  -5   3    3.32    1.01
   2  -5   3    3.91    1.05
   2  -5   3    3.22    0.89
   2  -5   3    4.01    0.84
  -3   5  -3   33.26    2.42
  -3   5  -3   29.73    2.11
   3  -5   3   32.25    2.07
   3  -5   3   34.67    2.36
   3  -5   3   32.61    2.16
  -4   5  -3   17.82    2.19
  -4   5  -3   10.39    1.58
   4  -5   3   16.95    1.75
   4  -5   3   15.73    2.06
   4  -5   3   19.74    2.05
  -5   5  -3    0.19    0.82
  -5   5  -3    1.42    0.95
   5  -5   3    0.41    0.86
   5  -5   3   -0.02    0.86
  -6   5  -3   -0.11    0.79
  -6   5  -3    0.37    1.04
   6  -5   3   -0.17    0.91
   6  -5   3    0.17    0.88
   6   4  -3   -0.43    0.79
  -6  -4   3   -0.13    0.85
  -6  -4   3    0.92    0.95
  -6  -4   3    1.38    0.79
  -6  -4   3    0.40    0.89
  -6  -4   3    1.15    0.94
   5   4  -3   11.21    1.69
  -5  -4   3    8.48    1.58
  -5  -4   3    9.62    1.68
  -5  -4   3   10.17    1.76
  -5  -4   3   10.96    1.64
  -5  -4   3   13.20    1.87
   4   4  -3   42.81    2.52
  -4  -4   3   40.89    2.52
  -4  -4   3   41.30    2.72
  -4  -4   3   45.56    2.80
  -4  -4   3   47.20    2.88
  -4  -4   3   40.38    2.60
   3   4  -3   -0.13    0.53
  -3  -4   3    0.32    0.58
  -3  -4   3    0.58    0.62
  -3  -4   3    0.02    0.45
  -3  -4   3    0.59    0.61
  -3  -4   3   -0.70    0.49
   2   4  -3   18.30    1.77
  -2  -4   3   23.37    1.68
  -2  -4   3   22.87    1.59
  -2  -4   3   20.60    1.63
  -2  -4   3   21.67    2.00
  -2  -4   3   18.55    1.83
   1   4  -3   -0.11    0.46
  -1  -4   3   -0.60    0.49
  -1  -4   3   -0.05    0.42
  -1  -4   3    0.38    0.61
  -1  -4   3    0.24    0.53
  -1  -4   3    0.66    0.48
   0   4  -3    9.46    1.15
   0   4  -3    9.20    1.21
   0  -4   3    9.90    1.19
   0  -4   3    9.16    1.16
   0  -4   3   11.31    1.18
   0  -4   3    9.97    0.95
   0  -4   3   10.04    1.17
  -1   4  -3    0.34    0.53
   1  -4   3    1.01    0.59
   1  -4   3    1.32    0.46
   1  -4   3    0.63    0.44
   1  -4   3    2.00    0.61
  -2   4  -3    5.53    0.92
  -2   4  -3    4.64    0.96
   2  -4   3    5.34    0.96
   2  -4   3    3.66    0.93
   2  -4   3    4.63    0.73
   2  -4   3    3.92    0.94
  -3   4  -3   11.29    1.40
  -3   4  -3    9.96    1.49
   3  -4   3   13.42    1.39
   3  -4   3   11.08    1.34
   3  -4   3   13.87    1.64
   3  -4   3   12.14    1.42
  -4   4  -3   -0.13    0.75
  -4   4  -3    1.04    0.76
   4  -4   3    1.43    0.73
   4  -4   3    0.80    0.65
   4  -4   3    0.60    0.51
  -5   4  -3   18.77    2.26
  -5   4  -3   19.68    2.18
   5  -4   3   22.43    2.32
   5  -4   3   20.69    2.23
  -6   4  -3   18.08    2.29
  -6   4  -3   19.40    2.39
   6  -4   3   17.87    2.21
   6  -4   3   16.30    2.13
  -7   4  -3    8.06    1.73
  -7   4  -3    5.14    1.55
   7  -4   3    7.17    1.58
   7  -4   3    4.17    1.50
  -7  -3   3    0.86    1.08
  -7  -3   3    1.11    0.87
  -7  -3   3    2.07    1.05
  -7  -3   3    0.04    1.07
  -7  -3   3    0.97    1.17
   6   3  -3    6.55    1.40
  -6  -3   3    3.72    1.25
  -6  -3   3    8.23    1.58
  -6  -3   3    3.58    1.19
  -6  -3   3    5.23    1.25
  -6  -3   3    3.15    0.99
   5   3  -3   -0.25    0.55
  -5  -3   3    0.58    0.68
  -5  -3   3    0.09    0.81
  -5  -3   3    0.14    0.63
  -5  -3   3   -0.29    0.67
  -5  -3   3    1.61    0.73
   4   3  -3    9.20    1.34
  -4  -3   3    9.79    1.45
  -4  -3   3    9.75    1.39
  -4  -3   3   12.12    1.61
  -4  -3   3   11.07    1.57
  -4  -3   3   10.64    1.57
   3   3  -3    0.32    0.51
  -3  -3   3   -0.27    0.46
  -3  -3   3    0.09    0.49
  -3  -3   3    0.43    0.69
  -3  -3   3    0.90    0.62
  -3  -3   3    0.52    0.51
   2   3  -3    9.28    1.12
  -2  -3   3    9.98    0.94
  -2  -3   3   10.79    1.25
  -2  -3   3    9.29    1.22
  -2  -3   3   10.74    1.31
  -2  -3   3   10.75    1.21
  -2  -3   3    9.43    1.12
   1   3  -3    6.14    0.91
  -1  -3   3    7.10    0.97
  -1  -3   3    6.49    0.89
  -1  -3   3    4.86    0.81
  -1  -3   3    5.08    0.80
  -1  -3   3    7.13    0.89
   0   3  -3    5.23    0.82
   0  -3   3    4.67    0.77
   0  -3   3    4.79    0.81
   0  -3   3    3.99    0.61
   0  -3   3    6.32    0.82
   0  -3   3    4.71    0.70
  -1   3  -3    2.95    0.58
  -1   3  -3    2.45    0.61
   1  -3   3    2.76    0.53
   1  -3   3    3.18    0.75
   1  -3   3    2.03    0.62
   1  -3   3    2.94    0.52
  -2   3  -3  140.98    5.02
  -2   3  -3  145.81    4.64
   2  -3   3  139.71    4.40
   2  -3   3  144.79    4.85
   2  -3   3  139.79    4.61
   2  -3   3  149.24    5.03
  -3   3  -3    1.56    0.77
  -3   3  -3    1.92    0.65
  -3   3  -3    1.12    0.49
   3  -3   3    1.62    0.58
   3  -3   3    1.66    0.59
   3  -3   3    1.05    0.62
   3  -3   3    2.29    0.56
   3  -3   3    2.43    0.69
  -4   3  -3    0.37    0.52
  -4   3  -3   -0.25    0.50
  -4   3  -3    0.72    0.62
  -4   3  -3   -0.65    0.54
   4  -3   3    0.54    0.59
   4  -3   3    0.55    0.45
   4  -3   3   -0.75    0.45
   4  -3   3    0.38    0.60
   4  -3   3    0.36    0.45
  -5   3  -3    5.04    1.00
  -5   3  -3    5.05    1.18
  -5   3  -3    5.23    1.19
  -5   3  -3    6.63    1.14
   5  -3   3    4.85    0.96
   5  -3   3    5.69    1.14
   5  -3   3    8.92    1.37
  -6   3  -3   11.67    1.80
  -6   3  -3   15.18    1.72
  -6   3  -3   13.56    1.89
   6  -3   3   12.45    1.82
   6  -3   3   14.97    1.90
  -7   3  -3    2.18    1.03
  -7   3  -3    1.40    1.03
   7  -3   3    2.57    1.12
   7  -3   3    3.75    1.17
  -8   3  -3   -0.55    0.97
  -8   3  -3   -1.21    0.88
   8  -3   3   -0.35    0.78
  -7  -2   3   -0.24    0.85
  -7  -2   3    0.92    0.92
  -7  -2   3    0.64    0.86
  -7  -2   3   -1.44    0.77
  -7  -2   3   -0.01    0.79
  -6  -2   3   20.91    2.16
  -6  -2   3   21.25    2.33
  -6  -2   3   16.09    2.10
  -6  -2   3   17.86    2.29
  -6  -2   3   20.01    2.35
  -5  -2   3    4.59    0.99
  -5  -2   3    4.14    1.08
  -5  -2   3    6.42    1.32
  -5  -2   3    6.08    1.33
  -5  -2   3    3.96    1.13
  -4  -2   3   44.45    2.64
  -4  -2   3   49.78    2.72
  -4  -2   3   49.00    2.42
  -4  -2   3   48.98    2.71
  -4  -2   3   47.30    2.69
   3   2  -3   24.55    1.44
  -3  -2   3   20.05    1.36
  -3  -2   3   22.29    1.54
  -3  -2   3   17.97    1.45
  -3  -2   3   20.23    1.53
  -3  -2   3   18.45    1.49
  -2  -2   3    1.92    0.54
  -2  -2   3    1.01    0.43
  -2  -2   3    2.65    0.64
  -2  -2   3    1.48    0.56
  -2  -2   3    1.23    0.52
  -1  -2   3   11.59    0.86
  -1  -2   3   11.11    0.88
  -1  -2   3   11.45    1.05
  -1  -2   3   12.93    1.02
  -1  -2   3   12.00    1.12
   0   2  -3   29.77    1.40
   0  -2   3   28.51    1.40
   0  -2   3   29.19    1.42
  -1   2  -3   15.90    1.03
   1  -2   3   13.20    0.88
   1  -2   3   13.65    0.81
  -2   2  -3   -0.39    0.26
  -2   2  -3   -0.22    0.34
  -2   2  -3    0.21    0.30
   2  -2   3    0.21    0.36
   2  -2   3   -0.21    0.28
  -3   2  -3   28.83    1.75
  -3   2  -3   31.29    1.64
  -3   2  -3   31.32    1.59
   3  -2   3   27.74    1.68
   3  -2   3   29.64    1.60
   3  -2   3   27.20    1.65
   3  -2   3   28.22    1.53
  -4   2  -3   30.84    1.82
  -4   2  -3   29.45    1.84
  -4   2  -3   32.19    1.99
   4  -2   3   29.07    1.82
   4  -2   3   27.53    1.90
   4  -2   3   32.25    1.54
   4  -2   3   30.96    1.76
  -5   2  -3    0.78    0.67
  -5   2  -3    0.01    0.49
  -5   2  -3   -0.18    0.54
  -5   2  -3   -0.06    0.64
   5  -2   3    0.38    0.56
   5  -2   3   -0.31    0.49
   5  -2   3    0.74    0.61
  -6   2  -3    3.37    0.99
  -6   2  -3    1.22    0.76
  -6   2  -3    1.84    0.85
  -6   2  -3    1.59    0.95
   6  -2   3    3.00    0.88
   6  -2   3    4.87    1.05
   6  -2   3    1.04    0.72
  -7   2  -3    1.81    0.93
  -7   2  -3   -0.31    0.83
  -7   2  -3    1.30    0.92
  -7   2  -3    2.58    1.07
   7  -2   3    1.52    0.99
   7  -2   3   -0.41    0.56
  -8   2  -3   16.51    2.33
  -8   2  -3   13.01    2.14
  -8   2  -3   11.30    2.00
   8  -2   3   13.00    2.06
  -7  -1   3    5.23    1.42
  -7  -1   3    9.01    1.67
  -7  -1   3    6.92    1.46
  -7  -1   3    9.52    1.58
  -7  -1   3    4.48    1.39
  -6  -1   3    6.24    1.40
  -6  -1   3    6.34    1.20
  -6  -1   3    6.66    1.43
  -6  -1   3    6.57    1.38
  -6  -1   3    6.00    1.30
   5   1  -3    2.35    0.80
  -5  -1   3    1.03    0.76
  -5  -1   3    1.64    0.75
  -5  -1   3    2.39    0.92
  -5  -1   3    3.21    1.01
  -5  -1   3    2.79    0.94
   4   1  -3   54.36    2.40
  -4  -1   3   56.15    2.97
  -4  -1   3   57.08    2.79
  -4  -1   3   52.84    2.76
  -4  -1   3   53.67    2.49
  -4  -1   3   55.19    2.81
  -3  -1   3    6.41    0.98
  -3  -1   3    8.68    1.13
  -3  -1   3    6.65    0.83
  -3  -1   3    5.35    0.95
  -3  -1   3    6.33    1.00
  -2  -1   3   11.08    1.11
  -2  -1   3   11.52    0.79
  -2  -1   3   13.20    1.23
  -2  -1   3   12.10    0.99
  -2  -1   3   10.63    1.09
  -1  -1   3   21.35    1.22
  -1  -1   3   22.26    1.23
   0  -1   3   94.91    3.17
   0  -1   3   90.36    3.02
  -1   1  -3    0.17    0.34
   1  -1   3   -0.48    0.25
  -2   1  -3    3.26    0.61
  -2   1  -3    3.43    0.59
   2  -1   3    4.36    0.63
  -3   1  -3    3.49    0.70
  -3   1  -3    4.04    0.70
  -3   1  -3    5.96    0.87
   3  -1   3    4.19    0.73
   3  -1   3    4.49    0.74
   3  -1   3    4.30    0.73
  -4   1  -3    3.25    0.80
  -4   1  -3    2.97    0.72
  -4   1  -3    2.88    0.75
  -4   1  -3    4.37    0.88
   4  -1   3    4.05    0.86
   4  -1   3    4.02    0.78
   4  -1   3    4.17    0.81
  -5   1  -3    0.72    0.55
  -5   1  -3    0.99    0.73
  -5   1  -3   -0.60    0.46
  -5   1  -3   -0.36    0.61
   5  -1   3   -0.82    0.45
   5  -1   3   -0.33    0.47
   5  -1   3    0.03    0.59
  -6   1  -3   13.41    1.81
  -6   1  -3   10.10    1.51
  -6   1  -3    8.03    1.43
  -6   1  -3    7.38    1.32
   6  -1   3    9.52    1.23
   6  -1   3   10.47    1.51
  -7   1  -3    3.31    1.22
  -7   1  -3    1.86    1.09
  -7   1  -3    2.45    1.14
  -7   1  -3    1.49    0.91
   7  -1   3    2.27    1.10
  -8   1  -3   15.93    2.22
  -8   1  -3   14.74    2.32
  -8   1  -3   12.20    1.93
  -8   1  -3   16.52    2.24
   8  -1   3   16.74    2.38
   8   0  -3   25.72    2.79
  -8   0   3   25.34    2.77
  -8   0   3   28.21    3.26
   7   0  -3    4.17    1.26
  -7   0   3    7.52    1.84
  -7   0   3    8.68    1.68
  -7   0   3    5.49    1.30
  -7   0   3    6.18    1.37
  -7   0   3    8.56    1.56
   6   0  -3   14.43    1.73
  -6   0   3   18.31    2.00
  -6   0   3   18.48    2.37
  -6   0   3   16.52    1.84
  -6   0   3   14.69    1.80
  -6   0   3   15.61    2.02
   5   0  -3   23.73    2.05
  -5   0   3   18.07    1.89
  -5   0   3   18.81    2.02
  -5   0   3   16.71    1.68
  -5   0   3   16.60    1.78
  -5   0   3   19.24    2.20
   4   0  -3   10.23    1.21
  -4   0   3   10.41    1.34
  -4   0   3   11.19    1.38
  -4   0   3    9.20    1.12
  -4   0   3   13.85    1.42
  -4   0   3    9.06    1.40
  -4   0   3   11.78    1.39
   3   0  -3   44.04    1.75
  -3   0   3   45.65    2.05
  -3   0   3   42.87    2.13
  -3   0   3   41.43    1.88
  -3   0   3   46.57    2.32
  -3   0   3   44.81    2.27
  -3   0   3   43.61    2.19
  -2   0   3   16.49    1.19
  -2   0   3   15.59    1.11
  -2   0   3   16.45    1.15
  -1   0   3   16.92    1.05
  -1   0   3   17.82    1.07
   0   0   3   73.52    2.60
  -1   0  -3    0.73    0.37
   1   0   3    0.29    0.35
  -2   0  -3   38.02    1.66
  -2   0  -3   33.74    1.61
   2   0   3   37.32    1.64
  -3   0  -3   24.83    1.48
  -3   0  -3   24.78    1.51
  -3   0  -3   25.39    1.50
  -4   0  -3    0.49    0.50
  -4   0  -3    0.90    0.60
  -4   0  -3    0.67    0.49
  -4   0  -3    0.43    0.50
   4   0   3    0.53    0.52
   4   0   3   -0.30    0.36
  -5   0  -3    4.59    1.00
  -5   0  -3    4.71    1.06
  -5   0  -3    3.50    0.92
  -5   0  -3    4.94    1.06
   5   0   3    3.94    0.87
   5   0   3    4.57    0.78
  -6   0  -3   54.16    3.06
  -6   0  -3   53.36    2.99
  -6   0  -3   55.22    3.16
  -6   0  -3   57.61    3.14
   6   0   3   57.65    2.96
  -7   0  -3    6.68    1.32
  -7   0  -3    8.80    1.58
  -7   0  -3    4.46    1.21
  -7   0  -3    4.89    1.25
   7   0   3    5.79    1.25
  -8   0  -3    1.62    1.05
  -8   0  -3   -0.34    0.82
  -8   0  -3    1.13    0.86
  -8   0  -3    0.92    1.13
   8   0   3    1.74    0.97
   8  -1  -3   -0.28    1.07
  -8   1   3   -0.39    0.89
   7  -1  -3   11.04    1.83
  -7   1   3   10.13    1.71
  -7   1   3   10.81    1.98
  -7   1   3    9.98    1.69
  -7   1   3   10.98    1.82
   6  -1  -3    1.42    0.86
  -6   1   3    1.10    0.78
  -6   1   3   -0.23    0.70
  -6   1   3    1.18    0.73
  -6   1   3    1.35    0.84
  -6   1   3    2.24    1.06
   5  -1  -3    0.60    0.72
  -5   1   3    0.37    0.62
  -5   1   3   -0.09    0.55
  -5   1   3    0.25    0.70
  -5   1   3    0.24    0.51
  -5   1   3    0.40    0.55
  -5   1   3    0.57    0.73
   4  -1  -3   -0.37    0.32
   4  -1  -3    0.58    0.55
  -4   1   3   -0.52    0.33
  -4   1   3    0.65    0.55
  -4   1   3   -0.44    0.43
  -4   1   3    0.42    0.67
  -4   1   3    0.10    0.47
  -4   1   3   -0.52    0.41
   3  -1  -3   31.28    1.73
   3  -1  -3   32.12    1.57
  -3   1   3   31.02    1.57
  -3   1   3   33.78    1.85
  -3   1   3   32.61    1.92
  -3   1   3   35.71    1.84
  -3   1   3   34.63    1.83
   2  -1  -3    6.57    0.73
  -2   1   3    6.86    0.83
  -2   1   3    5.49    0.77
  -2   1   3    6.14    0.80
   1  -1  -3   33.81    1.50
  -1   1   3   34.84    1.54
  -1   1   3   36.06    1.54
   0  -1  -3   76.22    2.58
   0  -1  -3   76.63    2.72
   0   1   3   81.19    2.65
   0   1   3   76.10    2.57
  -1  -1  -3   32.96    1.45
  -1  -1  -3   32.36    1.43
   1   1   3   35.77    1.47
  -2  -1  -3    1.78    0.49
  -2  -1  -3    2.52    0.51
  -3  -1  -3   -0.12    0.35
  -3  -1  -3    0.75    0.51
  -3  -1  -3    1.10    0.51
  -3  -1  -3    0.20    0.35
  -4  -1  -3    0.95    0.52
  -4  -1  -3    0.41    0.32
  -4  -1  -3    0.04    0.45
  -4  -1  -3    0.89    0.50
  -4  -1  -3    0.08    0.45
   4   1   3    0.27    0.41
  -5  -1  -3   -0.69    0.51
  -5  -1  -3    0.91    0.65
  -5  -1  -3    0.89    0.67
  -5  -1  -3   -0.11    0.57
   5   1   3   -0.10    0.53
  -6  -1  -3   14.42    1.81
  -6  -1  -3   14.10    1.83
  -6  -1  -3   16.41    1.89
  -6  -1  -3   12.16    1.64
   6   1   3   16.05    1.73
  -7  -1  -3    0.16    0.66
  -7  -1  -3   -0.71    0.56
  -7  -1  -3   -0.02    0.83
  -7  -1  -3    0.19    0.69
   7   1   3    0.62    0.80
  -8  -1  -3   12.90    2.10
  -8  -1  -3   10.56    1.82
  -8  -1  -3   12.42    1.97
  -8  -1  -3   13.37    2.21
   8   1   3   14.96    2.04
   7  -2  -3   21.10    2.51
  -7   2   3   23.94    2.67
  -7   2   3   23.80    2.64
  -7   2   3   27.84    2.97
  -7   2   3   24.60    2.92
  -7   2   3   23.45    2.40
   6  -2  -3    4.15    1.23
  -6   2   3    3.63    1.19
  -6   2   3    1.38    0.86
  -6   2   3    5.01    1.30
  -6   2   3    4.87    1.09
  -6   2   3    3.18    0.95
   5  -2  -3   10.58    1.52
   5  -2  -3   12.56    1.35
  -5   2   3   11.51    1.67
  -5   2   3   11.48    1.53
  -5   2   3   12.51    1.65
  -5   2   3   12.10    1.55
  -5   2   3   11.57    1.42
   4  -2  -3    1.64    0.61
   4  -2  -3    0.31    0.62
  -4   2   3    1.68    0.83
  -4   2   3    1.95    0.69
  -4   2   3    2.06    0.74
  -4   2   3    2.00    0.64
  -4   2   3    1.68    0.66
   3  -2  -3   84.21    3.23
   3  -2  -3   86.99    3.43
   3  -2  -3   85.92    3.22
  -3   2   3   87.88    3.31
  -3   2   3   85.97    3.33
  -3   2   3   84.70    3.14
  -3   2   3   85.51    3.60
  -3   2   3   81.71    3.40
   2  -2  -3    0.07    0.29
   2  -2  -3    0.19    0.35
  -2   2   3    0.72    0.39
  -2   2   3    0.01    0.28
  -2   2   3    0.42    0.35
  -2   2   3   -0.53    0.29
   1  -2  -3    4.30    0.62
   1  -2  -3    3.23    0.63
   1  -2  -3    4.28    0.67
  -1   2   3    4.23    0.63
  -1   2   3    4.18    0.66
  -1   2   3    4.09    0.56
   0  -2  -3   25.13    1.29
   0  -2  -3   26.83    1.39
   0  -2  -3   28.78    1.36
   0   2   3   30.01    1.24
   0   2   3   30.30    1.37
  -1  -2  -3   61.07    2.22
  -1  -2  -3   56.13    2.10
  -1  -2  -3   55.87    2.08
  -1  -2  -3   58.22    2.15
   1   2   3   54.32    2.05
   1   2   3   55.83    2.08
   1   2   3   58.62    2.11
  -2  -2  -3    1.75    0.50
  -2  -2  -3    1.21    0.46
  -2  -2  -3    1.70    0.41
  -2  -2  -3    0.23    0.31
  -3  -2  -3    1.51    0.56
  -3  -2  -3    1.43    0.61
  -3  -2  -3    0.76    0.31
  -3  -2  -3    0.93    0.45
  -3  -2  -3   -0.33    0.31
  -3  -2  -3    0.62    0.33
  -4  -2  -3   39.12    2.21
  -4  -2  -3   40.61    1.83
  -4  -2  -3   40.18    2.22
  -4  -2  -3   39.84    2.20
  -4  -2  -3   43.05    2.28
   4   2   3   41.24    1.97
  -5  -2  -3    0.05    0.55
  -5  -2  -3    0.08    0.57
  -5  -2  -3    1.09    0.67
  -5  -2  -3    0.49    0.43
  -5  -2  -3   -0.06    0.46
   5   2   3    0.23    0.51
  -6  -2  -3    1.09    0.79
  -6  -2  -3    0.69    0.83
  -6  -2  -3    0.39    0.60
  -6  -2  -3    1.73    0.87
   6   2   3    0.55    0.61
  -7  -2  -3    6.77    1.52
  -7  -2  -3    5.22    1.41
  -7  -2  -3    7.49    1.51
  -7  -2  -3    7.94    1.55
   7   2   3    8.00    1.36
  -8  -2  -3    1.64    1.06
  -8  -2  -3   -0.16    0.85
  -8  -2  -3    0.86    0.85
  -8  -2  -3    1.14    1.01
   7  -3  -3    3.05    1.30
  -7   3   3    1.97    1.03
  -7   3   3    1.01    1.01
  -7   3   3    2.51    1.14
  -7   3   3    1.91    1.04
   6  -3  -3    1.29    0.85
  -6   3   3    1.64    0.90
  -6   3   3    1.54    0.75
  -6   3   3    1.70    0.96
  -6   3   3    0.66    0.79
  -6   3   3    0.90    0.95
   5  -3  -3    3.70    1.05
   5  -3  -3    4.58    0.97
  -5   3   3    3.05    0.88
  -5   3   3    4.05    1.17
  -5   3   3    3.37    0.91
  -5   3   3    2.15    0.85
  -5   3   3    4.21    1.03
   4  -3  -3    7.27    1.23
   4  -3  -3    6.69    0.99
   4  -3  -3    8.81    1.20
  -4   3   3    7.71    1.12
  -4   3   3    9.33    1.30
  -4   3   3    8.43    1.25
  -4   3   3    7.31    1.29
  -4   3   3    9.23    1.18
   3  -3  -3   25.41    1.78
   3  -3  -3   29.15    1.73
   3  -3  -3   29.47    1.76
  -3   3   3   32.49    1.81
  -3   3   3   30.24    1.61
  -3   3   3   29.30    1.64
  -3   3   3   29.84    1.81
  -3   3   3   28.37    1.94
   2  -3  -3   88.05    3.38
   2  -3  -3   91.03    3.43
   2  -3  -3   88.68    3.40
   2  -3  -3   94.11    3.49
  -2   3   3   83.45    3.18
  -2   3   3   87.83    3.36
  -2   3   3   91.14    3.45
  -2   3   3   89.43    3.12
  -2   3   3   90.45    3.64
   1  -3  -3  105.61    3.84
   1  -3  -3  108.25    3.77
   1  -3  -3  115.69    3.83
  -1   3   3  105.39    3.76
  -1   3   3  103.83    3.38
  -1   3   3  105.12    3.59
  -1   3   3  104.52    3.93
  -1   3   3  105.98    3.73
   0  -3  -3    0.66    0.42
   0  -3  -3    0.22    0.37
   0  -3  -3    1.07    0.41
   0  -3  -3    1.16    0.45
   0   3   3    0.52    0.43
   0   3   3    1.83    0.53
   0   3   3    1.12    0.42
   0   3   3    0.94    0.30
  -1  -3  -3   24.11    1.36
  -1  -3  -3   23.69    1.29
  -1  -3  -3   23.33    1.15
  -1  -3  -3   23.42    1.38
  -1  -3  -3   23.00    1.39
  -1  -3  -3   24.59    1.28
   1   3   3   23.35    1.15
   1   3   3   26.05    1.35
   1   3   3   24.64    1.43
  -2  -3  -3    2.91    0.57
  -2  -3  -3    2.78    0.63
  -2  -3  -3    2.10    0.53
  -2  -3  -3    3.06    0.65
  -2  -3  -3    2.59    0.53
   2   3   3    2.55    0.62
  -3  -3  -3   79.45    2.71
  -3  -3  -3   75.72    3.29
  -3  -3  -3   76.21    3.19
  -3  -3  -3   76.21    3.12
  -3  -3  -3   74.73    3.22
  -3  -3  -3   76.50    2.86
  -3  -3  -3   76.55    2.97
  -4  -3  -3    2.00    0.73
  -4  -3  -3    0.87    0.61
  -4  -3  -3    0.41    0.48
  -4  -3  -3    0.17    0.51
  -4  -3  -3    1.17    0.68
  -5  -3  -3   16.03    1.89
  -5  -3  -3   15.84    1.81
  -5  -3  -3   13.72    1.75
  -5  -3  -3   15.92    1.88
  -5  -3  -3   16.88    1.34
   5   3   3   15.18    1.47
  -6  -3  -3   44.08    2.81
  -6  -3  -3   40.62    2.72
  -6  -3  -3   38.44    2.65
  -6  -3  -3   44.19    2.90
  -7  -3  -3   21.03    2.48
  -7  -3  -3   14.97    2.07
  -7  -3  -3   17.28    2.30
  -7  -3  -3   21.72    2.48
  -8  -3  -3   -0.60    0.83
  -8  -3  -3   -0.54    0.81
  -8  -3  -3    0.26    1.09
  -8  -3  -3    1.43    1.09
   7  -4  -3    7.17    1.70
  -7   4   3   10.54    1.96
  -7   4   3    7.28    1.60
   6  -4  -3    3.04    1.02
   6  -4  -3    1.99    1.00
  -6   4   3    2.62    0.99
  -6   4   3    2.02    1.08
  -6   4   3    2.59    1.09
  -6   4   3    3.50    1.16
   5  -4  -3    4.25    1.22
   5  -4  -3    7.14    1.29
  -5   4   3    7.04    1.28
  -5   4   3    4.91    1.27
  -5   4   3    5.41    1.19
  -5   4   3    5.50    1.32
   4  -4  -3    2.23    0.95
   4  -4  -3    1.61    0.70
   4  -4  -3    2.51    0.85
  -4   4   3    2.93    1.02
  -4   4   3    3.47    0.91
  -4   4   3    2.96    0.87
  -4   4   3    1.40    0.75
   3  -4  -3   31.33    1.99
   3  -4  -3   28.26    1.83
   3  -4  -3   23.75    1.70
   3  -4  -3   30.13    1.94
  -3   4   3   32.44    1.97
  -3   4   3   28.58    1.86
  -3   4   3   30.08    1.82
  -3   4   3   31.95    2.17
   2  -4  -3    0.49    0.49
   2  -4  -3    0.52    0.48
   2  -4  -3    0.28    0.48
   2  -4  -3   -0.41    0.37
  -2   4   3    1.41    0.68
  -2   4   3    0.47    0.33
  -2   4   3    1.06    0.53
  -2   4   3    0.99    0.52
  -2   4   3    0.55    0.49
   1  -4  -3    1.66    0.55
   1  -4  -3    1.44    0.59
   1  -4  -3    2.04    0.65
   1  -4  -3    1.58    0.58
  -1   4   3    1.40    0.58
  -1   4   3    1.49    0.53
  -1   4   3    2.66    0.39
  -1   4   3    1.90    0.61
  -1   4   3    2.11    0.62
   0  -4  -3   10.15    1.14
   0  -4  -3    7.58    0.93
   0  -4  -3    9.10    1.16
   0  -4  -3    7.02    0.94
   0  -4  -3    7.52    1.01
   0   4   3    8.42    1.05
   0   4   3    7.06    0.55
   0   4   3    7.51    0.95
   0   4   3    9.11    1.14
   0   4   3    6.83    0.94
  -1  -4  -3   13.58    1.29
  -1  -4  -3   11.47    1.19
  -1  -4  -3   10.26    0.76
  -1  -4  -3   12.07    1.31
  -1  -4  -3   10.20    1.19
  -1  -4  -3   12.37    1.13
   1   4   3   12.11    1.24
   1   4   3    9.52    0.72
   1   4   3   11.26    1.25
  -2  -4  -3   13.84    1.40
  -2  -4  -3   11.75    1.27
  -2  -4  -3   14.19    1.33
  -2  -4  -3    9.30    1.20
  -2  -4  -3   12.70    1.00
  -2  -4  -3   15.59    1.41
   2   4   3   14.58    1.43
  -3  -4  -3   11.08    1.42
  -3  -4  -3   10.99    0.97
  -3  -4  -3   10.03    1.31
  -3  -4  -3   10.38    1.31
  -3  -4  -3    8.32    1.03
  -3  -4  -3    9.92    1.26
  -3  -4  -3    8.50    1.10
   3   4   3   10.69    1.33
  -4  -4  -3    5.33    1.09
  -4  -4  -3    5.43    1.00
  -4  -4  -3    3.85    0.95
  -4  -4  -3    5.19    0.85
  -4  -4  -3    6.41    1.18
  -4  -4  -3    4.72    1.03
  -5  -4  -3   15.61    1.88
  -5  -4  -3   17.39    2.06
  -5  -4  -3   14.59    1.91
  -5  -4  -3   10.69    1.43
  -5  -4  -3   18.42    1.92
  -6  -4  -3   -0.05    0.62
  -6  -4  -3   -0.50    0.70
  -6  -4  -3    1.24    0.91
  -6  -4  -3   -0.99    0.54
  -6  -4  -3   -0.77    0.69
  -7  -4  -3    2.81    1.26
  -7  -4  -3    5.77    1.39
  -7  -4  -3    4.42    1.29
  -7  -4  -3    2.64    1.07
   6  -5  -3    0.10    0.99
   6  -5  -3   -0.15    0.67
  -6   5   3   -0.73    0.66
  -6   5   3    1.02    0.88
  -6   5   3   -0.21    0.96
  -6   5   3    0.48    0.97
   5  -5  -3    1.65    0.99
   5  -5  -3    1.22    0.92
  -5   5   3    3.36    1.17
  -5   5   3    3.38    1.04
  -5   5   3    3.17    1.01
  -5   5   3    2.26    0.90
   4  -5  -3   -0.40    0.53
   4  -5  -3    1.37    0.72
   4  -5  -3    0.57    0.57
  -4   5   3   -0.53    0.64
  -4   5   3    0.06    0.62
  -4   5   3    0.49    0.70
  -4   5   3    0.21    0.62
   3  -5  -3   62.94    3.07
   3  -5  -3   66.09    3.16
   3  -5  -3   55.80    3.05
   3  -5  -3   64.85    3.10
  -3   5   3   60.71    3.09
  -3   5   3   63.96    3.04
  -3   5   3   62.14    3.03
  -3   5   3   55.82    3.24
   2  -5  -3    2.60    0.83
   2  -5  -3    2.17    0.75
   2  -5  -3    4.21    0.92
   2  -5  -3    1.56    0.75
  -2   5   3    2.67    0.83
  -2   5   3    1.21    0.63
  -2   5   3    2.10    0.82
  -2   5   3    2.33    0.84
   1  -5  -3    6.78    1.13
   1  -5  -3    7.29    1.03
   1  -5  -3    6.98    1.15
   1  -5  -3    7.61    1.13
  -1   5   3    8.32    1.19
  -1   5   3    8.14    1.24
  -1   5   3    6.88    1.10
  -1   5   3    5.93    1.00
   0  -5  -3   10.26    1.29
   0  -5  -3    7.27    1.05
   0  -5  -3   10.18    1.32
   0   5   3   10.40    1.38
   0   5   3   10.71    1.31
   0   5   3   11.90    1.36
   0   5   3   10.48    1.26
  -1  -5  -3   11.01    1.39
  -1  -5  -3   13.53    1.30
  -1  -5  -3   14.91    1.54
  -1  -5  -3   12.48    1.58
  -1  -5  -3   10.96    1.35
   1   5   3   11.53    1.40
   1   5   3   13.66    1.58
  -2  -5  -3    2.36    0.74
  -2  -5  -3    1.79    0.81
  -2  -5  -3    3.65    0.81
  -2  -5  -3    3.42    0.77
  -2  -5  -3    2.29    0.70
   2   5   3    1.86    0.81
   2   5   3    2.75    0.89
  -3  -5  -3    5.85    1.09
  -3  -5  -3    4.85    0.86
  -3  -5  -3    6.98    1.26
  -3  -5  -3    6.58    1.16
  -3  -5  -3    4.24    0.91
  -3  -5  -3    4.28    1.08
   3   5   3    4.35    1.14
  -4  -5  -3   16.08    2.00
  -4  -5  -3   16.68    1.80
  -4  -5  -3   17.44    1.76
  -4  -5  -3   17.39    1.99
  -4  -5  -3   15.54    1.81
   4   5   3   14.75    1.79
  -5  -5  -3   16.19    1.88
  -5  -5  -3   12.99    1.86
  -5  -5  -3   17.70    2.10
  -5  -5  -3   12.31    1.83
  -5  -5  -3   13.87    1.74
   5   5   3   14.17    1.84
  -6  -5  -3    0.79    0.74
  -6  -5  -3    0.67    0.83
  -6  -5  -3   -0.87    0.64
  -6  -5  -3   -0.38    0.76
  -6  -5  -3    0.39    0.80
   6   5   3    0.35    0.79
  -7  -5  -3    4.10    1.38
  -7  -5  -3    5.60    1.51
  -7  -5  -3    5.14    1.56
  -7  -5  -3    3.68    1.31
   6  -6  -3    3.40    1.26
   6  -6  -3    3.78    1.41
  -6   6   3    3.69    1.26
  -6   6   3    7.31    1.71
  -6   6   3    3.12    1.37
   5  -6  -3    4.71    1.42
   5  -6  -3    6.03    1.47
  -5   6   3    5.46    1.30
  -5   6   3    4.12    1.26
  -5   6   3    5.38    1.50
  -5   6   3    4.02    1.23
   4  -6  -3    0.61    0.76
   4  -6  -3   -0.52    0.66
   4  -6  -3    0.58    0.66
   4  -6  -3    0.22    0.84
  -4   6   3    0.49    0.78
  -4   6   3    0.45    0.84
  -4   6   3    1.51    0.88
  -4   6   3   -0.73    0.62
   3  -6  -3    0.21    0.52
   3  -6  -3    0.32    0.58
   3  -6  -3    0.32    0.74
   3  -6  -3    0.24    0.67
  -3   6   3    0.86    0.76
  -3   6   3    0.78    0.83
  -3   6   3    0.91    0.83
  -3   6   3    1.02    0.89
   2  -6  -3   -0.07    0.61
   2  -6  -3    0.22    0.47
   2  -6  -3   -0.40    0.49
   2  -6  -3    0.26    0.56
  -2   6   3   -0.56    0.48
  -2   6   3   -0.18    0.50
  -2   6   3   -0.52    0.75
  -2   6   3   -0.67    0.51
   1  -6  -3   23.17    2.13
   1  -6  -3   23.18    2.16
   1  -6  -3   22.93    2.22
  -1   6   3   21.82    1.80
  -1   6   3   23.70    1.88
  -1   6   3   26.85    1.99
  -1   6   3   25.80    1.98
   0  -6  -3    8.25    1.24
   0  -6  -3    6.64    1.27
   0  -6  -3    8.39    1.30
   0   6   3    8.00    1.36
   0   6   3   12.73    1.52
   0   6   3    8.34    1.25
   0   6   3    8.54    1.42
  -1  -6  -3   13.47    1.79
  -1  -6  -3   11.61    1.59
  -1  -6  -3   11.22    1.33
  -1  -6  -3   13.95    1.71
  -1  -6  -3   14.89    1.81
   1   6   3   14.43    1.78
   1   6   3   10.71    1.60
  -2  -6  -3    0.43    0.75
  -2  -6  -3    0.29    0.68
  -2  -6  -3    0.90    0.58
  -2  -6  -3   -0.15    0.57
   2   6   3    0.51    0.69
   2   6   3    0.66    0.81
  -3  -6  -3   68.33    3.62
  -3  -6  -3   67.65    3.37
  -3  -6  -3   70.07    3.75
  -3  -6  -3   67.49    3.43
  -3  -6  -3   69.69    3.42
   3   6   3   71.15    3.63
  -4  -6  -3   14.76    1.69
  -4  -6  -3   12.97    1.90
  -4  -6  -3   18.47    2.10
  -4  -6  -3   14.56    1.97
  -4  -6  -3   14.93    1.94
   4   6   3   15.91    2.04
  -5  -6  -3    2.20    1.00
  -5  -6  -3    0.38    0.88
  -5  -6  -3   -0.81    0.70
  -5  -6  -3    0.63    0.85
   5   6   3    1.51    1.05
  -6  -6  -3   -0.22    0.72
  -6  -6  -3    1.00    1.01
  -6  -6  -3    0.27    1.07
  -6  -6  -3    1.40    1.09
   6   6   3    1.90    1.06
   5  -7  -3   22.10    2.70
   5  -7  -3   23.18    2.69
  -5   7   3   20.36    2.55
  -5   7   3   26.87    2.81
  -5   7   3   17.99    2.65
  -5   7   3   20.05    2.40
   4  -7  -3    1.21    0.91
   4  -7  -3    0.70    0.92
   4  -7  -3   -0.82    0.76
   4  -7  -3    1.34    0.91
  -4   7   3    1.22    0.98
  -4   7   3   -0.02    0.77
  -4   7   3    2.48    1.23
  -4   7   3    0.80    0.93
   3  -7  -3    8.28    1.60
   3  -7  -3    6.68    1.32
   3  -7  -3    6.68    1.34
   3  -7  -3    7.21    1.43
  -3   7   3    6.28    1.47
  -3   7   3    7.34    1.45
  -3   7   3    5.89    1.30
  -3   7   3    7.51    1.63
   2  -7  -3    2.43    0.88
   2  -7  -3    3.18    1.13
   2  -7  -3    1.33    0.80
  -2   7   3    3.09    1.03
  -2   7   3    2.03    0.97
  -2   7   3    1.44    0.98
  -2   7   3    0.69    0.75
   1  -7  -3    0.02    0.61
   1  -7  -3    0.22    0.60
   1  -7  -3    0.85    0.71
  -1   7   3    0.33    0.79
  -1   7   3    0.27    0.79
  -1   7   3    0.86    0.72
  -1   7   3    0.52    0.73
   0  -7  -3   -0.75    0.63
   0  -7  -3    0.52    0.60
   0  -7  -3    1.71    0.86
   0   7   3   -0.83    0.72
   0   7   3    0.63    0.65
   0   7   3   -0.81    0.62
   0   7   3    0.37    0.77
  -1  -7  -3    1.69    0.90
  -1  -7  -3    0.79    0.76
  -1  -7  -3    1.26    0.68
  -1  -7  -3    1.48    0.83
   1   7   3    2.93    1.15
   1   7   3    1.42    0.88
  -2  -7  -3    1.95    0.98
  -2  -7  -3    2.52    0.91
  -2  -7  -3    2.39    1.14
  -2  -7  -3    2.66    1.09
   2   7   3   -0.08    0.84
   2   7   3    1.70    1.02
  -3  -7  -3    9.47    1.62
  -3  -7  -3    8.55    1.48
  -3  -7  -3   11.65    1.84
  -3  -7  -3    9.73    1.54
   3   7   3    9.25    1.63
   3   7   3   10.77    1.84
  -4  -7  -3    1.17    0.96
  -4  -7  -3    1.77    1.18
  -4  -7  -3    0.43    0.84
  -4  -7  -3    0.83    0.76
  -4  -7  -3    1.65    1.11
   4   7   3    0.87    0.94
  -5  -7  -3    4.56    1.50
  -5  -7  -3    1.26    1.05
  -5  -7  -3    4.87    1.29
  -5  -7  -3    4.32    1.23
   5   7   3    3.70    1.48
   3  -8  -3   10.09    1.87
   3  -8  -3    7.66    1.70
   3  -8  -3   12.23    2.05
  -3   8   3   10.37    2.02
  -3   8   3    7.85    1.71
  -3   8   3    9.60    1.71
  -3   8   3    9.62    1.76
   2  -8  -3    0.25    0.88
   2  -8  -3    1.33    0.94
   2  -8  -3   -0.99    0.77
  -2   8   3    0.29    0.85
  -2   8   3   -0.13    0.91
  -2   8   3    1.26    1.02
  -2   8   3    0.60    0.99
   1  -8  -3    7.74    1.57
   1  -8  -3    9.35    1.61
   1  -8  -3   11.12    1.84
  -1   8   3    8.60    1.62
  -1   8   3    6.65    1.51
  -1   8   3    9.11    1.62
  -1   8   3    5.17    1.41
   0  -8  -3    2.77    1.13
   0  -8  -3    0.28    0.75
   0  -8  -3    0.24    0.64
   0   8   3   -0.27    0.80
   0   8   3    0.49    0.87
   0   8   3   -0.32    0.72
   0   8   3    0.03    0.80
  -1  -8  -3   12.23    1.98
  -1  -8  -3   13.78    1.91
  -1  -8  -3   10.08    1.50
  -1  -8  -3   12.64    2.00
   1   8   3   17.07    2.35
   1   8   3   12.73    2.01
   1   8   3   10.36    1.64
  -2  -8  -3    0.29    0.81
  -2  -8  -3    0.33    0.89
  -2  -8  -3    0.78    0.94
  -2  -8  -3    0.46    0.74
   2   8   3    0.65    0.90
   2   8   3   -1.02    0.78
  -3  -8  -3    2.45    1.09
  -3  -8  -3    1.91    1.20
  -3  -8  -3    3.12    1.38
  -3  -8  -3    1.78    1.12
   3   8   3    3.36    1.32
   3   8   3    1.51    1.10
  -4  -8  -3    1.11    1.00
  -4  -8  -3    3.58    1.36
  -4  -8  -3    1.99    1.10
  -4  -8  -3    2.82    1.27
   4   8   3    3.66    1.39
   4   8   3    2.34    1.25
   0  -9  -3    8.06    1.61
   0  -9  -3    7.77    1.53
   0  -9  -3    7.40    1.73
   0   9   3    7.79    1.57
   0   9   3    6.66    1.63
   0   9   3    6.07    1.65
   0   9   3    6.17    1.44
   3   7  -4    1.62    1.04
  -3  -7   4   -0.99    0.88
  -3  -7   4    0.00    0.90
  -3  -7   4    0.47    0.95
  -3  -7   4   -0.39    0.86
   2   7  -4    0.09    1.02
  -2  -7   4   -0.45    0.90
  -2  -7   4    0.36    0.89
  -2  -7   4   -0.20    0.61
   1   7  -4    0.37    0.99
  -1  -7   4   -0.96    0.58
  -1  -7   4   -0.45    0.75
  -1  -7   4   -0.35    0.87
   0   7  -4    1.80    1.03
   0  -7   4    1.60    1.03
   0  -7   4    0.58    0.80
  -1   7  -4   16.89    2.36
   1  -7   4   15.97    2.23
   1  -7   4   15.02    2.06
  -2   7  -4    5.01    1.51
   2  -7   4    6.60    1.51
   2  -7   4    5.84    1.53
  -3   7  -4    4.35    1.46
   3  -7   4    6.59    1.40
   3  -7   4    8.15    1.76
  -4   7  -4    2.54    1.30
   4  -7   4    4.97    1.48
   4   6  -4    7.10    1.65
  -4  -6   4    6.90    1.55
  -4  -6   4    5.19    1.33
  -4  -6   4   10.87    1.91
  -4  -6   4    5.02    1.37
  -4  -6   4    7.49    1.65
   3   6  -4    4.66    1.44
  -3  -6   4    6.35    1.44
  -3  -6   4    4.07    1.24
  -3  -6   4    4.59    1.34
  -3  -6   4    4.27    1.25
   2   6  -4    0.39    0.97
   2   6  -4    0.73    0.70
  -2  -6   4    0.59    0.70
  -2  -6   4    0.13    0.67
  -2  -6   4   -0.61    0.71
   1   6  -4    2.07    0.89
   1   6  -4    5.67    1.26
  -1  -6   4    2.17    0.97
  -1  -6   4    5.97    1.30
  -1  -6   4    6.80    1.32
  -1  -6   4    5.04    1.18
   0   6  -4    9.11    1.59
   0  -6   4    9.00    1.49
   0  -6   4    8.22    1.27
   0  -6   4    8.92    1.39
   0  -6   4   10.83    1.67
   0  -6   4    8.29    1.40
  -1   6  -4    0.08    0.89
   1  -6   4    0.68    0.60
   1  -6   4    0.65    0.64
   1  -6   4   -0.39    0.56
   1  -6   4    0.44    0.79
  -2   6  -4    4.37    1.19
   2  -6   4    7.02    1.39
   2  -6   4    4.08    1.17
  -3   6  -4    7.27    1.61
   3  -6   4    5.51    1.40
   3  -6   4    2.35    0.99
  -4   6  -4   -0.64    0.88
   4  -6   4   -0.04    0.83
   4  -6   4    0.35    0.89
  -5   6  -4    5.45    1.59
   5  -6   4    7.73    1.68
   5  -6   4    7.00    1.58
   5   5  -4    0.63    0.94
  -5  -5   4   -0.93    0.77
  -5  -5   4    0.53    0.82
  -5  -5   4    0.50    0.83
  -5  -5   4    0.56    0.88
  -5  -5   4    0.00    0.83
   4   5  -4   -0.19    0.86
  -4  -5   4    1.50    0.90
  -4  -5   4   -0.20    0.74
  -4  -5   4   -0.48    0.74
  -4  -5   4   -0.47    0.81
  -4  -5   4    0.30    0.84
   3   5  -4    1.62    0.85
  -3  -5   4    2.25    0.96
  -3  -5   4    3.27    1.07
  -3  -5   4    2.84    1.03
  -3  -5   4    3.50    1.08
   2   5  -4   13.54    1.84
  -2  -5   4   14.92    1.75
  -2  -5   4   15.44    1.90
  -2  -5   4   13.15    1.62
  -2  -5   4   13.51    1.82
   1   5  -4   13.02    1.69
   1   5  -4    9.70    1.36
  -1  -5   4   10.92    1.53
  -1  -5   4   11.88    1.55
  -1  -5   4   10.86    1.43
   0   5  -4    9.77    1.52
   0  -5   4   10.32    1.38
   0  -5   4    7.17    1.15
   0  -5   4   10.28    1.36
   0  -5   4    7.50    1.28
  -1   5  -4    6.97    1.38
   1  -5   4    7.40    1.07
   1  -5   4    6.07    1.15
   1  -5   4    8.66    1.28
  -2   5  -4   38.78    2.53
   2  -5   4   45.22    2.44
   2  -5   4   41.10    2.54
   2  -5   4   36.15    2.49
  -3   5  -4   -0.73    0.68
   3  -5   4    0.66    0.66
   3  -5   4    0.09    0.66
  -4   5  -4    2.20    1.02
   4  -5   4   -0.58    0.64
   4  -5   4   -0.02    0.67
   4  -5   4   -0.35    0.71
  -5   5  -4    7.40    1.54
   5  -5   4   10.46    1.73
   5  -5   4    7.59    1.62
  -6   5  -4   14.01    2.14
   6  -5   4   13.50    2.09
   6  -5   4   17.25    2.39
  -6  -4   4    5.99    1.57
  -6  -4   4    4.82    1.38
  -6  -4   4    2.53    1.31
  -6  -4   4    5.29    1.59
   5   4  -4    4.26    1.24
  -5  -4   4    3.40    1.08
  -5  -4   4    5.19    1.31
  -5  -4   4    4.41    1.25
  -5  -4   4    4.34    1.24
  -5  -4   4    2.60    1.05
   4   4  -4    2.69    1.01
  -4  -4   4    1.88    0.83
  -4  -4   4    4.68    1.16
  -4  -4   4    2.08    0.96
  -4  -4   4    2.15    0.87
  -4  -4   4    1.53    0.83
   3   4  -4    7.41    1.25
  -3  -4   4    5.39    1.25
  -3  -4   4    7.82    1.44
  -3  -4   4    6.30    1.21
  -3  -4   4    6.43    1.15
  -3  -4   4    5.18    1.05
   2   4  -4   19.38    1.83
  -2  -4   4   16.74    1.81
  -2  -4   4   15.93    1.75
  -2  -4   4   19.94    1.58
  -2  -4   4   17.78    1.77
  -2  -4   4   16.42    1.69
   1   4  -4    4.28    0.97
  -1  -4   4    3.88    0.94
  -1  -4   4    4.65    0.92
  -1  -4   4    3.58    0.88
  -1  -4   4    4.95    0.90
   0   4  -4   19.77    1.47
   0   4  -4   23.55    1.70
   0  -4   4   24.38    1.50
   0  -4   4   25.73    1.66
   0  -4   4   21.79    1.70
   0  -4   4   23.47    1.57
   0  -4   4   20.95    1.53
  -1   4  -4    2.46    0.63
  -1   4  -4    1.40    0.75
   1  -4   4    2.89    0.86
   1  -4   4    1.38    0.53
   1  -4   4    3.49    0.69
   1  -4   4    2.49    0.79
  -2   4  -4    5.19    1.14
  -2   4  -4    3.67    0.76
   2  -4   4    7.14    1.22
   2  -4   4    4.96    1.04
  -3   4  -4    1.11    0.68
  -3   4  -4    0.27    0.75
   3  -4   4    2.71    0.88
   3  -4   4    1.82    0.73
   3  -4   4    0.59    0.63
   3  -4   4    2.36    0.75
  -4   4  -4    0.83    0.90
   4  -4   4    1.73    0.75
   4  -4   4    1.61    0.71
   4  -4   4    1.13    0.78
   4  -4   4    1.78    0.72
  -5   4  -4   10.81    1.81
   5  -4   4   12.37    1.73
   5  -4   4   13.86    1.81
  -6   4  -4   13.36    2.06
   6  -4   4   16.90    2.13
   6  -4   4   11.59    1.85
  -7   4  -4    1.75    1.15
   7  -4   4    4.23    1.36
   7  -4   4    2.01    1.28
  -6  -3   4    2.36    1.07
  -6  -3   4    1.84    0.95
  -6  -3   4    2.98    1.25
  -6  -3   4    2.78    1.20
   5   3  -4    2.06    0.91
  -5  -3   4    2.88    1.08
  -5  -3   4    2.71    1.03
  -5  -3   4    2.00    0.98
  -5  -3   4    1.93    1.00
  -5  -3   4    1.30    0.77
   4   3  -4    9.03    1.33
  -4  -3   4    8.47    1.45
  -4  -3   4    9.96    1.50
  -4  -3   4    9.01    1.30
  -4  -3   4   13.04    1.76
  -4  -3   4    7.56    1.32
   3   3  -4    7.17    1.13
  -3  -3   4    8.60    1.19
  -3  -3   4    8.27    1.34
  -3  -3   4    9.93    1.44
  -3  -3   4    8.03    1.23
  -3  -3   4    8.06    1.30
   2   3  -4   17.28    1.33
  -2  -3   4   18.77    1.71
  -2  -3   4   16.89    1.77
  -2  -3   4   17.68    1.33
  -2  -3   4   17.49    1.71
  -2  -3   4   18.61    1.40
   1   3  -4    9.40    1.15
  -1  -3   4    9.08    1.17
  -1  -3   4    9.54    1.08
  -1  -3   4    9.00    1.21
  -1  -3   4    9.44    1.12
   0   3  -4   11.71    1.21
   0   3  -4   13.02    0.95
   0  -3   4   14.73    1.01
   0  -3   4   13.07    1.24
   0  -3   4   14.12    1.33
   0  -3   4   13.06    1.05
   0  -3   4   11.01    1.33
  -1   3  -4   25.26    1.41
  -1   3  -4   28.13    1.69
   1  -3   4   25.84    1.39
   1  -3   4   27.87    1.51
   1  -3   4   29.59    1.81
   1  -3   4   29.16    1.75
  -2   3  -4    8.27    0.95
  -2   3  -4   12.49    1.38
  -2   3  -4    8.83    0.99
   2  -3   4    7.86    0.93
   2  -3   4    8.96    0.82
   2  -3   4   11.10    1.28
   2  -3   4    7.87    1.03
   2  -3   4    7.68    1.17
  -3   3  -4    5.02    0.88
  -3   3  -4    4.88    0.81
  -3   3  -4    3.36    0.77
  -3   3  -4    5.74    1.05
   3  -3   4    6.33    0.95
   3  -3   4    6.07    1.03
   3  -3   4    5.15    0.82
   3  -3   4    4.72    0.92
  -4   3  -4   18.99    1.43
  -4   3  -4   18.91    1.82
  -4   3  -4   17.52    1.95
   4  -3   4   16.63    1.36
   4  -3   4   18.54    1.86
   4  -3   4   16.35    1.67
   4  -3   4   18.73    1.94
   4  -3   4   16.95    1.31
  -5   3  -4    4.40    0.95
  -5   3  -4    2.18    1.02
  -5   3  -4    4.60    1.11
  -5   3  -4    2.43    0.91
   5  -3   4    2.55    0.90
   5  -3   4    3.52    0.88
   5  -3   4    4.52    0.97
   5  -3   4    4.20    1.07
  -6   3  -4    1.90    0.98
  -6   3  -4    0.41    0.71
  -6   3  -4    1.28    0.86
  -6   3  -4    0.73    0.75
   6  -3   4    0.10    0.76
   6  -3   4    1.10    0.77
   6  -3   4   -0.41    0.67
   6  -3   4    0.59    0.66
  -7   3  -4    2.62    1.07
   7  -3   4    0.34    0.84
   7  -3   4    1.11    0.94
  -7  -2   4    4.62    1.51
  -7  -2   4    6.90    1.54
  -7  -2   4    9.34    1.83
  -6  -2   4    8.13    1.56
  -6  -2   4   10.58    1.80
  -6  -2   4    8.26    1.68
  -6  -2   4    7.13    1.51
  -5  -2   4    2.41    0.95
  -5  -2   4    5.05    1.28
  -5  -2   4    1.71    0.76
  -5  -2   4    2.88    0.97
  -5  -2   4    2.68    1.00
  -4  -2   4   27.39    2.05
  -4  -2   4   27.88    1.79
  -4  -2   4   27.48    2.03
  -4  -2   4   26.34    2.08
  -4  -2   4   25.30    2.03
   3   2  -4   11.94    1.19
  -3  -2   4   12.00    1.20
  -3  -2   4   11.31    1.48
  -3  -2   4    9.05    1.36
  -3  -2   4   11.49    1.33
  -3  -2   4    8.33    1.23
   2   2  -4   32.53    1.61
  -2  -2   4   33.04    1.95
  -2  -2   4   31.40    1.76
  -2  -2   4   30.31    1.61
  -2  -2   4   29.56    1.85
  -2  -2   4   34.26    1.91
   1   2  -4   26.77    1.41
  -1  -2   4   28.35    1.65
  -1  -2   4   26.29    1.57
  -1  -2   4   26.23    1.56
  -1  -2   4   27.13    1.41
  -1  -2   4   25.50    1.36
   0  -2   4    8.63    1.08
   0  -2   4    6.56    0.82
   0  -2   4    5.76    0.77
  -1   2  -4    8.60    0.91
   1  -2   4    8.51    0.79
   1  -2   4    8.58    0.91
   1  -2   4    8.77    1.04
  -2   2  -4   22.96    1.44
  -2   2  -4   19.64    1.30
  -2   2  -4   24.09    1.43
   2  -2   4   22.14    1.36
   2  -2   4   20.15    1.35
   2  -2   4   23.38    1.34
  -3   2  -4    1.32    0.63
  -3   2  -4    3.04    0.76
  -3   2  -4    1.38    0.56
  -3   2  -4    2.08    0.58
   3  -2   4    2.58    0.63
   3  -2   4    1.89    0.68
   3  -2   4    2.25    0.69
   3  -2   4    1.76    0.60
  -4   2  -4    3.22    0.89
  -4   2  -4    2.63    0.75
  -4   2  -4    4.04    0.90
  -4   2  -4    3.84    0.90
   4  -2   4    3.37    0.93
   4  -2   4    2.77    0.72
   4  -2   4    3.35    0.88
   4  -2   4    1.72    0.57
  -5   2  -4   11.23    1.52
  -5   2  -4   10.88    1.48
  -5   2  -4   12.59    1.50
  -5   2  -4   12.15    1.62
   5  -2   4   11.50    1.46
   5  -2   4   12.69    1.50
   5  -2   4    9.74    1.36
   5  -2   4   14.15    1.74
  -6   2  -4   68.28    3.43
  -6   2  -4   62.42    3.48
  -6   2  -4   69.01    3.67
   6  -2   4   66.37    3.31
   6  -2   4   70.42    3.32
   6  -2   4   67.53    3.51
  -7   2  -4   -0.53    0.70
  -7   2  -4    1.60    0.99
  -7   2  -4    2.04    1.06
  -7   2  -4    0.59    0.87
   7  -2   4    2.24    0.91
   7  -2   4    1.71    1.00
   7  -2   4    0.54    0.82
  -8   2  -4   -0.43    0.95
  -8   2  -4    0.20    0.95
  -8   2  -4   -0.38    0.79
  -8   2  -4   -0.52    0.95
   8  -2   4   -0.27    0.76
   8  -2   4   -0.89    0.81
  -7  -1   4    3.69    1.23
  -7  -1   4    3.92    1.37
  -7  -1   4    0.82    0.95
  -7  -1   4    5.37    1.53
  -6  -1   4    8.54    1.60
  -6  -1   4    7.02    1.46
  -6  -1   4   10.55    1.75
  -6  -1   4   11.02    1.74
   5   1  -4    0.18    0.56
  -5  -1   4    0.75    0.54
  -5  -1   4    1.02    0.82
  -5  -1   4   -0.01    0.68
  -5  -1   4    0.37    0.73
  -5  -1   4   -0.72    0.68
   4   1  -4    6.99    1.03
  -4  -1   4    5.46    1.09
  -4  -1   4    6.04    1.18
  -4  -1   4    5.72    1.12
  -4  -1   4    5.90    0.94
  -4  -1   4    7.06    1.28
   3   1  -4    5.96    0.71
  -3  -1   4    5.52    1.00
  -3  -1   4    5.08    0.95
  -3  -1   4    4.73    0.90
  -3  -1   4    5.52    0.77
  -3  -1   4    3.73    0.93
   2   1  -4   31.59    1.50
   2   1  -4   34.54    1.47
  -2  -1   4   35.05    1.93
  -2  -1   4   30.70    1.78
  -2  -1   4   31.72    1.44
  -2  -1   4   33.58    1.78
  -2  -1   4   38.00    1.93
   1   1  -4   17.98    1.10
  -1  -1   4   19.02    1.24
  -1  -1   4   22.19    1.34
  -1  -1   4   18.88    1.29
   0  -1   4   44.76    1.89
   0  -1   4   48.51    2.08
  -1   1  -4    4.35    0.64
  -1   1  -4    6.17    0.82
   1  -1   4    5.71    0.77
  -2   1  -4   63.18    2.53
  -2   1  -4   63.22    2.61
  -2   1  -4   67.04    2.61
   2  -1   4   63.55    2.57
   2  -1   4   63.37    2.60
  -3   1  -4    9.11    1.09
  -3   1  -4    9.19    1.08
  -3   1  -4    7.95    1.02
  -3   1  -4    9.84    0.97
   3  -1   4    8.98    1.05
   3  -1   4   12.07    1.24
   3  -1   4    9.92    1.10
  -4   1  -4    0.49    0.50
  -4   1  -4    0.30    0.50
  -4   1  -4    0.16    0.60
  -4   1  -4   -0.07    0.47
   4  -1   4    0.09    0.41
   4  -1   4   -0.47    0.39
   4  -1   4   -0.10    0.41
   4  -1   4   -0.14    0.51
  -5   1  -4    0.06    0.60
  -5   1  -4    1.55    0.73
  -5   1  -4    1.26    0.74
  -5   1  -4    0.46    0.68
   5  -1   4    1.51    0.74
   5  -1   4    2.46    0.77
   5  -1   4    1.80    0.68
  -6   1  -4   12.18    1.73
  -6   1  -4   10.64    1.66
  -6   1  -4   14.65    1.75
  -6   1  -4   12.79    1.74
   6  -1   4   14.53    1.81
   6  -1   4   14.23    1.76
   6  -1   4   15.38    1.60
  -7   1  -4    0.86    0.98
  -7   1  -4    2.95    1.06
  -7   1  -4    1.31    1.02
  -7   1  -4    0.94    0.80
   7  -1   4    2.78    1.04
   7  -1   4   -0.33    0.64
  -8   1  -4   -0.17    1.06
  -8   1  -4    0.26    0.96
  -8   1  -4   -0.34    0.96
  -8   1  -4    0.96    0.76
   8  -1   4    1.05    0.83
   8  -1   4   -0.27    0.77
   7   0  -4    1.51    0.93
  -7   0   4    2.02    1.01
  -7   0   4    4.97    1.63
  -7   0   4    0.74    0.80
  -7   0   4    4.10    1.32
   6   0  -4   18.82    2.02
  -6   0   4   20.38    2.19
  -6   0   4   21.06    2.38
  -6   0   4   21.06    2.20
  -6   0   4   25.26    2.74
   5   0  -4   -0.59    0.62
  -5   0   4    0.15    0.61
  -5   0   4    0.38    0.57
  -5   0   4    0.78    0.80
  -5   0   4    0.58    0.76
  -5   0   4    0.24    0.73
   4   0  -4   40.51    2.13
  -4   0   4   39.71    2.23
  -4   0   4   36.25    1.92
  -4   0   4   37.04    2.28
  -4   0   4   39.02    2.27
  -4   0   4   43.48    2.59
   3   0  -4   50.68    2.06
   3   0  -4   50.26    2.27
  -3   0   4   45.98    2.49
  -3   0   4   46.20    1.99
  -3   0   4   47.64    2.49
  -3   0   4   51.19    2.34
  -3   0   4   49.11    2.45
  -3   0   4   48.93    2.51
   2   0  -4   13.48    0.97
  -2   0   4   14.56    1.17
  -2   0   4   15.47    1.11
  -2   0   4   15.09    1.17
  -2   0   4   14.70    1.11
   1   0  -4   77.73    2.82
  -1   0   4   81.77    3.01
  -1   0   4   78.06    2.95
   0   0  -4  119.50    3.96
   0   0   4  120.45    3.88
   0   0   4  124.37    4.12
  -1   0  -4  142.32    4.53
  -1   0  -4  141.07    4.65
   1   0   4  143.32    4.66
  -2   0  -4   38.22    1.78
  -2   0  -4   39.75    1.85
   2   0   4   40.65    1.84
  -3   0  -4   35.53    1.88
  -3   0  -4   35.54    1.86
  -3   0  -4   38.04    1.93
  -3   0  -4   34.41    1.68
   3   0   4   36.42    1.89
   3   0   4   38.22    1.92
   3   0   4   36.61    1.84
  -4   0  -4   58.10    2.72
  -4   0  -4   56.02    2.69
  -4   0  -4   54.09    2.67
   4   0   4   55.32    2.57
   4   0   4   57.42    2.68
  -5   0  -4    4.16    1.02
  -5   0  -4    4.72    1.03
  -5   0  -4    3.69    0.91
  -5   0  -4    3.38    0.95
   5   0   4    4.39    0.95
   5   0   4    3.51    0.75
  -6   0  -4    0.50    0.64
  -6   0  -4    0.87    0.63
  -6   0  -4    0.20    0.73
  -6   0  -4    0.22    0.72
   6   0   4    0.74    0.75
  -7   0  -4   -0.09    0.66
  -7   0  -4   -1.17    0.61
  -7   0  -4   -0.66    0.61
  -7   0  -4   -0.77    0.65
   7   0   4    0.12    0.60
  -8   0  -4    8.10    1.64
  -8   0  -4    6.37    1.59
  -8   0  -4    5.84    1.46
  -8   0  -4    8.13    1.74
   8   0   4    5.95    1.51
   7  -1  -4   14.81    2.04
  -7   1   4   12.20    1.88
  -7   1   4   11.98    1.99
  -7   1   4   11.61    2.10
   6  -1  -4   12.34    1.67
  -6   1   4   13.20    1.79
  -6   1   4   10.77    1.80
  -6   1   4   13.55    1.85
  -6   1   4    9.44    1.70
   5  -1  -4    2.90    0.94
  -5   1   4    3.28    0.83
  -5   1   4    3.61    1.17
  -5   1   4    3.86    1.08
  -5   1   4    2.08    0.82
  -5   1   4    4.20    1.08
  -5   1   4    3.02    1.05
   4  -1  -4   12.03    1.45
   4  -1  -4   10.46    1.10
  -4   1   4   12.54    1.56
  -4   1   4   11.14    1.50
  -4   1   4   11.40    1.51
  -4   1   4   12.04    1.33
  -4   1   4   12.86    1.25
  -4   1   4   10.62    1.36
   3  -1  -4   14.04    1.06
   3  -1  -4   14.96    1.43
  -3   1   4   18.50    1.65
  -3   1   4   15.00    1.48
  -3   1   4   13.92    0.97
  -3   1   4   16.93    1.59
  -3   1   4   15.87    1.53
   2  -1  -4   -0.09    0.31
   2  -1  -4    0.76    0.44
  -2   1   4    0.88    0.44
  -2   1   4    1.07    0.52
  -2   1   4    0.98    0.48
  -2   1   4    0.45    0.40
   1  -1  -4   86.38    3.02
  -1   1   4   84.06    3.10
  -1   1   4   84.24    3.07
   0  -1  -4   10.55    0.83
   0   1   4   11.46    1.02
   0   1   4   10.04    0.89
  -1  -1  -4    0.36    0.29
  -1  -1  -4    0.32    0.36
   1   1   4    0.23    0.26
   1   1   4   -0.05    0.33
  -2  -1  -4   11.67    1.09
  -2  -1  -4   12.04    0.88
   2   1   4   11.13    1.07
  -3  -1  -4   33.18    1.59
  -3  -1  -4   36.62    1.85
  -3  -1  -4   30.18    1.76
  -3  -1  -4   32.40    1.81
   3   1   4   33.58    1.70
  -4  -1  -4    0.31    0.56
  -4  -1  -4    0.34    0.44
  -4  -1  -4    0.18    0.46
  -4  -1  -4    0.23    0.57
   4   1   4   -0.46    0.46
  -5  -1  -4    5.03    1.09
  -5  -1  -4    5.02    1.01
  -5  -1  -4    3.63    0.95
  -5  -1  -4    5.36    1.17
   5   1   4    5.89    1.01
  -6  -1  -4   29.94    2.33
  -6  -1  -4   30.52    2.27
  -6  -1  -4   32.16    2.42
  -6  -1  -4   32.92    2.27
   6   1   4   29.02    2.06
  -7  -1  -4    2.25    1.02
  -7  -1  -4    2.60    1.01
  -7  -1  -4    1.02    1.06
  -7  -1  -4    2.21    1.01
   7   1   4    0.68    0.76
  -8  -1  -4   16.16    2.29
  -8  -1  -4   14.63    2.11
  -8  -1  -4    9.03    1.75
  -8  -1  -4   18.17    2.47
   8   1   4   17.23    2.18
   7  -2  -4    1.17    1.06
  -7   2   4   -1.46    0.75
  -7   2   4   -0.52    0.92
  -7   2   4    1.21    1.03
  -7   2   4   -0.91    0.68
   6  -2  -4    6.19    1.41
  -6   2   4    7.76    1.51
  -6   2   4    9.61    1.78
  -6   2   4   10.79    1.71
  -6   2   4    9.17    1.55
   5  -2  -4   19.09    1.73
   5  -2  -4   21.55    2.13
  -5   2   4   19.28    2.03
  -5   2   4   19.99    2.07
  -5   2   4   14.44    1.92
  -5   2   4   15.60    1.95
   4  -2  -4   11.89    1.42
   4  -2  -4    7.62    1.08
  -4   2   4   11.47    1.46
  -4   2   4   13.19    1.32
  -4   2   4   10.92    1.56
  -4   2   4   11.18    1.43
  -4   2   4   10.47    1.34
   3  -2  -4    5.12    0.86
   3  -2  -4    7.11    1.07
  -3   2   4    6.08    1.08
  -3   2   4    7.87    1.08
  -3   2   4    7.67    1.08
  -3   2   4    7.70    1.16
  -3   2   4    7.33    0.85
   2  -2  -4    2.11    0.59
   2  -2  -4    2.37    0.62
   2  -2  -4    3.09    0.60
  -2   2   4    2.50    0.62
  -2   2   4    2.49    0.59
  -2   2   4    2.96    0.71
  -2   2   4    2.65    0.63
  -2   2   4    2.25    0.46
   1  -2  -4    7.65    0.89
   1  -2  -4    7.06    0.90
   1  -2  -4    7.62    0.91
  -1   2   4    9.20    0.95
  -1   2   4    9.52    0.93
  -1   2   4    7.92    0.90
   0  -2  -4   33.75    1.63
   0  -2  -4   37.40    1.79
   0  -2  -4   37.40    1.75
   0   2   4   39.04    1.65
   0   2   4   34.34    1.56
   0   2   4   35.29    1.63
  -1  -2  -4    2.65    0.55
  -1  -2  -4    4.52    0.67
  -1  -2  -4    5.21    0.68
  -1  -2  -4    4.87    0.63
  -1  -2  -4    5.65    0.60
   1   2   4    4.11    0.60
   1   2   4    4.07    0.54
   1   2   4    5.46    0.68
  -2  -2  -4   40.51    1.78
  -2  -2  -4   39.42    1.86
  -2  -2  -4   37.27    1.77
   2   2   4   40.46    1.85
  -3  -2  -4  133.06    4.61
  -3  -2  -4  131.01    4.14
  -3  -2  -4  125.52    4.62
  -3  -2  -4  132.43    4.60
  -3  -2  -4  128.28    4.70
  -3  -2  -4  129.65    4.14
  -4  -2  -4    4.60    0.90
  -4  -2  -4    2.28    0.75
  -4  -2  -4    3.05    0.87
  -4  -2  -4    2.84    0.73
  -4  -2  -4    3.14    0.56
   4   2   4    4.01    0.80
  -5  -2  -4   10.50    1.44
  -5  -2  -4   13.78    1.70
  -5  -2  -4    9.87    1.49
  -5  -2  -4   10.82    1.48
   5   2   4   11.19    1.34
  -6  -2  -4   15.27    1.96
  -6  -2  -4   19.62    2.15
  -6  -2  -4   19.28    2.12
  -6  -2  -4   17.29    2.00
   6   2   4   19.57    1.97
  -7  -2  -4    2.20    1.09
  -7  -2  -4    1.66    1.04
  -7  -2  -4    1.84    0.85
  -7  -2  -4    0.97    0.89
   7   2   4    3.22    0.96
  -8  -2  -4   -0.07    0.88
  -8  -2  -4    0.18    0.70
  -8  -2  -4    1.33    1.16
  -8  -2  -4   -0.33    0.88
   8   2   4   -0.02    0.87
   7  -3  -4    4.39    1.37
  -7   3   4    6.11    1.53
  -7   3   4    7.10    1.53
  -7   3   4    6.14    1.60
  -7   3   4    1.46    1.11
   6  -3  -4   -0.53    0.79
  -6   3   4    0.28    0.83
  -6   3   4   -0.31    0.86
  -6   3   4    2.23    1.05
  -6   3   4    0.49    0.93
   5  -3  -4    1.39    0.70
   5  -3  -4    1.18    0.78
  -5   3   4    2.02    0.87
  -5   3   4   -0.13    0.73
  -5   3   4    1.26    0.83
  -5   3   4    1.28    0.77
   4  -3  -4    1.74    0.87
   4  -3  -4    3.11    0.87
   4  -3  -4    4.66    0.88
  -4   3   4    2.22    0.81
  -4   3   4    3.08    0.97
  -4   3   4    5.30    0.94
  -4   3   4    2.75    0.91
  -4   3   4    1.88    0.72
   3  -3  -4   39.77    2.11
   3  -3  -4   37.72    2.05
   3  -3  -4   37.01    2.13
  -3   3   4   35.64    1.84
  -3   3   4   40.28    2.35
  -3   3   4   37.47    2.15
  -3   3   4   32.89    1.99
  -3   3   4   36.16    1.95
   2  -3  -4   -0.04    0.34
   2  -3  -4    0.80    0.50
   2  -3  -4    0.11    0.34
   2  -3  -4    0.24    0.44
  -2   3   4    0.29    0.37
  -2   3   4   -0.05    0.38
  -2   3   4    0.26    0.39
  -2   3   4   -0.85    0.35
  -2   3   4    0.14    0.41
   1  -3  -4   23.32    1.45
   1  -3  -4   26.18    1.51
   1  -3  -4   24.46    1.47
   1  -3  -4   23.82    1.52
  -1   3   4   24.30    1.49
  -1   3   4   23.04    1.43
  -1   3   4   19.44    1.35
  -1   3   4   22.32    1.22
  -1   3   4   23.59    1.20
   0  -3  -4  159.13    5.04
   0  -3  -4  165.56    5.26
   0  -3  -4  156.67    5.35
   0  -3  -4  160.98    5.22
   0   3   4  157.61    5.01
   0   3   4  158.56    5.06
   0   3   4  157.38    5.18
   0   3   4  166.64    5.43
  -1  -3  -4   31.97    1.71
  -1  -3  -4   35.59    1.77
  -1  -3  -4   32.66    1.52
  -1  -3  -4   31.94    1.63
  -1  -3  -4   28.55    1.53
   1   3   4   31.54    1.66
   1   3   4   31.12    1.51
   1   3   4   27.59    1.52
   1   3   4   31.05    1.48
  -2  -3  -4    3.60    0.66
  -2  -3  -4    3.90    0.67
  -2  -3  -4    4.97    0.70
  -2  -3  -4    4.54    0.76
  -2  -3  -4    3.87    0.68
  -2  -3  -4    3.87    0.69
  -2  -3  -4    2.92    0.69
   2   3   4    3.64    0.66
   2   3   4    4.31    0.74
  -3  -3  -4   13.54    1.39
  -3  -3  -4   13.26    1.21
  -3  -3  -4   14.61    1.01
  -3  -3  -4   13.04    1.00
  -3  -3  -4   12.83    1.33
  -3  -3  -4   13.93    1.40
  -3  -3  -4   15.30    1.49
  -4  -3  -4    8.00    1.19
  -4  -3  -4    6.46    1.09
  -4  -3  -4    7.12    1.28
  -4  -3  -4    7.46    1.16
   4   3   4    7.45    0.99
  -5  -3  -4    8.25    1.31
  -5  -3  -4    8.85    1.38
  -5  -3  -4    9.43    1.50
  -5  -3  -4    9.29    1.46
   5   3   4    8.92    1.22
  -6  -3  -4    0.91    0.76
  -6  -3  -4    1.39    0.89
  -6  -3  -4   -0.13    0.60
  -6  -3  -4    1.65    0.84
   6   3   4    0.17    0.70
  -7  -3  -4    1.31    0.93
  -7  -3  -4    4.64    1.36
  -7  -3  -4    3.82    1.21
  -7  -3  -4    7.29    1.61
  -8  -3  -4   17.09    2.53
  -8  -3  -4   23.91    2.89
  -8  -3  -4   19.09    2.62
   7  -4  -4   15.21    2.26
  -7   4   4   12.68    2.20
  -7   4   4   13.77    2.13
  -7   4   4   15.11    2.31
   6  -4  -4    4.87    1.41
   6  -4  -4    2.14    0.94
  -6   4   4    5.87    1.51
  -6   4   4    5.60    1.42
  -6   4   4    3.08    1.15
   5  -4  -4   10.66    1.67
   5  -4  -4   11.73    1.62
  -5   4   4   12.62    1.92
  -5   4   4   13.47    1.75
  -5   4   4   11.15    1.71
   4  -4  -4    4.63    0.97
   4  -4  -4    5.10    1.07
   4  -4  -4    5.13    1.07
  -4   4   4    2.98    1.00
  -4   4   4    3.50    1.10
  -4   4   4    4.27    1.05
  -4   4   4    6.60    1.11
   3  -4  -4    8.40    1.26
   3  -4  -4    6.39    1.05
   3  -4  -4    7.52    1.18
  -3   4   4    7.85    1.05
  -3   4   4    6.46    1.22
  -3   4   4    5.46    1.11
  -3   4   4    6.99    1.17
   2  -4  -4    6.09    1.04
   2  -4  -4    7.82    1.16
   2  -4  -4    7.27    1.08
   2  -4  -4    6.18    1.07
  -2   4   4    7.05    1.10
  -2   4   4    8.05    0.89
  -2   4   4    6.70    0.93
  -2   4   4    7.53    1.19
  -2   4   4    6.21    1.04
   1  -4  -4    4.92    0.88
   1  -4  -4    4.74    0.85
   1  -4  -4    5.06    0.90
   1  -4  -4    6.08    0.95
  -1   4   4    5.43    0.66
  -1   4   4    4.83    0.87
  -1   4   4    5.93    0.95
  -1   4   4    5.93    0.98
  -1   4   4    5.75    0.84
   0  -4  -4    0.11    0.40
   0  -4  -4    0.29    0.42
   0  -4  -4    0.34    0.39
   0  -4  -4    0.74    0.43
   0   4   4    0.67    0.51
   0   4   4    0.64    0.45
   0   4   4    0.43    0.41
   0   4   4    0.47    0.33
   0   4   4    0.62    0.54
  -1  -4  -4   11.02    1.31
  -1  -4  -4   12.58    1.20
  -1  -4  -4   12.03    1.26
  -1  -4  -4   11.70    1.32
  -1  -4  -4   12.01    0.90
  -1  -4  -4   11.01    1.13
   1   4   4   11.28    0.84
   1   4   4   10.29    1.14
   1   4   4   11.21    1.22
   1   4   4   13.13    1.39
  -2  -4  -4    2.75    0.68
  -2  -4  -4    2.93    0.76
  -2  -4  -4    4.18    0.83
  -2  -4  -4    3.03    0.63
  -2  -4  -4    4.59    0.75
  -2  -4  -4    3.38    0.76
  -2  -4  -4    2.95    0.72
   2   4   4    1.44    0.56
   2   4   4    4.00    0.68
   2   4   4    4.64    0.88
  -3  -4  -4   17.75    1.70
  -3  -4  -4   19.15    1.24
  -3  -4  -4   19.79    1.55
  -3  -4  -4   18.56    1.82
  -3  -4  -4   18.58    1.37
  -3  -4  -4   20.22    1.46
  -3  -4  -4   19.37    1.39
   3   4   4   18.52    1.51
  -4  -4  -4    1.08    0.77
  -4  -4  -4    0.24    0.47
  -4  -4  -4    1.01    0.71
  -4  -4  -4   -0.15    0.54
  -4  -4  -4    0.66    0.59
  -5  -4  -4    2.55    0.95
  -5  -4  -4    3.47    1.14
  -5  -4  -4    2.61    0.94
  -5  -4  -4    2.75    0.82
  -5  -4  -4    2.35    1.03
  -6  -4  -4    2.79    1.04
  -6  -4  -4    0.52    0.87
  -6  -4  -4    2.41    1.09
  -6  -4  -4    1.15    0.96
  -7  -4  -4    9.04    1.85
  -7  -4  -4   10.47    1.82
  -7  -4  -4   13.88    2.12
  -7  -4  -4    7.71    1.71
   6  -5  -4    0.41    0.81
   6  -5  -4    0.48    0.91
  -6   5   4    0.57    0.87
  -6   5   4   -0.82    0.79
  -6   5   4    0.34    0.93
   5  -5  -4    4.84    1.37
   5  -5  -4    4.24    1.15
  -5   5   4    5.53    1.34
  -5   5   4    3.33    1.26
  -5   5   4    3.82    1.12
   4  -5  -4   -0.21    0.53
   4  -5  -4    0.63    0.77
   4  -5  -4   -0.45    0.55
  -4   5   4    2.57    0.90
  -4   5   4   -0.01    0.66
  -4   5   4    0.33    0.89
  -4   5   4    1.25    0.71
   3  -5  -4   -0.38    0.63
   3  -5  -4    0.12    0.59
   3  -5  -4    0.37    0.61
   3  -5  -4    0.06    0.53
  -3   5   4    0.17    0.66
  -3   5   4   -0.45    0.53
  -3   5   4   -0.60    0.54
  -3   5   4    0.20    0.56
   2  -5  -4    1.00    0.72
   2  -5  -4    0.03    0.48
   2  -5  -4   -0.09    0.54
   2  -5  -4    0.26    0.63
  -2   5   4    0.40    0.66
  -2   5   4    0.54    0.71
  -2   5   4   -0.13    0.53
  -2   5   4   -0.59    0.56
   1  -5  -4   13.45    1.45
   1  -5  -4   12.54    1.46
   1  -5  -4   13.38    1.56
   1  -5  -4   11.76    1.43
  -1   5   4   15.32    1.55
  -1   5   4   11.33    1.47
  -1   5   4   11.37    1.40
  -1   5   4   14.35    1.53
   0  -5  -4    6.24    1.08
   0  -5  -4    8.55    1.06
   0  -5  -4    3.96    0.89
   0  -5  -4    6.23    0.97
   0   5   4    4.82    0.96
   0   5   4    5.12    0.94
   0   5   4    7.25    1.20
   0   5   4    4.24    0.90
  -1  -5  -4   10.67    1.33
  -1  -5  -4   10.11    1.33
  -1  -5  -4    7.35    1.23
  -1  -5  -4   10.24    1.18
  -1  -5  -4   11.05    1.37
  -1  -5  -4    7.40    0.92
   1   5   4   11.81    1.36
   1   5   4   10.54    1.33
   1   5   4   10.50    1.39
  -2  -5  -4    8.21    1.22
  -2  -5  -4   10.79    1.42
  -2  -5  -4    9.89    1.30
  -2  -5  -4    9.55    1.23
  -2  -5  -4    7.54    1.20
  -2  -5  -4    8.03    1.03
   2   5   4    8.40    1.30
   2   5   4    9.36    1.26
  -3  -5  -4   14.18    1.56
  -3  -5  -4   15.13    1.44
  -3  -5  -4   11.50    1.62
  -3  -5  -4   14.64    1.72
  -3  -5  -4   14.79    1.55
  -3  -5  -4   16.87    1.73
   3   5   4   14.12    1.60
  -4  -5  -4    1.61    0.86
  -4  -5  -4    1.89    0.83
  -4  -5  -4    1.40    0.74
  -4  -5  -4    1.19    0.72
  -4  -5  -4    1.57    0.77
   4   5   4    1.31    0.74
  -5  -5  -4    1.58    0.87
  -5  -5  -4   -0.62    0.63
  -5  -5  -4   -0.84    0.58
  -5  -5  -4   -0.18    0.64
  -5  -5  -4    0.34    0.61
   5   5   4   -0.01    0.61
  -6  -5  -4    5.48    1.36
  -6  -5  -4    7.80    1.54
  -6  -5  -4    7.83    1.55
  -6  -5  -4    3.07    1.04
  -6  -5  -4    7.20    1.39
  -7  -5  -4   14.55    2.23
  -7  -5  -4   10.28    1.92
  -7  -5  -4   11.37    1.95
  -7  -5  -4   14.00    2.17
   5  -6  -4    5.59    1.36
   5  -6  -4    7.32    1.61
  -5   6   4    3.20    1.26
  -5   6   4    8.16    1.58
  -5   6   4    7.57    1.74
   4  -6  -4    2.57    1.04
   4  -6  -4    2.23    1.02
   4  -6  -4    1.50    0.88
   4  -6  -4    1.78    0.95
  -4   6   4    1.20    1.05
  -4   6   4    1.17    0.86
  -4   6   4    0.52    0.75
  -4   6   4    1.57    0.91
   3  -6  -4    3.74    1.03
   3  -6  -4    3.94    1.06
   3  -6  -4    3.37    1.05
   3  -6  -4    4.71    1.18
  -3   6   4    4.00    1.08
  -3   6   4    3.76    1.02
  -3   6   4    4.73    1.16
  -3   6   4    3.57    1.13
   2  -6  -4    0.02    0.67
   2  -6  -4    1.26    0.66
   2  -6  -4    0.75    0.72
   2  -6  -4    2.31    0.89
  -2   6   4    0.87    0.74
  -2   6   4    0.42    0.70
  -2   6   4    0.63    0.69
  -2   6   4    0.62    0.76
   1  -6  -4    5.80    1.07
   1  -6  -4    6.96    1.29
   1  -6  -4    4.31    1.11
   1  -6  -4    7.35    1.22
  -1   6   4    6.38    1.17
  -1   6   4    6.62    1.21
  -1   6   4    5.31    1.19
  -1   6   4    7.16    1.31
   0  -6  -4    9.99    1.37
   0  -6  -4    9.50    1.37
   0  -6  -4    7.40    1.31
   0   6   4    8.88    1.30
   0   6   4    5.62    1.12
   0   6   4    9.32    1.36
   0   6   4    8.35    1.39
  -1  -6  -4   44.54    2.60
  -1  -6  -4   45.64    2.76
  -1  -6  -4   47.74    2.89
  -1  -6  -4   51.14    2.75
   1   6   4   46.93    2.82
   1   6   4   48.52    2.69
   1   6   4   45.52    2.66
  -2  -6  -4    8.07    1.39
  -2  -6  -4    7.23    1.26
  -2  -6  -4    5.73    0.94
  -2  -6  -4    4.75    1.07
  -2  -6  -4    4.88    1.20
   2   6   4    5.83    1.18
   2   6   4    7.84    1.41
  -3  -6  -4    3.68    1.06
  -3  -6  -4    2.13    0.89
  -3  -6  -4    2.95    1.06
  -3  -6  -4    2.78    0.96
  -3  -6  -4    2.12    0.83
   3   6   4    2.99    0.99
   3   6   4    3.36    0.96
  -4  -6  -4    1.25    0.79
  -4  -6  -4    1.11    0.75
  -4  -6  -4    2.32    0.98
  -4  -6  -4    1.87    0.73
  -4  -6  -4    3.74    1.12
   4   6   4    0.73    0.82
  -5  -6  -4   15.04    1.97
  -5  -6  -4   12.38    1.98
  -5  -6  -4   13.41    2.02
  -5  -6  -4   15.20    1.99
   5   6   4   13.92    2.01
  -6  -6  -4    2.49    1.04
  -6  -6  -4    0.22    0.75
  -6  -6  -4    2.11    1.07
  -6  -6  -4    0.00    0.71
   6   6   4    2.91    1.12
   4  -7  -4   -0.16    0.74
   4  -7  -4    0.11    0.86
   4  -7  -4    0.62    0.83
   4  -7  -4    0.90    0.91
  -4   7   4   -0.14    0.82
  -4   7   4    0.09    0.94
  -4   7   4    0.33    0.92
  -4   7   4   -0.89    0.94
   3  -7  -4   28.03    2.72
   3  -7  -4   25.67    2.42
   3  -7  -4   24.59    2.53
   3  -7  -4   20.38    2.37
  -3   7   4   23.00    2.48
  -3   7   4   23.00    2.45
  -3   7   4   25.16    2.48
  -3   7   4   30.33    3.06
   2  -7  -4    5.50    1.26
   2  -7  -4    1.95    0.94
   2  -7  -4    4.79    1.24
  -2   7   4    4.33    1.31
  -2   7   4    4.07    1.16
  -2   7   4    4.34    1.15
  -2   7   4    3.76    1.09
   1  -7  -4   -0.05    0.65
   1  -7  -4   -0.19    0.59
   1  -7  -4   -0.22    0.59
  -1   7   4    0.59    0.86
  -1   7   4    0.56    0.88
  -1   7   4    0.76    0.82
  -1   7   4    0.95    0.75
   0  -7  -4    5.96    1.33
   0  -7  -4    3.67    1.04
   0  -7  -4    5.67    1.21
   0   7   4    4.27    1.09
   0   7   4    5.68    1.26
   0   7   4    4.85    1.27
   0   7   4    4.41    1.02
  -1  -7  -4    0.18    0.61
  -1  -7  -4    0.54    0.72
  -1  -7  -4   -0.32    0.68
  -1  -7  -4   -0.06    0.48
   1   7   4   -1.18    0.60
   1   7   4    0.71    0.85
   1   7   4    0.33    0.76
   1   7   4   -0.40    0.54
  -2  -7  -4    0.11    0.86
  -2  -7  -4   -0.06    0.75
  -2  -7  -4    0.37    0.74
  -2  -7  -4   -0.11    0.64
   2   7   4    0.84    0.85
   2   7   4    0.13    0.80
  -3  -7  -4    0.60    0.90
  -3  -7  -4    0.39    0.77
  -3  -7  -4    0.48    0.91
  -3  -7  -4    0.15    0.73
   3   7   4    1.49    0.92
   3   7   4    0.89    0.91
  -4  -7  -4    3.41    1.17
  -4  -7  -4    2.66    1.15
  -4  -7  -4    3.18    1.22
  -4  -7  -4    4.49    1.06
   4   7   4    2.74    1.11
   4   7   4    0.58    1.00
  -5  -7  -4   15.32    2.24
  -5  -7  -4   14.81    2.07
  -5  -7  -4    9.26    1.85
  -5  -7  -4   14.41    2.03
   5   7   4   11.47    2.13
   3  -8  -4    1.14    0.98
   3  -8  -4    0.32    0.74
   3  -8  -4    1.18    1.01
  -3   8   4    0.49    1.09
  -3   8   4   -1.25    0.83
  -3   8   4    0.97    1.13
  -3   8   4   -1.10    0.77
   2  -8  -4   -0.33    0.82
   2  -8  -4    0.05    0.82
   2  -8  -4   -1.01    0.64
  -2   8   4    0.17    0.90
  -2   8   4   -0.12    0.93
  -2   8   4    0.43    0.89
  -2   8   4   -0.65    0.77
   1  -8  -4   12.12    1.81
   1  -8  -4   11.27    1.79
   1  -8  -4    9.46    1.81
  -1   8   4   11.36    1.82
  -1   8   4   13.07    2.08
  -1   8   4   16.10    2.11
  -1   8   4    8.09    1.55
   0  -8  -4    1.04    1.01
   0  -8  -4    1.03    0.94
   0  -8  -4    1.58    0.82
   0   8   4    3.73    1.18
   0   8   4    0.85    0.95
   0   8   4    2.34    1.11
   0   8   4    1.43    1.04
  -1  -8  -4    0.58    0.70
  -1  -8  -4    0.42    0.72
  -1  -8  -4    0.56    0.73
   1   8   4    0.41    0.90
   1   8   4    1.53    0.95
   1   8   4    1.93    1.10
   1   8   4    0.66    0.85
  -2  -8  -4    0.79    0.83
  -2  -8  -4   -0.43    0.90
  -2  -8  -4    0.03    0.87
  -2  -8  -4    0.06    0.72
   2   8   4   -0.12    0.89
   2   8   4    0.99    1.07
  -3  -8  -4    4.31    1.46
  -3  -8  -4    5.91    1.73
  -3  -8  -4    6.90    1.50
  -3  -8  -4    5.54    1.51
   3   8   4    5.23    1.64
   3   8   4    2.53    1.18
  -4  -8  -4    2.13    1.29
  -4  -8  -4    1.84    1.12
  -4  -8  -4    2.59    1.26
  -4  -8  -4    2.49    1.15
   4   8   4    0.70    1.11
   4   8   4   -0.82    0.89
   2   7  -5    7.50    1.60
  -2  -7   5    9.19    1.67
  -2  -7   5    7.62    1.65
  -2  -7   5    7.82    1.67
   1   7  -5    2.78    1.36
  -1  -7   5    0.82    0.98
  -1  -7   5   -0.06    0.90
  -1  -7   5   -0.53    0.94
   0   7  -5   -0.28    1.02
   0  -7   5   -0.60    0.68
   0  -7   5    0.22    0.85
  -1   7  -5    5.35    1.57
   1  -7   5    3.65    1.21
   1  -7   5    4.51    1.42
  -2   7  -5    0.33    0.86
   2  -7   5    1.41    1.04
   2  -7   5    1.65    1.07
  -3   7  -5    9.96    1.98
   3  -7   5   15.14    2.28
   3  -7   5   11.89    1.96
   3   6  -5    1.98    1.27
  -3  -6   5    2.67    1.32
  -3  -6   5    1.87    1.06
   2   6  -5    4.78    1.37
  -2  -6   5    5.75    1.39
  -2  -6   5    6.15    1.55
   1   6  -5    2.22    1.14
  -1  -6   5    3.09    0.99
  -1  -6   5    3.69    1.12
   0   6  -5    2.33    1.07
   0  -6   5    2.19    0.90
   0  -6   5    1.19    0.87
   0  -6   5    1.71    0.90
  -1   6  -5   -0.31    0.88
   1  -6   5    1.65    0.92
   1  -6   5    1.04    0.79
   1  -6   5    2.39    0.89
  -2   6  -5   16.11    2.15
   2  -6   5   18.59    2.24
   2  -6   5   20.62    2.31
  -3   6  -5   -1.47    0.82
   3  -6   5   -0.12    0.77
   3  -6   5    1.78    1.03
  -4   6  -5    3.99    1.39
   4  -6   5    3.21    1.22
  -5   6  -5    4.24    1.58
   5  -6   5    2.92    1.22
  -5  -5   5   -0.03    0.98
  -5  -5   5    2.08    1.12
  -5  -5   5    2.19    1.21
  -5  -5   5    0.08    0.98
  -4  -5   5   20.40    2.51
  -4  -5   5   21.01    2.63
  -4  -5   5   17.90    2.20
   3   5  -5    1.13    1.00
  -3  -5   5    1.45    0.83
  -3  -5   5    0.18    0.73
  -3  -5   5   -0.02    0.82
   2   5  -5   -0.19    0.67
  -2  -5   5    0.02    0.68
  -2  -5   5    0.23    0.64
   1   5  -5    5.25    1.14
  -1  -5   5    2.87    0.96
  -1  -5   5    4.26    1.04
   0   5  -5    6.60    1.22
   0  -5   5    6.89    1.20
   0  -5   5    6.73    1.11
   0  -5   5    8.70    1.31
  -1   5  -5   22.01    2.25
   1  -5   5   18.65    1.95
   1  -5   5   22.36    2.16
  -2   5  -5   25.43    2.35
   2  -5   5   20.67    2.01
   2  -5   5   21.16    2.16
  -3   5  -5    8.53    1.65
   3  -5   5    9.82    1.57
   3  -5   5    4.54    1.20
   3  -5   5    8.52    1.44
  -4   5  -5   33.09    2.63
   4  -5   5   36.36    2.40
   4  -5   5   30.38    2.85
   4  -5   5   38.73    2.64
  -5   5  -5    2.37    1.26
   5  -5   5    1.76    1.06
   5  -5   5    1.25    1.03
  -6   5  -5   -0.74    0.85
   6  -5   5   -0.03    0.94
   6  -5   5    1.39    1.14
  -5  -4   5    0.69    0.84
  -5  -4   5    1.73    0.97
  -5  -4   5    0.14    0.90
  -5  -4   5    2.93    1.23
  -4  -4   5   42.46    2.83
  -4  -4   5   42.22    2.91
  -4  -4   5   46.13    2.94
  -3  -4   5    2.14    0.95
  -3  -4   5    2.94    0.86
  -3  -4   5    2.29    0.85
  -3  -4   5    1.11    0.81
  -3  -4   5    2.03    0.88
   2   4  -5    4.22    1.10
  -2  -4   5    2.35    0.81
  -2  -4   5    3.33    1.05
  -2  -4   5    3.51    1.01
  -2  -4   5    1.67    0.74
  -2  -4   5    4.21    0.95
   1   4  -5    3.05    0.87
  -1  -4   5    2.24    0.84
  -1  -4   5    1.53    0.84
  -1  -4   5    1.90    0.80
   0   4  -5   30.26    1.95
   0  -4   5   29.45    1.97
   0  -4   5   29.08    1.83
   0  -4   5   29.62    1.85
   0  -4   5   29.54    2.04
  -1   4  -5    0.14    0.60
   1  -4   5    0.76    0.47
   1  -4   5    0.85    0.74
   1  -4   5    0.84    0.54
   1  -4   5    0.34    0.58
  -2   4  -5    8.50    1.38
   2  -4   5    9.16    1.40
   2  -4   5    9.20    1.46
  -3   4  -5    3.50    1.01
   3  -4   5    2.97    0.95
   3  -4   5    2.07    0.80
   3  -4   5    2.09    0.83
  -4   4  -5    0.22    0.69
   4  -4   5    0.82    0.67
   4  -4   5   -0.40    0.65
   4  -4   5   -0.12    0.64
   4  -4   5   -0.65    0.62
  -5   4  -5    3.52    1.32
  -5   4  -5    2.70    1.03
   5  -4   5    2.18    0.97
   5  -4   5    1.62    0.91
   5  -4   5    1.72    0.84
  -6   4  -5    5.25    1.47
   6  -4   5    6.76    1.49
   6  -4   5    0.58    0.95
  -7   4  -5    6.47    1.74
   7  -4   5    7.68    1.84
   7  -4   5    7.60    1.70
  -6  -3   5   14.77    2.21
  -6  -3   5   15.50    2.32
  -6  -3   5   14.40    2.22
  -6  -3   5   17.80    2.36
  -5  -3   5    5.43    1.47
  -5  -3   5    6.43    1.38
  -5  -3   5    5.34    1.35
  -5  -3   5    5.77    1.33
  -4  -3   5   -0.65    0.51
  -4  -3   5    1.86    0.90
  -4  -3   5    0.39    0.72
  -4  -3   5   -0.07    0.68
  -3  -3   5    2.56    0.92
  -3  -3   5    2.14    0.87
  -3  -3   5    3.57    0.91
  -3  -3   5    3.20    0.97
  -3  -3   5    0.83    0.57
   2   3  -5    3.99    0.83
  -2  -3   5    2.37    0.69
  -2  -3   5    3.10    0.99
  -2  -3   5    3.43    0.77
  -2  -3   5    3.37    0.89
  -2  -3   5    4.48    0.97
  -1  -3   5   23.57    1.76
  -1  -3   5   21.08    1.58
  -1  -3   5   18.15    1.65
  -1  -3   5   21.14    1.39
   0  -3   5   40.66    2.06
   0  -3   5   35.87    1.95
   0  -3   5   36.42    2.16
  -1   3  -5    2.11    0.65
   1  -3   5    0.04    0.40
   1  -3   5    0.12    0.48
   1  -3   5    1.44    0.67
   1  -3   5    0.54    0.72
   1  -3   5    0.45    0.43
  -2   3  -5   66.39    3.00
   2  -3   5   65.77    3.04
   2  -3   5   68.69    2.88
   2  -3   5   63.50    3.06
   2  -3   5   66.35    2.80
  -3   3  -5    0.91    0.63
  -3   3  -5    0.35    0.67
   3  -3   5    0.46    0.56
   3  -3   5    0.96    0.74
   3  -3   5    0.29    0.49
   3  -3   5    1.35    0.70
  -4   3  -5    0.62    0.69
  -4   3  -5    0.91    0.68
  -4   3  -5    2.52    0.82
   4  -3   5    1.93    0.79
   4  -3   5    1.03    0.60
   4  -3   5    0.20    0.63
   4  -3   5    0.22    0.56
  -5   3  -5   -0.08    0.66
  -5   3  -5    0.43    0.70
  -5   3  -5    0.01    0.70
   5  -3   5   -0.19    0.76
   5  -3   5    0.54    0.62
   5  -3   5   -0.46    0.69
   5  -3   5    0.64    0.66
  -6   3  -5   18.84    2.30
  -6   3  -5   13.03    1.73
  -6   3  -5   14.49    1.90
   6  -3   5   11.80    1.68
   6  -3   5   17.94    2.07
   6  -3   5   13.96    1.91
   6  -3   5   11.52    1.66
  -7   3  -5    8.64    1.56
  -7   3  -5    4.01    1.27
   7  -3   5    7.87    1.51
   7  -3   5    7.83    1.62
  -6  -2   5    5.61    1.53
  -6  -2   5   10.16    1.82
  -6  -2   5    7.59    1.56
  -6  -2   5    7.68    1.68
  -5  -2   5    4.03    1.24
  -5  -2   5    2.32    1.00
  -5  -2   5    5.37    1.28
  -5  -2   5    6.22    1.34
  -4  -2   5   34.62    2.51
  -4  -2   5   39.90    2.52
  -4  -2   5   41.83    2.52
  -4  -2   5   37.36    2.46
  -3  -2   5    2.97    0.88
  -3  -2   5    2.84    0.91
  -3  -2   5    1.57    0.87
  -3  -2   5    2.63    0.77
   2   2  -5   18.84    1.22
  -2  -2   5   20.41    1.83
  -2  -2   5   19.60    1.82
  -2  -2   5   15.68    1.69
  -2  -2   5   17.31    1.18
  -2  -2   5   15.21    1.26
   1   2  -5   15.09    1.07
  -1  -2   5   16.52    1.59
  -1  -2   5   18.12    1.12
  -1  -2   5   16.38    1.54
  -1  -2   5   15.51    1.59
   0   2  -5   85.60    3.13
   0  -2   5   88.71    3.28
   0  -2   5   88.12    3.54
   0  -2   5   89.09    3.45
   1  -2   5   12.83    1.39
   1  -2   5    9.54    1.12
   1  -2   5   11.11    0.84
  -2   2  -5   21.72    1.50
  -2   2  -5   23.21    1.49
   2  -2   5   22.09    1.54
   2  -2   5   23.74    1.50
   2  -2   5   25.32    1.52
  -3   2  -5    1.72    0.79
  -3   2  -5    1.00    0.61
  -3   2  -5    0.50    0.54
   3  -2   5    0.65    0.54
   3  -2   5    0.93    0.65
   3  -2   5    1.05    0.54
  -4   2  -5    2.11    0.75
  -4   2  -5    1.47    0.79
  -4   2  -5    2.30    0.82
   4  -2   5    1.77    0.79
   4  -2   5    2.13    0.79
   4  -2   5    2.35    0.78
   4  -2   5    3.26    0.81
  -5   2  -5   -0.04    0.61
  -5   2  -5    0.76    0.79
  -5   2  -5    1.35    0.75
   5  -2   5    0.64    0.64
   5  -2   5    0.68    0.67
   5  -2   5   -0.08    0.49
   5  -2   5    0.27    0.72
  -6   2  -5   13.59    1.85
  -6   2  -5   12.67    1.78
  -6   2  -5   18.47    2.23
   6  -2   5   17.10    1.89
   6  -2   5   16.33    1.86
   6  -2   5   14.96    1.79
   6  -2   5   14.68    1.92
  -7   2  -5   -0.05    0.83
  -7   2  -5    0.90    0.85
  -7   2  -5    2.76    1.10
   7  -2   5    0.89    0.80
   7  -2   5    0.07    0.76
   7  -2   5    0.32    0.74
   7  -2   5    1.41    0.78
  -8   2  -5   40.41    3.03
  -8   2  -5   44.96    3.29
  -8   2  -5   42.21    3.10
   8  -2   5   38.65    2.88
   8  -2   5   43.33    3.14
   8  -2   5   44.00    3.17
  -7  -1   5    6.58    1.56
  -7  -1   5   11.88    2.11
  -7  -1   5   12.10    2.00
  -6  -1   5    2.30    1.10
  -6  -1   5    1.85    0.97
  -6  -1   5    0.54    0.77
  -6  -1   5    1.14    0.98
  -5  -1   5   14.97    1.94
  -5  -1   5   17.18    2.03
  -5  -1   5   18.58    2.19
  -5  -1   5   14.74    1.90
   4   1  -5    9.23    1.24
  -4  -1   5    8.55    1.39
  -4  -1   5    8.14    1.36
  -4  -1   5    8.63    1.37
  -4  -1   5   11.49    1.58
   3   1  -5   -0.28    0.39
   3   1  -5   -0.53    0.44
  -3  -1   5    0.42    0.49
  -3  -1   5    1.14    0.60
  -3  -1   5    2.33    0.85
  -3  -1   5   -0.06    0.56
   2   1  -5    0.32    0.38
   2   1  -5    0.55    0.37
  -2  -1   5    0.52    0.55
  -2  -1   5    0.28    0.54
  -2  -1   5   -0.15    0.30
  -2  -1   5    0.92    0.57
  -2  -1   5    0.37    0.41
   1   1  -5    2.18    0.55
  -1  -1   5    2.41    0.68
  -1  -1   5    0.84    0.53
  -1  -1   5    2.85    0.71
   0   1  -5  138.79    4.35
   0  -1   5  143.22    4.53
   0  -1   5  135.82    4.76
   0  -1   5  131.99    4.82
  -1   1  -5   20.77    1.12
   1  -1   5   20.07    1.08
   1  -1   5   20.42    1.31
   1  -1   5   18.75    1.35
  -2   1  -5   54.09    2.49
  -2   1  -5   51.01    2.39
  -2   1  -5   57.90    2.52
   2  -1   5   57.40    2.50
   2  -1   5   54.39    2.44
   2  -1   5   55.56    2.42
  -3   1  -5   -0.09    0.47
  -3   1  -5    0.19    0.51
  -3   1  -5   -0.23    0.52
   3  -1   5   -0.21    0.40
   3  -1   5   -0.16    0.52
   3  -1   5   -0.11    0.42
  -4   1  -5   25.89    1.81
  -4   1  -5   25.09    1.66
  -4   1  -5   24.34    1.76
  -4   1  -5   27.16    1.85
   4  -1   5   28.16    1.85
   4  -1   5   26.86    1.80
   4  -1   5   26.27    1.76
  -5   1  -5    2.09    0.87
  -5   1  -5    1.89    0.79
  -5   1  -5    2.53    0.86
  -5   1  -5    0.78    0.76
   5  -1   5    2.96    0.99
   5  -1   5    1.99    0.87
   5  -1   5    3.16    0.93
   5  -1   5    2.61    0.82
  -6   1  -5    0.86    0.86
  -6   1  -5    1.36    0.86
  -6   1  -5    0.05    0.72
   6  -1   5    2.24    0.78
   6  -1   5    0.84    0.74
   6  -1   5    1.11    0.73
  -7   1  -5    0.93    0.99
  -7   1  -5    2.09    1.10
  -7   1  -5    2.59    1.09
   7  -1   5    2.68    1.08
   7  -1   5    3.98    1.21
  -8   1  -5   11.61    2.02
  -8   1  -5   10.68    1.93
  -8   1  -5   10.79    1.94
   8  -1   5   12.15    1.97
   8  -1   5    9.24    1.74
  -7   0   5    1.14    0.96
  -7   0   5    3.70    1.44
  -7   0   5    0.88    1.10
   6   0  -5    6.17    1.31
  -6   0   5    4.30    1.27
  -6   0   5    5.23    1.36
  -6   0   5    6.68    1.34
  -6   0   5    4.39    1.17
   5   0  -5    0.48    0.61
  -5   0   5   -0.67    0.55
  -5   0   5   -0.20    0.64
  -5   0   5   -0.10    0.57
  -5   0   5    0.38    0.80
   4   0  -5   13.50    1.53
  -4   0   5   14.47    1.80
  -4   0   5   12.18    1.48
  -4   0   5   12.33    1.64
  -4   0   5   12.36    1.56
   3   0  -5    2.92    0.77
   3   0  -5    2.01    0.57
  -3   0   5    3.02    0.82
  -3   0   5    3.81    0.94
  -3   0   5    3.25    0.76
  -3   0   5    3.04    0.84
  -3   0   5    4.20    0.96
   2   0  -5   15.84    1.13
   2   0  -5   13.71    1.32
  -2   0   5   15.06    1.23
  -2   0   5   13.09    1.31
  -2   0   5   15.72    1.49
  -2   0   5   14.14    1.41
  -2   0   5   13.79    1.40
   1   0  -5   45.76    2.02
  -1   0   5   42.44    2.12
  -1   0   5   46.52    2.10
  -1   0   5   45.07    2.10
   0   0  -5    1.41    0.51
   0   0   5    0.76    0.47
   0   0   5    2.17    0.64
   0   0   5    1.36    0.48
  -1   0  -5    1.52    0.59
  -1   0  -5    1.16    0.49
  -1   0  -5    1.87    0.53
   1   0   5    1.72    0.44
   1   0   5    1.90    0.53
   1   0   5    2.10    0.55
  -2   0  -5   83.82    3.15
  -2   0  -5   79.22    3.14
  -2   0  -5   79.15    3.05
   2   0   5   79.12    3.10
   2   0   5   74.35    3.08
  -3   0  -5    1.22    0.54
  -3   0  -5    0.78    0.49
  -3   0  -5    0.75    0.56
   3   0   5    0.49    0.49
   3   0   5    0.21    0.39
   3   0   5    0.30    0.42
  -4   0  -5   58.31    2.90
  -4   0  -5   57.88    2.84
  -4   0  -5   58.55    2.85
  -4   0  -5   62.02    2.66
   4   0   5   60.54    2.84
   4   0   5   55.95    2.79
   4   0   5   64.42    2.91
  -5   0  -5   22.20    2.11
  -5   0  -5   22.81    1.85
  -5   0  -5   21.81    1.77
   5   0   5   22.05    1.75
   5   0   5   23.06    2.13
  -6   0  -5   70.76    3.66
  -6   0  -5   68.54    3.54
  -6   0  -5   72.01    3.66
  -6   0  -5   72.29    3.72
   6   0   5   70.56    3.22
   6   0   5   75.44    3.69
   6   0   5   75.87    3.67
  -7   0  -5    4.56    1.35
  -7   0  -5    1.33    0.87
  -7   0  -5    4.57    1.39
  -7   0  -5    6.01    1.30
   7   0   5    1.82    1.08
   7   0   5    2.67    0.97
  -8   0  -5    1.26    0.94
  -8   0  -5   -0.40    0.78
  -8   0  -5    1.71    1.14
   8   0   5   -0.39    0.87
   8   0   5    0.48    1.01
   7  -1  -5   16.21    2.26
  -7   1   5   21.38    2.78
  -7   1   5   21.53    2.65
  -7   1   5   19.79    2.42
   6  -1  -5    1.89    0.95
  -6   1   5    1.56    1.02
  -6   1   5    3.96    1.21
  -6   1   5    1.55    1.18
   5  -1  -5    1.76    0.82
  -5   1   5   -0.29    0.69
  -5   1   5    1.09    0.73
  -5   1   5    1.20    0.85
  -5   1   5    1.04    0.98
   4  -1  -5    8.25    1.26
   4  -1  -5    9.75    1.14
  -4   1   5    8.40    1.34
  -4   1   5    7.69    1.41
  -4   1   5   11.48    1.58
  -4   1   5   10.22    1.49
  -4   1   5   10.67    1.35
   3  -1  -5    5.92    1.06
   3  -1  -5    4.18    0.78
  -3   1   5    5.31    0.85
  -3   1   5    4.38    0.97
  -3   1   5    4.14    0.95
  -3   1   5    4.19    0.95
  -3   1   5    4.70    0.99
   2  -1  -5   31.51    1.79
   2  -1  -5   33.89    1.73
  -2   1   5   35.65    1.85
  -2   1   5   33.30    1.88
  -2   1   5   29.45    1.78
  -2   1   5   32.23    1.78
   1  -1  -5    1.18    0.50
   1  -1  -5    0.74    0.40
  -1   1   5    0.80    0.49
  -1   1   5    0.89    0.37
  -1   1   5    0.80    0.43
   0  -1  -5   88.43    3.32
   0   1   5   88.14    3.17
   0   1   5   92.92    3.40
  -1  -1  -5  169.93    5.32
  -1  -1  -5  164.06    5.43
   1   1   5  164.08    5.43
   1   1   5  164.36    5.02
  -2  -1  -5    1.30    0.53
  -2  -1  -5    0.86    0.53
  -2  -1  -5    0.35    0.37
  -2  -1  -5    1.57    0.57
  -2  -1  -5    1.50    0.35
  -2  -1  -5    1.03    0.42
   2   1   5    1.89    0.38
   2   1   5    2.43    0.62
   2   1   5    1.56    0.54
  -3  -1  -5    5.04    0.80
  -3  -1  -5    5.65    0.72
  -3  -1  -5    6.82    1.01
  -3  -1  -5    5.91    0.93
  -3  -1  -5    6.78    0.98
  -3  -1  -5    5.96    1.03
   3   1   5    7.65    1.05
   3   1   5    5.88    0.98
   3   1   5    4.29    0.82
  -4  -1  -5    6.52    1.05
  -4  -1  -5    5.10    1.02
  -4  -1  -5    4.89    1.02
  -4  -1  -5    6.47    0.89
   4   1   5    5.01    0.93
   4   1   5    6.42    1.03
   4   1   5    5.72    1.07
  -5  -1  -5    4.62    1.14
  -5  -1  -5    4.29    1.09
  -5  -1  -5    3.85    1.02
  -5  -1  -5    2.67    0.76
   5   1   5    4.30    0.94
  -6  -1  -5    7.34    1.42
  -6  -1  -5    5.98    1.19
  -6  -1  -5    4.49    1.31
  -6  -1  -5    3.45    1.17
   6   1   5    6.83    1.27
  -7  -1  -5    1.98    0.89
  -7  -1  -5    2.83    1.08
  -7  -1  -5    4.64    1.41
  -7  -1  -5    3.92    1.20
   7   1   5    2.24    1.05
  -8  -1  -5    3.69    1.34
  -8  -1  -5    4.07    1.41
  -8  -1  -5    4.50    1.25
  -8  -1  -5    1.69    1.19
   8   1   5    4.02    1.25
   7  -2  -5    5.33    1.52
  -7   2   5    3.52    1.34
  -7   2   5    6.50    1.56
  -7   2   5    5.48    1.52
  -7   2   5    5.02    1.35
   6  -2  -5    0.50    0.81
  -6   2   5    0.27    0.86
  -6   2   5    0.93    0.93
  -6   2   5    0.37    0.87
  -6   2   5   -1.20    0.57
   5  -2  -5    0.45    0.77
  -5   2   5    0.62    0.84
  -5   2   5   -0.53    0.56
  -5   2   5   -0.54    0.61
  -5   2   5   -0.51    0.59
   4  -2  -5    8.24    1.27
   4  -2  -5    8.83    1.17
  -4   2   5    6.02    1.13
  -4   2   5    7.30    1.27
  -4   2   5    7.43    1.25
  -4   2   5    9.38    1.50
   3  -2  -5   59.97    2.71
   3  -2  -5   55.43    2.79
  -3   2   5   60.04    2.87
  -3   2   5   61.48    2.96
  -3   2   5   59.03    2.89
  -3   2   5   57.56    2.81
   2  -2  -5   -0.24    0.39
   2  -2  -5   -0.16    0.37
  -2   2   5    0.48    0.43
  -2   2   5    0.37    0.53
  -2   2   5    0.24    0.48
  -2   2   5   -0.18    0.44
   1  -2  -5    2.01    0.60
   1  -2  -5    1.28    0.55
  -1   2   5    1.10    0.47
  -1   2   5    0.94    0.48
  -1   2   5    2.20    0.59
  -1   2   5    1.48    0.52
   0  -2  -5   -0.07    0.34
   0  -2  -5    0.07    0.41
   0  -2  -5    0.06    0.37
   0  -2  -5    0.67    0.42
   0   2   5    0.57    0.36
   0   2   5    0.44    0.40
   0   2   5    0.13    0.34
  -1  -2  -5   21.04    1.26
  -1  -2  -5   19.68    1.00
  -1  -2  -5   20.85    1.30
  -1  -2  -5   20.42    1.32
  -1  -2  -5   18.72    1.29
  -1  -2  -5   18.84    1.19
   1   2   5   20.69    1.17
   1   2   5   18.15    1.22
   1   2   5   21.09    1.03
  -2  -2  -5    3.55    0.57
  -2  -2  -5    2.85    0.62
  -2  -2  -5    3.21    0.62
  -2  -2  -5    1.91    0.65
  -2  -2  -5    1.93    0.57
  -2  -2  -5    2.92    0.55
  -2  -2  -5    3.26    0.63
   2   2   5    2.53    0.62
   2   2   5    2.77    0.53
   2   2   5    2.02    0.56
  -3  -2  -5   30.83    1.64
  -3  -2  -5   31.55    1.85
  -3  -2  -5   29.63    1.42
  -3  -2  -5   35.16    1.81
  -3  -2  -5   29.99    1.80
  -3  -2  -5   32.10    1.70
   3   2   5   30.55    1.79
   3   2   5   30.87    1.43
   3   2   5   32.00    1.75
  -4  -2  -5   74.45    3.13
  -4  -2  -5   68.52    3.17
  -4  -2  -5   70.99    3.24
  -4  -2  -5   67.34    3.28
   4   2   5   73.53    3.05
  -5  -2  -5   42.34    2.67
  -5  -2  -5   45.08    2.56
  -5  -2  -5   48.60    2.73
  -5  -2  -5   43.27    2.60
   5   2   5   42.04    2.35
  -6  -2  -5    9.88    1.62
  -6  -2  -5    9.42    1.65
  -6  -2  -5   10.70    1.65
  -6  -2  -5   10.42    1.56
   6   2   5    8.06    1.35
  -7  -2  -5   11.67    1.85
  -7  -2  -5   14.79    2.06
  -7  -2  -5   15.36    2.05
  -7  -2  -5   19.74    2.46
   7   2   5   13.71    1.88
  -8  -2  -5    1.87    1.12
  -8  -2  -5   -0.44    0.93
  -8  -2  -5    0.98    0.86
  -8  -2  -5   -0.03    0.90
   8   2   5    1.80    1.03
   7  -3  -5    1.06    1.19
  -7   3   5    2.36    1.24
  -7   3   5    1.50    1.16
  -7   3   5    0.77    1.12
   6  -3  -5   -0.26    0.79
  -6   3   5    0.62    0.93
  -6   3   5   -0.35    0.81
  -6   3   5   -1.11    0.74
  -6   3   5    0.02    0.79
   5  -3  -5    0.64    0.65
   5  -3  -5    0.91    0.73
  -5   3   5    1.73    0.89
  -5   3   5    0.06    0.68
  -5   3   5    1.90    0.84
  -5   3   5    1.78    0.86
   4  -3  -5   16.73    1.86
   4  -3  -5   19.39    1.87
  -4   3   5   20.26    2.10
  -4   3   5   21.06    2.21
  -4   3   5   23.58    2.16
  -4   3   5   19.65    1.88
   3  -3  -5    7.11    1.11
   3  -3  -5   10.10    1.38
   3  -3  -5    8.00    1.16
  -3   3   5    7.31    1.15
  -3   3   5    8.42    1.20
  -3   3   5    7.34    1.25
  -3   3   5    6.93    1.13
   2  -3  -5    5.70    1.02
   2  -3  -5    4.52    0.88
   2  -3  -5    5.09    0.93
  -2   3   5    5.08    0.69
  -2   3   5    5.50    0.87
  -2   3   5    7.14    1.10
  -2   3   5    4.01    0.83
  -2   3   5    4.98    0.93
   1  -3  -5   32.92    1.90
   1  -3  -5   30.19    1.77
   1  -3  -5   29.44    1.79
   1  -3  -5   31.68    1.75
  -1   3   5   30.76    1.73
  -1   3   5   27.92    1.35
  -1   3   5   32.11    1.64
  -1   3   5   29.12    1.73
  -1   3   5   31.55    1.80
   0  -3  -5    2.62    0.66
   0  -3  -5    2.26    0.49
   0  -3  -5    1.25    0.61
   0  -3  -5    2.12    0.62
   0  -3  -5    3.34    0.74
   0   3   5    2.26    0.58
   0   3   5    3.19    0.68
   0   3   5    1.93    0.58
   0   3   5    1.70    0.45
   0   3   5    3.07    0.64
  -1  -3  -5    1.00    0.49
  -1  -3  -5    1.82    0.55
  -1  -3  -5    0.61    0.44
  -1  -3  -5    1.72    0.46
  -1  -3  -5    0.39    0.45
  -1  -3  -5    0.25    0.38
  -1  -3  -5    2.03    0.60
   1   3   5    1.10    0.44
   1   3   5    1.21    0.49
   1   3   5    0.85    0.37
   1   3   5    1.05    0.48
  -2  -3  -5   10.93    1.15
  -2  -3  -5    9.43    1.03
  -2  -3  -5   11.11    1.09
  -2  -3  -5    9.20    1.10
  -2  -3  -5   11.84    1.24
  -2  -3  -5    8.82    1.02
  -2  -3  -5    9.88    1.10
  -2  -3  -5    9.93    1.07
   2   3   5    8.21    1.02
   2   3   5    8.86    1.03
   2   3   5    9.38    1.01
  -3  -3  -5   60.36    2.77
  -3  -3  -5   63.60    2.85
  -3  -3  -5   64.36    2.93
  -3  -3  -5   62.45    2.64
  -3  -3  -5   63.28    2.59
  -3  -3  -5   58.01    2.77
   3   3   5   63.43    2.80
  -4  -3  -5    0.51    0.44
  -4  -3  -5    0.09    0.62
  -4  -3  -5   -0.01    0.49
  -4  -3  -5    0.27    0.44
  -4  -3  -5    0.41    0.61
  -4  -3  -5   -0.11    0.37
   4   3   5   -0.11    0.50
  -5  -3  -5    1.91    0.79
  -5  -3  -5    2.99    1.00
  -5  -3  -5    3.09    0.95
  -5  -3  -5    2.33    0.91
   5   3   5    2.55    0.81
  -6  -3  -5   24.33    2.01
  -6  -3  -5   22.83    2.45
  -6  -3  -5   22.61    2.50
  -6  -3  -5   25.83    2.54
   6   3   5   24.15    1.84
  -7  -3  -5    7.60    1.52
  -7  -3  -5    5.38    1.50
  -7  -3  -5    7.99    1.63
  -7  -3  -5    6.46    1.55
  -8  -3  -5   15.07    2.30
  -8  -3  -5   14.44    2.22
  -8  -3  -5   10.95    2.04
   6  -4  -5    0.32    0.90
   6  -4  -5   -1.08    0.65
  -6   4   5   -0.95    0.67
  -6   4   5    0.36    0.92
  -6   4   5    0.25    0.89
   5  -4  -5   14.59    2.01
   5  -4  -5   12.68    1.73
  -5   4   5   12.48    1.91
  -5   4   5   16.29    1.87
  -5   4   5   13.78    1.97
   4  -4  -5    7.55    1.36
   4  -4  -5    4.58    1.08
   4  -4  -5    7.82    1.28
  -4   4   5    5.12    1.22
  -4   4   5    5.67    1.19
  -4   4   5    7.80    1.50
   3  -4  -5   31.39    2.15
   3  -4  -5   38.03    2.28
   3  -4  -5   31.37    2.13
  -3   4   5   32.90    1.94
  -3   4   5   33.81    2.26
  -3   4   5   34.74    2.19
  -3   4   5   36.41    2.42
   2  -4  -5    1.79    0.81
   2  -4  -5    1.30    0.69
   2  -4  -5    1.21    0.63
   2  -4  -5    0.89    0.64
  -2   4   5    0.15    0.47
  -2   4   5   -0.10    0.43
  -2   4   5    1.95    0.76
  -2   4   5    0.37    0.55
  -2   4   5    0.39    0.52
   1  -4  -5    0.81    0.59
   1  -4  -5    0.29    0.52
   1  -4  -5    0.93    0.56
   1  -4  -5    0.40    0.53
  -1   4   5    0.74    0.48
  -1   4   5    1.10    0.58
  -1   4   5    0.94    0.64
  -1   4   5   -0.04    0.45
  -1   4   5   -0.33    0.38
   0  -4  -5   -0.15    0.40
   0  -4  -5   -0.03    0.43
   0  -4  -5    0.15    0.44
   0  -4  -5   -0.24    0.31
   0   4   5    0.04    0.43
   0   4   5    0.22    0.44
   0   4   5    0.59    0.42
   0   4   5    0.39    0.55
   0   4   5    0.22    0.48
  -1  -4  -5    1.61    0.64
  -1  -4  -5    1.28    0.57
  -1  -4  -5    0.93    0.59
  -1  -4  -5    1.23    0.56
  -1  -4  -5    1.39    0.65
  -1  -4  -5    1.54    0.59
   1   4   5    0.46    0.54
   1   4   5    0.83    0.47
   1   4   5    0.96    0.57
   1   4   5    1.78    0.52
   1   4   5    1.06    0.55
  -2  -4  -5    8.63    1.18
  -2  -4  -5   12.05    1.30
  -2  -4  -5   11.62    1.28
  -2  -4  -5   11.24    1.18
  -2  -4  -5    9.28    1.15
  -2  -4  -5   11.32    1.18
  -2  -4  -5   11.51    1.26
  -2  -4  -5   11.19    1.18
   2   4   5   10.28    1.20
   2   4   5   10.07    1.11
   2   4   5   13.75    1.42
   2   4   5   11.44    1.26
  -3  -4  -5   22.90    1.62
  -3  -4  -5   20.81    1.51
  -3  -4  -5   19.86    1.92
  -3  -4  -5   18.98    1.46
  -3  -4  -5   20.54    1.49
  -3  -4  -5   17.12    1.69
   3   4   5   21.10    1.60
   3   4   5   20.74    1.48
  -4  -4  -5   13.33    1.55
  -4  -4  -5   10.46    1.51
  -4  -4  -5   15.12    1.77
  -4  -4  -5   13.07    1.39
  -4  -4  -5   10.40    1.49
   4   4   5   11.41    1.23
  -5  -4  -5   17.94    1.94
  -5  -4  -5   18.19    2.00
  -5  -4  -5   13.81    1.85
  -5  -4  -5   15.28    1.84
  -6  -4  -5    0.12    0.83
  -6  -4  -5    1.24    0.82
  -6  -4  -5    0.41    0.95
  -6  -4  -5    1.50    0.86
  -7  -4  -5    0.10    0.74
  -7  -4  -5   -0.22    0.82
  -7  -4  -5    0.62    0.99
  -7  -4  -5    0.25    0.89
   6  -5  -5    4.23    1.28
   6  -5  -5    4.28    1.31
  -6   5   5    1.36    1.23
  -6   5   5    1.92    1.14
  -6   5   5    2.46    1.30
   5  -5  -5    0.87    0.98
   5  -5  -5    2.85    0.99
  -5   5   5   -0.09    0.84
  -5   5   5    1.86    0.93
  -5   5   5    3.15    1.18
   4  -5  -5    2.25    0.91
   4  -5  -5    2.08    1.00
   4  -5  -5    1.60    0.83
  -4   5   5    2.20    0.99
  -4   5   5    1.22    0.79
  -4   5   5    2.58    1.07
   3  -5  -5   47.14    2.79
   3  -5  -5   47.11    2.85
   3  -5  -5   45.43    2.71
   3  -5  -5   52.13    2.86
  -3   5   5   48.50    2.78
  -3   5   5   47.45    2.77
  -3   5   5   45.25    2.88
   2  -5  -5    2.01    0.81
   2  -5  -5    1.13    0.70
   2  -5  -5    2.97    0.88
   2  -5  -5    0.85    0.63
  -2   5   5    0.74    0.63
  -2   5   5    2.02    1.01
  -2   5   5    1.43    0.70
  -2   5   5    0.60    0.58
   1  -5  -5    3.06    0.90
   1  -5  -5    2.64    0.82
   1  -5  -5    1.85    0.78
   1  -5  -5    3.13    0.82
  -1   5   5    1.75    0.80
  -1   5   5    1.52    0.70
  -1   5   5    3.69    0.82
  -1   5   5    3.76    0.89
   0  -5  -5    3.90    0.88
   0  -5  -5    3.02    0.77
   0  -5  -5    2.54    0.84
   0  -5  -5    2.24    0.84
   0   5   5    3.26    0.81
   0   5   5    1.67    0.81
   0   5   5    2.72    0.75
   0   5   5    2.94    0.91
  -1  -5  -5    3.96    0.95
  -1  -5  -5    0.31    0.53
  -1  -5  -5    2.08    0.70
  -1  -5  -5    3.38    0.83
  -1  -5  -5    0.74    0.59
  -1  -5  -5    2.81    0.69
   1   5   5    1.66    0.70
   1   5   5    2.97    0.79
   1   5   5    3.48    0.87
   1   5   5    2.78    0.75
  -2  -5  -5    7.96    1.22
  -2  -5  -5    6.84    1.13
  -2  -5  -5    7.70    1.02
  -2  -5  -5    9.04    1.37
  -2  -5  -5   10.64    1.37
  -2  -5  -5    7.20    1.10
   2   5   5   10.58    1.34
   2   5   5    8.89    1.27
   2   5   5    7.58    0.99
   2   5   5    9.82    1.31
  -3  -5  -5   14.59    1.72
  -3  -5  -5   16.22    1.58
  -3  -5  -5   20.94    1.69
  -3  -5  -5   16.28    1.76
  -3  -5  -5   17.53    1.75
  -3  -5  -5   17.26    1.68
   3   5   5   19.30    1.89
   3   5   5   17.43    1.59
  -4  -5  -5    1.55    0.83
  -4  -5  -5    2.33    0.89
  -4  -5  -5    1.83    0.80
  -4  -5  -5    2.68    0.89
  -4  -5  -5    0.54    0.70
   4   5   5    1.50    0.78
   4   5   5    1.27    0.74
  -5  -5  -5    2.66    1.10
  -5  -5  -5    2.44    0.93
  -5  -5  -5    2.76    0.90
  -5  -5  -5    2.18    1.03
  -5  -5  -5    2.50    1.00
   5   5   5    2.65    1.09
  -6  -5  -5    1.80    1.00
  -6  -5  -5    0.65    0.87
  -6  -5  -5    0.51    0.83
  -6  -5  -5    0.84    0.84
  -7  -5  -5   -1.40    0.93
  -7  -5  -5    0.61    1.08
  -7  -5  -5   -0.43    0.80
  -7  -5  -5    0.07    1.06
   5  -6  -5    9.86    1.80
   5  -6  -5    7.42    1.58
  -5   6   5    8.93    1.67
  -5   6   5    9.20    1.92
  -5   6   5    9.73    1.73
   4  -6  -5    5.14    1.27
   4  -6  -5    5.36    1.35
   4  -6  -5    6.04    1.36
  -4   6   5    6.84    1.57
  -4   6   5    5.00    1.33
  -4   6   5    5.35    1.34
   3  -6  -5    2.25    0.88
   3  -6  -5    4.67    1.22
   3  -6  -5    5.39    1.27
   3  -6  -5    2.55    1.04
  -3   6   5    4.37    1.27
  -3   6   5    4.42    1.16
  -3   6   5    3.77    1.18
   2  -6  -5    3.66    1.09
   2  -6  -5    1.58    0.74
   2  -6  -5    1.39    0.78
   2  -6  -5    3.62    1.07
  -2   6   5    3.13    1.04
  -2   6   5    4.16    0.99
  -2   6   5    3.24    1.09
  -2   6   5    3.20    1.08
   1  -6  -5    0.40    0.67
   1  -6  -5    0.02    0.62
   1  -6  -5    0.66    0.67
   1  -6  -5    1.15    0.72
  -1   6   5    0.63    0.67
  -1   6   5    1.63    0.84
  -1   6   5    1.12    0.83
  -1   6   5    0.96    0.71
   0  -6  -5    3.31    1.05
   0  -6  -5    0.93    0.59
   0  -6  -5    1.75    0.76
   0  -6  -5    1.00    0.63
   0   6   5    0.96    0.66
   0   6   5    1.07    0.76
   0   6   5    1.18    0.72
   0   6   5    1.34    0.88
  -1  -6  -5   30.94    2.14
  -1  -6  -5   32.57    2.30
  -1  -6  -5   31.24    2.13
  -1  -6  -5   29.00    1.98
  -1  -6  -5   28.33    2.25
   1   6   5   32.17    2.27
   1   6   5   33.18    2.27
   1   6   5   30.43    2.14
   1   6   5   31.67    2.20
  -2  -6  -5    3.15    1.10
  -2  -6  -5    4.90    1.12
  -2  -6  -5    4.79    1.15
  -2  -6  -5    3.83    0.86
  -2  -6  -5    4.48    1.11
   2   6   5    3.36    1.11
   2   6   5    2.30    0.85
   2   6   5    3.88    0.98
  -3  -6  -5   49.55    2.88
  -3  -6  -5   47.26    2.89
  -3  -6  -5   48.35    2.95
  -3  -6  -5   47.42    2.80
   3   6   5   47.06    2.87
   3   6   5   47.74    2.97
  -4  -6  -5   13.12    1.83
  -4  -6  -5   11.65    1.80
  -4  -6  -5   10.69    1.71
  -4  -6  -5   10.84    1.66
   4   6   5   15.11    1.95
  -5  -6  -5    1.20    0.84
  -5  -6  -5    0.07    0.88
  -5  -6  -5    0.83    0.91
  -5  -6  -5   -0.25    0.74
   5   6   5    1.84    0.99
  -6  -6  -5    0.14    0.92
  -6  -6  -5    0.18    0.93
  -6  -6  -5    0.27    1.08
   6   6   5   -0.62    0.87
   4  -7  -5   -0.08    0.72
   4  -7  -5   -1.17    0.73
   4  -7  -5   -0.54    0.83
   4  -7  -5    0.35    0.80
  -4   7   5   -0.05    0.89
  -4   7   5    1.55    0.94
  -4   7   5   -0.07    0.77
   3  -7  -5   13.88    1.98
   3  -7  -5    7.55    1.54
   3  -7  -5   11.73    1.87
   3  -7  -5    8.55    1.51
  -3   7   5    8.65    1.71
  -3   7   5    9.22    1.64
  -3   7   5    7.59    1.75
   2  -7  -5    3.46    1.17
   2  -7  -5    2.63    0.97
   2  -7  -5    4.62    1.25
   2  -7  -5    3.70    1.28
  -2   7   5    4.19    1.14
  -2   7   5    3.43    1.27
  -2   7   5    5.59    1.39
  -2   7   5    5.71    1.35
   1  -7  -5    6.44    1.26
   1  -7  -5   12.28    1.83
   1  -7  -5    9.58    1.64
  -1   7   5    7.52    1.54
  -1   7   5   10.30    1.61
  -1   7   5    9.66    1.55
  -1   7   5   10.82    1.74
   0  -7  -5   11.36    1.79
   0  -7  -5    9.61    1.60
   0  -7  -5   12.11    1.65
   0   7   5   14.60    1.84
   0   7   5   10.93    1.65
   0   7   5   13.71    1.78
   0   7   5   12.49    1.82
  -1  -7  -5    0.25    0.79
  -1  -7  -5    0.76    0.74
  -1  -7  -5    0.77    0.68
   1   7   5    2.07    0.94
   1   7   5    1.08    0.89
   1   7   5    0.33    0.68
   1   7   5    0.27    0.73
  -2  -7  -5    0.42    0.84
  -2  -7  -5   -0.01    0.71
  -2  -7  -5   -0.44    0.76
  -2  -7  -5    0.50    0.60
  -2  -7  -5   -0.16    0.65
   2   7   5    1.82    0.87
   2   7   5    1.41    0.97
   2   7   5    0.80    0.92
  -3  -7  -5    1.00    0.79
  -3  -7  -5    0.93    0.82
  -3  -7  -5    1.60    0.94
  -3  -7  -5    0.54    0.88
   3   7   5    0.39    0.73
   3   7   5   -0.70    0.64
  -4  -7  -5    0.01    0.80
  -4  -7  -5   -0.51    0.77
  -4  -7  -5    0.10    0.84
   4   7   5   -0.09    0.82
   4   7   5   -0.51    0.73
  -5  -7  -5    0.72    0.84
  -5  -7  -5    0.18    0.88
  -5  -7  -5   -1.06    0.83
  -5  -7  -5    0.90    1.03
   5   7   5    0.42    0.88
   3  -8  -5    0.41    0.95
   3  -8  -5   -0.47    0.93
   3  -8  -5   -0.03    0.81
  -3   8   5    0.73    1.03
  -3   8   5    0.25    0.76
  -3   8   5    1.97    1.20
   2  -8  -5    1.54    0.89
   2  -8  -5    1.69    0.92
   2  -8  -5    0.51    1.04
  -2   8   5   -0.58    0.82
  -2   8   5    1.75    1.10
  -2   8   5    0.10    0.96
  -2   8   5    0.13    1.00
   1  -8  -5    0.13    0.73
   1  -8  -5   -1.27    0.53
   1  -8  -5   -0.52    0.78
  -1   8   5   -0.90    0.79
  -1   8   5   -0.80    0.95
  -1   8   5   -0.94    0.75
  -1   8   5    2.21    1.08
   0  -8  -5    2.56    1.16
   0  -8  -5    1.90    1.01
   0  -8  -5    1.38    0.89
   0   8   5    0.51    1.00
   0   8   5   -0.26    0.94
   0   8   5    3.12    1.05
   0   8   5    0.84    1.04
  -1  -8  -5   38.04    2.83
  -1  -8  -5   35.79    2.52
  -1  -8  -5   43.36    3.11
   1   8   5   37.17    2.80
   1   8   5   35.38    2.67
   1   8   5   36.73    2.85
   1   8   5   36.98    2.89
  -2  -8  -5   -0.43    0.76
  -2  -8  -5    2.94    1.13
  -2  -8  -5    2.10    1.25
  -2  -8  -5   -0.15    0.79
   2   8   5    2.17    1.30
   2   8   5    1.21    1.00
   2   8   5    2.57    1.22
   2   8   5    1.03    0.85
  -3  -8  -5   -0.56    0.78
  -3  -8  -5   -0.23    0.96
  -3  -8  -5   -0.22    0.98
  -3  -8  -5    0.42    0.84
   3   8   5    1.52    1.01
   3   8   5   -0.44    0.98
  -4  -8  -5    0.93    0.98
  -4  -8  -5    0.95    1.06
  -4  -8  -5   -0.13    0.83
   4   8   5    0.15    1.11
   4   8   5    1.32    1.03
  -1   7  -6    0.66    1.04
   1  -7   6    0.42    0.90
   1  -7   6   -0.88    0.92
  -3  -6   6    2.42    1.44
  -3  -6   6    4.03    1.34
  -2  -6   6    8.43    1.60
  -2  -6   6    6.52    1.55
  -1  -6   6    4.49    1.28
  -1  -6   6    4.79    1.18
   0   6  -6   12.86    1.85
   0  -6   6   12.49    1.82
   0  -6   6    6.07    1.35
  -1   6  -6    0.69    0.89
   1  -6   6    0.18    0.91
   1  -6   6    1.22    0.90
  -2   6  -6    3.40    1.28
   2  -6   6    0.81    0.95
   2  -6   6    3.07    1.17
   2  -6   6    1.57    1.00
  -3   6  -6   -0.48    0.87
   3  -6   6    1.04    0.88
   3  -6   6   -0.45    0.82
  -4   6  -6    5.53    1.50
   4  -6   6    2.08    1.30
  -4  -5   6   24.25    2.73
  -4  -5   6   27.67    2.94
  -3  -5   6   -0.71    0.71
  -3  -5   6    0.60    1.04
  -2  -5   6    8.71    1.62
  -2  -5   6   11.15    1.76
   1   5  -6    3.58    1.11
  -1  -5   6    3.47    1.05
  -1  -5   6    3.74    1.22
   0   5  -6   -0.07    0.74
   0  -5   6    2.21    0.88
   0  -5   6    1.62    0.81
   0  -5   6    0.90    0.84
  -1   5  -6    1.01    0.86
   1  -5   6    1.36    0.87
   1  -5   6    0.57    0.71
  -2   5  -6   10.21    1.70
   2  -5   6    3.52    1.01
   2  -5   6    5.80    1.28
  -3   5  -6   11.68    1.85
   3  -5   6   11.61    1.77
   3  -5   6    8.24    1.55
  -4   5  -6   31.33    2.95
   4  -5   6   17.93    2.14
   4  -5   6   22.83    2.37
   4  -5   6   22.49    2.51
  -5   5  -6    9.27    1.85
   5  -5   6    8.53    1.60
   5  -5   6   10.68    1.90
  -5  -4   6   -0.68    0.89
  -5  -4   6    1.19    1.14
  -5  -4   6    0.67    1.18
  -4  -4   6   -0.01    0.95
  -4  -4   6   -0.15    0.84
  -4  -4   6    1.03    0.87
  -3  -4   6    8.64    1.53
  -3  -4   6    4.04    1.19
  -3  -4   6    3.16    1.24
  -2  -4   6   43.53    2.86
  -2  -4   6   45.26    2.72
  -2  -4   6   44.97    2.73
  -1  -4   6    1.02    0.65
  -1  -4   6   -0.37    0.56
  -1  -4   6    1.95    0.84
  -1  -4   6    1.71    0.81
   0   4  -6   10.78    1.42
   0  -4   6    9.81    1.38
   0  -4   6    8.71    1.46
   0  -4   6   10.08    1.30
   0  -4   6    9.44    1.28
  -1   4  -6    3.30    0.91
   1  -4   6    4.52    1.03
   1  -4   6    3.14    0.80
   1  -4   6    2.26    0.89
  -2   4  -6   33.23    2.24
   2  -4   6   33.74    2.37
   2  -4   6   29.96    2.23
  -3   4  -6    3.13    1.00
   3  -4   6    1.48    0.83
   3  -4   6    3.55    0.98
   3  -4   6    2.38    0.98
  -4   4  -6    0.09    0.87
   4  -4   6    0.24    0.70
   4  -4   6    0.14    0.68
   4  -4   6   -0.20    0.65
  -5   4  -6    2.33    1.03
   5  -4   6    2.26    0.99
   5  -4   6    2.36    1.07
   5  -4   6    3.76    1.22
  -6   4  -6    2.00    1.30
  -6   4  -6    5.18    1.44
   6  -4   6    4.98    1.34
   6  -4   6    2.17    1.02
  -5  -3   6    0.76    0.78
  -5  -3   6   -0.66    0.73
  -5  -3   6    2.18    1.11
  -5  -3   6    1.33    1.06
  -4  -3   6   42.14    2.85
  -4  -3   6   39.71    2.89
  -4  -3   6   43.19    2.95
  -3  -3   6   18.66    2.10
  -3  -3   6   19.72    2.12
  -3  -3   6   16.12    1.97
  -2  -3   6    0.14    0.65
  -2  -3   6    0.97    0.85
  -2  -3   6    0.06    0.64
  -1  -3   6   -0.50    0.51
  -1  -3   6    0.42    0.62
  -1  -3   6    0.65    0.66
   0   3  -6    3.57    0.84
   0  -3   6    4.16    1.06
   0  -3   6    3.41    0.81
   0  -3   6    4.09    0.97
   1  -3   6   48.90    2.21
   1  -3   6   46.00    2.71
   1  -3   6   49.02    2.49
  -2   3  -6   21.90    1.68
   2  -3   6   23.79    1.84
   2  -3   6   24.15    1.86
   2  -3   6   22.62    1.64
   2  -3   6   23.17    1.64
  -3   3  -6    1.83    0.80
  -3   3  -6    2.01    0.88
   3  -3   6    2.03    0.83
   3  -3   6    2.85    0.77
   3  -3   6    3.84    0.94
   3  -3   6    0.09    0.53
  -4   3  -6   46.56    2.60
  -4   3  -6   50.42    2.90
   4  -3   6   49.32    2.70
   4  -3   6   47.45    2.75
   4  -3   6   42.80    2.49
   4  -3   6   48.77    2.92
  -5   3  -6    6.52    1.33
  -5   3  -6    3.69    1.08
  -5   3  -6    8.01    1.54
   5  -3   6    7.53    1.36
   5  -3   6    5.37    1.27
   5  -3   6    6.55    1.18
   5  -3   6    6.64    1.39
  -6   3  -6   -0.74    0.86
  -6   3  -6   -0.11    0.83
  -6   3  -6    0.82    0.95
   6  -3   6   -0.28    0.71
   6  -3   6   -0.21    0.82
   6  -3   6   -0.58    0.70
  -7   3  -6    0.89    1.24
  -7   3  -6    0.94    1.03
   7  -3   6    2.21    1.14
   7  -3   6    1.28    1.08
   7  -3   6   -0.44    0.78
  -6  -2   6   -0.10    0.88
  -6  -2   6    0.10    0.69
  -6  -2   6   -0.13    0.82
  -6  -2   6   -0.07    0.89
  -5  -2   6    0.09    0.80
  -5  -2   6   -0.87    0.75
  -5  -2   6    0.91    0.91
  -5  -2   6   -0.27    0.71
  -4  -2   6   43.21    2.60
  -4  -2   6   39.26    2.69
  -4  -2   6   41.42    2.76
  -4  -2   6   39.83    2.73
  -3  -2   6   15.72    1.68
  -3  -2   6   18.81    2.08
  -3  -2   6   19.59    2.07
  -3  -2   6   17.56    1.98
  -2  -2   6   22.58    1.83
  -2  -2   6   20.81    1.98
  -2  -2   6   20.16    1.97
   1   2  -6   26.68    1.56
  -1  -2   6   29.18    1.95
  -1  -2   6   28.25    1.95
  -1  -2   6   28.76    1.87
   0   2  -6   31.25    1.72
   0   2  -6   31.67    1.63
   0  -2   6   36.38    1.90
   0  -2   6   33.53    2.04
   0  -2   6   31.79    1.97
  -1   2  -6   -0.45    0.45
  -1   2  -6   -0.47    0.31
   1  -2   6   -0.39    0.50
   1  -2   6    0.62    0.53
   1  -2   6   -0.25    0.33
   1  -2   6    0.38    0.48
   2  -2   6   40.53    2.07
   2  -2   6   36.44    2.06
   2  -2   6   35.53    2.12
  -3   2  -6   22.24    1.72
  -3   2  -6   22.80    1.66
  -3   2  -6   22.04    2.04
   3  -2   6   25.66    1.81
   3  -2   6   24.28    1.75
   3  -2   6   24.27    1.71
  -4   2  -6    3.73    0.97
  -4   2  -6    4.39    1.08
  -4   2  -6    5.91    1.17
   4  -2   6    5.51    1.12
   4  -2   6    6.08    1.15
   4  -2   6    5.07    1.12
   4  -2   6    5.72    1.09
  -5   2  -6    0.17    0.61
  -5   2  -6    1.14    0.71
  -5   2  -6    1.37    0.85
   5  -2   6    0.79    0.71
   5  -2   6    0.63    0.61
   5  -2   6    0.23    0.69
   5  -2   6    0.86    0.63
  -6   2  -6   28.13    2.79
  -6   2  -6   27.01    2.61
  -6   2  -6   27.30    2.55
   6  -2   6   23.34    2.48
   6  -2   6   20.85    2.21
   6  -2   6   23.08    2.26
   6  -2   6   22.88    2.32
  -7   2  -6    0.75    1.01
  -7   2  -6    2.45    1.10
  -7   2  -6    3.43    1.31
   7  -2   6    2.43    1.06
   7  -2   6    2.74    1.18
   7  -2   6    2.81    1.03
   7  -2   6    2.37    1.05
  -6  -1   6   15.62    2.20
  -6  -1   6   24.00    2.69
  -6  -1   6   17.99    2.38
  -6  -1   6   17.06    2.33
  -5  -1   6    2.88    1.00
  -5  -1   6    3.56    1.23
  -5  -1   6    3.45    1.13
  -5  -1   6    2.71    1.13
   4   1  -6    5.22    1.15
  -4  -1   6    4.95    1.24
  -4  -1   6    4.60    1.16
  -4  -1   6    7.23    1.31
  -4  -1   6    4.22    1.15
   3   1  -6   29.17    1.72
  -3  -1   6   29.07    2.09
  -3  -1   6   27.83    1.90
  -3  -1   6   27.49    2.00
  -3  -1   6   28.00    2.14
   2   1  -6    0.86    0.50
   2   1  -6   -0.47    0.36
  -2  -1   6    0.30    0.42
  -2  -1   6    0.72    0.53
  -2  -1   6    0.26    0.57
  -2  -1   6    0.80    0.58
   1   1  -6    0.05    0.42
   1   1  -6   -0.10    0.38
  -1  -1   6    0.63    0.53
  -1  -1   6    0.22    0.56
  -1  -1   6    0.05    0.61
   0   1  -6    6.63    0.92
   0  -1   6    6.71    1.01
   0  -1   6    6.56    1.08
   0  -1   6    5.36    0.84
  -1   1  -6    0.77    0.42
  -1   1  -6    0.92    0.55
   1  -1   6    0.57    0.44
   1  -1   6    0.23    0.36
   1  -1   6   -0.35    0.49
  -2   1  -6   89.98    3.58
  -2   1  -6   89.98    3.69
  -2   1  -6   91.13    3.39
  -2   1  -6   95.34    3.73
   2  -1   6   91.34    3.58
   2  -1   6   87.83    3.59
   2  -1   6   90.61    3.67
  -3   1  -6   71.02    3.24
  -3   1  -6   71.65    3.11
  -3   1  -6   70.33    3.23
   3  -1   6   70.65    3.13
   3  -1   6   72.51    3.24
   3  -1   6   77.11    3.26
  -4   1  -6   15.16    1.70
  -4   1  -6   11.24    1.46
  -4   1  -6   15.92    1.71
   4  -1   6   13.54    1.63
   4  -1   6   11.21    1.43
   4  -1   6   14.97    1.66
  -5   1  -6   18.39    2.04
  -5   1  -6   17.48    1.94
  -5   1  -6   14.55    1.77
   5  -1   6   16.96    1.91
   5  -1   6   13.38    1.60
   5  -1   6   16.61    1.90
   5  -1   6   15.53    1.85
  -6   1  -6   29.24    2.66
  -6   1  -6   24.74    2.49
  -6   1  -6   24.25    2.56
   6  -1   6   25.24    2.47
   6  -1   6   25.16    2.43
   6  -1   6   30.95    2.77
   6  -1   6   25.20    1.98
  -7   1  -6    1.30    1.03
  -7   1  -6    1.77    1.10
  -7   1  -6    1.29    0.94
   7  -1   6    1.50    0.96
   7  -1   6    2.49    1.09
   7  -1   6    1.24    0.98
  -8   1  -6    0.42    0.93
  -8   1  -6    0.43    1.11
  -8   1  -6   -0.06    1.02
   8  -1   6    0.28    0.94
   8  -1   6    1.03    1.14
   8  -1   6    1.87    1.01
   6   0  -6   10.55    1.70
  -6   0   6   12.75    1.96
  -6   0   6   11.08    1.79
  -6   0   6    9.64    1.91
  -6   0   6   19.99    2.58
   5   0  -6   -0.29    0.59
  -5   0   6    1.37    0.77
  -5   0   6   -0.13    0.77
  -5   0   6    0.26    0.78
  -5   0   6    0.31    0.84
   4   0  -6   16.18    1.72
  -4   0   6   14.84    1.83
  -4   0   6   13.78    1.76
  -4   0   6   15.88    1.78
  -4   0   6   19.71    2.06
   3   0  -6   17.12    1.65
   3   0  -6   16.35    1.25
  -3   0   6   14.47    1.64
  -3   0   6   10.95    1.47
  -3   0   6   14.29    1.69
  -3   0   6   13.29    1.64
  -3   0   6   17.98    1.74
   2   0  -6   11.00    1.23
   2   0  -6    8.70    1.05
  -2   0   6    9.73    1.27
  -2   0   6   10.06    1.15
  -2   0   6    8.89    1.23
  -2   0   6    9.82    1.28
  -2   0   6    8.36    1.14
   1   0  -6    6.00    0.91
   1   0  -6    6.09    0.91
  -1   0   6    6.80    1.02
  -1   0   6    6.59    1.00
  -1   0   6    5.85    0.94
   0   0  -6   43.95    2.08
   0   0  -6   46.20    2.20
   0   0   6   45.51    2.27
   0   0   6   45.85    2.22
   0   0   6   42.44    2.04
  -1   0  -6    1.25    0.50
  -1   0  -6    1.87    0.60
   1   0   6    0.98    0.53
   1   0   6    0.55    0.39
   1   0   6    0.61    0.50
  -2   0  -6   13.28    1.33
  -2   0  -6   16.97    1.58
  -2   0  -6   14.94    1.39
  -2   0  -6   12.69    1.40
  -2   0  -6   13.19    1.01
   2   0   6   13.93    1.39
   2   0   6   12.89    1.40
  -3   0  -6    4.20    0.82
  -3   0  -6    5.46    0.95
  -3   0  -6    4.82    0.97
  -3   0  -6    2.95    0.85
   3   0   6    4.10    0.83
   3   0   6    3.80    0.86
   3   0   6    3.35    0.83
  -4   0  -6    0.64    0.73
  -4   0  -6    0.74    0.60
  -4   0  -6    2.10    0.76
   4   0   6    0.25    0.57
   4   0   6    0.79    0.57
   4   0   6    2.27    0.82
  -5   0  -6    2.20    0.94
  -5   0  -6    2.77    1.03
  -5   0  -6    1.47    0.78
   5   0   6    1.58    0.78
   5   0   6    1.40    0.71
   5   0   6    1.28    0.78
  -6   0  -6   14.64    1.88
  -6   0  -6   19.48    2.22
  -6   0  -6   19.02    2.16
   6   0   6   16.75    2.00
   6   0   6   17.88    2.03
   6   0   6   17.12    1.80
   6   0   6   11.23    1.63
  -7   0  -6   10.00    1.79
  -7   0  -6   11.88    1.97
  -7   0  -6    8.08    1.63
   7   0   6   10.01    1.77
   7   0   6    9.28    1.65
   7   0   6   10.11    1.75
  -8   0  -6   27.47    3.04
  -8   0  -6   36.59    3.61
   8   0   6   25.90    2.81
   8   0   6   28.12    2.91
   6  -1  -6    1.55    1.01
  -6   1   6    5.01    1.49
  -6   1   6    1.71    0.94
  -6   1   6    0.42    1.04
   5  -1  -6   31.54    2.32
  -5   1   6   29.39    2.77
  -5   1   6   34.40    3.08
  -5   1   6   30.87    2.38
  -5   1   6   26.22    2.55
   4  -1  -6    0.73    0.63
   4  -1  -6   -0.05    0.44
  -4   1   6    0.36    0.73
  -4   1   6    1.23    0.86
  -4   1   6    0.58    0.58
  -4   1   6    1.22    0.70
  -4   1   6    1.59    0.76
   3  -1  -6    4.06    0.90
   3  -1  -6    5.63    0.93
  -3   1   6    5.62    0.93
  -3   1   6    6.66    1.20
  -3   1   6    3.63    0.91
  -3   1   6    5.28    1.16
  -3   1   6    3.87    1.00
   2  -1  -6    1.26    0.57
   2  -1  -6    0.31    0.51
  -2   1   6    1.93    0.75
  -2   1   6    1.21    0.54
  -2   1   6    0.72    0.52
  -2   1   6    1.41    0.67
  -2   1   6    0.82    0.55
   1  -1  -6    9.32    1.11
   1  -1  -6   12.09    1.29
  -1   1   6    9.97    0.97
  -1   1   6   10.43    1.20
  -1   1   6   10.92    1.15
  -1   1   6    9.45    1.10
  -1   1   6    9.81    1.14
   0  -1  -6  103.98    3.93
   0  -1  -6  108.48    3.91
   0   1   6  109.35    4.07
   0   1   6  105.54    3.74
   0   1   6  106.80    3.83
  -1  -1  -6    9.68    1.10
  -1  -1  -6   11.00    1.17
  -1  -1  -6    8.10    1.07
   1   1   6    9.85    1.12
   1   1   6    9.47    0.95
   1   1   6   11.24    1.13
  -2  -1  -6   27.34    1.69
  -2  -1  -6   25.69    1.61
  -2  -1  -6   24.67    1.59
  -2  -1  -6   26.77    1.42
  -2  -1  -6   25.37    1.58
   2   1   6   27.62    1.27
   2   1   6   30.27    1.70
   2   1   6   26.26    1.64
  -3  -1  -6  122.72    4.41
  -3  -1  -6  123.64    4.58
  -3  -1  -6  119.27    4.32
  -3  -1  -6   99.82    4.29
  -3  -1  -6  119.70    4.54
   3   1   6  120.79    4.48
   3   1   6  122.13    4.45
   3   1   6  122.91    4.55
  -4  -1  -6   -0.14    0.50
  -4  -1  -6    0.40    0.58
  -4  -1  -6    0.62    0.71
   4   1   6   -0.17    0.49
   4   1   6   -0.05    0.51
   4   1   6    0.14    0.50
  -5  -1  -6    9.19    1.49
  -5  -1  -6    7.49    1.37
  -5  -1  -6    8.68    1.47
   5   1   6    7.54    1.31
   5   1   6    7.36    1.28
   5   1   6   10.89    1.51
  -6  -1  -6   18.22    2.24
  -6  -1  -6   16.47    1.98
  -6  -1  -6   15.60    2.01
   6   1   6   17.55    2.06
   6   1   6   15.06    1.95
   6   1   6   14.28    1.80
  -7  -1  -6    6.51    1.53
  -7  -1  -6    8.72    1.79
  -7  -1  -6    8.84    1.68
   7   1   6    7.01    1.42
   7   1   6    6.87    1.53
  -8  -1  -6   15.17    2.28
  -8  -1  -6    8.35    1.82
   8   1   6    6.77    1.66
   8   1   6    6.54    1.51
   6  -2  -6   14.26    2.01
  -6   2   6   15.78    2.07
  -6   2   6   16.28    2.33
  -6   2   6   15.42    2.16
  -6   2   6   20.33    2.56
   5  -2  -6    5.06    1.26
  -5   2   6    3.53    1.19
  -5   2   6    2.59    1.00
  -5   2   6    3.31    1.15
  -5   2   6    5.14    1.41
   4  -2  -6    2.70    0.82
   4  -2  -6    0.68    0.74
  -4   2   6    1.31    0.83
  -4   2   6    1.04    0.75
  -4   2   6    1.32    0.85
  -4   2   6    1.05    0.84
   3  -2  -6    9.19    1.19
   3  -2  -6    8.24    1.26
  -3   2   6   11.91    1.50
  -3   2   6   10.24    1.40
  -3   2   6    9.14    1.42
  -3   2   6    9.43    1.38
   2  -2  -6    0.13    0.51
   2  -2  -6    0.48    0.48
  -2   2   6    0.09    0.51
  -2   2   6    0.32    0.45
  -2   2   6    0.63    0.55
  -2   2   6    0.21    0.54
   1  -2  -6   74.64    3.05
   1  -2  -6   72.26    3.03
  -1   2   6   70.87    3.00
  -1   2   6   72.74    2.98
  -1   2   6   68.74    2.86
  -1   2   6   69.27    3.01
   0  -2  -6    3.31    0.73
   0  -2  -6    2.07    0.63
   0   2   6    3.23    0.60
   0   2   6    3.55    0.77
   0   2   6    3.72    0.73
  -1  -2  -6    0.06    0.28
  -1  -2  -6    0.25    0.44
  -1  -2  -6    0.50    0.41
  -1  -2  -6    0.18    0.39
  -1  -2  -6    1.06    0.52
  -1  -2  -6    2.80    0.65
   1   2   6    0.21    0.35
   1   2   6   -0.13    0.41
   1   2   6    0.09    0.26
   1   2   6    0.38    0.38
  -2  -2  -6    0.03    0.31
  -2  -2  -6    0.49    0.40
  -2  -2  -6    0.51    0.56
  -2  -2  -6    0.46    0.49
  -2  -2  -6    0.19    0.42
  -2  -2  -6    0.97    0.38
  -2  -2  -6    0.63    0.39
   2   2   6    0.79    0.49
   2   2   6    0.84    0.43
   2   2   6    0.57    0.46
   2   2   6    0.09    0.33
  -3  -2  -6    0.05    0.33
  -3  -2  -6    0.36    0.50
  -3  -2  -6   -0.10    0.46
  -3  -2  -6    0.15    0.44
  -3  -2  -6    0.35    0.38
  -3  -2  -6    0.17    0.45
  -3  -2  -6    0.11    0.37
   3   2   6    2.04    0.73
   3   2   6   -0.32    0.36
   3   2   6    0.97    0.39
  -4  -2  -6   24.59    1.56
  -4  -2  -6   21.88    1.78
  -4  -2  -6   24.49    1.88
  -4  -2  -6   23.68    1.60
  -4  -2  -6   24.08    1.71
   4   2   6   22.77    1.73
   4   2   6   24.04    1.88
   4   2   6   26.15    1.74
  -5  -2  -6   11.32    1.63
  -5  -2  -6    9.79    1.55
  -5  -2  -6    9.74    1.50
   5   2   6    9.88    1.46
   5   2   6   11.01    1.41
  -6  -2  -6   33.70    2.36
  -6  -2  -6   35.55    2.58
  -6  -2  -6   31.70    2.41
  -6  -2  -6   33.91    2.47
   6   2   6   35.27    2.34
  -7  -2  -6   30.72    2.55
  -7  -2  -6   29.58    3.06
  -7  -2  -6   34.57    2.73
  -7  -2  -6   30.88    3.01
   7   2   6   27.43    2.66
  -8  -2  -6    3.83    1.41
  -8  -2  -6    0.99    1.17
   8   2   6    0.98    0.82
   6  -3  -6    1.77    1.10
  -6   3   6    0.25    0.89
  -6   3   6    0.50    0.99
  -6   3   6    2.80    1.26
  -6   3   6   -1.11    0.83
   5  -3  -6    1.75    0.83
   5  -3  -6    1.50    0.97
  -5   3   6    2.83    1.07
  -5   3   6    2.95    1.06
  -5   3   6    0.90    0.90
  -5   3   6    1.64    0.94
   4  -3  -6    1.16    0.73
   4  -3  -6    0.11    0.70
  -4   3   6    0.14    0.65
  -4   3   6   -0.78    0.49
  -4   3   6   -0.84    0.48
  -4   3   6    0.27    0.76
   3  -3  -6    2.28    0.73
   3  -3  -6    1.27    0.85
  -3   3   6    2.36    0.82
  -3   3   6    1.72    0.78
  -3   3   6    2.41    0.86
  -3   3   6    2.53    0.87
   2  -3  -6   57.92    2.86
   2  -3  -6   62.37    2.95
  -2   3   6   55.46    2.83
  -2   3   6   60.32    2.87
  -2   3   6   56.14    2.69
  -2   3   6   63.30    2.96
   1  -3  -6    8.34    1.18
   1  -3  -6    7.17    1.10
   1  -3  -6    7.61    1.13
  -1   3   6    6.08    0.97
  -1   3   6    7.77    1.04
  -1   3   6    6.83    1.14
  -1   3   6    4.47    0.86
   0  -3  -6   53.05    2.60
   0  -3  -6   46.42    2.32
   0  -3  -6   50.23    2.40
   0  -3  -6   50.46    2.45
   0   3   6   45.42    2.26
   0   3   6   50.19    2.03
   0   3   6   47.19    2.30
   0   3   6   51.82    2.39
   0   3   6   48.99    2.27
  -1  -3  -6   70.94    3.01
  -1  -3  -6   75.60    2.74
  -1  -3  -6   79.09    3.30
  -1  -3  -6   74.63    3.09
  -1  -3  -6   77.48    3.07
  -1  -3  -6   74.40    3.15
  -1  -3  -6   73.51    2.94
   1   3   6   75.53    3.05
   1   3   6   73.86    2.99
   1   3   6   74.58    2.87
   1   3   6   73.94    2.99
   1   3   6   76.75    2.99
   1   3   6   77.90    2.76
  -2  -3  -6    4.22    0.91
  -2  -3  -6    4.27    0.88
  -2  -3  -6    3.58    0.69
  -2  -3  -6    3.80    0.79
  -2  -3  -6    4.62    0.83
  -2  -3  -6    3.81    0.73
  -2  -3  -6    4.86    0.80
  -2  -3  -6    3.95    0.84
   2   3   6    4.83    0.76
   2   3   6    4.54    0.78
   2   3   6    3.70    0.70
   2   3   6    3.67    0.78
   2   3   6    3.87    0.76
   2   3   6    4.35    0.75
  -3  -3  -6    8.05    1.20
  -3  -3  -6    8.01    1.10
  -3  -3  -6    8.74    1.29
  -3  -3  -6    8.78    1.03
  -3  -3  -6    8.93    1.18
  -3  -3  -6    8.06    1.04
   3   3   6   10.25    1.34
   3   3   6   10.51    1.09
   3   3   6    8.32    1.18
  -4  -3  -6    1.22    0.62
  -4  -3  -6    0.57    0.69
  -4  -3  -6    1.38    0.67
  -4  -3  -6    1.80    0.98
  -4  -3  -6    1.56    0.65
   4   3   6    2.47    0.79
   4   3   6    2.91    0.76
  -5  -3  -6    3.55    0.93
  -5  -3  -6    2.22    0.94
  -5  -3  -6    5.94    1.35
  -5  -3  -6    1.27    0.80
   5   3   6    1.78    0.72
   5   3   6    3.73    1.00
  -6  -3  -6    0.26    0.68
  -6  -3  -6   -0.35    0.65
  -6  -3  -6    0.42    0.61
  -6  -3  -6   -0.73    0.61
   6   3   6   -0.18    0.65
  -7  -3  -6    0.49    1.07
  -7  -3  -6   -0.98    0.59
  -7  -3  -6    0.91    0.87
  -7  -3  -6    0.68    0.86
   7   3   6   -0.11    0.72
  -8  -3  -6    3.56    1.47
  -8  -3  -6    5.23    1.48
  -8  -3  -6    3.77    1.29
   6  -4  -6    2.67    1.18
  -6   4   6    2.18    1.30
  -6   4   6    3.55    1.31
  -6   4   6    6.92    1.50
   5  -4  -6    4.19    1.15
   5  -4  -6    8.52    1.47
  -5   4   6    8.13    1.61
  -5   4   6    8.40    1.60
  -5   4   6   11.16    1.95
   4  -4  -6    0.55    0.85
   4  -4  -6   -0.27    0.55
  -4   4   6    0.37    0.79
  -4   4   6    0.02    0.76
  -4   4   6   -0.19    0.78
   3  -4  -6   26.40    2.08
   3  -4  -6   26.36    2.04
   3  -4  -6   29.14    2.07
  -3   4   6   24.44    1.97
  -3   4   6   26.40    1.84
  -3   4   6   30.02    2.20
  -3   4   6   30.48    2.18
   2  -4  -6    0.31    0.69
   2  -4  -6    1.09    0.66
   2  -4  -6    0.76    0.56
  -2   4   6    0.81    0.63
  -2   4   6    0.64    0.59
  -2   4   6    2.17    0.87
  -2   4   6    0.51    0.66
   1  -4  -6   27.51    1.96
   1  -4  -6   27.90    1.89
   1  -4  -6   27.69    1.90
   1  -4  -6   28.88    1.94
  -1   4   6   29.01    1.90
  -1   4   6   28.42    1.91
  -1   4   6   31.35    1.96
  -1   4   6   29.85    1.68
   0  -4  -6    5.96    1.02
   0  -4  -6    6.08    1.08
   0  -4  -6    5.51    0.99
   0  -4  -6    6.67    1.13
   0   4   6    5.70    0.90
   0   4   6    7.81    1.19
   0   4   6    7.34    1.10
   0   4   6    6.03    0.98
   0   4   6    6.30    0.88
  -1  -4  -6    1.20    0.65
  -1  -4  -6    0.84    0.52
  -1  -4  -6    0.07    0.46
  -1  -4  -6    0.55    0.47
  -1  -4  -6    1.43    0.59
  -1  -4  -6    1.29    0.67
   1   4   6    1.79    0.68
   1   4   6    0.60    0.46
   1   4   6    0.64    0.57
   1   4   6    0.96    0.53
   1   4   6    0.93    0.48
  -2  -4  -6   -0.20    0.44
  -2  -4  -6   -0.19    0.44
  -2  -4  -6    0.34    0.52
  -2  -4  -6   -0.02    0.45
  -2  -4  -6    0.41    0.47
  -2  -4  -6   -0.31    0.58
  -2  -4  -6    0.81    0.56
   2   4   6    0.58    0.55
   2   4   6    0.08    0.49
   2   4   6   -0.47    0.45
   2   4   6    1.57    0.62
   2   4   6    0.08    0.52
   2   4   6    1.01    0.52
  -3  -4  -6   15.03    1.66
  -3  -4  -6   11.66    1.31
  -3  -4  -6   12.88    1.49
  -3  -4  -6   13.68    1.44
  -3  -4  -6   13.66    1.50
  -3  -4  -6   11.00    1.39
  -3  -4  -6   13.05    1.40
  -3  -4  -6   10.82    1.33
   3   4   6   12.55    1.42
   3   4   6   10.96    1.37
   3   4   6   11.57    1.31
  -4  -4  -6   35.00    2.26
  -4  -4  -6   31.41    2.12
  -4  -4  -6   29.07    1.90
  -4  -4  -6   36.18    2.37
  -4  -4  -6   30.60    2.14
   4   4   6   32.13    2.14
   4   4   6   32.98    2.00
  -5  -4  -6   20.51    2.35
  -5  -4  -6   17.97    2.09
  -5  -4  -6   16.84    1.97
  -5  -4  -6   18.99    2.05
   5   4   6   15.68    1.65
   5   4   6   17.55    1.98
  -6  -4  -6    2.93    1.18
  -6  -4  -6    3.82    1.28
  -6  -4  -6    0.91    0.86
  -6  -4  -6    5.13    1.50
  -7  -4  -6   20.44    2.56
  -7  -4  -6   17.61    2.49
  -7  -4  -6   18.48    2.34
  -7  -4  -6   24.08    2.73
   5  -5  -6    1.01    0.98
   5  -5  -6    2.47    1.09
  -5   5   6    2.18    1.20
  -5   5   6    2.53    1.14
  -5   5   6    0.47    0.77
   4  -5  -6    0.91    0.97
   4  -5  -6   -0.09    0.69
   4  -5  -6    1.10    0.83
  -4   5   6   -0.86    0.80
  -4   5   6   -1.17    0.82
  -4   5   6    0.32    0.74
   3  -5  -6    0.49    0.78
   3  -5  -6    2.24    0.88
   3  -5  -6    2.86    0.95
  -3   5   6    1.36    0.82
  -3   5   6    1.79    0.91
  -3   5   6    0.48    0.83
   2  -5  -6    2.15    0.89
   2  -5  -6    2.13    0.83
   2  -5  -6    3.76    0.95
   2  -5  -6    2.87    0.87
  -2   5   6    4.48    1.08
  -2   5   6    1.64    0.82
  -2   5   6    3.72    1.02
   1  -5  -6   71.03    3.25
   1  -5  -6   64.41    3.22
   1  -5  -6   71.64    3.39
   1  -5  -6   59.03    3.30
  -1   5   6   64.65    3.27
  -1   5   6   63.92    3.22
  -1   5   6   61.04    3.18
   0  -5  -6   22.52    2.16
   0  -5  -6   24.97    1.72
   0  -5  -6   23.09    2.21
   0  -5  -6   23.29    1.81
   0   5   6   24.93    1.86
   0   5   6   24.21    1.84
   0   5   6   25.59    1.92
   0   5   6   21.13    1.55
  -1  -5  -6    0.64    0.60
  -1  -5  -6    1.68    0.68
  -1  -5  -6    1.16    0.69
  -1  -5  -6    0.52    0.57
   1   5   6    1.34    0.68
   1   5   6    1.26    0.80
   1   5   6    2.10    0.78
   1   5   6    0.24    0.54
  -2  -5  -6   -0.53    0.41
  -2  -5  -6    0.35    0.58
  -2  -5  -6   -0.22    0.52
  -2  -5  -6    0.09    0.61
  -2  -5  -6   -0.25    0.50
  -2  -5  -6   -0.26    0.45
   2   5   6    0.50    0.48
   2   5   6    0.74    0.60
   2   5   6    0.06    0.58
   2   5   6   -0.83    0.45
   2   5   6    0.27    0.65
  -3  -5  -6   21.05    1.97
  -3  -5  -6   20.67    1.67
  -3  -5  -6   22.12    2.07
  -3  -5  -6   20.31    1.55
  -3  -5  -6   24.85    1.83
  -3  -5  -6   20.62    2.03
  -3  -5  -6   20.40    1.72
   3   5   6   23.25    1.80
   3   5   6   20.78    1.93
   3   5   6   21.55    1.79
   3   5   6   22.73    1.66
  -4  -5  -6    3.53    1.10
  -4  -5  -6    1.14    0.86
  -4  -5  -6    2.76    0.93
  -4  -5  -6    4.39    1.06
  -4  -5  -6    3.27    0.91
   4   5   6    3.36    0.93
   4   5   6    3.77    1.10
  -5  -5  -6    0.86    0.85
  -5  -5  -6    0.79    0.78
  -5  -5  -6    0.01    0.72
  -5  -5  -6    0.70    0.71
   5   5   6    0.91    0.81
   5   5   6    0.18    0.72
  -6  -5  -6    0.19    0.89
  -6  -5  -6   -0.19    0.88
  -6  -5  -6    0.44    0.92
  -6  -5  -6    0.86    0.95
  -7  -5  -6    2.19    1.28
  -7  -5  -6    4.14    1.32
  -7  -5  -6    1.56    1.03
  -7  -5  -6    4.39    1.52
   5  -6  -6    5.55    1.48
   5  -6  -6    6.38    1.55
  -5   6   6    5.00    1.51
  -5   6   6    6.27    1.53
  -5   6   6    5.06    1.55
   4  -6  -6    8.66    1.67
   4  -6  -6    9.10    1.68
   4  -6  -6    7.31    1.51
  -4   6   6    7.47    1.53
  -4   6   6    8.95    1.72
  -4   6   6   10.27    1.94
   3  -6  -6   21.30    2.48
   3  -6  -6   16.78    2.06
   3  -6  -6   23.31    2.43
   3  -6  -6   19.71    2.28
  -3   6   6   19.39    2.30
  -3   6   6   19.06    2.19
  -3   6   6   18.12    2.20
   2  -6  -6    1.18    0.76
   2  -6  -6    1.54    0.87
   2  -6  -6    1.80    0.93
   2  -6  -6    0.36    0.70
  -2   6   6    1.24    1.04
  -2   6   6    0.84    0.93
  -2   6   6    1.15    0.96
   1  -6  -6    1.98    0.86
   1  -6  -6    1.56    0.93
   1  -6  -6    1.73    0.85
   1  -6  -6    2.03    0.82
  -1   6   6    4.14    1.11
  -1   6   6    3.14    1.06
  -1   6   6    1.89    0.90
   0  -6  -6    1.01    0.86
   0  -6  -6    0.47    0.64
   0  -6  -6    0.05    0.51
   0  -6  -6   -0.46    0.50
   0   6   6    0.30    0.70
   0   6   6   -0.30    0.60
   0   6   6    1.88    0.81
   0   6   6   -0.37    0.55
  -1  -6  -6    5.95    1.25
  -1  -6  -6    4.92    1.18
  -1  -6  -6    5.50    1.14
  -1  -6  -6    3.79    0.94
   1   6   6    4.81    1.06
   1   6   6    3.55    1.02
   1   6   6    2.63    0.95
   1   6   6    4.90    1.10
  -2  -6  -6    4.92    1.26
  -2  -6  -6    3.34    0.97
  -2  -6  -6    6.40    1.24
  -2  -6  -6    4.00    0.98
  -2  -6  -6    3.90    1.08
   2   6   6    1.80    0.98
   2   6   6    4.64    1.10
   2   6   6    4.17    1.09
   2   6   6    4.86    1.00
  -3  -6  -6   37.89    2.51
  -3  -6  -6   37.44    2.44
  -3  -6  -6   34.93    2.56
  -3  -6  -6   36.08    2.41
   3   6   6   41.13    2.51
   3   6   6   32.51    2.33
   3   6   6   32.67    2.49
  -4  -6  -6   10.48    1.74
  -4  -6  -6   12.97    1.74
  -4  -6  -6    8.35    1.55
  -4  -6  -6   12.80    1.82
   4   6   6   13.91    1.94
   4   6   6   11.67    1.79
  -5  -6  -6   23.86    2.41
  -5  -6  -6   26.66    2.74
  -5  -6  -6   24.73    2.63
  -5  -6  -6   22.62    2.48
   5   6   6   21.70    2.37
  -6  -6  -6    6.20    1.59
  -6  -6  -6    7.23    1.58
  -6  -6  -6    7.97    1.76
   6   6   6    4.61    1.33
   4  -7  -6    1.07    0.99
   4  -7  -6    0.03    0.87
   4  -7  -6   -0.09    0.76
  -4   7   6    1.13    0.97
  -4   7   6    0.62    1.11
  -4   7   6    0.91    1.08
   3  -7  -6    9.97    1.75
   3  -7  -6   10.89    1.96
   3  -7  -6    9.68    1.78
   3  -7  -6    9.60    1.76
  -3   7   6   10.91    1.81
  -3   7   6   11.61    1.92
  -3   7   6    8.79    1.79
   2  -7  -6    1.45    0.80
   2  -7  -6    2.50    0.91
   2  -7  -6    1.45    0.85
   2  -7  -6    2.04    1.05
  -2   7   6    1.84    1.20
  -2   7   6    1.18    0.94
  -2   7   6    3.74    1.13
   1  -7  -6    5.90    1.35
   1  -7  -6    3.64    1.08
   1  -7  -6    1.37    0.80
   1  -7  -6    2.05    0.91
  -1   7   6    3.55    1.15
  -1   7   6    1.09    0.90
  -1   7   6    3.74    1.30
   0  -7  -6   16.39    1.95
   0  -7  -6   12.01    1.76
   0  -7  -6   15.57    2.01
   0   7   6   11.72    1.80
   0   7   6   14.21    1.99
   0   7   6   12.30    1.82
   0   7   6   14.58    1.77
  -1  -7  -6   -0.20    0.71
  -1  -7  -6   -0.23    0.66
  -1  -7  -6    0.55    0.74
   1   7   6    0.76    0.93
   1   7   6   -0.33    0.80
   1   7   6    1.47    0.95
   1   7   6    0.40    0.79
  -2  -7  -6    1.29    0.73
  -2  -7  -6   -0.38    0.73
  -2  -7  -6    1.02    0.78
  -2  -7  -6    2.08    1.06
  -2  -7  -6    0.90    0.72
   2   7   6   -0.23    0.79
   2   7   6    0.73    0.87
   2   7   6   -0.11    0.84
   2   7   6   -0.63    0.58
  -3  -7  -6    9.28    1.65
  -3  -7  -6    7.76    1.69
  -3  -7  -6    7.75    1.45
  -3  -7  -6    9.08    1.59
   3   7   6    9.10    1.59
   3   7   6    7.08    1.58
   3   7   6    9.37    1.55
  -4  -7  -6    0.67    1.04
  -4  -7  -6    1.71    1.04
  -4  -7  -6    1.54    0.93
   4   7   6    1.29    0.89
   4   7   6    0.11    1.02
  -5  -7  -6    6.41    1.56
  -5  -7  -6    0.96    1.12
  -5  -7  -6    6.76    1.51
   5   7   6    3.54    1.50
   5   7   6    4.33    1.24
   2  -8  -6    1.54    1.14
   2  -8  -6    1.76    1.02
   2  -8  -6    3.06    1.29
  -2   8   6    4.27    1.47
  -2   8   6    4.05    1.44
  -2   8   6    3.24    1.42
   1  -8  -6   -0.79    0.81
   1  -8  -6   -0.21    0.55
   1  -8  -6   -0.47    0.72
  -1   8   6   -0.25    0.85
  -1   8   6    1.67    1.03
  -1   8   6    1.29    1.05
   0  -8  -6    0.27    0.89
   0  -8  -6    0.45    0.81
   0  -8  -6    0.51    0.79
   0   8   6    0.51    0.85
   0   8   6    0.08    0.82
   0   8   6    0.02    0.89
   0   8   6    0.08    0.74
  -1  -8  -6   -0.78    0.68
  -1  -8  -6   -0.15    0.70
  -1  -8  -6    0.45    0.87
   1   8   6   -0.88    0.67
   1   8   6    1.62    1.05
   1   8   6   -0.47    0.79
   1   8   6    0.28    0.97
  -2  -8  -6   -0.92    0.76
  -2  -8  -6   -0.65    0.71
  -2  -8  -6    1.97    1.09
  -2  -8  -6   -0.67    0.68
   2   8   6    0.38    1.04
   2   8   6    0.57    0.93
   2   8   6   -0.04    0.94
   2   8   6    1.07    1.00
  -3  -8  -6   25.53    2.73
  -3  -8  -6   30.60    2.94
  -3  -8  -6   28.94    3.17
  -3  -8  -6   29.06    2.87
   3   8   6   26.79    2.78
   3   8   6   27.25    2.71
   3   8   6   21.90    2.64
  -1  -6   7    0.46    0.87
  -1  -6   7    0.35    0.90
   0  -6   7   10.97    1.75
   1  -6   7    6.36    1.45
   1  -6   7    3.83    1.35
  -2   6  -7   25.13    2.81
   2  -6   7   23.04    2.61
   2  -6   7   18.17    2.34
  -3   6  -7    1.03    1.10
   3  -6   7   -0.20    0.87
   3  -6   7    1.01    0.91
   3  -6   7   -0.27    0.92
  -3  -5   7    1.51    1.16
  -3  -5   7    0.93    1.05
  -2  -5   7   17.96    2.39
  -2  -5   7   20.94    2.34
  -1  -5   7    6.06    1.36
  -1  -5   7    4.39    1.17
   0  -5   7   10.00    1.54
   0  -5   7    5.93    1.35
   1  -5   7    1.72    0.92
   1  -5   7    0.79    0.80
  -2   5  -7   10.16    1.73
   2  -5   7    7.49    1.50
   2  -5   7   10.00    1.68
  -3   5  -7    0.25    0.75
   3  -5   7    0.67    0.92
   3  -5   7   -0.61    0.88
  -4   5  -7    0.04    0.96
   4  -5   7    0.64    0.98
   4  -5   7    0.10    0.89
  -5   5  -7    3.25    1.34
   5  -5   7    0.51    1.00
   5  -5   7    1.94    1.02
  -4  -4   7    0.55    0.94
  -4  -4   7    0.34    0.89
  -4  -4   7    0.29    1.04
  -3  -4   7    0.81    0.76
  -3  -4   7    1.12    0.89
  -3  -4   7    1.60    1.00
  -2  -4   7    0.37    0.83
  -2  -4   7    0.70    0.89
  -2  -4   7   -0.31    0.67
  -1  -4   7    6.82    1.37
  -1  -4   7    5.14    1.20
  -1  -4   7    6.62    1.30
   0  -4   7   43.98    2.80
   0  -4   7   42.54    2.58
   0  -4   7   40.34    2.48
   0  -4   7   41.17    2.39
   1  -4   7    2.84    0.90
   1  -4   7    2.91    1.09
   1  -4   7    3.03    0.89
  -2   4  -7   12.93    1.78
   2  -4   7   11.46    1.76
   2  -4   7   14.45    1.93
  -3   4  -7    0.66    0.76
   3  -4   7    2.04    1.00
   3  -4   7    2.88    1.08
   3  -4   7    2.48    0.97
  -4   4  -7    5.60    1.38
   4  -4   7    6.60    1.38
   4  -4   7    2.52    1.11
   4  -4   7    5.82    1.35
  -5   4  -7    2.60    1.24
   5  -4   7    4.91    1.28
   5  -4   7    2.56    1.14
   5  -4   7    0.82    1.01
  -6   4  -7    0.23    0.90
   6  -4   7    1.01    0.99
   6  -4   7   -0.80    0.71
   6  -4   7   -0.72    0.79
  -5  -3   7   -0.30    0.96
  -5  -3   7    1.41    1.25
  -5  -3   7   -0.63    0.83
  -4  -3   7    3.72    1.24
  -4  -3   7    3.89    1.20
  -4  -3   7    4.34    1.22
  -3  -3   7   12.80    1.94
  -3  -3   7   11.80    1.79
  -3  -3   7   10.32    1.73
  -2  -3   7   11.02    1.67
  -2  -3   7    6.58    1.37
  -2  -3   7    9.07    1.55
  -1  -3   7   64.45    3.22
  -1  -3   7   58.54    3.28
  -1  -3   7   72.06    3.28
   0  -3   7    0.32    0.81
   0  -3   7    0.02    0.67
   0  -3   7   -0.19    0.51
   1  -3   7    0.72    0.62
   1  -3   7    1.49    0.91
  -2   3  -7   12.41    1.52
   2  -3   7   10.71    1.60
   2  -3   7   15.23    1.63
   2  -3   7   13.09    1.56
  -3   3  -7   18.32    1.95
   3  -3   7   14.86    1.82
   3  -3   7   14.53    1.63
   3  -3   7   18.68    1.88
   3  -3   7   18.99    2.07
  -4   3  -7   20.56    2.18
  -4   3  -7   20.15    2.09
   4  -3   7   24.47    1.91
   4  -3   7   15.85    1.89
   4  -3   7   20.69    2.11
   4  -3   7   21.58    2.28
  -5   3  -7   -0.71    0.78
  -5   3  -7    2.71    1.02
  -5   3  -7    2.36    1.14
   5  -3   7    3.25    1.12
   5  -3   7    1.66    1.02
   5  -3   7    4.95    1.18
   5  -3   7    2.37    0.99
  -6   3  -7   26.42    2.80
  -6   3  -7   30.56    2.47
  -6   3  -7   32.28    3.18
   6  -3   7   26.69    2.65
   6  -3   7   33.22    3.14
   6  -3   7   31.86    2.93
  -7   3  -7    3.80    1.45
  -7   3  -7    5.64    1.73
   7  -3   7    5.88    1.54
   7  -3   7    3.79    1.28
   7  -3   7    2.28    1.18
  -5  -2   7    1.00    1.08
  -5  -2   7    1.25    1.00
  -5  -2   7   -0.61    0.96
  -4  -2   7    0.05    0.73
  -4  -2   7    0.73    0.73
  -4  -2   7   -1.19    0.74
  -3  -2   7    3.10    1.11
  -3  -2   7    2.21    1.01
  -3  -2   7    1.91    0.91
  -2  -2   7   50.10    2.86
  -2  -2   7   47.12    2.78
  -2  -2   7   48.28    2.85
   1   2  -7   24.31    1.57
  -1  -2   7   25.21    2.06
  -1  -2   7   23.60    1.93
  -1  -2   7   27.46    1.94
   0   2  -7   38.73    2.09
   0  -2   7   35.91    2.35
   0  -2   7   41.96    2.19
   0  -2   7   34.90    2.25
  -1   2  -7   57.33    2.63
   1  -2   7   54.98    2.65
   1  -2   7   54.25    2.95
   1  -2   7   56.54    2.82
  -2   2  -7   31.75    1.91
   2  -2   7   31.42    2.17
   2  -2   7   30.77    1.96
   2  -2   7   33.22    1.99
  -3   2  -7   10.93    1.42
  -3   2  -7   10.91    1.56
   3  -2   7   10.21    1.42
   3  -2   7    8.22    1.37
   3  -2   7   10.19    1.39
  -4   2  -7    0.81    0.77
  -4   2  -7    0.55    0.56
  -4   2  -7   -0.74    0.72
   4  -2   7   -0.11    0.51
   4  -2   7   -0.73    0.49
   4  -2   7   -0.04    0.65
  -5   2  -7    3.87    1.09
  -5   2  -7    3.34    1.13
  -5   2  -7    4.45    1.13
   5  -2   7    3.01    1.00
   5  -2   7    4.39    1.24
   5  -2   7    3.93    1.05
   5  -2   7    4.14    1.10
  -6   2  -7    1.31    0.91
  -6   2  -7    1.66    1.01
  -6   2  -7    1.23    1.07
   6  -2   7    5.82    1.37
   6  -2   7    2.63    1.06
   6  -2   7    1.03    0.96
   6  -2   7    1.67    0.90
  -7   2  -7    2.66    1.17
  -7   2  -7    1.23    0.95
  -7   2  -7    2.08    1.27
   7  -2   7    0.00    0.89
   7  -2   7    1.28    0.96
   7  -2   7    1.82    1.00
   7  -2   7    1.41    1.01
  -6  -1   7    1.99    1.31
  -6  -1   7    0.51    1.14
  -6  -1   7    1.40    1.08
  -5  -1   7   -0.38    0.57
  -5  -1   7   -0.14    0.66
  -5  -1   7    1.08    0.96
  -4  -1   7   24.98    2.50
  -4  -1   7   22.16    2.41
  -4  -1   7   30.29    2.82
   3   1  -7    8.61    1.24
  -3  -1   7    9.30    1.49
  -3  -1   7   12.22    1.76
  -3  -1   7   11.63    1.60
   2   1  -7    2.18    0.72
   2   1  -7    4.20    0.88
  -2  -1   7    4.90    1.04
  -2  -1   7    3.99    1.01
  -2  -1   7    4.38    1.02
   1   1  -7   20.41    1.53
   1   1  -7   19.71    1.40
  -1  -1   7   16.31    1.63
  -1  -1   7   20.29    1.95
  -1  -1   7   19.37    1.87
   0   1  -7    4.44    0.85
   0  -1   7    4.41    0.80
   0  -1   7    3.75    0.99
   0  -1   7    3.93    0.94
  -1   1  -7   10.47    1.27
   1  -1   7    8.99    1.33
   1  -1   7    8.99    1.00
   1  -1   7    8.44    1.20
  -2   1  -7    1.91    0.61
  -2   1  -7    1.99    0.63
   2  -1   7    2.70    0.81
   2  -1   7    1.32    0.65
   2  -1   7    1.25    0.61
  -3   1  -7   -0.11    0.70
  -3   1  -7    0.51    0.77
   3  -1   7    0.04    0.58
   3  -1   7   -0.65    0.49
   3  -1   7    0.84    0.59
  -4   1  -7   59.57    3.04
  -4   1  -7   48.69    2.91
  -4   1  -7   55.03    2.91
   4  -1   7   53.99    3.00
   4  -1   7   52.05    2.88
   4  -1   7   57.61    2.98
  -5   1  -7   42.15    2.74
  -5   1  -7   47.17    2.82
  -5   1  -7   42.31    2.75
   5  -1   7   42.70    2.73
   5  -1   7   44.26    2.71
   5  -1   7   42.82    2.66
  -6   1  -7    2.31    0.96
  -6   1  -7    1.61    0.98
  -6   1  -7    4.86    1.30
   6  -1   7    2.49    0.99
   6  -1   7    3.54    1.14
   6  -1   7    2.13    1.03
   6  -1   7    2.45    0.89
  -7   1  -7   15.63    2.11
  -7   1  -7   16.29    2.24
  -7   1  -7   20.06    2.53
   7  -1   7   12.58    1.92
   7  -1   7   16.85    2.29
   7  -1   7   15.99    2.00
   7  -1   7   15.60    2.15
  -6   0   7    3.05    1.17
  -6   0   7    1.92    1.31
  -6   0   7    3.32    1.34
   5   0  -7    2.01    0.78
  -5   0   7    1.15    0.82
  -5   0   7   -0.04    0.71
  -5   0   7    0.52    0.95
  -5   0   7    1.35    0.86
   4   0  -7   29.67    2.18
  -4   0   7   37.32    2.54
  -4   0   7   34.60    2.47
  -4   0   7   36.21    2.40
   3   0  -7    6.36    1.11
   3   0  -7    6.60    1.04
  -3   0   7    5.82    1.26
  -3   0   7    5.78    1.17
  -3   0   7    9.13    1.37
   2   0  -7    0.26    0.51
   2   0  -7   -0.11    0.43
  -2   0   7    0.16    0.58
  -2   0   7    0.86    0.64
  -2   0   7    0.08    0.66
  -2   0   7    0.26    0.51
   1   0  -7   27.38    1.73
   1   0  -7   30.45    1.86
  -1   0   7   24.91    1.69
  -1   0   7   29.87    1.97
  -1   0   7   29.06    1.87
  -1   0   7   33.84    1.99
   0   0  -7    0.85    0.51
   0   0  -7    0.02    0.42
   0   0   7    0.17    0.46
   0   0   7   -0.22    0.45
   0   0   7    0.55    0.69
  -1   0  -7   18.18    1.67
  -1   0  -7   18.23    1.36
   1   0   7   16.41    1.59
   1   0   7   16.20    1.17
   1   0   7   14.42    1.52
  -2   0  -7   10.56    1.30
  -2   0  -7   11.21    1.33
  -2   0  -7   10.88    1.09
  -2   0  -7    9.26    1.33
  -2   0  -7    9.73    1.29
   2   0   7    8.70    1.22
   2   0   7   12.48    1.42
  -3   0  -7   24.82    1.90
  -3   0  -7   29.05    1.90
  -3   0  -7   24.48    1.91
   3   0   7   25.34    1.83
   3   0   7   26.38    1.84
   3   0   7   23.29    1.78
  -4   0  -7   12.83    1.51
  -4   0  -7   10.84    1.57
  -4   0  -7   10.10    1.56
   4   0   7    9.14    1.40
   4   0   7   10.53    1.47
   4   0   7   11.36    1.49
  -5   0  -7    0.79    0.70
  -5   0  -7   -0.77    0.55
  -5   0  -7   -0.25    0.64
   5   0   7   -0.43    0.51
   5   0   7   -0.40    0.54
   5   0   7    0.57    0.68
  -6   0  -7    6.44    1.44
  -6   0  -7    4.96    1.26
  -6   0  -7    2.53    0.99
   6   0   7    6.04    1.28
   6   0   7    4.02    1.15
   6   0   7    6.39    1.41
  -7   0  -7    0.16    0.80
  -7   0  -7   -0.61    0.79
  -7   0  -7   -0.47    0.73
   7   0   7   -0.36    0.75
   7   0   7   -0.87    0.75
   7   0   7    1.29    0.90
  -8   0  -7    7.82    1.78
  -8   0  -7   15.29    2.35
   8   0   7    7.68    1.83
   8   0   7   13.79    2.24
   6  -1  -7    4.24    1.30
  -6   1   7    4.07    1.36
  -6   1   7    8.19    1.83
  -6   1   7    3.29    1.21
   5  -1  -7   25.94    2.51
  -5   1   7   32.55    3.04
  -5   1   7   28.68    2.87
  -5   1   7   31.70    2.49
  -5   1   7   29.29    2.84
   4  -1  -7   12.26    1.56
  -4   1   7   12.42    1.68
  -4   1   7   11.42    1.73
  -4   1   7    6.87    1.43
  -4   1   7   10.07    1.62
   3  -1  -7   58.42    2.91
   3  -1  -7   56.65    2.97
  -3   1   7   63.39    3.12
  -3   1   7   53.09    3.10
  -3   1   7   61.24    3.18
  -3   1   7   64.18    3.25
  -3   1   7   60.81    2.86
   2  -1  -7    0.58    0.58
   2  -1  -7    1.47    0.65
  -2   1   7    0.43    0.62
  -2   1   7    1.65    0.65
  -2   1   7    0.29    0.56
  -2   1   7    1.87    0.81
  -2   1   7    1.08    0.62
   1  -1  -7    8.36    1.16
   1  -1  -7   12.86    1.38
  -1   1   7   10.94    1.30
  -1   1   7    9.38    1.15
  -1   1   7    9.70    1.31
  -1   1   7    9.06    1.23
   0  -1  -7    1.66    0.59
   0  -1  -7    1.43    0.60
   0   1   7    2.66    0.69
   0   1   7    2.12    0.75
   0   1   7    2.56    0.77
  -1  -1  -7    6.04    1.00
  -1  -1  -7    3.99    0.80
  -1  -1  -7    3.60    0.85
   1   1   7    4.18    0.72
   1   1   7    3.10    0.80
   1   1   7    4.50    0.90
  -2  -1  -7   49.17    2.58
  -2  -1  -7   52.72    2.60
  -2  -1  -7   49.22    2.49
  -2  -1  -7   53.66    2.61
   2   1   7   49.34    2.04
   2   1   7   48.63    2.60
   2   1   7   48.95    2.50
  -3  -1  -7   63.86    2.93
  -3  -1  -7   62.97    3.05
  -3  -1  -7   61.01    2.90
  -3  -1  -7   58.04    3.02
  -3  -1  -7   64.16    2.81
   3   1   7   65.34    3.02
   3   1   7   60.87    3.05
   3   1   7   59.34    2.92
  -4  -1  -7   18.69    1.96
  -4  -1  -7   19.79    1.89
  -4  -1  -7   14.48    1.85
   4   1   7   16.84    1.82
   4   1   7   15.88    1.77
   4   1   7   15.04    1.67
  -5  -1  -7   40.96    2.75
  -5  -1  -7   44.84    2.73
  -5  -1  -7   46.80    2.76
   5   1   7   39.43    2.50
   5   1   7   44.57    2.74
   5   1   7   40.52    2.61
  -6  -1  -7   -0.33    0.77
  -6  -1  -7    0.66    0.92
  -6  -1  -7   -0.01    0.97
   6   1   7    0.36    0.72
   6   1   7    0.81    0.76
   6   1   7   -0.11    0.71
  -7  -1  -7    1.86    1.00
  -7  -1  -7    1.95    1.14
  -7  -1  -7    0.54    0.97
   7   1   7    2.91    1.05
   7   1   7    1.36    1.05
   7   1   7    2.92    1.25
  -8  -1  -7    0.99    1.02
  -8  -1  -7    0.10    0.90
   8   1   7    1.00    0.98
   8   1   7   -0.16    0.92
   6  -2  -7    0.02    0.97
  -6   2   7   -0.32    1.01
  -6   2   7    1.42    1.05
  -6   2   7    1.17    1.06
  -6   2   7   -0.64    0.90
   5  -2  -7    4.82    1.22
  -5   2   7    5.13    1.37
  -5   2   7    3.87    1.18
  -5   2   7    2.46    1.24
  -5   2   7    5.86    1.41
   4  -2  -7   23.56    2.28
   4  -2  -7   27.85    1.90
  -4   2   7   23.85    2.01
  -4   2   7   26.23    2.56
  -4   2   7   20.98    2.24
  -4   2   7   21.57    2.29
   3  -2  -7   60.86    3.01
   3  -2  -7   66.87    3.24
  -3   2   7   63.71    3.22
  -3   2   7   68.74    3.28
  -3   2   7   61.67    3.26
  -3   2   7   59.17    3.20
   2  -2  -7    5.02    1.06
   2  -2  -7    4.84    0.99
  -2   2   7    4.21    0.99
  -2   2   7    6.84    1.06
  -2   2   7    3.89    0.98
  -2   2   7    2.65    0.84
   1  -2  -7    0.45    0.50
   1  -2  -7    0.21    0.55
  -1   2   7    0.62    0.50
  -1   2   7    1.14    0.59
  -1   2   7   -0.26    0.51
  -1   2   7    2.24    0.71
  -1   2   7    1.78    0.72
   0  -2  -7    2.38    0.72
   0  -2  -7    3.62    0.88
   0   2   7    2.78    0.67
   0   2   7    2.36    0.71
   0   2   7    2.21    0.66
   0   2   7    3.86    0.77
  -1  -2  -7   20.80    1.46
  -1  -2  -7   17.75    1.41
  -1  -2  -7   20.85    1.45
   1   2   7   19.30    1.50
   1   2   7   17.28    1.27
   1   2   7   19.06    1.36
  -2  -2  -7    3.50    0.89
  -2  -2  -7    4.75    0.93
  -2  -2  -7    3.79    0.84
  -2  -2  -7    5.52    0.81
  -2  -2  -7    1.89    0.69
   2   2   7    3.99    0.72
   2   2   7    4.51    0.89
   2   2   7    3.01    0.80
  -3  -2  -7   16.06    1.69
  -3  -2  -7   13.30    1.46
  -3  -2  -7   12.55    1.48
  -3  -2  -7   14.19    1.36
  -3  -2  -7   13.69    1.59
   3   2   7   12.30    1.49
   3   2   7   12.39    1.53
  -4  -2  -7   -0.38    0.54
  -4  -2  -7   -0.78    0.37
  -4  -2  -7   -0.68    0.55
  -4  -2  -7    0.01    0.48
  -4  -2  -7   -0.14    0.47
   4   2   7   -0.39    0.49
   4   2   7    0.56    0.65
   4   2   7   -0.04    0.72
  -5  -2  -7    8.67    1.44
  -5  -2  -7    5.39    1.29
  -5  -2  -7    4.08    1.29
   5   2   7    5.70    1.29
   5   2   7    5.39    1.08
   5   2   7    8.80    1.50
  -6  -2  -7    5.72    1.47
  -6  -2  -7    2.89    1.13
  -6  -2  -7    4.67    1.28
   6   2   7    4.87    1.36
   6   2   7    3.27    1.04
   6   2   7    3.67    1.06
  -7  -2  -7   -0.37    0.65
  -7  -2  -7    0.24    0.94
  -7  -2  -7    0.85    0.94
   7   2   7    0.51    0.89
   7   2   7   -0.79    0.89
   7   2   7    0.37    0.93
  -8  -2  -7    9.31    2.03
  -8  -2  -7    9.05    1.92
   8   2   7   11.46    2.06
   8   2   7   11.82    1.94
   6  -3  -7    0.75    1.09
  -6   3   7   -0.51    0.70
  -6   3   7    0.28    0.85
  -6   3   7    0.44    0.91
  -6   3   7   -0.65    1.00
   5  -3  -7   26.83    2.61
   5  -3  -7   19.31    2.37
  -5   3   7   27.41    2.70
  -5   3   7   23.22    2.64
  -5   3   7   25.76    2.69
   4  -3  -7    5.41    1.21
   4  -3  -7    6.04    1.25
  -4   3   7    5.82    1.33
  -4   3   7    7.62    1.38
  -4   3   7    6.25    1.35
  -4   3   7    7.88    1.41
   3  -3  -7    3.82    0.95
   3  -3  -7    5.68    1.18
  -3   3   7    5.20    1.16
  -3   3   7    6.72    1.29
  -3   3   7    5.38    1.24
  -3   3   7    5.61    1.18
   2  -3  -7    0.56    0.62
   2  -3  -7    2.19    0.83
  -2   3   7    1.05    0.73
  -2   3   7    1.94    0.77
  -2   3   7    3.25    0.97
  -2   3   7    1.46    0.64
   1  -3  -7    2.16    0.73
   1  -3  -7    3.81    0.85
  -1   3   7    2.99    0.78
  -1   3   7    2.79    0.86
  -1   3   7    3.63    0.88
  -1   3   7    5.23    0.97
   0  -3  -7   54.58    2.73
   0  -3  -7   55.20    2.72
   0  -3  -7   53.30    2.67
   0   3   7   53.12    2.66
   0   3   7   56.20    2.49
   0   3   7   55.45    2.68
   0   3   7   58.21    2.61
  -1  -3  -7   21.29    1.53
  -1  -3  -7   19.22    1.44
  -1  -3  -7   19.89    1.56
  -1  -3  -7   21.42    1.46
   1   3   7   21.90    1.35
   1   3   7   21.90    1.47
   1   3   7   19.67    1.52
   1   3   7   20.32    1.38
   1   3   7   19.24    1.42
  -2  -3  -7    6.82    1.15
  -2  -3  -7    8.63    1.20
  -2  -3  -7    7.02    1.07
  -2  -3  -7    8.52    1.17
  -2  -3  -7    3.19    0.82
  -2  -3  -7    7.30    1.02
   2   3   7    6.15    0.89
   2   3   7    7.83    1.15
   2   3   7    8.06    1.10
   2   3   7    5.63    0.83
   2   3   7    5.61    0.86
   2   3   7    5.69    0.92
  -3  -3  -7  121.73    4.53
  -3  -3  -7  121.47    4.26
  -3  -3  -7  118.43    4.59
  -3  -3  -7  120.91    4.74
  -3  -3  -7  116.33    4.68
   3   3   7  120.12    4.20
   3   3   7  116.47    4.60
   3   3   7  117.32    4.68
   3   3   7  115.98    4.40
  -4  -3  -7   -0.53    0.57
  -4  -3  -7    1.30    0.66
  -4  -3  -7    0.70    0.59
  -4  -3  -7    0.48    0.52
  -4  -3  -7    0.59    0.75
   4   3   7   -0.03    0.64
   4   3   7    0.62    0.62
   4   3   7    0.30    0.72
  -5  -3  -7    1.47    0.72
  -5  -3  -7    1.33    0.87
  -5  -3  -7    0.68    0.68
   5   3   7    1.41    0.81
   5   3   7   -0.20    0.70
   5   3   7    1.88    0.73
  -6  -3  -7   -0.54    0.71
  -6  -3  -7    0.97    0.95
  -6  -3  -7    1.57    1.06
   6   3   7   -0.26    0.65
   6   3   7   -0.31    0.77
  -7  -3  -7    5.92    1.47
  -7  -3  -7    2.30    1.11
  -7  -3  -7    4.76    1.31
   7   3   7    2.60    1.15
   7   3   7    1.70    0.91
   5  -4  -7   11.77    1.79
   5  -4  -7    6.05    1.43
  -5   4   7    9.43    1.65
  -5   4   7   12.92    2.10
  -5   4   7    9.07    1.75
   4  -4  -7    5.09    1.29
   4  -4  -7    4.70    1.16
  -4   4   7    2.46    1.12
  -4   4   7    3.83    1.26
  -4   4   7    3.98    1.14
   3  -4  -7   64.27    3.39
   3  -4  -7   67.73    3.50
  -3   4   7   59.87    3.13
  -3   4   7   61.57    3.37
  -3   4   7   68.71    3.50
  -3   4   7   61.60    3.44
   2  -4  -7    2.16    0.97
   2  -4  -7    2.70    0.94
   2  -4  -7    2.63    0.86
  -2   4   7    2.77    0.85
  -2   4   7    2.81    0.95
  -2   4   7    3.07    0.95
  -2   4   7    1.56    0.75
   1  -4  -7   42.32    2.51
   1  -4  -7   45.44    2.65
   1  -4  -7   45.66    2.64
   1  -4  -7   53.17    2.93
  -1   4   7   48.72    2.59
  -1   4   7   49.84    2.66
  -1   4   7   46.96    2.43
  -1   4   7   51.85    2.78
   0  -4  -7   12.37    1.53
   0  -4  -7   11.26    1.44
   0  -4  -7   10.66    1.35
   0  -4  -7    8.38    1.28
   0   4   7    8.27    1.22
   0   4   7   10.28    1.34
   0   4   7    8.65    1.16
   0   4   7    8.90    1.17
  -1  -4  -7    5.11    0.99
  -1  -4  -7    6.50    1.05
  -1  -4  -7    6.03    1.11
  -1  -4  -7    6.41    1.08
   1   4   7    6.50    1.01
   1   4   7    6.84    1.07
   1   4   7    6.65    1.04
   1   4   7    6.22    0.99
  -2  -4  -7    7.45    1.19
  -2  -4  -7    4.42    0.98
  -2  -4  -7    6.22    1.11
  -2  -4  -7    5.59    1.03
  -2  -4  -7    5.99    1.07
  -2  -4  -7    6.42    0.97
  -2  -4  -7    6.23    1.10
   2   4   7    7.37    1.10
   2   4   7    7.23    1.05
   2   4   7    7.54    1.08
   2   4   7    7.11    1.07
   2   4   7    6.53    0.99
   2   4   7    8.18    1.20
  -3  -4  -7   -0.39    0.61
  -3  -4  -7   -0.77    0.39
  -3  -4  -7    0.51    0.61
  -3  -4  -7    0.37    0.56
  -3  -4  -7    0.64    0.58
  -3  -4  -7   -0.47    0.62
  -3  -4  -7   -0.85    0.43
   3   4   7   -0.57    0.53
   3   4   7    0.28    0.55
   3   4   7    0.87    0.60
   3   4   7   -0.60    0.44
   3   4   7   -0.35    0.56
   3   4   7    0.46    0.56
  -4  -4  -7    0.15    0.61
  -4  -4  -7    0.03    0.57
  -4  -4  -7    0.73    0.71
  -4  -4  -7    1.06    0.65
  -4  -4  -7    0.36    0.50
  -4  -4  -7   -0.38    0.49
   4   4   7   -0.16    0.52
   4   4   7    0.29    0.68
  -5  -4  -7    7.47    1.43
  -5  -4  -7    5.54    1.39
  -5  -4  -7    7.13    1.32
  -5  -4  -7    4.38    1.13
   5   4   7    5.70    1.11
   5   4   7    6.46    1.36
  -6  -4  -7    5.39    1.38
  -6  -4  -7    5.06    1.29
  -6  -4  -7    5.64    1.46
   6   4   7    6.71    1.38
   6   4   7    6.78    1.37
  -7  -4  -7   32.31    3.14
  -7  -4  -7   23.45    2.97
  -7  -4  -7   27.84    2.99
   7   4   7   28.44    2.97
   5  -5  -7    2.63    1.18
   5  -5  -7    1.27    0.94
  -5   5   7    0.88    0.93
  -5   5   7    0.99    0.95
  -5   5   7    1.22    0.99
   4  -5  -7    9.12    1.64
   4  -5  -7    8.74    1.53
  -4   5   7   10.09    1.80
  -4   5   7   10.43    1.73
  -4   5   7   12.37    1.99
   3  -5  -7    3.23    1.15
   3  -5  -7    5.08    1.27
   3  -5  -7    3.77    1.08
  -3   5   7    4.40    1.30
  -3   5   7    1.71    0.94
  -3   5   7    3.13    1.16
   2  -5  -7    0.90    0.87
   2  -5  -7    0.66    0.67
   2  -5  -7    0.16    0.59
   2  -5  -7    1.16    0.72
  -2   5   7    0.77    0.76
  -2   5   7    0.58    0.68
  -2   5   7   -0.04    0.74
   1  -5  -7    0.61    0.76
   1  -5  -7    2.97    1.02
   1  -5  -7    0.88    0.72
   1  -5  -7    2.42    0.92
  -1   5   7    0.24    0.65
  -1   5   7    2.25    0.89
  -1   5   7    2.28    0.91
   0  -5  -7   11.38    1.57
   0  -5  -7   10.34    1.42
   0  -5  -7    9.67    1.50
   0  -5  -7   13.00    1.55
   0   5   7   12.01    1.58
   0   5   7   10.83    1.41
   0   5   7   11.60    1.48
  -1  -5  -7   96.71    4.32
  -1  -5  -7   93.48    4.05
  -1  -5  -7   86.77    3.92
   1   5   7   94.36    4.06
   1   5   7   89.85    3.95
   1   5   7   90.61    3.98
  -2  -5  -7    2.67    0.88
  -2  -5  -7    2.93    0.93
  -2  -5  -7    2.56    0.84
  -2  -5  -7    1.86    0.77
  -2  -5  -7    1.79    0.82
   2   5   7    2.55    0.79
   2   5   7    2.74    0.87
   2   5   7    1.22    0.81
   2   5   7    2.26    0.84
   2   5   7    3.78    0.86
  -3  -5  -7    6.21    1.11
  -3  -5  -7    6.00    1.08
  -3  -5  -7    3.86    1.01
  -3  -5  -7    4.38    1.00
  -3  -5  -7    7.24    1.27
  -3  -5  -7    2.96    0.91
  -3  -5  -7    6.15    1.15
  -3  -5  -7    3.67    1.02
   3   5   7    5.76    1.11
   3   5   7    3.34    0.94
   3   5   7    6.17    1.18
   3   5   7    4.48    1.02
   3   5   7    7.67    1.16
  -4  -5  -7    4.69    1.13
  -4  -5  -7    5.36    1.20
  -4  -5  -7    5.71    1.33
  -4  -5  -7    6.43    1.31
  -4  -5  -7    7.24    1.25
   4   5   7    7.55    1.26
   4   5   7    5.40    1.15
   4   5   7    6.70    1.25
   4   5   7    5.50    1.25
  -5  -5  -7    2.51    1.00
  -5  -5  -7    2.34    1.06
  -5  -5  -7    3.34    1.29
  -5  -5  -7    2.44    0.99
   5   5   7    3.98    1.22
   5   5   7    3.40    1.13
  -6  -5  -7    1.77    1.16
  -6  -5  -7    1.69    1.05
  -6  -5  -7   -0.08    0.92
  -6  -5  -7   -0.17    0.88
   6   5   7    2.34    1.09
   4  -6  -7    2.13    1.10
   4  -6  -7    2.85    1.15
   4  -6  -7    3.94    1.25
  -4   6   7    5.12    1.51
  -4   6   7    1.42    0.95
  -4   6   7    1.53    1.29
   3  -6  -7    4.76    1.34
   3  -6  -7    2.36    1.08
   3  -6  -7    3.69    1.20
  -3   6   7    2.64    1.19
  -3   6   7    1.73    1.00
  -3   6   7    5.02    1.34
   2  -6  -7    1.59    0.91
   2  -6  -7    2.19    1.06
   2  -6  -7    0.80    0.77
   2  -6  -7    2.13    1.01
  -2   6   7    1.81    1.01
  -2   6   7    1.69    0.95
  -2   6   7    0.76    0.82
   1  -6  -7   10.60    1.63
   1  -6  -7   11.54    1.75
   1  -6  -7   13.06    1.63
   1  -6  -7   12.75    1.82
  -1   6   7   11.14    1.69
  -1   6   7   11.06    1.66
  -1   6   7   10.32    1.64
   0  -6  -7   11.82    1.74
   0  -6  -7    8.78    1.38
   0  -6  -7    7.44    1.32
   0  -6  -7   12.05    1.81
   0   6   7    6.81    1.28
   0   6   7   10.47    1.62
   0   6   7    8.64    1.46
  -1  -6  -7    5.97    1.28
  -1  -6  -7    4.62    1.00
  -1  -6  -7    4.97    1.08
  -1  -6  -7    7.16    1.42
   1   6   7    6.30    1.21
   1   6   7    6.86    1.32
   1   6   7    4.79    1.20
  -2  -6  -7   -0.18    0.59
  -2  -6  -7    0.49    0.63
  -2  -6  -7   -0.35    0.54
  -2  -6  -7    0.04    0.74
  -2  -6  -7    1.03    0.69
   2   6   7    1.15    0.86
   2   6   7    1.14    0.76
   2   6   7    0.49    0.70
   2   6   7    0.82    0.78
  -3  -6  -7   12.87    1.55
  -3  -6  -7    9.46    1.62
  -3  -6  -7    9.36    1.50
  -3  -6  -7   10.02    1.52
  -3  -6  -7    8.78    1.47
   3   6   7    9.26    1.49
   3   6   7    9.50    1.45
   3   6   7    9.36    1.47
   3   6   7   13.12    1.77
  -4  -6  -7    4.69    1.19
  -4  -6  -7    2.17    1.02
  -4  -6  -7    4.21    1.20
   4   6   7    3.37    1.17
   4   6   7    2.06    0.93
   4   6   7    3.55    1.08
  -5  -6  -7   18.80    2.36
  -5  -6  -7   22.03    2.44
   5   6   7   21.25    2.37
  -6  -6  -7    2.30    1.11
  -6  -6  -7    4.69    1.46
  -6  -6  -7    1.69    1.17
   6   6   7    3.35    1.30
   3  -7  -7    0.13    0.93
   3  -7  -7    1.07    1.02
   3  -7  -7    2.12    0.94
   3  -7  -7    1.41    0.98
  -3   7   7   -0.64    0.86
  -3   7   7   -0.46    0.77
  -3   7   7   -1.29    0.78
   2  -7  -7    0.51    0.78
   2  -7  -7    0.32    0.78
   2  -7  -7    0.57    0.78
   2  -7  -7    0.88    0.91
  -2   7   7    0.71    0.88
  -2   7   7   -0.72    0.82
  -2   7   7   -0.73    0.71
   1  -7  -7   11.90    1.75
   1  -7  -7   10.02    1.57
   1  -7  -7   13.13    2.03
   1  -7  -7   14.67    2.10
  -1   7   7    9.92    1.73
  -1   7   7   10.80    1.79
  -1   7   7   10.30    1.82
   0  -7  -7   16.10    2.09
   0  -7  -7   13.94    2.08
   0  -7  -7   15.88    1.99
   0   7   7   14.23    1.95
   0   7   7   14.38    1.98
   0   7   7   19.90    2.28
  -1  -7  -7    3.69    1.12
  -1  -7  -7    6.06    1.34
  -1  -7  -7    3.36    1.15
   1   7   7    3.45    1.15
   1   7   7    4.20    1.23
   1   7   7    3.77    1.21
  -2  -7  -7   10.16    1.65
  -2  -7  -7   13.02    1.92
  -2  -7  -7   10.33    1.54
  -2  -7  -7   11.43    1.82
  -2  -7  -7    9.44    1.64
   2   7   7   10.02    1.69
   2   7   7   10.62    1.74
   2   7   7   11.47    1.73
   2   7   7    9.16    1.70
  -3  -7  -7    1.14    0.88
  -3  -7  -7   -0.16    0.75
  -3  -7  -7   -0.72    0.61
  -3  -7  -7   -0.25    0.81
   3   7   7   -1.15    0.68
   3   7   7   -0.56    0.88
   3   7   7   -0.06    0.86
   3   7   7    0.02    0.80
  -4  -7  -7    0.31    0.81
  -4  -7  -7   -1.10    0.85
  -4  -7  -7   -0.85    0.79
   4   7   7    0.24    0.90
   4   7   7    0.81    0.92
   4   7   7    1.09    1.00
  -5  -7  -7    0.69    1.04
  -5  -7  -7    0.37    0.93
   5   7   7   -0.02    1.05
   5   7   7    0.77    1.06
   1  -8  -7   -0.40    0.78
   1  -8  -7    1.05    1.04
   1  -8  -7   -1.50    0.77
  -1   8   7    2.13    1.15
  -1   8   7    0.18    1.06
  -1   8   7    0.95    0.96
   0  -8  -7    4.06    1.44
   0  -8  -7    5.35    1.49
   0  -8  -7    6.74    1.41
   0   8   7    5.34    1.46
   0   8   7    5.22    1.47
   0   8   7    4.33    1.30
  -1  -8  -7    0.85    0.95
  -1  -8  -7    0.88    0.87
  -1  -8  -7    1.47    1.04
   1   8   7    2.00    1.23
   1   8   7    0.17    0.87
   1   8   7   -0.26    0.79
  -2  -8  -7   -0.39    0.73
  -2  -8  -7    0.26    0.82
   2   8   7   -0.11    0.94
   2   8   7    1.15    1.00
   2   8   7    0.67    1.02
   2   8   7   -0.07    0.90
  -3  -8  -7    1.26    0.99
  -3  -8  -7    0.22    1.06
  -3  -8  -7    2.16    1.16
  -3  -8  -7    0.38    1.06
   3   8   7    1.68    1.20
   3   8   7    0.61    1.08
   3   8   7    0.53    0.99
   3   8   7    0.43    0.97
  -2  -5   8    1.70    1.10
  -2  -5   8    4.22    1.46
  -1  -5   8    2.77    1.16
   0  -5   8    2.89    1.13
   0  -5   8    4.41    1.40
   1  -5   8   -0.06    0.72
   1  -5   8    0.61    0.84
   2  -5   8    8.26    1.58
   2  -5   8    9.29    1.78
   3  -5   8    0.08    0.90
   3  -5   8   -1.13    0.91
  -4   5  -8    5.84    1.59
   4  -5   8    4.31    1.49
   4  -5   8    5.03    1.66
  -3  -4   8   10.78    1.88
  -3  -4   8    6.12    1.53
  -3  -4   8    5.31    1.50
  -2  -4   8   -0.65    0.96
  -2  -4   8   -0.77    0.68
  -2  -4   8    0.03    0.80
  -1  -4   8    0.58    0.76
  -1  -4   8    0.52    0.76
  -1  -4   8    0.87    0.90
   0  -4   8    3.39    1.10
   0  -4   8    2.96    1.16
   0  -4   8    4.21    1.20
   1  -4   8    2.27    0.95
   1  -4   8    1.05    0.94
   1  -4   8    2.96    1.01
   2  -4   8   19.06    2.37
   2  -4   8   17.80    2.13
   3  -4   8   12.19    2.00
   3  -4   8   11.40    1.88
  -4   4  -8    6.75    1.51
   4  -4   8   10.11    1.62
   4  -4   8    7.76    1.67
   4  -4   8    6.11    1.43
  -5   4  -8    1.22    1.21
   5  -4   8    0.64    1.01
   5  -4   8    1.15    0.91
   5  -4   8    2.06    1.11
  -4  -3   8   11.57    1.97
  -4  -3   8   12.10    2.01
  -4  -3   8    9.43    1.81
  -3  -3   8    3.33    1.22
  -3  -3   8    2.58    1.23
  -3  -3   8    1.94    1.14
  -2  -3   8    5.14    1.25
  -2  -3   8    7.50    1.39
  -2  -3   8    5.68    1.37
  -1  -3   8    3.35    0.95
  -1  -3   8    2.19    0.91
  -1  -3   8    1.56    0.99
   0  -3   8    1.10    0.86
   0  -3   8    0.58    0.78
   1  -3   8   10.88    1.76
   1  -3   8    9.98    1.49
   2  -3   8    1.14    0.70
   2  -3   8    1.37    0.84
   2  -3   8    1.25    0.95
   3  -3   8    0.64    0.74
   3  -3   8    0.38    0.78
   3  -3   8    0.62    0.65
   3  -3   8    1.48    1.05
  -4   3  -8    0.38    0.95
  -4   3  -8    0.36    0.83
   4  -3   8    0.37    0.77
   4  -3   8    0.75    0.88
   4  -3   8   -0.02    0.84
   4  -3   8    0.87    0.79
  -5   3  -8    1.18    0.99
  -5   3  -8   -0.54    0.78
   5  -3   8    1.19    0.94
   5  -3   8   -0.28    0.75
   5  -3   8    0.42    0.76
   5  -3   8   -0.06    0.81
  -6   3  -8    4.24    1.37
  -6   3  -8    5.07    1.55
   6  -3   8    4.14    1.18
   6  -3   8    5.74    1.52
   6  -3   8    4.19    1.27
  -5  -2   8   12.69    2.05
  -5  -2   8   10.32    1.90
  -4  -2   8   -0.43    0.68
  -4  -2   8    0.15    0.69
  -4  -2   8    1.56    0.97
  -3  -2   8    5.38    1.40
  -3  -2   8    7.67    1.55
  -3  -2   8    5.63    1.39
  -2  -2   8    1.14    0.84
  -2  -2   8    2.00    0.96
  -2  -2   8    0.08    0.78
  -1  -2   8    5.02    1.08
  -1  -2   8    3.47    1.01
  -1  -2   8    4.91    1.26
   0   2  -8   62.12    2.98
   0  -2   8   65.51    3.27
   0  -2   8   57.95    3.20
   0  -2   8   68.24    3.07
  -1   2  -8    8.78    1.25
   1  -2   8    7.97    1.36
   1  -2   8    9.31    1.33
   1  -2   8    6.59    1.35
  -2   2  -8   24.04    2.14
   2  -2   8   19.40    2.00
   2  -2   8   22.82    2.29
   2  -2   8   23.43    2.09
   3  -2   8   44.98    2.62
   3  -2   8   40.23    2.49
   3  -2   8   42.04    2.67
  -4   2  -8    5.67    1.36
  -4   2  -8    3.74    1.09
  -4   2  -8    5.56    1.23
   4  -2   8    6.47    1.29
   4  -2   8    3.67    1.09
   4  -2   8    5.21    1.20
  -5   2  -8    3.52    1.31
  -5   2  -8    5.19    1.39
  -5   2  -8    3.76    1.23
   5  -2   8    5.01    1.28
   5  -2   8    3.26    1.05
   5  -2   8    5.29    1.27
   5  -2   8    3.60    1.27
  -6   2  -8    5.49    1.54
  -6   2  -8    4.15    1.41
  -6   2  -8    3.23    1.18
   6  -2   8    4.05    1.34
   6  -2   8    4.67    1.47
   6  -2   8    3.94    1.27
   6  -2   8    4.91    1.28
  -7   2  -8    0.25    0.89
  -7   2  -8   -1.81    1.03
  -7   2  -8    0.08    0.86
   7  -2   8    0.47    0.87
   7  -2   8   -1.16    0.92
   7  -2   8    0.54    0.96
   7  -2   8   -0.06    1.01
  -5  -1   8    5.15    1.39
  -5  -1   8    8.67    1.80
  -5  -1   8    3.79    1.32
  -4  -1   8   -0.47    0.90
  -4  -1   8   -0.83    0.74
  -4  -1   8    0.17    0.83
  -3  -1   8    4.26    1.22
  -3  -1   8    2.29    0.96
  -3  -1   8    3.57    1.05
   2   1  -8    9.54    1.35
   2   1  -8    9.22    1.25
  -2  -1   8    7.45    1.44
  -2  -1   8   10.76    1.61
  -2  -1   8    8.60    1.44
   1   1  -8   64.35    3.10
   1   1  -8   62.35    2.91
  -1  -1   8   66.02    3.14
  -1  -1   8   59.78    3.21
  -1  -1   8   64.18    3.27
   0   1  -8    4.08    0.89
   0  -1   8    3.83    1.08
   0  -1   8    3.36    0.96
   0  -1   8    3.79    0.87
  -1   1  -8    2.13    0.82
   1  -1   8    3.29    1.07
   1  -1   8    2.36    0.88
  -2   1  -8    0.85    0.63
   2  -1   8    1.27    0.68
   2  -1   8    1.84    0.73
   2  -1   8    0.98    0.84
  -3   1  -8    2.46    0.87
  -3   1  -8    3.77    1.00
   3  -1   8    0.37    0.71
   3  -1   8    1.09    0.74
   3  -1   8    0.82    0.81
  -4   1  -8    9.01    1.41
  -4   1  -8    7.53    1.49
  -4   1  -8    8.13    1.47
   4  -1   8    7.97    1.44
   4  -1   8    9.50    1.46
   4  -1   8   10.70    1.55
  -5   1  -8    2.04    1.03
  -5   1  -8    2.47    1.09
  -5   1  -8    1.71    0.91
   5  -1   8    4.16    1.16
   5  -1   8    1.97    1.09
   5  -1   8    1.99    1.04
  -6   1  -8   31.01    2.51
  -6   1  -8   40.04    2.79
  -6   1  -8   33.76    2.73
   6  -1   8   30.90    2.38
   6  -1   8   31.31    2.50
   6  -1   8   31.06    2.95
   6  -1   8   33.41    2.57
  -7   1  -8   13.85    2.37
  -7   1  -8   17.40    2.34
  -7   1  -8   18.04    2.43
   7  -1   8   14.04    2.13
   7  -1   8   15.25    2.08
   7  -1   8   13.92    2.15
   7  -1   8   14.78    2.16
   5   0  -8    2.16    1.00
  -5   0   8    0.48    1.03
  -5   0   8    0.72    0.90
  -5   0   8    0.83    0.87
   4   0  -8    2.32    0.88
  -4   0   8    2.08    1.02
  -4   0   8    1.63    1.09
  -4   0   8    2.34    1.06
   3   0  -8   -0.05    0.57
   3   0  -8    1.04    0.72
  -3   0   8    0.26    0.75
  -3   0   8    1.23    0.78
  -3   0   8    0.98    0.70
   2   0  -8   30.06    2.01
   2   0  -8   29.25    1.95
  -2   0   8   32.67    2.18
  -2   0   8   29.70    2.07
  -2   0   8   25.39    2.02
   1   0  -8   18.51    1.70
   1   0  -8   19.80    1.82
  -1   0   8   11.55    1.53
  -1   0   8   17.01    1.85
  -1   0   8   20.30    1.89
   0   0  -8   11.72    1.46
   0   0  -8   15.76    1.58
   0   0   8   13.08    1.40
   0   0   8   13.07    1.61
   0   0   8   13.82    1.68
  -1   0  -8   15.91    1.65
  -1   0  -8   14.49    1.58
   1   0   8   16.11    1.72
   1   0   8   18.00    1.29
   1   0   8   13.29    1.64
  -2   0  -8    1.11    0.67
  -2   0  -8    3.16    0.88
   2   0   8    1.30    0.79
   2   0   8    0.69    0.65
  -3   0  -8   -0.34    0.54
  -3   0  -8    2.09    0.94
  -3   0  -8    0.35    0.84
   3   0   8    0.11    0.72
   3   0   8    0.09    0.67
   3   0   8    0.87    0.72
  -4   0  -8    8.08    1.47
  -4   0  -8    8.02    1.47
   4   0   8   10.37    1.48
   4   0   8    8.18    1.35
   4   0   8    7.47    1.44
  -5   0  -8    4.50    1.18
  -5   0  -8    7.07    1.34
  -5   0  -8    3.18    1.22
   5   0   8    5.32    1.19
   5   0   8    7.17    1.32
   5   0   8    6.50    1.43
  -6   0  -8    0.34    0.96
  -6   0  -8    0.41    0.98
  -6   0  -8   -0.27    0.82
   6   0   8    0.84    0.88
   6   0   8    0.48    0.95
   6   0   8   -0.10    0.70
  -7   0  -8    0.96    1.09
  -7   0  -8   -0.61    1.03
  -7   0  -8    0.03    0.82
   7   0   8   -0.18    0.77
   7   0   8   -0.42    0.69
   7   0   8    0.94    1.01
   5  -1  -8    0.98    0.94
  -5   1   8    0.30    0.91
  -5   1   8    1.43    1.04
   4  -1  -8    2.63    1.02
  -4   1   8    1.83    1.06
  -4   1   8    1.15    0.85
  -4   1   8    1.45    0.92
   3  -1  -8   28.89    2.06
   3  -1  -8   35.13    2.27
  -3   1   8   32.75    2.38
  -3   1   8   30.57    2.38
  -3   1   8   32.88    2.18
  -3   1   8   36.90    2.53
   2  -1  -8    2.93    0.88
   2  -1  -8    3.36    0.87
  -2   1   8    3.08    0.93
  -2   1   8    4.82    1.14
  -2   1   8    2.46    0.84
  -2   1   8    2.38    0.90
   1  -1  -8   68.83    3.15
   1  -1  -8   63.64    3.07
  -1   1   8   61.84    3.23
  -1   1   8   69.28    3.08
  -1   1   8   66.62    3.15
  -1   1   8   65.36    3.05
   0  -1  -8    0.37    0.47
   0  -1  -8   -0.13    0.59
   0   1   8    1.24    0.75
   0   1   8    0.66    0.57
   0   1   8    0.52    0.70
  -1  -1  -8    7.57    1.18
  -1  -1  -8   13.15    1.51
   1   1   8   13.55    1.52
   1   1   8   10.02    1.37
   1   1   8   13.17    1.30
  -2  -1  -8    0.81    0.52
  -2  -1  -8    0.64    0.68
  -2  -1  -8   -0.55    0.53
  -2  -1  -8    1.29    0.80
   2   1   8    0.49    0.66
   2   1   8    1.25    0.72
  -3  -1  -8    4.80    0.99
  -3  -1  -8    5.09    0.99
  -3  -1  -8    5.06    1.15
  -3  -1  -8    6.16    1.19
   3   1   8    6.38    1.17
   3   1   8    6.44    1.15
   3   1   8    6.37    1.18
  -4  -1  -8   33.17    2.35
  -4  -1  -8   31.67    2.21
  -4  -1  -8   31.07    2.28
   4   1   8   35.26    2.40
   4   1   8   33.94    2.35
   4   1   8   32.88    2.21
  -5  -1  -8   29.21    2.81
  -5  -1  -8   26.81    2.62
  -5  -1  -8   31.71    2.29
   5   1   8   31.51    2.28
   5   1   8   22.45    2.29
   5   1   8   28.42    2.24
  -6  -1  -8   17.94    2.21
  -6  -1  -8   14.84    2.08
  -6  -1  -8   16.43    2.22
   6   1   8   16.61    2.13
   6   1   8   16.25    2.08
   6   1   8   16.62    2.05
  -7  -1  -8   17.29    2.36
  -7  -1  -8    9.83    2.03
  -7  -1  -8   12.13    2.06
   7   1   8   15.78    2.21
   7   1   8   13.97    2.18
   7   1   8   14.12    2.21
   5  -2  -8    2.09    0.95
  -5   2   8    2.77    1.22
  -5   2   8    0.03    0.86
  -5   2   8    1.05    1.15
  -5   2   8    1.11    0.98
   4  -2  -8    2.60    0.92
   4  -2  -8    1.78    0.85
  -4   2   8    2.02    0.97
  -4   2   8    0.75    0.95
  -4   2   8    3.11    1.11
  -4   2   8    3.74    1.19
   3  -2  -8    2.33    0.89
   3  -2  -8    3.97    1.03
  -3   2   8    2.42    0.91
  -3   2   8    7.16    1.45
  -3   2   8    6.06    1.35
   2  -2  -8    1.43    0.65
   2  -2  -8    0.12    0.66
  -2   2   8    1.35    0.64
  -2   2   8    0.56    0.73
  -2   2   8    0.54    0.74
   1  -2  -8  102.07    4.43
   1  -2  -8  110.50    4.46
  -1   2   8  109.45    4.51
  -1   2   8  107.70    4.33
  -1   2   8  110.67    4.32
  -1   2   8  112.47    4.18
   0  -2  -8   17.51    1.72
   0  -2  -8   22.44    1.74
   0   2   8   17.29    1.82
   0   2   8   19.59    1.43
   0   2   8   20.21    1.57
   0   2   8   18.56    1.52
  -1  -2  -8    0.17    0.57
  -1  -2  -8   -0.09    0.53
  -1  -2  -8    0.04    0.53
   1   2   8    0.53    0.58
   1   2   8    0.28    0.55
   1   2   8   -0.01    0.43
  -2  -2  -8    2.63    0.78
  -2  -2  -8    4.40    1.08
  -2  -2  -8    3.95    0.95
  -2  -2  -8    2.95    0.84
   2   2   8    3.47    0.72
   2   2   8    3.74    1.03
   2   2   8    4.27    0.97
  -3  -2  -8   48.74    2.59
  -3  -2  -8   43.40    2.57
  -3  -2  -8   39.08    2.41
  -3  -2  -8   46.54    2.72
   3   2   8   50.12    2.73
   3   2   8   38.46    2.44
  -4  -2  -8   10.96    1.66
  -4  -2  -8   13.17    1.84
  -4  -2  -8   11.48    1.55
  -4  -2  -8   14.03    1.59
   4   2   8   13.40    1.68
   4   2   8   15.01    1.79
   4   2   8   11.66    1.63
  -5  -2  -8    0.74    0.87
  -5  -2  -8    0.57    0.77
  -5  -2  -8    0.55    0.93
   5   2   8    1.47    0.76
   5   2   8    0.83    0.80
   5   2   8    0.71    0.85
  -6  -2  -8    0.44    0.94
  -6  -2  -8    2.05    1.15
  -6  -2  -8    3.03    1.07
   6   2   8    0.78    0.93
   6   2   8    2.53    1.16
   6   2   8    1.49    0.88
  -7  -2  -8    1.20    1.10
  -7  -2  -8    0.41    0.98
  -7  -2  -8    5.65    1.60
   7   2   8    3.41    1.36
   7   2   8    4.66    1.35
   7   2   8    2.93    1.34
   5  -3  -8    3.82    1.30
  -5   3   8    7.41    1.63
  -5   3   8    2.38    1.20
  -5   3   8    5.38    1.52
  -5   3   8    7.72    1.60
   4  -3  -8   -0.35    0.64
   4  -3  -8    0.53    0.82
  -4   3   8   -0.44    0.70
  -4   3   8   -0.22    0.87
  -4   3   8   -0.72    0.73
  -4   3   8   -0.32    0.76
   3  -3  -8   20.67    2.24
   3  -3  -8   23.16    2.21
  -3   3   8   25.08    1.98
  -3   3   8   23.97    2.38
  -3   3   8   25.76    2.41
  -3   3   8   21.38    2.19
   2  -3  -8    2.61    0.91
   2  -3  -8    2.24    0.82
  -2   3   8    3.84    1.13
  -2   3   8    4.08    0.98
  -2   3   8    3.72    1.01
  -2   3   8    3.63    1.03
   1  -3  -8    2.19    0.80
   1  -3  -8    2.05    0.79
  -1   3   8    3.13    1.03
  -1   3   8    3.11    0.89
  -1   3   8    3.38    0.95
   0  -3  -8    3.08    0.96
   0  -3  -8    2.59    0.89
   0   3   8    2.03    0.76
   0   3   8    1.32    0.68
   0   3   8    0.99    0.64
  -1  -3  -8    0.78    0.66
  -1  -3  -8    1.16    0.66
  -1  -3  -8    0.46    0.59
  -1  -3  -8    1.00    0.64
   1   3   8    1.25    0.70
   1   3   8   -0.16    0.55
   1   3   8    1.03    0.58
   1   3   8    0.63    0.63
  -2  -3  -8   15.02    1.64
  -2  -3  -8   14.18    1.63
  -2  -3  -8   14.98    1.71
  -2  -3  -8   15.55    1.63
   2   3   8   13.83    1.56
   2   3   8   18.86    1.76
   2   3   8   15.48    1.53
  -3  -3  -8   46.36    2.61
  -3  -3  -8   40.72    2.43
  -3  -3  -8   41.96    2.55
  -3  -3  -8   43.06    2.55
   3   3   8   42.71    2.43
   3   3   8   42.53    2.51
  -4  -3  -8    1.03    0.59
  -4  -3  -8    3.60    0.95
  -4  -3  -8    1.14    0.90
  -4  -3  -8    2.36    0.98
  -4  -3  -8    2.02    0.80
   4   3   8    1.84    0.84
   4   3   8    2.39    0.95
   4   3   8    2.25    0.87
  -5  -3  -8   35.85    2.53
  -5  -3  -8   36.02    2.22
  -5  -3  -8   34.75    2.43
  -5  -3  -8   32.78    2.50
   5   3   8   33.29    2.26
   5   3   8   34.17    2.47
   5   3   8   36.94    2.57
  -6  -3  -8    4.19    1.32
  -6  -3  -8    2.41    1.17
  -6  -3  -8    5.92    1.54
   6   3   8    4.79    1.42
   6   3   8    0.71    0.88
   6   3   8    6.57    1.44
  -7  -3  -8    0.07    0.83
  -7  -3  -8    0.74    1.10
  -7  -3  -8    0.39    1.09
   7   3   8    1.35    1.02
   7   3   8    0.36    0.88
   7   3   8    0.39    0.97
   5  -4  -8    1.51    0.92
   5  -4  -8    2.34    1.11
  -5   4   8    2.30    1.27
  -5   4   8    2.12    1.07
  -5   4   8    2.41    1.32
   4  -4  -8    1.63    1.00
   4  -4  -8    2.74    1.07
  -4   4   8    4.63    1.25
  -4   4   8    3.28    1.12
  -4   4   8    1.76    1.07
   3  -4  -8   24.16    2.39
  -3   4   8   25.86    2.11
  -3   4   8   29.52    2.31
  -3   4   8   24.84    2.47
  -3   4   8   24.78    2.46
   2  -4  -8    0.09    0.71
   2  -4  -8    0.89    0.75
  -2   4   8    1.64    0.83
  -2   4   8   -0.47    0.63
  -2   4   8    1.15    0.84
  -2   4   8    1.81    0.85
   1  -4  -8   39.22    2.51
   1  -4  -8   45.58    2.63
  -1   4   8   43.96    2.63
  -1   4   8   44.82    2.45
  -1   4   8   39.99    2.40
  -1   4   8   39.94    2.46
   0  -4  -8   21.50    2.12
   0  -4  -8   28.90    2.03
   0  -4  -8   23.60    1.84
   0  -4  -8   20.57    2.17
   0   4   8   26.24    1.98
   0   4   8   24.66    1.71
   0   4   8   26.51    1.88
   0   4   8   22.84    1.73
  -1  -4  -8   11.96    1.55
  -1  -4  -8   19.04    1.99
  -1  -4  -8   17.44    1.82
  -1  -4  -8   15.79    1.70
   1   4   8   15.90    1.71
   1   4   8   13.46    1.52
   1   4   8   16.52    1.61
  -2  -4  -8    5.14    1.08
  -2  -4  -8    3.14    0.94
  -2  -4  -8    5.32    1.04
  -2  -4  -8    5.00    1.14
  -2  -4  -8    4.34    1.07
  -2  -4  -8    6.64    1.19
   2   4   8    6.48    1.05
   2   4   8    6.05    1.11
   2   4   8    4.97    1.02
   2   4   8    4.58    1.02
  -3  -4  -8   15.98    1.83
  -3  -4  -8   18.81    1.85
  -3  -4  -8   17.65    1.90
  -3  -4  -8   16.70    1.92
  -3  -4  -8   16.53    1.87
   3   4   8   16.95    1.66
   3   4   8   19.40    1.90
   3   4   8   17.25    1.83
  -4  -4  -8    3.12    0.88
  -4  -4  -8    1.67    0.78
  -4  -4  -8    2.08    0.90
  -4  -4  -8    1.49    0.80
  -4  -4  -8    1.70    0.81
   4   4   8    2.06    0.86
   4   4   8    4.24    1.09
   4   4   8    1.75    0.88
  -5  -4  -8    1.83    1.19
  -5  -4  -8    2.52    0.99
  -5  -4  -8    4.15    1.16
   5   4   8    1.30    0.87
   5   4   8    3.45    1.04
   5   4   8    3.25    1.12
  -6  -4  -8    1.76    1.02
  -6  -4  -8    1.07    1.12
  -6  -4  -8    3.21    1.25
   6   4   8    1.37    0.86
   6   4   8    3.79    1.35
   6   4   8    0.88    0.93
  -7  -4  -8    1.16    1.15
  -7  -4  -8    0.73    0.95
   7   4   8    1.70    1.22
   4  -5  -8    8.57    1.58
   4  -5  -8   11.30    1.90
  -4   5   8    9.86    1.81
  -4   5   8   13.66    2.10
  -4   5   8   14.95    2.11
   3  -5  -8    0.25    0.71
   3  -5  -8   -0.44    0.78
  -3   5   8   -0.41    0.68
  -3   5   8   -0.33    0.80
  -3   5   8    0.73    0.85
   2  -5  -8   12.47    1.82
   2  -5  -8   11.37    1.71
   2  -5  -8   14.91    1.96
  -2   5   8   15.45    1.92
  -2   5   8   14.62    1.84
  -2   5   8   13.19    1.80
   1  -5  -8    0.04    0.70
   1  -5  -8    0.67    0.76
   1  -5  -8    0.07    0.65
   1  -5  -8   -0.46    0.57
  -1   5   8    0.99    0.67
  -1   5   8    0.40    0.78
  -1   5   8    0.27    0.67
   0  -5  -8    0.85    0.53
   0  -5  -8   -0.22    0.59
   0  -5  -8    0.23    0.75
   0  -5  -8    0.17    0.66
   0   5   8    0.00    0.65
   0   5   8   -1.30    0.53
   0   5   8    0.05    0.61
  -1  -5  -8   -0.12    0.54
  -1  -5  -8    0.74    0.76
  -1  -5  -8   -0.33    0.69
  -1  -5  -8    0.27    0.56
   1   5   8    1.11    0.65
   1   5   8   -0.74    0.54
   1   5   8   -0.21    0.67
  -2  -5  -8    0.84    0.76
  -2  -5  -8    2.29    0.85
  -2  -5  -8    2.70    0.91
  -2  -5  -8    2.25    0.81
  -2  -5  -8    2.11    0.82
   2   5   8    3.38    0.94
   2   5   8    1.98    0.80
   2   5   8    2.56    0.81
   2   5   8    3.01    0.81
  -3  -5  -8  106.77    4.53
  -3  -5  -8  103.30    4.50
  -3  -5  -8   98.90    4.41
  -3  -5  -8  108.55    4.65
   3   5   8  101.65    4.36
   3   5   8  106.88    4.47
   3   5   8  111.89    4.47
   3   5   8  106.27    4.62
  -4  -5  -8    7.67    1.53
  -4  -5  -8    6.19    1.22
  -4  -5  -8    9.00    1.46
  -4  -5  -8    8.23    1.48
   4   5   8    6.96    1.29
   4   5   8    9.65    1.53
   4   5   8    6.84    1.29
   4   5   8    7.24    1.39
  -5  -5  -8    0.61    0.95
  -5  -5  -8   -0.06    0.75
  -5  -5  -8    0.26    0.84
   5   5   8    0.57    0.88
   5   5   8    0.74    0.88
   5   5   8    0.70    0.91
  -6  -5  -8    3.61    1.31
  -6  -5  -8    2.07    1.13
  -6  -5  -8    3.15    1.33
   6   5   8    0.14    0.96
   3  -6  -8    5.60    1.51
   3  -6  -8    6.96    1.55
   3  -6  -8    8.01    1.64
  -3   6   8    5.74    1.43
  -3   6   8    3.86    1.29
  -3   6   8    7.79    1.58
   2  -6  -8    1.47    0.94
   2  -6  -8    1.80    1.02
   2  -6  -8    2.87    1.11
  -2   6   8    3.30    1.23
  -2   6   8    2.20    0.96
  -2   6   8    2.23    1.01
   1  -6  -8   16.55    1.99
   1  -6  -8    8.44    1.44
   1  -6  -8   16.01    2.13
   1  -6  -8   14.09    2.01
  -1   6   8   12.82    1.82
  -1   6   8   12.73    1.83
  -1   6   8   13.80    1.94
   0  -6  -8   -0.10    0.53
   0  -6  -8    0.06    0.64
   0  -6  -8    0.13    0.76
   0  -6  -8   -0.16    0.64
   0   6   8   -0.45    0.68
   0   6   8    0.26    0.68
   0   6   8    0.06    0.70
  -1  -6  -8    0.05    0.70
  -1  -6  -8    1.62    0.85
  -1  -6  -8   -0.21    0.76
  -1  -6  -8   -0.20    0.46
   1   6   8    0.75    0.83
   1   6   8   -0.62    0.74
   1   6   8   -0.41    0.76
  -2  -6  -8    5.59    1.29
  -2  -6  -8    5.21    1.16
  -2  -6  -8    6.55    1.26
  -2  -6  -8    3.79    1.13
   2   6   8    4.91    1.13
   2   6   8    5.35    1.21
   2   6   8    5.88    1.29
  -3  -6  -8    3.42    1.01
  -3  -6  -8    5.12    1.34
  -3  -6  -8    2.43    1.04
  -3  -6  -8    3.60    1.06
   3   6   8    5.47    1.20
   3   6   8    2.65    1.10
   3   6   8    2.70    1.07
  -4  -6  -8   -0.20    0.72
   4   6   8   -0.24    0.63
   4   6   8    0.26    0.80
   4   6   8    1.60    0.93
   4   6   8    0.15    0.86
  -5  -6  -8    6.63    1.57
  -5  -6  -8    6.41    1.56
   5   6   8    4.57    1.32
   5   6   8    5.25    1.37
   2  -7  -8    0.78    1.01
   2  -7  -8   -0.50    0.70
   2  -7  -8    0.69    0.97
   2  -7  -8    0.60    1.05
  -2   7   8   -0.61    0.99
  -2   7   8    2.00    0.93
  -2   7   8    0.80    1.07
   1  -7  -8    2.85    1.33
   1  -7  -8    3.80    1.19
   1  -7  -8    2.14    0.88
   1  -7  -8    2.44    1.12
  -1   7   8    2.21    1.15
  -1   7   8    1.19    0.95
  -1   7   8    1.62    1.02
   0  -7  -8    1.46    1.06
   0  -7  -8    0.61    0.87
   0  -7  -8   -0.39    0.64
   0  -7  -8    1.54    1.04
   0   7   8    0.34    0.89
   0   7   8   -0.88    0.64
   0   7   8   -0.35    0.99
  -1  -7  -8   13.82    2.00
  -1  -7  -8   12.24    1.93
  -1  -7  -8   12.99    1.82
   1   7   8   12.29    1.82
   1   7   8    8.89    1.68
   1   7   8   13.00    1.89
  -2  -7  -8    3.40    1.23
  -2  -7  -8    4.53    1.33
  -2  -7  -8    2.64    1.04
   2   7   8    4.09    1.32
   2   7   8    3.96    1.13
   2   7   8    5.78    1.38
  -3  -7  -8    6.78    1.43
  -3  -7  -8    5.22    1.39
  -3  -7  -8    5.36    1.35
   3   7   8    2.24    1.10
   3   7   8    3.36    1.20
   3   7   8    7.69    1.58
  -4  -7  -8   22.40    2.46
  -4  -7  -8   22.33    2.69
   4   7   8   16.27    2.12
   4   7   8   13.44    1.93
   4   7   8   21.28    2.35
   4   7   8   17.99    2.44
  -1  -8  -8   -0.16    0.84
  -1  -8  -8   -0.21    0.77
  -1  -8  -8   -0.32    1.05
   1   8   8   -0.14    0.72
   1   8   8   -0.29    0.96
   1   8   8   -0.14    0.95
   0  -5   9    3.34    1.33
   1  -5   9   -0.44    0.72
   1  -5   9    0.87    1.13
   2  -5   9   11.10    1.98
   2  -5   9    9.08    1.85
  -2  -4   9    2.44    1.16
  -2  -4   9    2.65    1.33
  -2  -4   9    2.50    1.10
  -1  -4   9    2.55    1.14
  -1  -4   9    3.03    1.29
   0  -4   9    0.36    0.78
   0  -4   9   -0.89    0.76
   0  -4   9   -0.53    0.88
   1  -4   9    0.46    0.92
   1  -4   9    0.02    0.70
   2  -4   9   -0.29    0.49
   2  -4   9   -0.77    0.94
   3  -4   9    4.19    1.36
   3  -4   9    3.60    1.44
   4  -4   9    9.43    1.94
   4  -4   9    5.63    1.64
   4  -4   9    6.85    1.55
  -3  -3   9    2.65    1.32
  -3  -3   9    1.78    1.14
  -3  -3   9    2.64    1.23
  -2  -3   9    3.53    1.09
  -2  -3   9    5.52    1.48
  -2  -3   9    2.69    1.10
  -1  -3   9    7.24    1.39
  -1  -3   9    7.39    1.55
  -1  -3   9    5.45    1.28
   0  -3   9   -0.31    0.68
   0  -3   9    1.01    0.87
   1  -3   9    4.82    1.27
   1  -3   9    2.64    1.09
   2  -3   9   11.72    1.60
   2  -3   9   12.44    1.72
   2  -3   9   17.93    2.37
   3  -3   9    0.97    0.85
   3  -3   9    1.87    0.99
   3  -3   9    1.68    1.09
   4  -3   9    0.60    0.83
   4  -3   9    0.91    0.86
   4  -3   9   -0.18    0.62
   4  -3   9   -0.17    0.79
  -5   3  -9   -1.64    0.94
   5  -3   9   -0.07    0.89
   5  -3   9    0.16    0.90
   5  -3   9    0.52    1.05
   5  -3   9    0.90    1.04
  -4  -2   9    1.69    1.17
  -4  -2   9    1.90    1.21
  -3  -2   9    3.07    1.17
  -3  -2   9    2.39    1.15
  -3  -2   9    4.82    1.54
  -2  -2   9    1.19    0.93
  -2  -2   9    1.30    0.89
  -2  -2   9    1.18    0.90
  -1  -2   9    9.61    1.63
  -1  -2   9    8.95    1.50
  -1  -2   9    7.84    1.56
   0   2  -9    0.09    0.58
   0  -2   9   -0.25    0.72
   0  -2   9    1.31    0.96
  -1   2  -9    2.11    0.86
   1  -2   9    1.14    0.96
   1  -2   9    1.93    0.85
   1  -2   9    2.82    1.08
  -2   2  -9   41.49    2.56
   2  -2   9   37.18    2.41
   2  -2   9   42.34    2.73
   2  -2   9   41.21    2.82
   3  -2   9   15.78    1.87
   3  -2   9   11.58    1.62
   3  -2   9   14.59    1.95
  -4   2  -9    8.43    1.56
   4  -2   9   11.13    1.70
   4  -2   9    9.79    1.61
   4  -2   9    7.99    1.50
  -5   2  -9    6.58    1.59
  -5   2  -9    7.98    1.64
   5  -2   9    7.71    1.55
   5  -2   9    9.40    1.68
   5  -2   9    4.94    1.27
   5  -2   9   12.25    1.91
  -6   2  -9    2.15    1.25
  -6   2  -9    2.97    1.23
  -6   2  -9    3.18    1.36
   6  -2   9    2.98    1.14
   6  -2   9    4.45    1.36
   6  -2   9    1.37    0.97
   6  -2   9    2.62    1.18
  -4  -1   9   14.09    2.17
  -4  -1   9   11.53    1.96
  -4  -1   9   16.81    2.30
  -3  -1   9   11.98    1.86
  -3  -1   9   17.08    2.23
  -3  -1   9   15.41    2.10
   2   1  -9    0.03    0.62
   2   1  -9    0.16    0.68
  -2  -1   9   -0.69    0.72
  -2  -1   9   -0.65    0.61
  -2  -1   9    0.00    0.69
   1   1  -9    1.81    0.74
  -1  -1   9    3.81    1.12
  -1  -1   9    1.74    0.81
  -1  -1   9    1.18    0.91
   0   1  -9    1.15    0.73
   0  -1   9    1.96    0.90
   0  -1   9    1.13    0.81
   0  -1   9    0.22    0.66
  -1   1  -9   22.79    2.10
   1  -1   9   26.15    2.50
   1  -1   9   19.45    2.09
  -2   1  -9    0.93    0.68
   2  -1   9    0.52    0.74
   2  -1   9    0.24    0.62
   2  -1   9   -0.24    0.66
  -3   1  -9    3.31    1.03
   3  -1   9    3.61    1.00
   3  -1   9    0.80    0.88
   3  -1   9    1.85    0.89
  -4   1  -9   -0.43    0.76
  -4   1  -9    2.22    1.14
   4  -1   9    1.36    0.96
   4  -1   9    0.98    0.72
   4  -1   9    0.31    0.70
  -5   1  -9    1.07    1.04
  -5   1  -9   -0.74    0.84
   5  -1   9    0.50    0.80
   5  -1   9    1.27    0.99
   5  -1   9    1.15    1.00
  -6   1  -9    0.58    1.06
  -6   1  -9    0.09    1.08
  -6   1  -9    1.80    1.00
   6  -1   9   -0.08    0.99
   6  -1   9    1.50    1.12
   6  -1   9   -0.32    0.61
   6  -1   9    1.68    1.08
  -5   0   9   17.48    2.30
   4   0  -9    2.61    1.01
  -4   0   9    4.18    1.30
  -4   0   9    0.88    1.22
  -4   0   9    2.84    1.09
   3   0  -9   -0.15    0.54
  -3   0   9    1.54    0.89
  -3   0   9    1.58    0.98
  -3   0   9    2.50    1.03
   2   0  -9    1.96    0.90
   2   0  -9    2.26    0.88
  -2   0   9    0.11    0.80
  -2   0   9    1.01    0.80
  -2   0   9    1.82    0.87
   1   0  -9    0.26    0.66
   1   0  -9    0.43    0.58
  -1   0   9   -0.12    0.63
  -1   0   9   -0.71    0.49
  -1   0   9   -0.34    0.59
   0   0  -9   10.74    1.44
   0   0  -9   11.01    1.42
   0   0   9    8.70    1.45
   0   0   9   10.08    1.33
   0   0   9    9.28    1.58
  -1   0  -9    1.82    0.84
  -1   0  -9    1.28    0.73
   1   0   9    3.22    0.93
   1   0   9    2.14    0.98
  -2   0  -9   20.03    2.01
   2   0   9   16.10    1.85
   2   0   9   17.28    1.89
  -3   0  -9   36.95    2.53
  -3   0  -9   33.57    2.29
  -3   0  -9   37.71    2.61
   3   0   9   35.82    2.48
   3   0   9   32.80    2.31
   3   0   9   35.16    2.44
  -4   0  -9    1.55    0.98
  -4   0  -9   -0.20    0.67
   4   0   9    0.34    0.73
   4   0   9    1.90    0.92
   4   0   9    1.38    0.85
  -5   0  -9    2.57    1.09
  -5   0  -9    1.86    1.02
   5   0   9    1.14    0.90
   5   0   9    1.57    0.98
   5   0   9    0.83    0.89
  -6   0  -9    0.32    1.05
  -6   0  -9    1.64    0.99
  -6   0  -9    0.77    0.92
   6   0   9   -0.07    0.99
   6   0   9   -0.08    0.80
   6   0   9    1.17    1.05
  -7   0  -9    0.29    1.00
  -7   0  -9    0.24    1.06
   7   0   9   -1.07    0.59
   7   0   9   -0.77    1.02
   7   0   9    0.37    0.97
   5  -1  -9   27.69    2.71
  -5   1   9   29.27    2.96
   4  -1  -9    6.44    1.36
  -4   1   9    7.04    1.53
  -4   1   9    7.99    1.53
  -4   1   9    9.06    1.71
   3  -1  -9    4.64    1.17
   3  -1  -9    5.60    1.16
  -3   1   9    5.83    1.40
  -3   1   9    3.66    1.15
  -3   1   9    7.38    1.44
   2  -1  -9    1.47    0.70
   2  -1  -9    0.84    0.68
  -2   1   9    1.67    0.83
  -2   1   9    0.42    0.66
  -2   1   9   -0.70    0.64
  -2   1   9    0.40    0.77
   1  -1  -9   43.47    2.61
   1  -1  -9   44.52    2.54
  -1   1   9   37.66    2.61
  -1   1   9   44.58    2.62
  -1   1   9   39.10    2.44
  -1   1   9   41.14    2.43
   0  -1  -9    2.07    0.78
   0  -1  -9    5.60    1.11
   0   1   9    4.20    1.03
   0   1   9    5.16    1.06
   0   1   9    4.36    1.08
  -1  -1  -9    9.64    1.38
  -1  -1  -9    7.94    1.33
   1   1   9    6.85    1.19
   1   1   9    6.17    1.17
   1   1   9    6.61    1.06
  -2  -1  -9    0.19    0.67
  -2  -1  -9    0.37    0.61
  -2  -1  -9   -0.01    0.67
   2   1   9   -0.38    0.62
   2   1   9   -0.41    0.52
  -3  -1  -9    8.10    1.30
  -3  -1  -9    7.41    1.41
  -3  -1  -9    9.66    1.43
  -3  -1  -9    9.23    1.57
   3   1   9   10.53    1.64
   3   1   9    8.85    1.49
  -4  -1  -9    3.50    1.21
  -4  -1  -9    4.73    1.22
  -4  -1  -9    2.86    1.01
   4   1   9    1.75    0.90
   4   1   9    6.59    1.36
   4   1   9    2.52    1.06
  -5  -1  -9    7.38    1.54
  -5  -1  -9    6.94    1.52
   5   1   9    8.19    1.55
   5   1   9    8.76    1.55
   5   1   9    6.61    1.39
  -6  -1  -9   10.23    1.88
  -6  -1  -9   12.52    1.97
  -6  -1  -9   11.66    1.93
   6   1   9   12.59    1.98
   6   1   9   11.00    1.93
   6   1   9   10.38    1.85
  -7  -1  -9   12.80    2.11
  -7  -1  -9   13.24    2.13
   7   1   9   13.62    2.09
   7   1   9    9.61    1.84
   5  -2  -9    0.65    1.06
  -5   2   9    0.66    0.97
  -5   2   9    0.64    0.94
  -5   2   9    1.07    1.31
   4  -2  -9    5.16    1.33
  -4   2   9    5.75    1.56
  -4   2   9    7.22    1.63
  -4   2   9    3.77    1.24
   3  -2  -9    6.51    1.32
   3  -2  -9    5.37    1.27
  -3   2   9    6.49    1.43
  -3   2   9    4.52    1.28
  -3   2   9    4.93    1.23
   2  -2  -9    4.46    1.12
   2  -2  -9    2.67    1.00
  -2   2   9    3.98    1.02
  -2   2   9    4.06    1.10
  -2   2   9    4.04    1.19
   1  -2  -9    4.80    1.03
   1  -2  -9    4.32    1.09
  -1   2   9    6.97    1.31
  -1   2   9   10.49    1.45
  -1   2   9    5.16    0.97
  -1   2   9    6.86    1.32
   0  -2  -9    1.10    0.64
   0  -2  -9    0.71    0.72
   0   2   9    2.12    0.87
   0   2   9    1.04    0.84
   0   2   9    0.13    0.62
  -1  -2  -9   46.19    2.60
  -1  -2  -9   42.49    2.60
   1   2   9   45.57    2.36
   1   2   9   49.76    2.56
   1   2   9   45.69    2.73
  -2  -2  -9   15.54    1.80
  -2  -2  -9   16.12    1.80
  -2  -2  -9   13.52    1.73
   2   2   9   13.91    1.74
   2   2   9   15.16    1.69
  -3  -2  -9    5.25    1.16
  -3  -2  -9    4.64    1.04
  -3  -2  -9    4.41    1.06
  -3  -2  -9    2.67    1.06
   3   2   9    4.12    1.11
   3   2   9    4.83    1.10
  -4  -2  -9   -0.75    0.76
  -4  -2  -9    0.05    0.59
  -4  -2  -9   -0.37    0.78
  -4  -2  -9   -0.09    0.66
   4   2   9   -0.59    0.44
   4   2   9    0.41    0.62
   4   2   9    0.27    0.75
  -5  -2  -9   16.01    2.08
  -5  -2  -9   11.57    1.90
   5   2   9   15.05    2.02
   5   2   9   12.14    1.73
   5   2   9   14.10    1.99
  -6  -2  -9   -1.21    0.91
  -6  -2  -9    0.50    0.92
  -6  -2  -9    0.73    1.06
   6   2   9    0.42    0.90
   6   2   9   -0.56    0.67
   6   2   9    0.26    0.86
  -7  -2  -9    1.04    1.00
  -7  -2  -9   -0.65    0.86
   7   2   9   -0.08    0.80
   7   2   9    1.01    1.05
   4  -3  -9    9.19    1.61
   4  -3  -9    7.14    1.52
  -4   3   9   13.03    2.05
  -4   3   9    7.49    1.70
  -4   3   9    6.99    1.59
   3  -3  -9    1.10    0.76
   3  -3  -9    0.53    0.74
  -3   3   9    2.41    1.02
  -3   3   9    1.06    0.96
  -3   3   9   -1.31    0.84
   2  -3  -9   -0.45    0.63
   2  -3  -9   -0.04    0.55
  -2   3   9    0.71    0.80
  -2   3   9    0.10    0.75
  -2   3   9    0.39    0.76
   1  -3  -9   17.11    1.90
   1  -3  -9   14.26    1.72
  -1   3   9   14.23    1.80
  -1   3   9   15.40    1.85
  -1   3   9   13.12    1.59
   0  -3  -9    5.36    1.18
   0  -3  -9    5.55    1.09
   0   3   9    4.25    0.97
   0   3   9    4.97    1.13
   0   3   9    3.24    0.96
  -1  -3  -9    7.74    1.25
  -1  -3  -9    4.55    1.01
  -1  -3  -9    9.03    1.40
   1   3   9    5.52    1.04
   1   3   9    4.86    1.16
   1   3   9    6.07    1.02
  -2  -3  -9    2.14    0.80
  -2  -3  -9    1.51    0.76
  -2  -3  -9    1.26    0.67
   2   3   9    1.88    0.77
   2   3   9    1.62    0.81
   2   3   9    1.35    0.71
  -3  -3  -9    1.60    0.89
  -3  -3  -9    4.09    1.12
  -3  -3  -9    4.96    1.18
  -3  -3  -9    3.05    0.85
   3   3   9    3.44    0.93
   3   3   9    2.39    0.81
  -4  -3  -9    2.95    1.00
  -4  -3  -9    3.51    1.02
  -4  -3  -9    4.57    1.06
  -4  -3  -9    4.00    1.12
   4   3   9    6.22    1.30
   4   3   9    4.83    1.25
   4   3   9    4.10    1.12
  -5  -3  -9   19.97    2.32
  -5  -3  -9   18.65    2.26
  -5  -3  -9   16.90    1.89
   5   3   9   21.44    2.32
   5   3   9   19.61    2.17
   5   3   9   17.68    2.15
  -6  -3  -9    1.90    1.07
  -6  -3  -9    1.53    1.15
  -6  -3  -9    1.71    1.04
   6   3   9    1.94    1.00
   6   3   9    1.17    0.98
   6   3   9    1.54    0.97
  -7  -3  -9   17.32    2.43
  -7  -3  -9   14.00    2.30
   7   3   9   13.89    2.24
   7   3   9   12.43    1.98
   4  -4  -9   -0.64    0.89
   4  -4  -9   -0.44    0.73
  -4   4   9    0.00    0.79
  -4   4   9    1.72    0.97
   3  -4  -9   -0.24    0.56
   3  -4  -9   -0.65    0.75
  -3   4   9    0.62    0.91
  -3   4   9    1.06    0.86
   2  -4  -9    1.60    0.85
   2  -4  -9   -0.37    0.57
  -2   4   9   -0.38    0.70
  -2   4   9    0.50    0.75
  -2   4   9    0.49    0.95
   1  -4  -9   32.95    2.37
   1  -4  -9   33.63    2.45
  -1   4   9   36.16    2.45
  -1   4   9   37.98    2.47
  -1   4   9   38.37    2.42
   0  -4  -9   17.68    1.93
   0  -4  -9   20.43    2.14
   0   4   9   18.52    1.81
   0   4   9   20.68    2.03
   0   4   9   24.83    2.29
  -1  -4  -9    8.53    1.37
  -1  -4  -9    5.67    1.15
  -1  -4  -9    7.22    1.39
   1   4   9    8.19    1.26
   1   4   9    5.15    1.18
   1   4   9    6.75    1.29
  -2  -4  -9   12.11    1.55
  -2  -4  -9    8.94    1.41
  -2  -4  -9    7.89    1.32
   2   4   9    9.41    1.39
   2   4   9    8.94    1.32
  -3  -4  -9    4.26    1.20
  -3  -4  -9    4.16    1.15
  -3  -4  -9    4.96    1.09
  -3  -4  -9    3.77    1.12
   3   4   9    3.34    0.98
   3   4   9    5.15    1.19
  -4  -4  -9    0.34    0.90
  -4  -4  -9    0.41    0.75
  -4  -4  -9    0.57    0.74
  -4  -4  -9   -0.26    0.69
   4   4   9   -0.21    0.59
   4   4   9    0.49    0.65
   4   4   9   -0.10    0.70
  -5  -4  -9    3.52    1.16
  -5  -4  -9    1.70    1.16
  -5  -4  -9    0.97    1.02
   5   4   9    1.81    0.88
   5   4   9    3.85    1.14
   5   4   9   -0.21    0.84
  -6  -4  -9    3.62    1.28
  -6  -4  -9    3.58    1.33
   6   4   9    3.47    1.32
   6   4   9    3.55    1.16
   6   4   9    1.27    1.05
   4  -5  -9    0.89    0.88
   4  -5  -9   -0.07    0.80
  -4   5   9   -0.46    0.96
  -4   5   9    0.67    1.04
  -4   5   9   -0.73    0.92
   3  -5  -9    8.57    1.64
   3  -5  -9   13.69    1.99
  -3   5   9    9.03    1.84
  -3   5   9    9.72    1.75
  -3   5   9   10.41    1.78
   2  -5  -9    2.77    1.07
   2  -5  -9    1.73    0.95
  -2   5   9    4.86    1.27
  -2   5   9    3.86    1.16
   1  -5  -9    3.42    1.07
   1  -5  -9    1.31    0.88
  -1   5   9    1.31    0.87
  -1   5   9    3.86    1.25
   0  -5  -9    6.05    1.29
   0  -5  -9    5.38    1.31
   0  -5  -9    5.45    1.30
   0  -5  -9    4.66    1.20
   0   5   9    5.43    1.20
   0   5   9    7.96    1.49
  -1  -5  -9   -0.98    0.61
  -1  -5  -9   -0.35    0.75
  -1  -5  -9   -0.08    0.65
  -1  -5  -9    1.09    0.70
   1   5   9    0.65    0.73
   1   5   9    0.56    0.77
  -2  -5  -9   -0.07    0.71
  -2  -5  -9    1.19    0.90
  -2  -5  -9    0.19    0.68
  -2  -5  -9   -0.41    0.61
   2   5   9   -0.68    0.69
   2   5   9    0.11    0.65
   2   5   9    0.18    0.67
  -3  -5  -9   -1.16    0.71
  -3  -5  -9   -0.67    0.67
  -3  -5  -9    0.52    0.71
  -3  -5  -9    0.19    0.68
   3   5   9    1.33    0.84
   3   5   9    0.99    0.80
  -4  -5  -9    0.66    0.87
  -4  -5  -9    0.66    0.79
  -4  -5  -9    1.82    0.98
  -4  -5  -9   -1.39    0.54
   4   5   9    0.26    0.78
   4   5   9    1.12    0.89
  -5  -5  -9   31.08    3.00
  -5  -5  -9   23.67    2.52
  -5  -5  -9   21.16    2.38
   5   5   9   25.53    2.48
   5   5   9   33.22    2.56
   5   5   9   22.73    2.54
  -6  -5  -9   14.43    2.18
  -6  -5  -9   16.09    2.35
   6   5   9    9.77    1.87
   6   5   9   13.51    2.05
   3  -6  -9    4.53    1.42
   3  -6  -9    7.46    1.76
  -3   6   9    9.42    1.74
  -3   6   9    6.68    1.58
  -3   6   9    9.22    1.86
   2  -6  -9    3.32    1.03
   2  -6  -9    0.81    0.91
   2  -6  -9    2.46    1.20
  -2   6   9    4.66    1.35
  -2   6   9    1.13    1.09
  -2   6   9    3.76    1.34
   1  -6  -9    8.02    1.73
   1  -6  -9    7.37    1.43
   1  -6  -9    4.80    1.28
   1  -6  -9    3.61    1.21
  -1   6   9    5.75    1.54
  -1   6   9    5.43    1.40
  -1   6   9    6.13    1.40
   0  -6  -9   12.90    1.87
   0  -6  -9   15.46    2.01
   0  -6  -9   13.06    1.97
   0  -6  -9   14.06    2.00
   0   6   9   16.22    2.00
   0   6   9   15.73    1.99
  -1  -6  -9    9.65    1.49
  -1  -6  -9   12.46    1.76
  -1  -6  -9   11.32    1.82
  -1  -6  -9   10.87    1.84
   1   6   9   12.91    1.90
   1   6   9   11.77    1.70
  -2  -6  -9    1.02    0.80
  -2  -6  -9    0.00    0.73
  -2  -6  -9   -0.04    0.76
  -2  -6  -9    0.95    0.92
   2   6   9   -0.29    0.72
   2   6   9    0.13    0.79
  -3  -6  -9    1.46    0.88
  -3  -6  -9    0.64    0.91
  -3  -6  -9    1.23    0.85
  -3  -6  -9   -0.61    0.74
   3   6   9    0.85    0.78
   3   6   9   -0.32    0.77
   1  -7  -9    0.24    0.88
   1  -7  -9    0.18    0.80
   1  -7  -9   -0.44    0.88
   1  -7  -9   -0.55    0.81
  -1   7   9   -0.47    0.74
  -1   7   9   -0.24    1.03
  -1   7   9    0.36    0.99
   0  -7  -9    3.24    1.11
   0  -7  -9    6.08    1.43
   0  -7  -9    6.40    1.59
   0  -7  -9    4.82    1.43
   0   7   9    4.12    1.31
   0   7   9    5.35    1.44
   0   7   9    4.61    1.43
  -1  -7  -9    3.26    1.20
  -1  -7  -9   -0.47    0.81
  -1  -7  -9    0.12    0.92
  -1  -7  -9    0.64    0.85
   1   7   9   -0.18    0.91
   1   7   9    0.50    0.83
   1   7   9    1.15    1.03
  -2  -7  -9    1.09    0.90
  -2  -7  -9   -0.10    0.76
  -2  -7  -9    0.84    0.90
   2   7   9   -0.12    0.89
   2   7   9   -0.23    0.74
  -3  -7  -9   17.66    2.29
  -3  -7  -9   15.34    2.16
   3   7   9   16.58    2.16
   3   7   9   14.73    2.15
   0  -4  10    0.23    0.90
   0  -4  10   -0.84    0.91
   1  -4  10   -0.19    1.07
   1  -4  10   -0.98    0.79
   2  -4  10    5.12    1.44
   2  -4  10    3.59    1.28
  -2  -3  10    8.61    1.72
  -2  -3  10   13.95    2.10
  -2  -3  10   13.06    2.09
  -1  -3  10    3.26    1.20
  -1  -3  10    9.94    1.79
   0  -3  10    4.36    1.33
   0  -3  10    9.10    1.78
   1  -3  10    0.63    0.93
   1  -3  10    2.28    1.06
   2  -3  10    0.48    0.96
   2  -3  10    0.46    0.94
   3  -3  10    3.03    1.38
   3  -3  10    5.30    1.43
   3  -3  10    2.24    1.07
   4  -3  10    1.78    1.09
   4  -3  10    1.08    1.06
   4  -3  10    1.90    1.24
   4  -3  10   -0.20    1.01
  -3  -2  10    5.91    1.50
  -3  -2  10    0.36    1.04
  -2  -2  10    1.37    1.05
  -2  -2  10    1.28    1.03
  -2  -2  10   -1.27    0.58
  -1  -2  10    4.11    1.34
  -1  -2  10    6.72    1.54
   0  -2  10   11.14    1.80
   0  -2  10   11.52    1.78
  -1   2 -10    3.48    1.02
   1  -2  10    4.03    1.33
   1  -2  10    3.23    1.12
   1  -2  10    4.17    1.29
  -2   2 -10    1.04    0.77
   2  -2  10    1.95    1.08
   2  -2  10    2.54    0.98
   2  -2  10    1.09    0.95
   3  -2  10    0.46    0.73
   3  -2  10    0.08    0.75
   3  -2  10   -0.19    0.81
   4  -2  10   21.08    2.47
   4  -2  10   18.27    2.27
   4  -2  10   21.98    2.51
  -5   2 -10    6.34    1.52
   5  -2  10    9.31    1.76
   5  -2  10    8.52    1.66
   5  -2  10    3.77    1.32
   5  -2  10    7.42    1.68
  -3  -1  10   -0.24    0.85
  -3  -1  10    0.51    1.00
  -3  -1  10    0.28    0.88
  -2  -1  10    4.88    1.24
  -2  -1  10    3.09    1.23
  -2  -1  10    3.23    1.14
   1   1 -10   34.81    2.33
  -1  -1  10   32.91    2.54
  -1  -1  10   30.80    2.47
  -1  -1  10   35.40    2.49
   0   1 -10    8.03    1.35
   0  -1  10    8.13    1.44
   0  -1  10    4.43    1.32
  -1   1 -10    1.67    0.87
   1  -1  10    1.01    0.92
   1  -1  10    0.96    1.02
  -2   1 -10    5.12    1.21
   2  -1  10    5.61    1.32
   2  -1  10    3.83    1.34
   2  -1  10    5.75    1.27
  -3   1 -10    7.34    1.41
   3  -1  10    6.63    1.44
   3  -1  10    6.77    1.42
   3  -1  10    6.52    1.38
  -4   1 -10    7.35    1.58
  -4   1 -10    4.06    1.32
   4  -1  10    5.22    1.32
   4  -1  10    2.26    0.99
   4  -1  10    4.79    1.26
  -5   1 -10   -0.72    1.03
  -5   1 -10    0.87    1.01
   5  -1  10    0.61    0.94
   5  -1  10    0.68    0.88
   5  -1  10    0.55    0.96
  -6   1 -10    8.36    1.81
   6  -1  10    9.49    1.98
   6  -1  10    8.67    1.77
  -4   0  10    0.26    0.85
  -4   0  10    1.14    0.91
   3   0 -10   10.84    1.64
  -3   0  10    9.31    1.75
  -3   0  10    6.28    1.56
  -3   0  10    9.09    1.64
   2   0 -10    0.46    0.74
   2   0 -10    1.94    0.93
  -2   0  10    1.23    1.00
  -2   0  10    0.48    0.96
  -2   0  10    1.07    0.76
   1   0 -10    0.32    0.72
   1   0 -10   -0.21    0.59
  -1   0  10    0.86    0.91
  -1   0  10    0.83    0.78
  -1   0  10   -0.22    0.69
   0   0 -10    1.64    0.85
   0   0 -10    1.74    0.84
   0   0  10    0.62    0.78
   0   0  10    0.92    0.73
  -1   0 -10    0.10    0.66
  -1   0 -10    0.56    0.71
   1   0  10    0.21    0.67
   1   0  10   -0.89    0.52
  -2   0 -10    0.79    0.74
   2   0  10    1.40    0.99
   2   0  10    1.54    0.85
  -3   0 -10    1.93    0.93
  -3   0 -10    2.32    0.94
   3   0  10    0.20    0.82
   3   0  10    0.64    0.75
   3   0  10    0.01    0.80
  -4   0 -10    2.71    1.10
  -4   0 -10    3.38    1.34
   4   0  10    2.59    0.99
   4   0  10    3.06    1.13
   4   0  10    3.90    1.22
  -5   0 -10   23.85    2.72
  -5   0 -10   22.35    2.65
   5   0  10   23.31    2.61
   5   0  10   21.55    2.41
   5   0  10   20.07    2.42
  -6   0 -10    0.06    1.17
   6   0  10    0.42    1.07
   6   0  10    2.32    1.19
   6   0  10   -0.73    0.81
   4  -1 -10    4.21    1.29
  -4   1  10    4.96    1.45
   3  -1 -10   23.62    2.35
   3  -1 -10   13.05    1.95
  -3   1  10   18.68    2.19
  -3   1  10   20.53    2.48
  -3   1  10   18.72    2.28
   2  -1 -10    1.98    0.93
   2  -1 -10   -0.13    0.56
  -2   1  10   -0.67    0.70
  -2   1  10   -0.02    0.73
  -2   1  10   -0.98    0.84
   1  -1 -10   17.98    1.96
   1  -1 -10   12.13    1.73
  -1   1  10   12.88    1.78
  -1   1  10   18.61    2.08
  -1   1  10   15.00    1.85
   0  -1 -10    0.15    0.60
   0  -1 -10   -0.43    0.69
   0   1  10   -0.51    0.81
   0   1  10   -0.25    0.59
   0   1  10   -0.31    0.75
  -1  -1 -10   10.87    1.54
  -1  -1 -10   10.52    1.51
   1   1  10    4.99    1.19
   1   1  10    9.91    1.60
  -2  -1 -10    3.80    1.09
  -2  -1 -10    4.59    1.09
   2   1  10    1.63    0.91
   2   1  10    3.80    1.08
  -3  -1 -10    4.10    1.13
  -3  -1 -10    3.71    1.16
  -3  -1 -10    6.28    1.27
  -3  -1 -10    3.19    0.99
   3   1  10    5.08    1.29
   3   1  10    4.72    1.25
  -4  -1 -10    0.94    1.01
  -4  -1 -10    0.31    0.73
  -4  -1 -10    0.39    0.96
   4   1  10    1.17    0.89
   4   1  10    2.01    1.08
   4   1  10    2.04    0.96
  -5  -1 -10    6.50    1.60
  -5  -1 -10    7.11    1.62
   5   1  10    5.78    1.32
   5   1  10    9.41    1.75
   5   1  10    5.31    1.33
  -6  -1 -10   13.08    2.27
  -6  -1 -10    8.01    1.76
   6   1  10   11.33    1.84
   6   1  10   12.01    2.01
   6   1  10   14.23    2.22
   4  -2 -10    4.18    1.31
  -4   2  10    4.82    1.42
  -4   2  10    7.40    1.75
  -4   2  10    5.75    1.58
   3  -2 -10    0.22    0.83
   3  -2 -10    1.66    0.86
  -3   2  10    0.77    0.90
  -3   2  10   -0.80    0.70
  -3   2  10   -0.08    0.88
   2  -2 -10    1.93    1.02
   2  -2 -10    3.65    1.12
  -2   2  10    3.33    1.07
  -2   2  10    2.29    0.98
  -2   2  10    3.12    1.10
   1  -2 -10    2.62    0.96
   1  -2 -10    4.74    1.17
  -1   2  10    2.58    0.97
  -1   2  10    3.77    1.09
   0  -2 -10    0.16    0.56
   0  -2 -10   -0.50    0.54
   0   2  10   -0.17    0.62
   0   2  10    0.04    0.70
   0   2  10   -0.51    0.58
  -1  -2 -10    0.07    0.60
  -1  -2 -10    0.68    0.71
   1   2  10    0.44    0.67
   1   2  10    1.93    0.97
  -2  -2 -10    1.77    0.77
  -2  -2 -10    1.13    0.87
  -2  -2 -10    0.80    0.87
   2   2  10   -0.21    0.52
   2   2  10    1.57    0.75
  -3  -2 -10   39.37    2.76
  -3  -2 -10   41.74    2.82
  -3  -2 -10   44.69    2.77
  -3  -2 -10   47.53    2.89
   3   2  10   39.09    2.69
   3   2  10   43.00    2.84
  -4  -2 -10    0.53    0.95
  -4  -2 -10    1.30    0.86
  -4  -2 -10   -0.48    0.70
  -4  -2 -10    2.11    0.94
   4   2  10    2.01    0.99
   4   2  10    0.38    0.82
   4   2  10    0.75    0.86
  -5  -2 -10    3.09    1.34
  -5  -2 -10    4.58    1.51
   5   2  10    3.38    1.14
   5   2  10    1.77    0.98
   5   2  10    1.33    0.98
  -6  -2 -10    1.67    1.30
  -6  -2 -10   -0.31    0.99
   6   2  10    0.60    1.03
   6   2  10   -0.55    0.75
   6   2  10    0.69    0.85
   4  -3 -10    2.65    1.26
   4  -3 -10    3.25    1.27
  -4   3  10    1.52    1.20
  -4   3  10    2.33    1.20
  -4   3  10    2.55    1.37
   3  -3 -10    0.24    0.82
   3  -3 -10    0.10    0.68
  -3   3  10   -1.09    0.96
  -3   3  10   -0.78    0.78
  -3   3  10    1.17    0.88
   2  -3 -10    3.54    1.10
   2  -3 -10    5.57    1.35
  -2   3  10    2.99    1.05
  -2   3  10    4.68    1.33
  -2   3  10    3.43    1.04
   1  -3 -10    0.43    0.62
   1  -3 -10   -1.23    0.49
  -1   3  10    0.91    0.81
  -1   3  10   -1.40    0.63
  -1   3  10   -0.42    0.73
   0  -3 -10    0.30    0.61
   0  -3 -10    0.97    0.74
   0   3  10    0.89    0.85
   0   3  10    0.86    0.86
  -1  -3 -10   -0.40    0.45
  -1  -3 -10    0.49    0.62
   1   3  10   -0.26    0.60
   1   3  10    0.90    0.88
  -2  -3 -10   -0.23    0.64
  -2  -3 -10    0.61    0.79
  -2  -3 -10    1.89    0.87
   2   3  10    1.27    0.80
   2   3  10    0.59    0.68
  -3  -3 -10    2.42    1.16
  -3  -3 -10    2.17    0.90
  -3  -3 -10    5.71    1.34
  -3  -3 -10    2.25    0.85
   3   3  10    3.55    1.15
   3   3  10    2.95    1.03
  -4  -3 -10    0.37    0.73
  -4  -3 -10    0.58    1.03
  -4  -3 -10   -0.25    0.85
  -4  -3 -10    0.28    0.71
   4   3  10    0.20    0.75
   4   3  10    0.09    0.84
   4   3  10    0.65    0.79
  -5  -3 -10    8.34    1.88
  -5  -3 -10    6.21    1.49
  -5  -3 -10    9.12    1.62
   5   3  10    7.64    1.58
   5   3  10    9.13    1.76
   5   3  10    5.86    1.35
  -6  -3 -10    0.39    1.09
   6   3  10   -0.06    0.79
   6   3  10   -0.99    0.63
   3  -4 -10    9.70    1.73
   3  -4 -10    8.32    1.55
  -3   4  10   11.33    1.89
  -3   4  10    7.40    1.55
   2  -4 -10    0.65    0.85
   2  -4 -10   -0.61    0.70
  -2   4  10    0.27    0.88
  -2   4  10   -0.31    0.77
  -2   4  10   -0.45    0.68
   1  -4 -10    0.40    0.80
   1  -4 -10    0.27    0.72
  -1   4  10   -0.18    0.74
  -1   4  10    0.53    0.74
  -1   4  10    1.44    1.05
   0  -4 -10   -0.61    0.63
   0  -4 -10    0.61    0.87
   0   4  10    0.18    0.65
   0   4  10    0.68    0.74
   0   4  10   -0.92    0.68
  -1  -4 -10   19.35    2.16
  -1  -4 -10   19.18    2.04
   1   4  10   18.65    2.10
   1   4  10   23.27    2.21
  -2  -4 -10   20.33    2.19
  -2  -4 -10   20.05    2.11
   2   4  10   16.84    1.95
  -3  -4 -10    4.76    1.43
  -3  -4 -10    6.38    1.27
  -3  -4 -10    6.10    1.32
  -3  -4 -10    6.35    1.35
   3   4  10    5.39    1.25
   3   4  10    6.23    1.28
  -4  -4 -10    4.67    1.19
  -4  -4 -10    3.82    1.33
  -4  -4 -10    3.86    1.15
  -4  -4 -10    5.18    1.37
   4   4  10    6.14    1.36
   4   4  10    6.65    1.38
  -5  -4 -10    1.11    1.17
  -5  -4 -10    0.75    0.81
  -5  -4 -10    1.40    0.92
   5   4  10    1.28    1.00
   5   4  10    0.33    0.72
   5   4  10    0.82    1.00
   3  -5 -10    0.21    0.86
   3  -5 -10    0.48    0.92
  -3   5  10    1.03    0.91
  -3   5  10    1.54    1.07
   2  -5 -10   -0.73    0.81
   2  -5 -10   -0.33    0.80
  -2   5  10    0.85    0.85
  -2   5  10   -0.11    0.91
   1  -5 -10    7.38    1.47
   1  -5 -10    4.12    1.28
  -1   5  10    4.70    1.34
  -1   5  10    4.61    1.28
   0  -5 -10    2.67    1.10
   0  -5 -10    2.45    0.99
   0   5  10    1.98    0.93
   0   5  10    1.37    0.90
  -1  -5 -10    5.08    1.23
  -1  -5 -10    7.03    1.47
  -1  -5 -10    5.54    1.28
   1   5  10    6.09    1.36
   1   5  10    5.51    1.22
  -2  -5 -10   -0.30    0.56
  -2  -5 -10    0.15    0.84
  -2  -5 -10    0.42    0.78
   2   5  10    0.30    0.85
   2   5  10   -0.11    0.68
  -3  -5 -10    3.39    1.23
  -3  -5 -10    2.93    1.05
  -3  -5 -10    5.42    1.31
   3   5  10    2.48    0.92
  -4  -5 -10    0.72    0.81
  -4  -5 -10   -0.23    0.99
  -4  -5 -10   -0.61    0.76
   4   5  10    0.20    0.87
  -5  -5 -10    0.30    0.97
  -5  -5 -10   -0.07    0.88
  -5  -5 -10    1.86    1.29
   5   5  10    0.01    0.80
   5   5  10    0.80    0.94
   5   5  10    0.71    0.84
   2  -6 -10    0.63    0.80
   2  -6 -10   -0.12    0.98
  -2   6  10    0.09    0.84
  -2   6  10    0.59    0.91
   1  -6 -10    8.39    1.66
   1  -6 -10    9.37    1.64
  -1   6  10    7.08    1.55
  -1   6  10    5.73    1.47
   0  -6 -10    4.51    1.20
   0  -6 -10    8.16    1.61
   0  -6 -10   10.14    1.86
   0  -6 -10    9.32    1.87
   0   6  10    5.60    1.38
   0   6  10    8.00    1.71
  -1  -6 -10    2.57    1.06
  -1  -6 -10    2.67    1.22
  -1  -6 -10    2.95    1.26
  -1  -6 -10    2.35    1.05
   1   6  10    2.60    1.13
   1   6  10    1.17    1.01
  -2  -6 -10    9.97    1.78
  -2  -6 -10    5.66    1.45
  -2  -6 -10    6.26    1.43
  -2  -6 -10    5.86    1.38
   2   6  10    8.50    1.63
  -3  -6 -10    0.89    0.91
  -3  -6 -10    3.05    1.12
  -3  -6 -10    1.43    0.98
   1  -3  11    0.43    1.00
   1  -3  11   -0.06    0.86
   2  -3  11   11.62    1.95
   2  -3  11    9.69    1.92
  -1  -2  11   -0.30    0.79
  -1  -2  11    0.71    1.16
   0  -2  11    0.48    1.00
   0  -2  11    0.31    0.93
  -1   2 -11    1.68    0.94
   1  -2  11    0.66    1.03
   1  -2  11    0.24    0.93
   1  -2  11    1.11    0.87
  -2   2 -11   18.69    2.21
   2  -2  11   16.81    2.21
   2  -2  11   15.95    2.09
   2  -2  11   13.42    2.26
   3  -2  11    1.95    1.19
   3  -2  11    1.12    0.85
   3  -2  11    3.85    1.37
   4  -2  11    2.70    1.29
   4  -2  11    1.61    1.17
   4  -2  11    2.33    1.18
  -2  -1  11    2.11    1.14
  -2  -1  11    0.95    0.96
   1   1 -11   -0.04    0.73
  -1  -1  11   -0.31    0.72
  -1  -1  11    1.07    1.19
   0   1 -11   -0.17    0.60
   0  -1  11    0.83    0.85
   0  -1  11    1.06    0.94
  -1   1 -11   14.38    1.89
   1  -1  11   14.88    2.16
   1  -1  11   19.49    2.27
  -2   1 -11    8.72    1.48
   2  -1  11    9.63    1.63
   2  -1  11   12.11    1.99
   2  -1  11    8.28    1.69
  -3   1 -11   12.39    1.94
   3  -1  11    8.20    1.73
   3  -1  11    4.22    1.42
   3  -1  11    4.68    1.27
   4  -1  11   -0.04    0.99
   4  -1  11    1.31    1.05
   4  -1  11    0.72    1.10
  -5   1 -11    2.43    1.33
   5  -1  11    5.23    1.60
   5  -1  11    1.25    0.98
   3   0 -11    1.54    1.02
  -3   0  11    0.21    0.82
  -3   0  11    1.01    1.05
   2   0 -11    0.96    0.85
   2   0 -11    0.01    0.75
  -2   0  11    0.30    0.81
  -2   0  11   -1.16    0.50
  -2   0  11    0.09    0.88
   1   0 -11   10.67    1.69
   1   0 -11   12.79    1.79
  -1   0  11    7.90    1.63
  -1   0  11   10.67    1.82
  -1   0  11   10.55    1.66
   0   0 -11    0.14    0.64
   0   0 -11    0.62    0.75
   0   0  11    0.29    0.76
   0   0  11   -0.44    0.76
  -1   0 -11    3.22    1.07
   1   0  11    1.75    1.00
   1   0  11    0.71    0.92
  -2   0 -11    3.91    1.25
   2   0  11    1.77    1.18
   2   0  11    4.01    1.20
  -3   0 -11    6.94    1.39
   3   0  11    4.45    1.32
   3   0  11    2.98    1.19
   3   0  11    6.06    1.37
  -4   0 -11    0.29    1.00
  -4   0 -11   -1.65    1.09
   4   0  11    0.75    0.89
   4   0  11    0.65    1.03
   4   0  11   -0.50    0.82
  -5   0 -11    0.10    0.98
   5   0  11    1.44    1.00
   5   0  11    1.96    1.24
   3  -1 -11    0.99    1.04
  -3   1  11    0.13    0.96
   2  -1 -11   11.62    1.77
   2  -1 -11   10.51    1.73
  -2   1  11    8.27    1.57
  -2   1  11   12.32    1.92
   1  -1 -11   25.58    2.54
   1  -1 -11   23.59    2.31
  -1   1  11   20.72    2.37
  -1   1  11   33.73    2.44
  -1   1  11   28.11    2.71
   0  -1 -11    2.25    0.92
   0  -1 -11    4.08    1.15
   0   1  11    1.03    0.94
   0   1  11    1.73    0.97
  -1  -1 -11    3.74    1.12
  -1  -1 -11    5.81    1.24
   1   1  11    2.01    1.05
   1   1  11    4.72    1.35
  -2  -1 -11    1.68    0.99
  -2  -1 -11    1.72    0.93
   2   1  11   -0.39    0.72
   2   1  11   -0.18    0.77
  -3  -1 -11    4.51    1.24
  -3  -1 -11    2.32    1.14
   3   1  11    2.94    1.23
   3   1  11    5.60    1.29
  -4  -1 -11    0.11    0.91
  -4  -1 -11    1.55    1.20
  -4  -1 -11    3.48    1.15
   4   1  11    2.25    1.22
   4   1  11    1.99    1.07
   4   1  11    1.00    0.86
  -5  -1 -11   -0.89    0.89
  -5  -1 -11    0.51    0.92
   5   1  11    1.81    1.17
   5   1  11    0.30    0.87
   5   1  11    0.10    0.84
   3  -2 -11    2.58    1.23
   3  -2 -11    3.12    1.03
  -3   2  11    3.77    1.32
  -3   2  11    1.84    1.21
   2  -2 -11   -0.07    0.82
   2  -2 -11    1.42    0.83
  -2   2  11   -0.83    0.79
  -2   2  11   -1.08    0.83
   1  -2 -11    0.26    0.78
   1  -2 -11    0.25    0.71
  -1   2  11    0.38    0.81
  -1   2  11    0.10    0.81
   0  -2 -11    0.02    0.57
   0  -2 -11    0.20    0.64
   0   2  11    0.15    0.84
   0   2  11    0.35    0.86
   0   2  11    1.60    0.98
  -1  -2 -11    3.46    1.06
  -1  -2 -11    2.82    0.95
   1   2  11    5.43    1.27
   1   2  11    3.71    1.18
  -2  -2 -11   -0.08    0.68
  -2  -2 -11    0.87    0.76
   2   2  11    0.72    0.72
   2   2  11    1.35    1.02
  -3  -2 -11    2.67    1.11
  -3  -2 -11    2.10    0.99
  -3  -2 -11    0.85    0.96
   3   2  11    0.57    0.90
   3   2  11    1.37    0.78
  -4  -2 -11    0.75    0.90
  -4  -2 -11    0.74    0.89
  -4  -2 -11    1.14    1.18
   4   2  11    1.46    0.90
   4   2  11    0.85    0.88
   4   2  11    0.74    0.96
  -5  -2 -11   16.63    2.45
  -5  -2 -11   13.23    2.14
   5   2  11   16.30    2.14
   5   2  11   16.67    2.18
   5   2  11   15.04    2.22
   3  -3 -11    3.74    1.29
   3  -3 -11    4.72    1.41
  -3   3  11    7.97    1.77
  -3   3  11    5.82    1.67
  -3   3  11    4.61    1.40
   2  -3 -11    1.62    0.91
   2  -3 -11    0.23    0.79
  -2   3  11    0.20    0.80
  -2   3  11    1.41    1.17
  -2   3  11   -0.19    0.77
   1  -3 -11    4.30    1.16
   1  -3 -11    7.73    1.59
  -1   3  11   10.30    1.73
  -1   3  11    5.51    1.35
   0  -3 -11    9.38    1.56
   0  -3 -11   12.95    1.87
   0   3  11   13.75    1.77
   0   3  11   11.71    1.87
  -1  -3 -11   -0.49    0.73
  -1  -3 -11   -0.34    0.59
   1   3  11   -0.67    0.86
  -2  -3 -11   -0.71    0.68
  -2  -3 -11    0.86    0.74
   2   3  11    1.26    0.82
   2   3  11   -0.53    0.77
  -3  -3 -11    2.46    1.04
  -3  -3 -11    1.19    0.92
  -3  -3 -11    2.30    1.12
   3   3  11    1.74    0.98
   3   3  11    1.35    0.97
  -4  -3 -11    1.95    1.21
  -4  -3 -11    3.21    1.14
  -4  -3 -11    3.27    1.06
  -4  -3 -11    1.15    1.13
   4   3  11    4.17    1.28
   4   3  11    1.92    1.14
   4   3  11    3.97    1.23
  -5  -3 -11    6.41    1.53
  -5  -3 -11    8.29    1.78
  -5  -3 -11    8.54    2.05
   5   3  11    9.36    1.82
   5   3  11    6.51    1.55
   5   3  11    5.97    1.69
   2  -4 -11    0.50    1.03
   2  -4 -11    0.91    1.01
  -2   4  11    1.07    1.05
  -2   4  11    1.93    1.00
  -2   4  11    2.38    1.14
   1  -4 -11   10.81    1.77
   1  -4 -11   17.64    2.31
  -1   4  11   17.30    2.19
  -1   4  11   12.32    1.96
  -1   4  11   14.35    2.02
   0  -4 -11    3.23    1.11
   0  -4 -11    7.03    1.50
   0   4  11    7.27    1.52
   0   4  11    3.22    1.13
  -1  -4 -11    0.12    0.84
  -1  -4 -11   -0.56    0.69
   1   4  11    0.32    0.82
   1   4  11    1.54    0.95
  -2  -4 -11    0.44    0.76
  -2  -4 -11    1.03    0.91
   2   4  11    0.48    0.73
  -3  -4 -11   23.76    2.59
  -3  -4 -11   21.65    2.42
   3   4  11   20.40    2.48
   3   4  11   20.49    2.32
  -4  -4 -11    8.32    1.55
  -4  -4 -11    8.17    1.83
  -4  -4 -11    7.26    1.48
  -4  -4 -11    7.65    1.59
   4   4  11    6.97    1.60
   4   4  11   11.42    1.83
  -5  -4 -11    0.65    1.04
  -5  -4 -11    1.12    1.02
  -5  -4 -11    0.19    0.88
   5   4  11    0.19    0.94
   5   4  11    0.04    0.95
   1  -5 -11    0.85    0.87
   1  -5 -11    0.27    0.80
  -1   5  11   -0.77    0.83
  -1   5  11    0.88    1.08
   0  -5 -11   -0.53    0.66
   0  -5 -11   -0.08    0.77
   0   5  11   -0.32    0.71
  -1  -5 -11    0.88    0.75
  -1  -5 -11    1.23    0.92
   1   5  11    1.10    0.97
  -2  -5 -11   -0.25    0.74
  -2  -5 -11    0.14    0.69
  -3  -5 -11    0.47    0.82
  -3  -5 -11    0.43    0.89
   3   5  11   -0.84    0.74
  -4  -5 -11    3.18    1.41
  -4  -5 -11   -0.33    0.92
  -4  -5 -11    1.13    0.96
   4   5  11    0.78    0.96
   0  -6 -11    3.21    1.15
   0  -6 -11    0.05    0.95
   0   6  11    2.76    1.18
   0   6  11    1.24    1.05
  -1  -6 -11    6.31    1.36
  -1  -6 -11    4.28    1.47
  -1  -6 -11    6.69    1.60
   1   6  11    5.18    1.45
  -2  -6 -11    1.59    1.05
  -2  -6 -11    3.00    1.13
   0   1 -12    4.07    1.28
   0  -1  12    3.33    1.26
  -1   1 -12    1.45    1.00
   1  -1  12    1.54    1.21
  -2   1 -12    1.67    0.98
   2  -1  12   -1.04    0.81
   2  -1  12    0.12    1.08
  -3   1 -12   18.46    2.44
   3  -1  12   15.47    2.46
   3  -1  12   20.42    2.50
   1   0 -12    1.97    1.14
   1   0 -12    1.86    1.05
  -1   0  12    0.44    1.01
   0   0 -12    1.35    1.02
   0   0  12    0.82    1.03
  -1   0 -12    0.26    0.96
   1   0  12    0.35    1.12
   1   0  12    0.96    1.02
  -2   0 -12    1.25    1.03
   2   0  12    2.12    1.16
   2   0  12    3.97    1.28
  -3   0 -12    2.17    0.96
   3   0  12    1.38    1.02
   3   0  12    3.33    1.18
   4   0  12    0.92    1.12
   4   0  12    0.89    0.99
   1  -1 -12    0.30    0.87
   1  -1 -12    0.46    0.85
  -1   1  12    0.91    1.02
   0  -1 -12    5.54    1.39
   0  -1 -12    4.26    1.21
   0   1  12    7.97    1.61
   0   1  12    4.09    1.36
  -1  -1 -12   19.67    2.37
  -1  -1 -12   22.08    2.50
   1   1  12   15.75    2.14
   1   1  12   22.01    2.58
  -2  -1 -12    3.26    1.19
  -2  -1 -12    2.34    1.05
   2   1  12    2.69    1.37
   2   1  12    3.08    1.19
  -3  -1 -12    5.19    1.34
   3   1  12    4.79    1.30
   3   1  12    5.09    1.43
   3   1  12    4.10    1.17
  -4  -1 -12    0.12    0.76
  -4  -1 -12   -0.14    1.02
   4   1  12    0.83    0.87
   4   1  12    1.27    1.06
   1  -2 -12    6.83    1.41
   1  -2 -12    7.16    1.55
  -1   2  12    9.11    1.82
  -1   2  12    8.76    1.72
   0  -2 -12    0.62    1.01
   0  -2 -12    1.10    0.91
   0   2  12    2.54    1.15
  -1  -2 -12    8.82    1.64
  -1  -2 -12   10.04    1.69
   1   2  12    9.57    1.73
   1   2  12    8.50    1.66
  -2  -2 -12   -0.08    0.73
  -2  -2 -12    0.46    0.71
   2   2  12    0.72    1.03
   2   2  12   -0.28    0.76
  -3  -2 -12   10.41    1.82
  -3  -2 -12   10.84    1.83
   3   2  12   11.69    1.91
   3   2  12   12.74    2.01
  -4  -2 -12    0.53    1.11
  -4  -2 -12    0.14    0.70
   4   2  12    0.78    0.85
   4   2  12    1.67    1.14
   1  -3 -12    8.34    1.61
   1  -3 -12    7.24    1.57
  -1   3  12    6.72    1.52
  -1   3  12    9.52    1.88
   0  -3 -12    2.02    0.94
   0  -3 -12    0.99    1.02
   0   3  12    2.39    1.20
  -1  -3 -12    3.63    1.16
  -1  -3 -12    2.83    1.07
   1   3  12    2.19    1.15
  -2  -3 -12   12.21    2.00
  -2  -3 -12    6.83    1.46
   2   3  12   10.30    1.67
   2   3  12    7.93    1.73
  -3  -3 -12   -0.15    0.72
  -3  -3 -12   -0.18    0.90
  -3  -3 -12   -0.98    0.73
   3   3  12   -1.04    0.73
   3   3  12    1.03    1.02
  -4  -3 -12    4.98    1.48
  -4  -3 -12    6.29    1.51
  -4  -3 -12    4.49    1.39
   4   3  12    5.11    1.39
   4   3  12    7.55    1.66
   0  -4 -12   -0.49    0.79
   0  -4 -12    2.24    0.97
   0   4  12    0.98    1.11
   0   4  12    1.73    1.05
  -1  -4 -12   23.40    2.59
  -1  -4 -12   18.68    2.32
   1   4  12   18.59    2.32
  -2  -4 -12    9.93    1.78
  -2  -4 -12    9.44    1.66
  -3  -4 -12    4.09    1.39
  -3  -4 -12    1.96    1.01
   3   4  12    1.40    1.12
   0   0   0    0.00    0.00
;
_shelx_hkl_checksum              46575
#END Tags that were not found in dictionaries
loop_
_space_group_symop_operation_xyz
'x, y, z'
'-x, -y, -z'
loop_
_atom_site_label
_atom_site_type_symbol
_atom_site_fract_x
_atom_site_fract_y
_atom_site_fract_z
_atom_site_U_iso_or_equiv
_atom_site_adp_type
_atom_site_occupancy
_atom_site_site_symmetry_order
_atom_site_calc_flag
_atom_site_refinement_flags_posn
_atom_site_refinement_flags_adp
P1 P 0.52072(12) 0.27358(12) 0.88291(9) 0.0157(2) Uani 1 1 d . .
P2 P 0.11216(12) -0.11596(12) 0.78868(9) 0.0173(2) Uani 1 1 d . .
Ca1 Ca 0.62332(9) -0.17881(9) 0.74901(7) 0.0141(2) Uani 1 1 d . .
O1 O 0.6024(4) 0.1128(3) 0.8243(3) 0.0235(6) Uani 1 1 d . .
O2 O 0.5323(3) 0.2703(3) 1.0242(2) 0.0202(6) Uani 1 1 d . .
O3 O 0.6102(4) 0.4614(3) 0.7954(2) 0.0208(6) Uani 1 1 d D .
H3 H 0.660(5) 0.441(5) 0.724(3) 0.025 Uiso 1 1 d D U
O4 O 0.3042(3) -0.1488(3) 0.7115(2) 0.0211(6) Uani 1 1 d . .
O5 O 0.1264(4) -0.1573(4) 0.9384(3) 0.0275(6) Uani 1 1 d D .
H5 H 0.232(4) -0.198(6) 0.948(4) 0.033 Uiso 1 1 d D U
O6 O -0.0595(3) -0.2111(3) 0.7675(3) 0.0256(6) Uani 1 1 d . .
O7 O 0.3299(4) 0.2864(4) 0.4699(3) 0.0310(7) Uani 1 1 d . .
O8 O 0.2152(4) 0.5730(3) 0.4252(3) 0.0262(6) Uani 1 1 d . .
O9 O 0.6963(5) 0.0661(4) 0.5642(3) 0.0429(9) Uani 1 1 d D .
H9A H 0.723(7) 0.169(4) 0.571(5) 0.051 Uiso 1 1 d D U
H9B H 0.691(8) 0.065(7) 0.486(2) 0.051 Uiso 1 1 d D U
N1 N 0.2383(4) 0.2565(4) 0.7354(3) 0.0170(6) Uani 1 1 d D .
H1 H 0.338(4) 0.203(5) 0.701(4) 0.020 Uiso 1 1 d D U
C1 C 0.2702(5) 0.2799(5) 0.8704(3) 0.0201(8) Uani 1 1 d . .
H1A H 0.2035 0.1808 0.9368 0.024 Uiso 1 1 calc R U
H1B H 0.2176 0.3982 0.8875 0.024 Uiso 1 1 calc R U
C2 C 0.0674(5) 0.1334(5) 0.7437(4) 0.0194(8) Uani 1 1 d . .
H2A H 0.0248 0.1582 0.6590 0.023 Uiso 1 1 calc R U
H2B H -0.0351 0.1670 0.8081 0.023 Uiso 1 1 calc R U
C3 C 0.2213(5) 0.4406(5) 0.6476(4) 0.0208(8) Uani 1 1 d . .
H3A H 0.3123 0.5276 0.6623 0.025 Uiso 1 1 calc R U
H3B H 0.0946 0.4892 0.6699 0.025 Uiso 1 1 calc R U
C4 C 0.2566(5) 0.4274(5) 0.5039(4) 0.0192(8) Uani 1 1 d . .
loop_
_atom_site_aniso_label
_atom_site_aniso_U_11
_atom_site_aniso_U_22
_atom_site_aniso_U_33
_atom_site_aniso_U_23
_atom_site_aniso_U_13
_atom_site_aniso_U_12
P1 0.0128(5) 0.0178(5) 0.0160(5) -0.0025(4) -0.0023(3) -0.0011(3)
P2 0.0078(4) 0.0222(5) 0.0210(5) -0.0022(4) -0.0020(3) -0.0012(3)
Ca1 0.0072(3) 0.0184(4) 0.0172(4) -0.0038(3) -0.0027(3) 0.0005(2)
O1 0.0231(14) 0.0209(13) 0.0261(15) -0.0066(11) -0.0001(11) -0.0009(10)
O2 0.0169(13) 0.0256(13) 0.0185(14) -0.0036(11) -0.0051(10) -0.0005(10)
O3 0.0218(14) 0.0227(13) 0.0160(14) -0.0050(11) 0.0037(10) -0.0033(10)
O4 0.0094(12) 0.0325(14) 0.0212(14) -0.0066(11) -0.0009(10) 0.0023(10)
O5 0.0131(13) 0.0453(17) 0.0208(15) -0.0009(12) -0.0009(11) 0.0089(12)
O6 0.0106(13) 0.0229(13) 0.0436(18) -0.0038(12) -0.0084(11) -0.0029(10)
O7 0.0410(17) 0.0231(14) 0.0266(16) -0.0052(12) 0.0004(13) 0.0058(12)
O8 0.0334(16) 0.0221(14) 0.0204(14) -0.0013(11) -0.0010(12) 0.0034(11)
O9 0.082(3) 0.0276(16) 0.0201(17) -0.0015(14) -0.0124(16) -0.0164(16)
N1 0.0108(14) 0.0220(16) 0.0183(16) -0.0038(13) -0.0027(12) -0.0010(12)
C1 0.0147(18) 0.0290(19) 0.017(2) -0.0063(16) -0.0006(14) -0.0035(14)
C2 0.0095(16) 0.0236(19) 0.025(2) -0.0012(16) -0.0068(14) -0.0067(14)
C3 0.0206(19) 0.0196(18) 0.023(2) -0.0037(15) -0.0062(15) -0.0018(15)
C4 0.0159(17) 0.0193(18) 0.020(2) -0.0018(15) 0.0004(14) -0.0026(14)
loop_
_atom_type_symbol
_atom_type_description
_atom_type_scat_dispersion_real
_atom_type_scat_dispersion_imag
_atom_type_scat_source
C C 0.0033 0.0016 'International Tables Vol C Tables 4.2.6.8 and 6.1.1.4'
H H 0.0000 0.0000 'International Tables Vol C Tables 4.2.6.8 and 6.1.1.4'
O O 0.0106 0.0060 'International Tables Vol C Tables 4.2.6.8 and 6.1.1.4'
P P 0.1023 0.0942 'International Tables Vol C Tables 4.2.6.8 and 6.1.1.4'
Ca Ca 0.2262 0.3064 'International Tables Vol C Tables 4.2.6.8 and 6.1.1.4'
N N 0.0061 0.0033 'International Tables Vol C Tables 4.2.6.8 and 6.1.1.4'
loop_
_geom_angle_atom_site_label_1
_geom_angle_atom_site_label_2
_geom_angle_atom_site_label_3
_geom_angle
_geom_angle_site_symmetry_1
_geom_angle_site_symmetry_3
O1 P1 O2 117.92(15) . .
O1 P1 O3 109.43(14) . .
O2 P1 O3 109.58(14) . .
O1 P1 C1 106.36(16) . .
O2 P1 C1 106.68(15) . .
O3 P1 C1 106.18(16) . .
O6 P2 O4 119.44(15) . .
O6 P2 O5 109.78(16) . .
O4 P2 O5 108.61(14) . .
O6 P2 C2 105.47(15) . .
O4 P2 C2 106.07(16) . .
O5 P2 C2 106.69(16) . .
O6 Ca1 O9 90.98(12) 1_655 .
O6 Ca1 O4 175.22(9) 1_655 .
O9 Ca1 O4 86.25(11) . .
O6 Ca1 O1 92.31(9) 1_655 .
O9 Ca1 O1 71.56(10) . .
O4 Ca1 O1 90.51(9) . .
O6 Ca1 O2 102.19(9) 1_655 2_657
O9 Ca1 O2 146.80(10) . 2_657
O4 Ca1 O2 82.19(8) . 2_657
O1 Ca1 O2 77.51(9) . 2_657
O6 Ca1 O7 93.38(10) 1_655 2_656
O9 Ca1 O7 66.23(9) . 2_656
O4 Ca1 O7 81.94(9) . 2_656
O1 Ca1 O7 137.47(9) . 2_656
O2 Ca1 O7 141.39(9) 2_657 2_656
O6 Ca1 O3 85.97(8) 1_655 1_545
O9 Ca1 O3 137.41(10) . 1_545
O4 Ca1 O3 93.42(8) . 1_545
O1 Ca1 O3 150.94(9) . 1_545
O2 Ca1 O3 74.54(8) 2_657 1_545
O7 Ca1 O3 71.56(8) 2_656 1_545
P1 O1 Ca1 160.64(16) . .
P1 O2 Ca1 146.13(15) . 2_657
P1 O3 Ca1 149.02(14) . 1_565
P1 O3 H3 109(3) . .
Ca1 O3 H3 100(3) 1_565 .
P2 O4 Ca1 137.15(15) . .
P2 O5 H5 109(3) . .
P2 O6 Ca1 145.11(15) . 1_455
C4 O7 Ca1 131.8(2) . 2_656
Ca1 O9 H9A 122(4) . .
Ca1 O9 H9B 128(4) . .
H9A O9 H9B 109(5) . .
C3 N1 C2 110.9(3) . .
C3 N1 C1 111.3(3) . .
C2 N1 C1 111.9(3) . .
C3 N1 H1 107(3) . .
C2 N1 H1 108(3) . .
C1 N1 H1 107(3) . .
N1 C1 P1 111.7(2) . .
N1 C1 H1A 109.3 . .
P1 C1 H1A 109.3 . .
N1 C1 H1B 109.3 . .
P1 C1 H1B 109.3 . .
H1A C1 H1B 107.9 . .
N1 C2 P2 114.2(2) . .
N1 C2 H2A 108.7 . .
P2 C2 H2A 108.7 . .
N1 C2 H2B 108.7 . .
P2 C2 H2B 108.7 . .
H2A C2 H2B 107.6 . .
N1 C3 C4 112.3(3) . .
N1 C3 H3A 109.2 . .
C4 C3 H3A 109.2 . .
N1 C3 H3B 109.2 . .
C4 C3 H3B 109.2 . .
H3A C3 H3B 107.9 . .
O7 C4 O8 124.7(3) . .
O7 C4 C3 119.9(3) . .
O8 C4 C3 115.2(3) . .
loop_
_geom_bond_atom_site_label_1
_geom_bond_atom_site_label_2
_geom_bond_distance
_geom_bond_site_symmetry_2
P1 O1 1.491(2) .
P1 O2 1.496(3) .
P1 O3 1.575(3) .
P1 C1 1.809(4) .
P2 O6 1.490(2) .
P2 O4 1.507(2) .
P2 O5 1.562(3) .
P2 C2 1.822(4) .
Ca1 O6 2.301(2) 1_655
Ca1 O9 2.359(3) .
Ca1 O4 2.368(2) .
Ca1 O1 2.406(2) .
Ca1 O2 2.422(3) 2_657
Ca1 O7 2.541(3) 2_656
Ca1 O3 2.575(2) 1_545
O2 Ca1 2.422(3) 2_657
O3 Ca1 2.575(2) 1_565
O3 H3 0.817(19) .
O5 H5 0.817(19) .
O6 Ca1 2.301(2) 1_455
O7 C4 1.231(4) .
O7 Ca1 2.541(3) 2_656
O8 C4 1.273(4) .
O9 H9A 0.799(19) .
O9 H9B 0.827(19) .
N1 C3 1.487(5) .
N1 C2 1.511(4) .
N1 C1 1.516(4) .
N1 H1 0.863(19) .
C1 H1A 0.9700 .
C1 H1B 0.9700 .
C2 H2A 0.9700 .
C2 H2B 0.9700 .
C3 C4 1.509(5) .
C3 H3A 0.9700 .
C3 H3B 0.9700 .
loop_
_geom_hbond_atom_site_label_D
_geom_hbond_atom_site_label_H
_geom_hbond_atom_site_label_A
_geom_hbond_distance_DH
_geom_hbond_distance_HA
_geom_hbond_distance_DA
_geom_hbond_angle_DHA
_geom_hbond_site_symmetry_A
C3 H3B O8 0.97 2.65 3.331(4) 127.3 2_566
C3 H3A O4 0.97 2.51 3.286(4) 136.7 1_565
C2 H2B O5 0.97 2.62 3.427(5) 140.9 2_557
C2 H2B O1 0.97 2.59 3.276(4) 127.6 1_455
C1 H1A O5 0.97 2.48 3.210(4) 131.9 2_557
C1 H1A O5 0.97 2.54 3.279(5) 133.3 .
N1 H1 O4 0.863(19) 2.56(3) 3.036(4) 116(3) .
N1 H1 O1 0.863(19) 2.46(4) 2.997(4) 121(3) .
O9 H9B O4 0.827(19) 2.04(3) 2.841(4) 162(5) 2_656
O9 H9A O8 0.799(19) 1.95(2) 2.751(4) 176(5) 2_666
O5 H5 O2 0.817(19) 1.80(2) 2.615(3) 175(4) 2_657
O3 H3 O8 0.817(19) 1.68(2) 2.493(4) 171(4) 2_666
O3 H3 O7 0.817(19) 2.54(4) 2.991(4) 116(3) 2_666
C3 H3B O8 0.97 2.65 3.331(4) 127.3 2_566
C3 H3A O4 0.97 2.51 3.286(4) 136.7 1_565
C2 H2B O5 0.97 2.62 3.427(5) 140.9 2_557
C2 H2B O1 0.97 2.59 3.276(4) 127.6 1_455
C1 H1A O5 0.97 2.48 3.210(4) 131.9 2_557
C1 H1A O5 0.97 2.54 3.279(5) 133.3 .
N1 H1 O4 0.863(19) 2.56(3) 3.036(4) 116(3) .
N1 H1 O1 0.863(19) 2.46(4) 2.997(4) 121(3) .
O9 H9B O4 0.827(19) 2.04(3) 2.841(4) 162(5) 2_656
O9 H9A O8 0.799(19) 1.95(2) 2.751(4) 176(5) 2_666
O5 H5 O2 0.817(19) 1.80(2) 2.615(3) 175(4) 2_657
O3 H3 O8 0.817(19) 1.68(2) 2.493(4) 171(4) 2_666
O3 H3 O7 0.817(19) 2.54(4) 2.991(4) 116(3) 2_666
O3 H3 O7 0.817(19) 2.54(4) 2.991(4) 116(3) 2_666
O3 H3 O8 0.817(19) 1.68(2) 2.493(4) 171(4) 2_666
O5 H5 O2 0.817(19) 1.80(2) 2.615(3) 175(4) 2_657
O9 H9A O8 0.799(19) 1.95(2) 2.751(4) 176(5) 2_666
O9 H9B O4 0.827(19) 2.04(3) 2.841(4) 162(5) 2_656
N1 H1 O1 0.863(19) 2.46(4) 2.997(4) 121(3) .
N1 H1 O4 0.863(19) 2.56(3) 3.036(4) 116(3) .
C1 H1A O5 0.97 2.54 3.279(5) 133.3 .
C1 H1A O5 0.97 2.48 3.210(4) 131.9 2_557
C2 H2B O1 0.97 2.59 3.276(4) 127.6 1_455
C2 H2B O5 0.97 2.62 3.427(5) 140.9 2_557
C3 H3A O4 0.97 2.51 3.286(4) 136.7 1_565
C3 H3B O8 0.97 2.65 3.331(4) 127.3 2_566
O3 H3 O7 0.817(19) 2.54(4) 2.991(4) 116(3) 2_666
O3 H3 O8 0.817(19) 1.68(2) 2.493(4) 171(4) 2_666
O5 H5 O2 0.817(19) 1.80(2) 2.615(3) 175(4) 2_657
O9 H9A O8 0.799(19) 1.95(2) 2.751(4) 176(5) 2_666
O9 H9B O4 0.827(19) 2.04(3) 2.841(4) 162(5) 2_656
N1 H1 O1 0.863(19) 2.46(4) 2.997(4) 121(3) .
N1 H1 O4 0.863(19) 2.56(3) 3.036(4) 116(3) .
C1 H1A O5 0.97 2.54 3.279(5) 133.3 .
C1 H1A O5 0.97 2.48 3.210(4) 131.9 2_557
C2 H2B O1 0.97 2.59 3.276(4) 127.6 1_455
C2 H2B O5 0.97 2.62 3.427(5) 140.9 2_557
C3 H3A O4 0.97 2.51 3.286(4) 136.7 1_565
C3 H3B O8 0.97 2.65 3.331(4) 127.3 2_566
loop_
_geom_torsion_atom_site_label_1
_geom_torsion_atom_site_label_2
_geom_torsion_atom_site_label_3
_geom_torsion_atom_site_label_4
_geom_torsion
_geom_torsion_site_symmetry_1
_geom_torsion_site_symmetry_4
O2 P1 O1 Ca1 96.5(5) . .
O3 P1 O1 Ca1 -137.5(5) . .
C1 P1 O1 Ca1 -23.2(5) . .
O1 P1 O2 Ca1 -90.7(3) . 2_657
O3 P1 O2 Ca1 143.3(2) . 2_657
C1 P1 O2 Ca1 28.7(3) . 2_657
O1 P1 O3 Ca1 176.2(3) . 1_565
O2 P1 O3 Ca1 -53.1(3) . 1_565
C1 P1 O3 Ca1 61.8(3) . 1_565
O6 P2 O4 Ca1 -143.7(2) . .
O5 P2 O4 Ca1 -16.8(3) . .
C2 P2 O4 Ca1 97.5(2) . .
O4 P2 O6 Ca1 -140.5(3) . 1_455
O5 P2 O6 Ca1 93.2(3) . 1_455
C2 P2 O6 Ca1 -21.4(3) . 1_455
C3 N1 C1 P1 -95.3(3) . .
C2 N1 C1 P1 139.9(2) . .
O1 P1 C1 N1 -45.4(3) . .
O2 P1 C1 N1 -172.1(2) . .
O3 P1 C1 N1 71.1(3) . .
C3 N1 C2 P2 156.1(2) . .
C1 N1 C2 P2 -79.0(3) . .
O6 P2 C2 N1 -170.0(2) . .
O4 P2 C2 N1 -42.4(3) . .
O5 P2 C2 N1 73.3(3) . .
C2 N1 C3 C4 -74.3(4) . .
C1 N1 C3 C4 160.5(3) . .
Ca1 O7 C4 O8 -13.5(6) 2_656 .
Ca1 O7 C4 C3 170.5(2) 2_656 .
N1 C3 C4 O7 -14.1(5) . .
N1 C3 C4 O8 169.5(3) . .
