#------------------------------------------------------------------------------
#$Date: 2016-03-24 14:28:49 +0200 (Thu, 24 Mar 2016) $
#$Revision: 179665 $
#$URL: svn://www.crystallography.net/cod/cif/4/51/18/4511861.cif $
#------------------------------------------------------------------------------
#
# This file is available in the Crystallography Open Database (COD),
# http://www.crystallography.net/
#
# All data on this site have been placed in the public domain by the
# contributors.
#
data_4511861
loop_
_publ_author_name
'Miyake, Ryosuke'
'Nakagawa, Yuki'
'Hase, Mariko'
_publ_section_title
;
 Selective Thermal Elongation of Metal--Metal Distances in the
 Two-Dimensional Assembly of Ag(I) Ions Templated by Assembled Peptide
 Ligands
;
_journal_issue                   10
_journal_name_full               'Crystal Growth &amp; Design'
_journal_page_first              4882
_journal_paper_doi               10.1021/cg5009347
_journal_volume                  14
_journal_year                    2014
_chemical_absolute_configuration ad
_chemical_formula_sum            'C7 H11 Ag2 N3 O5'
_chemical_formula_weight         432.93
_space_group_crystal_system      monoclinic
_space_group_IT_number           4
_space_group_name_Hall           'P 2yb'
_space_group_name_H-M_alt        'P 1 21 1'
_symmetry_space_group_name_Hall  'P 2yb'
_symmetry_space_group_name_H-M   'P 1 21 1'
_atom_sites_solution_hydrogens   geom
_cell_angle_alpha                90
_cell_angle_beta                 103.356(4)
_cell_angle_gamma                90
_cell_formula_units_Z            2
_cell_length_a                   4.8140(12)
_cell_length_b                   19.924(5)
_cell_length_c                   5.5056(14)
_cell_measurement_temperature    173
_cell_volume                     513.8(2)
_computing_cell_refinement       'SAINT V8.32B (Bruker AXS)'
_computing_data_collection       'Bruker SMART APEXII ULTRA'
_computing_data_reduction        'SAINT V8.32B (Bruker AXS)'
_computing_molecular_graphics    'XSHELL V6.3.1 (Bruker AXS)'
_computing_publication_material  'Generate Report (Bruker AXS)'
_computing_structure_refinement  'SHELXL-2013 (Sheldrick, 2013)'
_computing_structure_solution    'SHELXS-97 (Sheldrick, 1997)'
_diffrn_ambient_temperature      173
_diffrn_detector_area_resol_mean 8.333
_diffrn_measured_fraction_theta_full 0.963
_diffrn_measured_fraction_theta_max 0.963
_diffrn_measurement_device_type  'Bruker D8 goniometer'
_diffrn_measurement_method       'omega scans'
_diffrn_radiation_monochromator  'multilayered conforcal mirror'
_diffrn_radiation_type           MoK\a
_diffrn_radiation_wavelength     0.71073
_diffrn_reflns_av_R_equivalents  0.0263
_diffrn_reflns_limit_h_max       6
_diffrn_reflns_limit_h_min       -5
_diffrn_reflns_limit_k_max       24
_diffrn_reflns_limit_k_min       -27
_diffrn_reflns_limit_l_max       7
_diffrn_reflns_limit_l_min       -7
_diffrn_reflns_number            3778
_diffrn_reflns_theta_full        30.49
_diffrn_reflns_theta_max         30.49
_diffrn_reflns_theta_min         2.04
_diffrn_source                   'rotating-anode X-ray tube'
_diffrn_source_type              'Bruker Tourbo X-ray Source'
_exptl_absorpt_coefficient_mu    3.826
_exptl_absorpt_correction_T_max  0.96
_exptl_absorpt_correction_T_min  0.82
_exptl_absorpt_correction_type   empirical
_exptl_absorpt_process_details   'SADABS V2012/1 (Bruker AXS)'
_exptl_crystal_colour            colorless
_exptl_crystal_density_diffrn    2.798
_exptl_crystal_density_method    'not measured'
_exptl_crystal_description       plate
_exptl_crystal_F_000             416
_exptl_crystal_size_max          0.055
_exptl_crystal_size_mid          0.023
_exptl_crystal_size_min          0.010
_refine_diff_density_max         1.288
_refine_diff_density_min         -1.549
_refine_ls_abs_structure_details
;
Flack x determined using 876 quotients [(I+)-(I-)]/[(I+)+(I-)]
(Parsons and Flack (2004), Acta Cryst. A60, s61).
;
_refine_ls_abs_structure_Flack   -0.01(5)
_refine_ls_extinction_method     none
_refine_ls_goodness_of_fit_ref   1.063
_refine_ls_hydrogen_treatment    constr
_refine_ls_matrix_type           full
_refine_ls_number_parameters     154
_refine_ls_number_reflns         2517
_refine_ls_number_restraints     1
_refine_ls_restrained_S_all      1.063
_refine_ls_R_factor_all          0.0390
_refine_ls_R_factor_gt           0.0362
_refine_ls_shift/su_max          0.000
_refine_ls_shift/su_mean         0.000
_refine_ls_structure_factor_coef Fsqd
_refine_ls_weighting_details
'w=1/[\s^2^(Fo^2^)+(0.0493P)^2^+0.0701P] where P=(Fo^2^+2Fc^2^)/3'
_refine_ls_weighting_scheme      calc
_refine_ls_wR_factor_gt          0.0900
_refine_ls_wR_factor_ref         0.0916
_reflns_number_gt                2356
_reflns_number_total             2517
_reflns_threshold_expression     'I > 2\s(I)'
_cod_data_source_file            cg5009347_si_001.cif
_cod_data_source_block           p21_173K
_cod_depositor_comments
'Adding full bibliography for 4511859--4511871.cif.'
_cod_database_code               4511861
#BEGIN Tags that were not found in dictionaries:
_shelx_res_file
;
TITL p21(-100) in P2(1)
CELL 0.71073   4.81400  19.92410   5.50560  90.0000 103.3561  90.0000
ZERR    2.00   0.00120   0.00500   0.00140   0.0000   0.0041   0.0000
LATT -1
SYMM -X, 0.5+Y, -Z
SFAC C  H  N  O  Ag
UNIT 14  22  6  10  4
L.S. 10
SHEL 20 0.7
ACTA
BOND $h
FMAP 2
PLAN 20
size 0.055 0.023 0.010
TEMP -100
WGHT    0.049300    0.070100
FVAR       0.19111
AG1   5    0.212668    0.857781    0.428891    11.00000    0.02484    0.00928 =
         0.02848   -0.00233    0.00274    0.00426
AG2   5   -0.438123    0.866948   -0.008526    11.00000    0.02723    0.01307 =
         0.02637   -0.00227    0.00441    0.00486
C1    1   -0.024127    0.756352    0.025297    11.00000    0.01019    0.01882 =
         0.01702   -0.00053    0.00039   -0.00284
C2    1    0.141969    0.694421    0.145062    11.00000    0.01910    0.01404 =
         0.02300   -0.00041    0.00352    0.00266
AFIX  23
H2A   2    0.019259    0.654224    0.103689    11.00000   -1.20000
H2B   2    0.311106    0.688045    0.073882    11.00000   -1.20000
AFIX   0
C3    1    0.238321    0.700612    0.424722    11.00000    0.01286    0.00783 =
         0.02010    0.00182    0.00580   -0.00030
AFIX  13
H3    2    0.066951    0.704684    0.497434    11.00000   -1.20000
AFIX   0
C4    1    0.404476    0.637487    0.527661    11.00000    0.01285    0.01024 =
         0.02360    0.00428    0.00739    0.00020
C5    1    0.388279    0.524633    0.694290    11.00000    0.01700    0.00708 =
         0.02883    0.00163    0.01068   -0.00037
AFIX  13
H5    2    0.568495    0.520031    0.634734    11.00000   -1.20000
AFIX   0
C6    1    0.468966    0.525955    0.978357    11.00000    0.02025    0.01266 =
         0.02478   -0.00056    0.00672   -0.00004
AFIX  23
H6A   2    0.582422    0.566757    1.036131    11.00000   -1.20000
H6B   2    0.293707    0.527519    1.043316    11.00000   -1.20000
AFIX   0
C7    1    0.196770    0.465249    0.591885    11.00000    0.01715    0.00986 =
         0.02105    0.00180    0.00501    0.00135
N1    3    0.418771    0.760254    0.492061    11.00000    0.01563    0.00822 =
         0.02201   -0.00108    0.00213    0.00356
AFIX  23
H1A   2    0.570401    0.758747    0.397531    11.00000   -1.20000
H1B   2    0.513716    0.756940    0.671445    11.00000   -1.20000
AFIX   0
N2    3    0.253169    0.587677    0.596153    11.00000    0.01278    0.01114 =
         0.02904    0.00703    0.01045    0.00335
AFIX  43
H2    2    0.068607    0.592973    0.581838    11.00000   -1.20000
AFIX   0
N3    3    0.637243    0.465637    1.075958    11.00000    0.02084    0.01815 =
         0.01949    0.00696    0.00494    0.00342
AFIX  23
H3A   2    0.704186    0.471193    1.258850    11.00000   -1.20000
H3B   2    0.809006    0.465277    1.005867    11.00000   -1.20000
AFIX   0
O1    4    0.059207    0.789210   -0.133437    11.00000    0.03221    0.03638 =
         0.03172    0.01011    0.01733    0.00810
O2    4   -0.244362    0.771068    0.104945    11.00000    0.02423    0.01997 =
         0.04833    0.01182    0.02069    0.00816
O3    4    0.662338    0.632657    0.539904    11.00000    0.00792    0.01754 =
         0.06546    0.01809    0.01513    0.00351
O4    4    0.264058    0.428716    0.431376    11.00000    0.03093    0.03979 =
         0.04623   -0.02290    0.01593   -0.01138
O5    4   -0.022985    0.456009    0.679238    11.00000    0.01612    0.01926 =
         0.04188   -0.00648    0.01464   -0.00684
HKLF 4

REM  p21(-100) in P2(1)
REM R1 =  0.0362 for    2356 Fo > 4sig(Fo)  and  0.0390 for all    2517 data
REM    154 parameters refined using      1 restraints

END

WGHT      0.0493      0.0701

REM Highest difference peak  1.288,  deepest hole -1.549,  1-sigma level  0.178
Q1    1   0.3587  0.8594  0.4793  11.00000  0.05    1.29
Q2    1   0.1326  0.8542  0.5107  11.00000  0.05    1.17
Q3    1   0.0485  0.8705  0.2964  11.00000  0.05    1.00
Q4    1  -0.2796  0.8587  0.0917  11.00000  0.05    1.00
Q5    1  -0.6212  0.8631 -0.0736  11.00000  0.05    0.99
Q6    1  -0.4517  0.8673  0.1527  11.00000  0.05    0.99
Q7    1   0.2493  0.8613  0.2528  11.00000  0.05    0.92
Q8    1  -0.2542  0.8691  0.0268  11.00000  0.05    0.86
Q9    1   0.1907  0.8409  0.2979  11.00000  0.05    0.85
Q10   1  -0.4586  0.8734 -0.1913  11.00000  0.05    0.82
Q11   1  -0.2622  0.8853  0.1273  11.00000  0.05    0.77
Q12   1   0.1246  0.8657 -0.1453  11.00000  0.05    0.77
Q13   1  -0.2447  0.8610  0.2649  11.00000  0.05    0.68
Q14   1  -0.7410  0.8668  0.1130  11.00000  0.05    0.68
Q15   1  -0.1149  0.8613 -0.1411  11.00000  0.05    0.67
Q16   1   0.8872  0.4066  1.0435  11.00000  0.05    0.65
Q17   1   0.1064  0.3589  0.2968  11.00000  0.05    0.62
Q18   1   0.3697  0.8626  0.6257  11.00000  0.05    0.61
Q19   1   0.2518  0.8797  0.5615  11.00000  0.05    0.60
Q20   1   0.1641  0.8786  0.3229  11.00000  0.05    0.59
;
_shelx_res_checksum              45231
_shelx_hkl_file
;
   1   0   0  139.81    6.45
   1   0   0  143.13    5.96
   2   0   0   16.61    0.91
   2   0   0   16.21    0.98
   3   0   0   43.97    2.09
   3   0   0   41.39    2.26
   4   0   0   32.27    1.95
   4   0   0   31.75    1.80
   5   0   0   68.68    3.35
   5   0   0   63.22    3.55
   6   0   0   13.74    1.38
   0  -1   0   -1.50    0.03
   0  -1   0   -1.52    0.01
   0   1   0   -1.50    0.02
   0   1   0   -1.51    0.02
   1  -1   0   94.37    4.34
   1  -1   0   96.67    4.00
   1   1   0   93.30    4.01
   1   1   0   93.07    4.35
   2  -1   0  227.76    9.54
   2  -1   0  221.59   10.34
   2   1   0  230.42    9.56
   2   1   0  223.67   10.35
   3  -1   0  140.60    6.02
   3  -1   0  137.38    6.53
   3   1   0  139.56    6.53
   3   1   0  134.42    6.02
   4  -1   0   10.69    0.97
   4  -1   0   11.40    1.07
   4   1   0   13.13    1.01
   4   1   0   10.31    1.06
   5  -1   0   11.15    1.27
   5  -1   0   11.52    1.15
   5   1   0   12.83    1.17
   5   1   0   12.48    1.35
   6  -1   0   38.04    2.37
   6   1   0   39.26    2.41
   0  -2   0 1000.00   46.61
   1  -2   0   44.31    2.13
   1  -2   0   45.50    2.33
   1   2   0   49.88    2.36
   1   2   0   51.01    2.17
   1   2   0   56.91    3.17
   2  -2   0    1.30    0.25
   2  -2   0    1.77    0.34
   2   2   0    1.01    0.26
   2   2   0    0.65    0.32
   3  -2   0  106.97    4.64
   3  -2   0  102.93    5.02
   3   2   0  102.18    5.03
   3   2   0  105.88    4.66
   4  -2   0   31.07    1.66
   4  -2   0   26.90    1.78
   4   2   0   27.59    1.80
   4   2   0   29.73    1.70
   5  -2   0   41.00    2.28
   5  -2   0   40.74    2.47
   5   2   0   43.41    2.35
   5   2   0   36.82    2.41
   6  -2   0   10.05    1.16
   6   2   0    8.94    1.17
   0  -3   0   -0.58    0.09
   1  -3   0   63.29    2.88
   1  -3   0   64.58    3.16
  -1  -3   0   68.52    3.14
   1   3   0   74.45    4.31
   1   3   0   67.50    2.93
   2  -3   0  167.71    7.18
   2  -3   0  165.63    7.80
   2   3   0  168.90    7.83
   2   3   0  172.99   10.63
   2   3   0  170.33    7.23
   3  -3   0  234.59   10.73
   3  -3   0  239.33    9.89
   3   3   0  211.56   14.53
   3   3   0  236.68   10.75
   3   3   0  238.43    9.94
   4  -3   0    4.46    0.64
   4  -3   0    4.94    0.77
   4   3   0    3.87    0.61
   4   3   0    5.58    0.83
   5  -3   0    7.31    0.89
   5  -3   0    5.82    0.98
   5   3   0    5.85    0.99
   5   3   0    5.90    0.86
   6  -3   0   39.01    2.36
   6   3   0   38.34    2.45
   0  -4   0  457.75   20.75
   1  -4   0  142.69    6.93
   1  -4   0  142.93    6.35
  -1  -4   0  152.23    6.92
   1   4   0  161.49    9.56
   1   4   0  158.29    6.43
   2  -4   0   23.26    1.21
   2  -4   0   23.77    1.35
   2   4   0   25.44    1.68
   2   4   0   26.34    1.28
   3  -4   0   88.03    3.83
   3  -4   0   86.82    4.18
   3   4   0   79.95    5.43
   3   4   0   87.30    3.88
   3   4   0   85.01    4.18
   4  -4   0    9.48    1.03
   4  -4   0   11.46    0.93
   4   4   0    9.80    0.96
   4   4   0   11.65    1.15
   5  -4   0   23.93    1.53
   5  -4   0   20.00    1.62
   5   4   0   20.59    1.57
   6  -4   0   10.21    1.19
   6   4   0    9.62    1.21
   0  -5   0   -1.10    0.17
   1  -5   0   81.14    3.68
   1  -5   0   82.48    4.05
  -1  -5   0   84.63    4.03
   1   5   0   96.56    3.78
   1   5   0   89.72    5.55
   2  -5   0  299.73   13.49
   2  -5   0  287.11   12.38
  -2  -5   0  283.60   13.42
   2   5   0  307.40   18.51
   2   5   0  297.19   12.46
   3  -5   0  329.55   15.00
   3  -5   0  331.77   13.80
  -3  -5   0  314.84   14.88
   3   5   0  337.46   13.87
   3   5   0  318.11   20.44
   4  -5   0    0.92    0.53
   4  -5   0    0.89    0.40
   4   5   0    1.57    0.47
   5  -5   0    7.35    0.87
   5  -5   0    6.72    1.04
   5   5   0    8.19    0.98
   6  -5   0   35.72    2.18
   6   5   0   32.42    2.27
   0  -6   0  363.66   16.55
   1  -6   0  149.09    6.67
   1  -6   0  155.58    7.31
  -1  -6   0  156.99    7.28
   1   6   0  174.72    6.78
   1   6   0  158.55   10.07
  -2  -6   0    4.67    0.44
   2  -6   0    5.04    0.54
   2  -6   0    4.81    0.42
   2   6   0    5.39    0.53
   2   6   0    4.99    0.51
   3  -6   0  160.38    7.56
   3  -6   0  164.21    6.92
  -3  -6   0  155.33    7.45
   3   6   0  165.54    7.01
   3   6   0  156.68   10.14
   4  -6   0    8.19    0.79
  -4  -6   0    6.90    0.73
   4  -6   0    9.02    0.96
   4   6   0    8.65    0.87
   5  -6   0   25.16    1.63
   5  -6   0   23.56    1.81
   5   6   0   26.13    1.76
   6  -6   0    9.47    1.13
   6   6   0    9.45    1.21
   0  -7   0    0.06    0.23
  -1  -7   0  247.42   11.60
   1  -7   0  248.33   10.65
   1  -7   0  251.52   11.64
   1   7   0  273.65   10.77
   1   7   0  252.27   16.06
   2  -7   0  172.28    8.10
   2  -7   0  167.87    7.40
  -2  -7   0  171.31    8.04
   2   7   0  184.25    7.53
   2   7   0  178.08   11.07
  -3  -7   0  354.75   16.38
   3  -7   0  359.08   16.49
   3  -7   0  367.71   15.14
   3   7   0  364.33   15.25
   3   7   0  349.30   22.52
  -4  -7   0    2.52    0.49
   4  -7   0    3.35    0.57
   4  -7   0    4.13    0.75
   4   7   0    2.57    0.55
   5  -7   0    4.91    0.97
   5  -7   0    6.31    0.83
   5   7   0    7.38    0.95
   6  -7   0   26.70    1.89
   6   7   0   29.64    2.07
   0  -8   0  726.98   32.87
   1  -8   0  195.86    8.57
  -1  -8   0  191.92    9.36
   1  -8   0  203.32    9.40
   1   8   0  210.05   12.98
   1   8   0  220.58    8.71
   2  -8   0   46.56    2.17
  -2  -8   0   49.39    2.41
   2  -8   0   48.13    2.47
   2   8   0   47.74    3.24
   2   8   0   49.53    2.30
   3  -8   0   63.89    3.22
   3  -8   0   65.27    2.87
  -3  -8   0   61.34    3.08
   3   8   0   60.19    4.10
   3   8   0   60.86    2.97
   4  -8   0   15.90    1.06
  -4  -8   0   15.18    1.05
   4  -8   0   14.89    1.26
   4   8   0   13.23    1.16
   5  -8   0   39.19    2.56
   5  -8   0   44.84    2.33
   5   8   0   41.77    2.44
   6   8   0    7.83    1.12
   0  -9   0   -0.08    0.25
   1  -9   0   49.23    2.22
   1  -9   0   50.06    2.53
  -1  -9   0   49.33    2.50
   1   9   0   55.13    2.37
   1   9   0   49.10    3.44
   2  -9   0   45.17    2.31
   2  -9   0   41.55    1.99
  -2  -9   0   43.29    2.22
   2   9   0   45.66    3.02
   2   9   0   43.47    2.12
   3  -9   0  101.38    4.39
   3  -9   0  100.98    4.90
  -3  -9   0   98.30    4.76
   3   9   0   96.38    4.50
   3   9   0   98.77    6.44
   4  -9   0   10.34    1.16
  -4  -9   0    8.12    0.80
   4  -9   0    9.57    0.83
   4   9   0   10.34    1.01
   5  -9   0    7.54    0.88
   5  -9   0    6.08    1.03
   5   9   0    9.60    1.08
   6   9   0   28.49    2.06
   0 -10   0  839.62   37.98
   1 -10   0   37.76    1.77
  -1 -10   0   40.49    2.04
   1 -10   0   40.11    2.07
   2 -10   0    3.91    0.58
  -2 -10   0    5.13    0.59
   2 -10   0    3.61    0.36
   2  10   0    3.69    0.61
   2  10   0    4.22    0.54
   3 -10   0   42.20    2.45
  -3 -10   0   44.09    2.34
   3 -10   0   45.65    2.15
   3  10   0   47.27    3.11
   3  10   0   43.06    2.26
   4 -10   0   19.10    1.48
  -4 -10   0   19.80    1.30
   4  10   0   20.33    1.40
   5 -10   0   44.62    2.73
   5  10   0   45.38    2.59
   6  10   0    7.97    1.13
   0 -11   0    0.51    0.31
   1 -11   0   74.09    3.61
   1 -11   0   70.71    3.17
  -1 -11   0   74.54    3.58
   2 -11   0   81.78    3.63
  -2 -11   0   82.62    4.04
   2 -11   0   85.28    4.13
   2  11   0   83.22    3.80
   3 -11   0  137.69    5.77
  -3 -11   0  131.19    6.28
   3 -11   0  132.33    6.41
   3  11   0  127.78    5.89
  -4 -11   0   27.87    1.64
   4 -11   0   27.79    1.83
   4  11   0   23.62    1.63
   5 -11   0    6.08    1.05
   5  11   0    6.47    0.95
   0 -12   0  842.54   38.18
  -1 -12   0   51.82    2.61
   1 -12   0   49.20    2.25
   1 -12   0   50.43    2.62
   2 -12   0   26.98    1.36
   2 -12   0   28.74    1.70
  -2 -12   0   28.06    1.59
   2  12   0   28.58    1.55
  -3 -12   0   60.95    3.17
   3 -12   0   66.82    2.90
   3 -12   0   63.83    3.32
   3  12   0   58.03    3.02
  -4 -12   0   26.85    1.64
   4 -12   0   26.99    1.85
   4  12   0   25.65    1.66
   5  12   0   28.57    1.94
   0 -13   0    0.61    0.35
  -1 -13   0   38.40    2.06
   1 -13   0   36.62    1.73
   1 -13   0   37.11    2.08
   2 -13   0  140.07    6.13
  -2 -13   0  143.77    6.79
   2 -13   0  144.90    6.87
   2  13   0  143.94    6.33
   3 -13   0  108.98    4.66
  -3 -13   0  108.35    5.14
   3 -13   0  104.38    5.25
   3  13   0   99.18    4.81
   4 -13   0   32.88    2.15
  -4 -13   0   34.38    1.95
   4  13   0   30.74    1.93
   5 -13   0    0.53    0.74
   5  13   0    2.20    0.68
   0 -14   0  297.07   13.75
   1 -14   0   45.90    2.23
  -1 -14   0   52.47    2.64
   1 -14   0   51.23    2.66
  -2 -14   0   54.68    2.79
   2 -14   0   53.98    2.89
   2 -14   0   51.68    2.42
   3 -14   0   42.36    2.45
  -3 -14   0   43.77    2.31
   3  14   0   38.69    2.18
  -4 -14   0   15.30    1.17
   4 -14   0   13.95    1.36
   4  14   0   13.75    1.20
   5 -14   0    8.42    1.22
   5  14   0   12.37    1.27
   0 -15   0    0.28    0.39
   1 -15   0   70.86    3.51
   1 -15   0   62.93    2.98
  -1 -15   0   69.70    3.47
   2 -15   0   67.72    3.62
  -2 -15   0   70.71    3.55
   3 -15   0  111.58    5.44
  -3 -15   0  111.32    5.30
   3  15   0  100.11    4.92
   4 -15   0   19.49    1.63
  -4 -15   0   20.35    1.38
   4  15   0   17.83    1.37
   5 -15   0    3.11    0.90
   5  15   0    5.69    0.88
   0 -16   0   97.48    4.85
  -1 -16   0   43.28    2.32
   1 -16   0   42.31    2.34
   1 -16   0   37.04    1.88
  -2 -16   0   28.59    1.75
   2 -16   0   28.44    1.85
  -3 -16   0   45.00    2.52
   3 -16   0   45.30    2.67
  -4 -16   0    9.96    0.98
   4 -16   0    6.71    1.09
   4  16   0    9.47    1.02
   5 -16   0    3.60    0.99
   5  16   0    5.50    0.87
   0 -17   0   -0.02    0.39
  -1 -17   0   36.52    2.13
   1 -17   0   35.54    2.16
  -2 -17   0   58.37    3.18
   2 -17   0   61.15    3.29
   3 -17   0   83.54    4.38
  -3 -17   0   80.96    4.21
  -4 -17   0    1.54    0.57
   4 -17   0    1.48    0.78
   5 -17   0    2.24    0.94
   5  17   0    3.91    0.75
   0 -18   0  363.57   16.86
   1 -18   0   67.35    3.56
  -1 -18   0   64.91    3.49
   2 -18   0   16.48    1.42
  -2 -18   0   16.68    1.28
  -3 -18   0   26.84    1.79
   3 -18   0   27.74    1.96
  -4 -18   0    5.81    0.89
   4 -18   0    3.84    0.97
   5 -18   0    8.28    1.27
   0 -19   0    0.60    0.46
   1 -19   0   88.09    4.63
  -1 -19   0   90.37    4.59
  -2 -19   0   28.34    1.84
   2 -19   0   27.61    1.95
   3 -19   0   71.00    3.92
  -3 -19   0   68.91    3.74
  -4 -19   0   22.98    1.67
   4 -19   0   21.44    1.91
   5 -19   0    3.53    1.07
   0 -20   0  150.15    7.35
   1 -20   0   59.18    3.30
  -1 -20   0   57.61    3.23
  -2 -20   0   18.75    1.44
   2 -20   0   18.09    1.56
  -3 -20   0   24.12    1.68
   3 -20   0   21.97    1.84
   4 -20   0    9.32    1.36
  -4 -20   0   13.57    1.37
   0 -21   0    1.09    0.52
   1 -21   0   49.98    2.92
  -1 -21   0   47.87    2.84
   2 -21   0   13.76    1.39
  -2 -21   0   13.80    1.25
   3 -21   0   32.16    2.32
  -3 -21   0   33.06    2.13
   4 -21   0   21.39    1.94
   0 -22   0  102.41    5.28
  -1 -22   0   21.99    1.66
   1 -22   0   21.32    1.72
   2 -22   0   18.77    1.64
  -2 -22   0   17.45    1.46
   3 -22   0   12.12    1.55
  -3 -22   0   13.34    1.29
   4 -22   0    6.35    1.26
   0 -23   0    0.45    0.55
  -1 -23   0   27.37    1.97
   1 -23   0   29.61    2.09
   2 -23   0   25.34    1.96
  -2 -23   0   23.32    1.77
   3 -23   0   32.88    2.41
  -3 -23   0   31.37    2.18
   0 -24   0   48.84    2.97
  -1 -24   0   12.08    1.28
   1 -24   0   14.60    1.44
   2 -24   0   24.15    1.97
  -2 -24   0   23.53    1.82
   3 -24   0   28.64    2.24
  -3 -24   0   25.33    1.94
   0 -25   0    0.31    0.58
  -1 -25   0   32.99    2.26
   1 -25   0   32.77    2.34
  -2 -25   0   27.56    2.03
   2 -25   0   27.57    2.17
  -3 -25   0   57.95    3.42
   0 -26   0   53.92    3.29
   1 -26   0   31.84    2.38
  -1 -26   0   34.22    2.33
   2 -26   0   56.19    3.44
  -2 -26   0   51.23    3.22
   0 -27   0    0.06    0.64
   1 -27   0   27.51    2.16
  -1 -27   0   26.59    2.05
  -2 -27   0    4.96    1.01
   6   0  -1   -0.09    0.55
   5   0  -1    9.71    1.02
   4   0  -1   34.66    1.98
   4   0  -1   35.98    1.92
   3   0  -1    4.52    0.49
   3   0  -1    4.14    0.48
   2   0  -1  724.00   30.17
   1   0  -1   68.04    2.92
   0   0   1   11.26    0.68
   1   0   1  252.81    9.93
   1   0   1  245.41   10.80
  -1   0  -1  211.61   14.77
   2   0   1  317.31   14.30
   2   0   1  306.87   13.13
   3   0   1   15.73    0.99
   3   0   1   14.06    1.15
   4   0   1    1.36    0.52
   4   0   1    2.09    0.75
   5   0   1   14.83    1.49
   5   0   1   17.36    1.39
   6   0   1    1.81    0.71
   6  -1  -1    2.36    0.72
   6   1  -1    1.47    0.68
   5  -1  -1  111.03    5.10
   5   1  -1  108.23    5.10
   4  -1  -1  106.66    4.86
   4   1  -1  108.06    4.88
   3  -1  -1   11.62    0.83
   3  -1  -1   13.15    0.84
   3   1  -1   13.13    0.87
   3   1  -1   12.32    0.85
   2  -1  -1  104.52    4.84
   2  -1  -1  106.64    4.54
   2   1  -1  104.41    4.55
   1  -1  -1  443.42   18.11
   1   1  -1  425.64   18.09
   0  -1   1   83.41    4.00
   0   1   1   90.30    4.04
   1  -1   1  194.93    7.77
   1  -1   1  184.13    8.47
   1   1   1  170.53    8.47
   1   1   1  188.52    7.81
   2  -1   1    4.49    0.57
   2  -1   1    3.92    0.40
   2   1   1    2.63    0.38
   2   1   1    4.06    0.58
   3  -1   1   25.44    1.35
   3  -1   1   22.94    1.53
   3   1   1   23.32    1.55
   3   1   1   23.67    1.36
   4  -1   1  197.63    8.49
   4  -1   1  191.48    9.27
   4   1   1  190.01    9.26
   4   1   1  196.31    8.52
   5  -1   1   23.70    1.78
   5  -1   1   23.62    1.58
   5   1   1   18.47    1.71
   5   1   1   19.63    1.54
   6  -1   1    1.91    0.72
   6   1   1    1.24    0.69
   6  -2  -1    0.35    0.57
   6   2  -1   -0.06    0.56
   5  -2  -1    3.73    0.68
   5   2  -1    2.88    0.65
   4  -2  -1   48.05    2.44
   4  -2  -1   48.10    2.56
   4   2  -1   51.91    2.48
   4   2  -1   46.56    2.54
   3  -2  -1    2.24    0.39
   3  -2  -1    2.88    0.40
   3   2  -1    3.11    0.43
   3   2  -1    2.40    0.41
   2  -2  -1  310.31   13.55
   2  -2  -1  325.88   14.63
   2   2  -1  332.49   13.57
   1  -2  -1  293.44   12.32
   1  -2  -1  294.98   13.30
   1   2  -1  295.55   12.30
   0  -2  -1   42.31    2.04
   0  -2   1   43.28    2.04
   1  -2   1  521.90   25.21
   1  -2   1  557.00   23.20
   1   2   1  604.69   23.28
   1   2   1  547.11   25.24
   2  -2   1  219.73    9.43
   2  -2   1  223.78   10.31
   2   2   1  225.42    9.48
   2   2   1  223.37   10.32
   3  -2   1   41.51    2.33
   3  -2   1   41.99    2.06
   3   2   1   42.35    2.34
   3   2   1   41.63    2.10
   4  -2   1    9.98    1.19
   4  -2   1    8.77    0.92
   4   2   1   10.08    1.21
   4   2   1    9.69    0.98
   5  -2   1   11.69    1.43
   5  -2   1   12.48    1.19
   5   2   1   12.51    1.42
   5   2   1   13.57    1.24
   6  -2   1   11.15    1.31
   6   2   1   13.05    1.38
   6  -3  -1    2.25    0.69
   6   3  -1    1.32    0.66
   5  -3  -1   39.90    2.23
   5   3  -1   40.36    2.27
   4  -3  -1   86.42    4.45
   4  -3  -1   95.14    4.20
   4   3  -1   92.49    4.22
   3  -3  -1   10.20    0.75
   3  -3  -1   11.07    0.78
   3   3  -1   10.60    0.80
   2  -3  -1  115.87    5.28
   2  -3  -1  113.13    4.92
   2   3  -1  113.51    4.94
   1  -3  -1  417.35   18.79
   1  -3  -1  411.99   17.37
   1   3  -1  434.89   26.09
   1   3  -1  401.34   17.35
   0  -3  -1    2.97    0.29
   0  -3   1    3.13    0.30
   1  -3   1  387.34   15.88
   1  -3   1  383.49   17.30
   1   3   1  394.34   15.98
   1   3   1  358.82   17.32
   2  -3   1   13.23    0.76
   2  -3   1   15.00    0.96
   2   3   1   13.22    0.85
   2   3   1   12.55    0.98
   3  -3   1   15.06    1.18
   3  -3   1   16.22    0.98
   3   3   1   15.49    1.03
   3   3   1   14.58    1.22
   4  -3   1  147.38    7.06
   4  -3   1  150.48    6.42
   4   3   1  136.58    7.02
   4   3   1  141.64    6.46
   5  -3   1   10.17    1.07
   5  -3   1    8.04    1.18
   5   3   1    9.54    1.25
   5   3   1    8.35    1.03
   6  -3   1    1.60    0.69
   6   3   1    1.08    0.66
   6  -4  -1   -0.27    0.48
   6   4  -1    0.31    0.59
   5  -4  -1    6.65    0.86
   5   4  -1    5.17    0.80
  -4  -4   1   37.22    1.97
   4  -4  -1   37.06    2.12
   4  -4  -1   39.16    2.02
   4   4  -1   40.99    2.07
   3  -4  -1    9.23    0.71
  -3  -4   1    8.87    0.61
   3  -4  -1   10.18    0.75
   3   4  -1   10.14    0.78
   3   4  -1    9.56    0.87
  -2  -4   1  353.15   16.92
   2  -4  -1  373.14   16.99
   2  -4  -1  364.51   15.70
   2   4  -1  397.67   23.55
   2   4  -1  385.58   15.73
   1  -4  -1   66.55    2.90
  -1  -4   1   67.32    3.08
   1  -4  -1   65.50    3.11
   1   4  -1   69.49    4.36
   1   4  -1   63.39    2.86
   0  -4   1   32.63    1.57
   0  -4  -1   32.85    1.57
   0   4  -1   29.13    2.21
   1  -4   1  487.08   19.53
   1  -4   1  488.17   21.29
  -1   4  -1  433.11   29.42
   2  -4   1  285.45   13.08
   2  -4   1  278.42   11.96
   2   4   1  289.82   12.06
   2   4   1  285.05   13.11
   3  -4   1    8.68    0.70
   3  -4   1    9.46    1.00
   3   4   1    7.69    0.76
   3   4   1    8.90    1.01
   4  -4   1    8.07    0.85
   4  -4   1    8.47    1.10
   4   4   1    7.65    0.89
   4   4   1    8.87    1.15
   5  -4   1    6.47    1.11
   5  -4   1    6.34    0.89
   5   4   1    5.45    0.88
   5   4   1    6.49    1.09
   6  -4   1   14.56    1.44
   6   4   1   15.36    1.51
   6  -5  -1    0.09    0.53
   6   5  -1    0.40    0.58
   5  -5  -1   44.20    2.35
   5   5  -1   42.31    2.41
   4  -5  -1  127.73    6.23
   4  -5  -1  133.13    5.80
  -4  -5   1  127.52    6.09
   4   5  -1  133.07    5.86
   3  -5  -1   10.76    0.84
   3  -5  -1   12.73    0.81
  -3  -5   1   10.97    0.70
   3   5  -1   11.69    1.02
   3   5  -1   11.00    0.86
   2  -5  -1   70.34    3.27
  -2  -5   1   70.35    3.46
   2  -5  -1   74.77    3.53
   2   5  -1   78.23    3.32
   2   5  -1   79.47    4.90
   1  -5  -1  303.34   14.05
   1  -5  -1  296.20   12.97
  -1  -5   1  310.38   14.02
   1   5  -1  334.28   19.52
   1   5  -1  304.45   12.94
   0  -5  -1   33.22    1.63
   0  -5   1   32.87    1.62
   0   5  -1   30.98    2.30
  -1  -5  -1  257.08   10.98
   1  -5   1  255.43   11.01
  -1   5  -1  208.40   15.19
   2  -5   1   11.27    0.86
   2  -5   1   11.27    0.68
   2   5   1   12.67    0.81
   3  -5   1   22.10    1.19
   3  -5   1   20.03    1.40
   3   5   1   20.31    1.26
   3   5   1   20.22    1.44
   4  -5   1  147.09    6.22
   4  -5   1  134.11    6.84
   4   5   1  136.86    6.29
   5  -5   1   13.61    1.44
   5  -5   1   15.09    1.25
   5   5   1   15.34    1.36
   6   5   1    3.11    0.84
   6  -6  -1   -0.19    0.49
   6   6  -1   -0.19    0.53
   5  -6  -1    4.53    0.71
   5   6  -1    3.78    0.74
  -4  -6   1   43.53    2.26
   4  -6  -1   43.90    2.25
   4  -6  -1   42.85    2.42
   4   6  -1   48.75    2.36
   3  -6  -1    7.34    0.70
  -3  -6   1    6.09    0.51
   3  -6  -1    6.28    0.60
   3   6  -1    5.99    0.71
   3   6  -1    7.21    0.68
   2  -6  -1  462.51   20.70
   2  -6  -1  437.52   19.10
  -2  -6   1  440.56   20.63
   2   6  -1  470.29   28.66
   2   6  -1  471.23   19.13
   1  -6  -1  101.50    4.75
  -1  -6   1  103.04    4.72
   1  -6  -1   96.49    4.36
   1   6  -1   98.08    4.34
   1   6  -1  109.97    6.62
   0  -6   1   44.09    2.17
   0  -6  -1   44.46    2.17
  -1  -6  -1  664.34   29.56
   1  -6   1  673.76   29.59
  -1   6  -1  623.46   40.99
   2  -6   1  147.29    6.94
   2  -6   1  149.06    6.27
  -2  -6  -1  143.33    6.86
   2   6   1  149.78    6.41
   3  -6   1   17.53    1.03
   3  -6   1   17.89    1.29
   3   6   1   17.09    1.14
   4  -6   1    0.68    0.60
   4  -6   1    0.90    0.41
   4   6   1    0.58    0.44
   5  -6   1   17.81    1.33
  -5  -6  -1   16.55    1.31
   5  -6   1   17.32    1.60
   5   6   1   16.60    1.44
   6   6   1    5.30    1.02
   6  -7  -1    1.91    0.63
   6   7  -1    1.22    0.65
   5  -7  -1   66.71    3.28
   5   7  -1   65.18    3.37
   4  -7  -1   83.30    4.26
  -4  -7   1   82.98    4.09
   4  -7  -1   86.26    3.95
   4   7  -1   90.01    4.04
   3  -7  -1   24.19    1.28
  -3  -7   1   22.59    1.25
   3  -7  -1   24.11    1.40
   3   7  -1   23.66    1.76
   3   7  -1   21.35    1.32
   2  -7  -1   62.14    3.11
   2  -7  -1   62.15    2.87
  -2  -7   1   62.36    3.04
   2   7  -1   65.40    2.90
   2   7  -1   67.92    4.29
  -1  -7   1  468.67   21.35
   1  -7  -1  474.28   21.38
   1  -7  -1  443.00   19.69
   1   7  -1  504.66   29.65
   1   7  -1  467.66   19.68
   0  -7   1   59.14    2.81
   0  -7  -1   56.97    2.80
   1  -7   1  343.83   14.73
  -1  -7  -1  338.94   14.70
  -1   7  -1  284.32   20.40
   2  -7   1   14.54    1.03
   2  -7   1   14.55    0.79
  -2  -7  -1   14.56    0.95
   2   7   1   15.51    0.96
   3  -7   1   10.49    1.02
  -3  -7  -1   10.17    0.84
   3  -7   1   11.50    0.78
   3   7   1   10.96    0.88
   4  -7   1   88.82    4.53
  -4  -7  -1   86.52    4.34
   4   7   1   86.59    4.15
  -5  -7  -1   21.49    1.52
   5  -7   1   21.07    1.78
   5   7   1   20.39    1.60
   6   7   1    0.18    0.68
   6  -8  -1    1.97    0.67
   6   8  -1    1.97    0.76
   5  -8  -1    1.64    0.54
   5   8  -1    2.43    0.66
  -4  -8   1   43.19    2.29
   4  -8  -1   48.16    2.29
   4  -8  -1   46.58    2.48
   4   8  -1   40.39    2.31
  -3  -8   1   12.18    0.80
   3  -8  -1   13.10    0.86
   3  -8  -1   12.23    0.94
   3   8  -1   12.54    1.13
   3   8  -1   12.23    0.91
   2  -8  -1  299.96   13.46
  -2  -8   1  293.22   13.39
   2  -8  -1  288.84   12.39
   2   8  -1  302.71   18.61
   2   8  -1  284.23   12.41
   1  -8  -1   94.35    4.41
  -1  -8   1   92.49    4.36
   1   8  -1   90.36    4.00
   1   8  -1   93.43    6.10
   0  -8  -1   62.42    3.21
   0  -8   1   65.12    3.21
   0   8  -1   72.97    4.54
  -1  -8  -1  325.31   14.80
   1  -8   1  323.11   14.83
   2  -8   1  137.97    6.66
  -2  -8  -1  137.57    6.57
   2  -8   1  143.67    5.97
   2   8   1  141.80    6.15
  -3  -8  -1   16.89    1.13
   3  -8   1   14.85    1.26
   3  -8   1   18.93    1.03
   3   8   1   16.71    1.15
  -4  -8  -1   12.85    1.05
   4  -8   1   13.39    1.25
   4   8   1   11.17    1.10
   5  -8   1   13.60    1.45
  -5  -8  -1   13.34    1.21
   5   8   1   15.24    1.41
   6  -9  -1    2.09    0.67
   6   9  -1    1.90    0.72
   5  -9  -1   63.43    3.13
   5   9  -1   59.77    3.20
   4  -9  -1   45.86    2.32
   4  -9  -1   45.44    2.54
   4   9  -1   45.63    2.41
  -3  -9   1   10.43    0.72
   3  -9  -1    9.97    0.76
   3  -9  -1    9.04    0.85
   3   9  -1    8.71    0.80
   3   9  -1   10.71    1.01
   2  -9  -1   91.02    4.45
  -2  -9   1   89.51    4.38
   2  -9  -1   87.59    4.06
   2   9  -1  102.14    6.15
   2   9  -1   92.36    4.10
  -1  -9   1  346.50   16.34
   1  -9  -1  342.43   16.37
   1   9  -1  371.59   22.71
   1   9  -1  375.11   15.07
   0  -9   1   24.17    1.34
   0  -9  -1   22.63    1.34
   0   9  -1   25.10    1.91
   1  -9   1   80.61    3.94
  -1  -9  -1   81.75    3.91
  -2  -9  -1   15.12    1.00
   2  -9   1   15.86    1.09
   2  -9   1   14.89    0.80
   2   9   1   15.40    1.04
  -3  -9  -1   30.38    1.70
   3  -9   1   30.07    1.86
   3  -9   1   30.70    1.52
   3   9   1   26.81    1.65
   4  -9   1  150.21    7.40
  -4  -9  -1  156.50    7.23
   4   9   1  145.38    6.79
  -5  -9  -1   18.92    1.39
   5  -9   1   16.18    1.63
   5   9   1   17.70    1.53
   6 -10  -1    1.33    0.66
   6  10  -1    1.68    0.71
   5 -10  -1    3.45    0.67
   5  10  -1    4.00    0.78
   4 -10  -1   22.12    1.37
   4 -10  -1   20.60    1.52
   4  10  -1   24.78    1.51
   3 -10  -1    9.62    0.88
   3 -10  -1    9.61    0.76
  -3 -10   1    9.38    0.71
   3  10  -1    9.89    1.02
   3  10  -1    9.40    0.82
   2 -10  -1  192.60    8.97
   2 -10  -1  194.08    8.22
  -2 -10   1  190.54    8.90
   2  10  -1  195.93   12.37
   2  10  -1  189.12    8.25
   1 -10  -1  109.16    5.42
  -1 -10   1  110.66    5.38
   1  10  -1  114.90    7.51
   1  10  -1  121.54    4.96
   0 -10  -1  112.48    5.45
   0 -10   1  112.73    5.44
   0  10  -1  119.99    7.61
  -1 -10  -1  205.71    9.51
   1 -10   1  205.30    9.55
   2 -10   1  106.25    5.11
   2 -10   1  104.95    4.50
  -2 -10  -1  103.75    5.03
  -3 -10  -1   20.45    1.32
   3 -10   1   21.38    1.48
   3  10   1   20.15    1.32
   4 -10   1    2.10    0.72
  -4 -10  -1    1.97    0.58
   4  10   1    1.67    0.55
  -5 -10  -1   19.42    1.41
   5 -10   1   14.24    1.57
   5  10   1   16.02    1.46
   6 -10   1    2.00    1.10
   6  11  -1    2.47    0.81
   5 -11  -1   79.88    3.71
   5  11  -1   69.95    3.76
   4 -11  -1   47.71    2.34
   4 -11  -1   45.97    2.62
   4  11  -1   43.25    2.41
   3 -11  -1    2.49    0.44
   3 -11  -1    2.66    0.59
  -3 -11   1    2.75    0.46
   3  11  -1    3.29    0.53
   3  11  -1    4.64    0.72
  -2 -11   1   67.17    3.31
   2 -11  -1   68.08    3.39
   2 -11  -1   65.02    3.04
   2  11  -1   70.37    4.62
   2  11  -1   65.27    3.08
  -1 -11   1  353.39   15.89
   1 -11  -1  338.26   15.91
   1  11  -1  335.10   22.01
   1  11  -1  361.90   14.63
   0 -11   1   47.52    2.49
   0 -11  -1   48.86    2.51
   0  11  -1   49.30    3.51
   1 -11   1  166.10    7.84
  -1 -11  -1  167.59    7.81
   2 -11   1    6.29    0.76
  -2 -11  -1    6.75    0.68
  -3 -11  -1    6.03    0.73
   3 -11   1    5.64    0.85
   3  11   1    5.01    0.67
  -4 -11  -1   83.58    4.15
   4 -11   1   82.24    4.36
   4  11   1   79.31    3.96
   5 -11   1   15.57    1.62
  -5 -11  -1   18.24    1.41
   5  11   1   17.69    1.50
   6 -11   1    1.56    1.10
   6  12  -1    6.22    1.04
   5  12  -1    9.93    1.11
   4 -12  -1   25.86    1.78
   4 -12  -1   25.46    1.51
   4  12  -1   25.06    1.61
  -3 -12   1    8.95    0.76
   3 -12  -1   10.02    0.78
   3 -12  -1   10.51    0.98
   3  12  -1    8.57    0.82
   3  12  -1   11.25    1.11
   2 -12  -1  248.82   10.68
   2 -12  -1  255.09   11.68
  -2 -12   1  255.78   11.61
   2  12  -1  248.97   16.08
   2  12  -1  248.28   10.73
   1 -12  -1   72.65    3.66
  -1 -12   1   75.01    3.63
   1  12  -1   72.51    5.03
   0 -12   1   51.07    2.67
   0 -12  -1   52.98    2.69
   0  12  -1   51.71    3.77
   1 -12   1  236.09   10.96
  -1 -12  -1  235.34   10.91
  -2 -12  -1  102.29    4.88
   2 -12   1   98.41    4.95
  -3 -12  -1   16.73    1.20
   3 -12   1   16.90    1.35
   3  12   1   15.18    1.18
  -4 -12  -1    1.09    0.54
   4 -12   1    0.93    0.68
   4  12   1    1.47    0.50
  -5 -12  -1   11.09    1.17
   5 -12   1    8.23    1.20
   5  12   1   13.35    1.32
   5  13  -1   48.52    2.70
   4 -13  -1   73.55    3.87
   4 -13  -1   73.01    3.44
   4  13  -1   70.37    3.53
   3 -13  -1   33.04    1.95
   3 -13  -1   32.22    1.67
  -3 -13   1   32.93    1.79
   3  13  -1   28.36    1.70
   3  13  -1   30.88    2.42
   2 -13  -1   42.85    2.08
   2 -13  -1   43.57    2.38
  -2 -13   1   45.72    2.31
   2  13  -1   42.08    2.13
   2  13  -1   41.45    3.14
   1 -13  -1  142.17    6.84
  -1 -13   1  147.34    6.82
   1  13  -1  141.03    9.43
   0 -13   1   27.53    1.66
   0 -13  -1   27.54    1.68
   0  13  -1   31.18    2.42
  -1 -13  -1  111.49    5.37
   1 -13   1  111.07    5.41
  -2 -13  -1   38.22    2.12
   2 -13   1   37.93    2.20
   3 -13   1   12.56    1.21
  -3 -13  -1   12.29    1.03
  -4 -13  -1  110.97    5.34
   4  13   1  102.39    5.02
   5 -13   1    5.63    1.07
  -5 -13  -1    9.55    1.15
   5  13   1    8.62    1.11
   5  14  -1    9.95    1.10
   4 -14  -1   25.83    1.50
   4 -14  -1   25.75    1.80
   4  14  -1   23.69    1.58
   3 -14  -1    9.55    1.06
  -3 -14   1    7.13    0.73
   3 -14  -1    7.56    0.70
   3  14  -1    7.09    0.97
   3  14  -1    7.64    0.81
  -2 -14   1  168.43    7.91
   2 -14  -1  164.72    7.23
   2 -14  -1  169.46    7.98
   2  14  -1  166.14    7.30
   2  14  -1  168.19   10.94
   1 -14  -1   82.06    4.13
  -1 -14   1   79.88    4.08
   1  14  -1   85.11    5.70
   0 -14  -1   74.76    3.77
   0 -14   1   74.19    3.75
  -1 -14  -1  175.78    8.33
   1 -14   1  176.97    8.37
  -2 -14  -1  142.14    6.68
   2 -14   1  135.87    6.75
   3 -14   1   13.07    1.26
  -3 -14  -1   12.39    1.07
  -4 -14  -1    3.26    0.68
   4 -14   1    0.83    0.71
   5 -14   1    3.23    0.98
  -5 -14  -1    7.91    1.03
   5  15  -1    8.22    1.05
   4 -15  -1   45.72    2.63
   4  15  -1   39.95    2.30
   3 -15  -1   50.71    2.42
   3 -15  -1   52.49    2.83
  -3 -15   1   47.16    2.64
   3  15  -1   47.86    2.51
   3  15  -1   49.92    3.65
   2 -15  -1   29.79    1.84
   2 -15  -1   28.93    1.54
  -2 -15   1   29.89    1.75
   2  15  -1   28.49    2.38
   2  15  -1   28.90    1.60
  -1 -15   1  113.23    5.36
   1 -15  -1  107.93    5.38
   1  15  -1  107.79    7.43
   0 -15   1    1.40    0.45
   0 -15  -1    1.39    0.49
   1 -15   1  109.46    5.34
  -1 -15  -1  106.63    5.29
  -2 -15  -1   37.19    2.14
   2 -15   1   37.91    2.25
  -3 -15  -1   10.54    1.01
   3 -15   1   10.96    1.17
  -4 -15  -1   59.52    3.14
   4 -15   1   53.59    3.31
   5 -15   1    2.25    0.92
   5  16  -1    5.56    0.86
   4 -16  -1   26.23    1.85
   4  16  -1   23.06    1.57
   3 -16  -1    7.10    1.00
   3 -16  -1    5.32    0.61
  -3 -16   1    7.39    0.87
   3  16  -1    7.57    1.14
   3  16  -1    5.49    0.75
   2 -16  -1  122.95    5.40
  -2 -16   1  126.47    5.96
   2 -16  -1  118.97    6.02
   2  16  -1  121.12    8.24
  -1 -16   1   18.69    1.27
   1 -16  -1   18.91    1.33
   1  16  -1   15.33    1.71
   0 -16   1   37.10    2.14
   0 -16  -1   36.50    2.15
   1 -16   1  155.15    7.35
  -1 -16  -1  148.36    7.28
  -2 -16  -1  100.44    4.92
   2 -16   1   96.35    5.01
  -3 -16  -1   23.44    1.65
   3 -16   1   25.58    1.83
  -4 -16  -1    0.03    0.48
   4 -16   1   -0.17    0.64
   5 -16   1    5.50    1.17
   5  17  -1   22.83    1.66
   4 -17  -1   47.01    2.78
   4  17  -1   42.84    2.42
   3 -17  -1   31.87    2.05
  -3 -17   1   31.21    1.86
   3  17  -1   31.03    2.56
   3  17  -1   27.16    1.70
   2 -17  -1   35.05    1.81
  -2 -17   1   35.84    2.07
   2 -17  -1   35.55    2.17
   2  17  -1   34.06    2.85
   1 -17  -1   59.09    3.22
  -1 -17   1   60.60    3.18
   0 -17   1   12.94    1.10
   0 -17  -1   11.08    1.08
   1 -17   1   37.98    2.28
  -1 -17  -1   37.50    2.22
  -2 -17  -1   37.45    2.17
   2 -17   1   34.73    2.26
   3 -17   1   22.47    1.77
  -3 -17  -1   23.50    1.61
  -4 -17  -1   61.38    3.40
   5 -17   1   10.20    1.44
   5  18  -1   10.53    1.18
   4 -18  -1   13.13    1.37
   4  18  -1   10.98    1.04
  -3 -18   1    4.55    0.75
   3 -18  -1    4.46    0.88
  -2 -18   1  179.28    8.50
   2 -18  -1  174.49    7.76
   2 -18  -1  178.83    8.59
   1 -18  -1   15.96    1.31
  -1 -18   1   15.62    1.23
   0 -18   1   55.55    2.99
   0 -18  -1   51.94    2.96
   1 -18   1   82.00    4.33
  -1 -18  -1   83.43    4.28
  -2 -18  -1   73.80    3.88
   2 -18   1   73.77    4.00
   3 -18   1   14.36    1.45
  -3 -18  -1   16.68    1.34
   4 -18   1    0.63    0.77
  -4 -18  -1    0.95    0.60
   5  19  -1   36.90    2.23
   4 -19  -1   19.61    1.71
   4  19  -1   19.49    1.39
  -3 -19   1   39.06    2.28
   3 -19  -1   36.75    2.44
   2 -19  -1   31.02    2.05
  -2 -19   1   29.95    1.92
   1 -19  -1   91.79    4.80
  -1 -19   1   95.10    4.77
   0 -19  -1   18.71    1.41
   0 -19   1   16.49    1.40
   1 -19   1   42.78    2.63
  -1 -19  -1   45.21    2.59
   2 -19   1   21.79    1.70
  -2 -19  -1   20.30    1.55
  -3 -19  -1   18.62    1.50
   3 -19   1   18.85    1.67
  -4 -19  -1   49.08    2.91
   4 -20  -1    8.59    1.17
   3 -20  -1    7.53    1.17
  -3 -20   1    6.54    0.94
  -2 -20   1   69.76    3.78
   2 -20  -1   72.65    3.92
  -1 -20   1   47.04    2.76
   1 -20  -1   50.62    2.86
   0 -20  -1   63.57    3.43
   0 -20   1   60.23    3.42
  -1 -20  -1   76.67    4.08
   1 -20   1   76.30    4.13
  -2 -20  -1   34.24    2.20
   2 -20   1   34.31    2.31
   3 -20   1   23.24    1.92
  -3 -20  -1   24.63    1.78
  -4 -20  -1    0.42    0.58
   4 -20   1   -0.14    0.80
   4 -21  -1    8.75    1.22
  -3 -21   1   18.69    1.47
   3 -21  -1   19.74    1.70
   2 -21  -1   15.49    1.44
  -2 -21   1   14.47    1.26
  -1 -21   1   78.97    4.17
   1 -21  -1   78.95    4.23
   0 -21   1   12.25    1.24
   0 -21  -1   11.72    1.23
  -1 -21  -1   31.36    2.08
   1 -21   1   30.14    2.11
  -2 -21  -1   25.45    1.81
   2 -21   1   24.25    1.92
  -3 -21  -1   15.00    1.40
   3 -21   1   15.26    1.59
  -4 -21  -1   48.16    2.95
   4 -22  -1    2.01    0.85
   3 -22  -1    1.85    0.83
  -3 -22   1    1.68    0.63
   2 -22  -1   39.76    2.61
  -2 -22   1   41.87    2.50
  -1 -22   1   26.86    1.86
   1 -22  -1   26.80    1.94
   0 -22  -1   56.28    3.21
   0 -22   1   54.14    3.20
   1 -22   1   46.41    2.81
  -1 -22  -1   43.43    2.72
   2 -22   1   28.15    2.13
  -2 -22  -1   28.24    1.98
  -3 -22  -1   13.11    1.34
   3 -22   1   11.94    1.59
  -4 -22  -1    3.01    0.83
   4 -23  -1    6.81    1.19
  -3 -23   1   19.94    1.60
   3 -23  -1   19.34    1.81
   2 -23  -1   23.39    1.90
  -2 -23   1   24.60    1.77
  -1 -23   1   55.76    3.17
   1 -23  -1   53.29    3.20
   0 -23  -1   11.65    1.41
   0 -23   1   10.34    1.31
   1 -23   1   41.26    2.61
  -1 -23  -1   38.37    2.50
   2 -23   1   20.21    1.79
  -2 -23  -1   17.70    1.57
   3 -23   1    9.69    1.49
  -3 -23  -1   10.35    1.33
   3 -24  -1    6.96    1.23
  -2 -24   1   51.62    3.01
   2 -24  -1   49.06    3.12
   1 -24  -1   22.82    1.78
  -1 -24   1   19.06    1.64
   0 -24   1   50.72    3.02
   0 -24  -1   46.61    2.94
   1 -24   1   62.81    3.64
  -1 -24  -1   60.56    3.55
  -2 -24  -1   19.84    1.70
   2 -24   1   19.59    1.84
  -3 -24  -1   12.90    1.53
   3 -25  -1   43.34    2.97
  -2 -25   1   11.49    1.34
   2 -25  -1   10.16    1.40
  -1 -25   1   31.63    2.20
   1 -25  -1   29.11    2.19
   0 -25  -1    9.29    1.27
   0 -25   1   10.09    1.36
   1 -25   1   33.41    2.41
  -1 -25  -1   33.69    2.34
  -2 -25  -1   33.15    2.30
   2 -25   1   30.58    2.43
   2 -26  -1   42.31    2.84
  -2 -26   1   41.48    2.69
   1 -26  -1    9.76    1.42
  -1 -26   1   10.21    1.37
   0 -26   1   47.19    3.03
   0 -26  -1   47.86    3.00
  -1 -26  -1   23.31    1.94
   1 -26   1   26.46    2.09
  -2 -26  -1   30.82    2.26
  -2 -27   1   17.57    1.63
   1 -27  -1   16.56    1.72
  -1 -27   1   17.26    1.67
   0 -27  -1    1.96    0.79
   0 -27   1    1.89    0.83
   1 -27   1   11.87    1.66
  -1 -27  -1    9.44    1.37
   6   0  -2   44.03    2.56
   5   0  -2    4.82    0.76
   4   0  -2   18.92    1.23
   3   0  -2    0.49    0.31
   2   0  -2   21.00    1.10
   1   0  -2  772.49   32.15
   0   0   2  955.65   43.16
   1   0   2    5.88    0.61
  -1   0  -2    4.08    0.56
   2   0   2   12.30    0.80
   2   0   2   11.98    0.99
   3   0   2  105.58    4.80
   3   0   2  109.20    5.35
   4   0   2    1.15    0.46
   4   0   2    1.14    0.73
   5   0   2   36.23    2.56
   5   0   2   39.55    2.29
   6   0   2   -0.06    1.06
   6   0   2    0.13    0.61
   6  -1  -2   17.24    1.49
   6   1  -2   17.57    1.50
   5  -1  -2    1.54    0.57
   5   1  -2    1.86    0.60
   4  -1  -2   20.87    1.31
   4   1  -2   21.26    1.33
   3  -1  -2  205.80    8.58
   3   1  -2  193.43    8.56
   2  -1  -2   32.02    1.50
   2   1  -2   28.75    1.48
   1  -1  -2   32.99    1.43
   1  -1  -2   26.28    1.41
   1   1  -2   30.59    1.40
   0  -1   2  232.52   11.13
   0   1   2  255.65   11.17
   1  -1   2    0.40    0.32
  -1   1  -2    0.10    0.24
   1   1   2    1.06    0.36
   2  -1   2  129.75    5.85
   2  -1   2  140.53    6.48
   2   1   2  137.34    6.48
   2   1   2  136.71    5.89
  -2   1  -2  133.56    8.61
   3  -1   2   36.94    2.16
   3  -1   2   35.40    1.82
   3   1   2   33.01    2.13
   3   1   2   35.68    1.84
   4  -1   2    5.97    1.05
   4  -1   2    3.37    0.63
   4   1   2    4.07    0.67
   4   1   2    5.24    0.99
   5  -1   2   51.67    2.82
   5   1   2   48.01    3.16
   5   1   2   55.99    2.86
   6   1   2    9.38    1.39
   6  -2  -2   38.08    2.31
   6   2  -2   36.50    2.28
   5  -2  -2    6.88    0.88
   5   2  -2    5.93    0.86
   4  -2  -2   34.64    1.84
   4   2  -2   32.62    1.84
   3  -2  -2   19.10    1.17
   3   2  -2   20.75    1.18
   2  -2  -2   23.97    1.21
   2   2  -2   22.59    1.19
   1  -2  -2  397.10   20.43
   1  -2  -2  487.15   18.95
   1   2  -2  476.17   18.91
   0  -2   2  342.40   16.03
   0   2   2  364.39   16.10
   1  -2   2   24.80    1.38
   1   2   2   24.91    1.40
  -1   2  -2   22.01    1.77
   2  -2   2   36.44    2.01
   2  -2   2   35.02    1.71
   2   2   2   34.33    2.00
   2   2   2   35.81    1.77
  -2   2  -2   35.57    2.46
   3  -2   2  120.83    5.46
   3  -2   2  131.32    6.12
   3   2   2  119.81    5.51
   3   2   2  125.17    6.09
   4  -2   2    0.34    0.69
   4  -2   2    0.15    0.37
   4   2   2    0.66    0.46
   4   2   2    0.43    0.70
   5  -2   2   35.46    2.03
   5  -2   2   31.35    2.35
   5   2   2   31.89    2.05
   5   2   2   30.49    2.31
   6  -2   2    0.31    1.06
   6   2   2    1.34    0.70
   6   2   2   -0.05    1.00
   6  -3  -2   16.16    1.47
   6   3  -2   17.03    1.49
   5  -3  -2    1.13    0.51
   5   3  -2    0.72    0.53
   4  -3  -2   31.93    1.77
   4   3  -2   32.16    1.79
   3  -3  -2  316.64   13.19
   3   3  -2  305.16   13.17
   2  -3  -2   59.02    2.67
   2   3  -2   58.36    2.65
   1  -3  -2   25.78    1.23
   1   3  -2   23.88    1.16
   0  -3   2   99.51    4.22
   0   3  -2   79.25    5.86
   1  -3   2    5.34    0.59
   1   3   2    5.12    0.64
  -1   3  -2    3.58    0.63
   2  -3   2  198.47    8.93
   2  -3   2  223.38    9.87
   2   3   2  210.56    9.85
   3  -3   2   29.14    1.59
   3  -3   2   33.99    2.00
   3   3   2   30.57    1.97
   3   3   2   30.63    1.67
   4  -3   2    2.42    0.79
   4  -3   2    2.09    0.49
   4   3   2    1.97    0.80
   4   3   2    2.16    0.57
   5  -3   2   26.25    1.69
   5  -3   2   21.67    1.99
   5   3   2   23.24    1.98
   5   3   2   28.62    1.82
   6  -3   2    5.70    1.27
   6   3   2   11.66    1.29
   6  -4  -2   24.25    1.77
   6   4  -2   23.94    1.77
   5  -4  -2   22.13    1.49
   5   4  -2   21.00    1.50
   4  -4  -2   37.05    1.95
   4   4  -2   35.61    1.96
   3  -4  -2    6.10    0.57
   3  -4  -2    6.96    0.66
   3   4  -2    5.92    0.62
   2  -4  -2   17.90    0.99
   2  -4  -2   20.42    1.07
   2   4  -2   18.79    1.02
   1  -4  -2  257.94   10.87
  -1  -4   2  253.38   11.68
   1  -4  -2  235.91   11.70
   1   4  -2  254.40   10.80
   1   4  -2  288.49   16.39
   0  -4   2  368.18   16.76
   0  -4  -2  363.13   16.75
   0   4  -2  375.91   15.36
   1  -4   2   14.13    0.92
   1   4   2   14.95    1.01
  -1   4  -2   11.29    1.16
   2  -4   2   42.37    2.18
   2  -4   2   37.95    1.82
   2   4   2   36.42    2.17
   3  -4   2   88.31    4.34
   3  -4   2   83.89    3.78
   3   4   2   77.24    3.85
   3   4   2   87.14    4.34
   4  -4   2    5.23    1.00
   4  -4   2    3.83    0.60
   4   4   2    4.64    0.72
   4   4   2    6.51    1.05
   5  -4   2    7.40    1.26
   5   4   2    9.91    1.36
   5   4   2   11.69    1.22
   6  -4   2    0.03    0.95
   6  -5  -2   12.24    1.29
   6   5  -2   12.11    1.32
   5  -5  -2    2.01    0.57
   5   5  -2    2.19    0.64
   4  -5  -2   74.98    3.51
   4   5  -2   74.74    5.07
   4   5  -2   72.48    3.53
   3  -5  -2  323.68   13.43
   3  -5  -2  309.65   14.40
   3   5  -2  316.33   20.07
   3   5  -2  315.76   13.42
   2  -5  -2    4.63    0.41
   2  -5  -2    4.81    0.49
   2   5  -2    4.33    0.65
   2   5  -2    4.35    0.44
  -1  -5   2   22.24    1.15
   1  -5  -2   22.85    1.20
   1   5  -2   26.58    1.84
   1   5  -2   20.83    1.07
   0  -5   2   78.81    3.75
   0  -5  -2   79.01    3.74
   1  -5   2    8.87    0.73
  -1  -5  -2    8.19    0.61
  -1   5  -2    7.92    0.92
   2  -5   2  340.40   15.44
   2   5   2  329.34   15.44
   3  -5   2   31.54    2.03
   3   5   2   32.46    2.06
   3   5   2   33.99    1.81
   4  -5   2    1.54    0.76
   4  -5   2    1.22    0.41
   4   5   2    0.70    0.67
   4   5   2    2.53    0.59
   5  -5   2   18.66    1.78
   5   5   2   19.25    1.54
  -6  -5  -2   32.34    2.26
   6  -6  -2   19.66    1.56
   6   6  -2   19.21    1.59
   5  -6  -2    4.17    0.72
   5   6  -2    4.43    0.80
   4  -6  -2   80.42    3.81
   4   6  -2   85.19    5.55
   4   6  -2   78.41    3.82
   3  -6  -2    1.60    0.40
   3  -6  -2    1.26    0.35
   3   6  -2    1.26    0.39
   3   6  -2    1.01    0.45
   2  -6  -2    7.82    0.56
   2  -6  -2    7.26    0.62
   2   6  -2    7.47    0.58
   2   6  -2    6.55    0.83
   1  -6  -2  139.19    6.44
  -1  -6   2  135.10    6.40
   1   6  -2  129.86    5.88
   1   6  -2  154.30    9.07
   0  -6   2  239.45   10.15
   0  -6  -2  232.82   10.13
   0   6  -2  189.64   14.08
   1  -6   2    7.69    0.68
  -1  -6  -2    5.84    0.56
  -1   6  -2    6.92    0.87
   2  -6   2   42.68    2.35
   3  -6   2  153.37    7.35
   3   6   2  149.91    6.71
   4  -6   2    1.16    0.68
   4   6   2    0.41    0.46
  -5  -6  -2   16.31    1.40
   5   6   2   17.85    1.48
   6  -6   2    0.11    0.98
  -6  -6  -2    1.57    0.84
   6  -7  -2   13.33    1.41
   6   7  -2   14.55    1.47
   5  -7  -2    4.97    0.78
   5   7  -2    5.77    0.85
   4  -7  -2   53.39    2.52
   4   7  -2   46.08    3.50
   4   7  -2   49.14    2.52
   3  -7  -2  290.12   13.16
   3  -7  -2  289.45   12.24
   3   7  -2  283.05   18.26
   3   7  -2  285.51   12.22
   2  -7  -2   16.51    1.02
   2  -7  -2   15.73    1.00
   2   7  -2   18.34    1.49
   2   7  -2   17.90    0.96
   1  -7  -2   29.56    1.51
  -1  -7   2   26.61    1.45
   1   7  -2   29.95    2.21
   1   7  -2   28.45    1.32
   0  -7   2  137.04    6.47
   0  -7  -2  140.94    6.48
  -1  -7  -2   38.91    1.94
   1  -7   2   39.27    2.00
  -1   7  -2   32.45    2.72
   2  -7   2  253.94   11.47
  -2  -7  -2  237.82   11.34
  -3  -7  -2   46.13    2.53
   3  -7   2   49.80    2.72
  -4  -7  -2    6.08    0.83
   4  -7   2    5.66    1.05
   4   7   2    5.68    0.81
  -5  -7  -2   34.71    2.14
   5  -7   2   30.05    2.35
   5   7   2   30.44    2.08
   6  -8  -2   23.36    1.74
   6   8  -2   22.96    1.75
   5  -8  -2   23.40    1.56
   5   8  -2   22.89    1.61
   4  -8  -2   23.72    1.51
   4  -8  -2   25.37    1.48
   4   8  -2   23.58    1.95
   4   8  -2   23.18    1.51
   3  -8  -2    8.74    0.76
   3  -8  -2    6.53    0.69
   3   8  -2    6.70    0.93
   3   8  -2    7.81    0.74
   2  -8  -2   18.36    1.04
  -2  -8   2   17.30    0.95
   2  -8  -2   17.63    1.05
   2   8  -2   16.69    1.48
   2   8  -2   15.65    0.96
  -1  -8   2  223.66   10.84
   1  -8  -2  234.37   10.89
   1   8  -2  224.84    9.94
   1   8  -2  267.14   15.22
   0  -8   2  366.23   14.99
   0   8  -2  288.77   20.82
  -1  -8  -2   14.33    0.91
   1  -8   2   13.00    0.96
  -1   8  -2   12.02    1.32
   2  -8   2   53.06    2.77
  -2  -8  -2   49.90    2.63
   3  -8   2   68.83    3.66
  -3  -8  -2   68.44    3.49
   4  -8   2    3.18    0.85
  -4  -8  -2    2.78    0.64
   4   8   2    1.85    0.59
   5  -8   2   11.09    1.47
  -5  -8  -2   15.78    1.38
   5   8   2   15.88    1.42
   6   9  -2    8.68    1.13
   5  -9  -2    7.15    0.91
   5   9  -2    5.81    0.89
   4  -9  -2   19.12    1.33
   4  -9  -2   19.89    1.28
   4   9  -2   18.83    1.67
   4   9  -2   18.58    1.33
  -3  -9   2  191.93    8.93
   3  -9  -2  202.49    9.05
   3  -9  -2  192.87    8.40
   3   9  -2  187.72    8.37
   3   9  -2  195.24   12.53
   2  -9  -2    7.13    0.67
  -2  -9   2    7.02    0.56
   2  -9  -2    7.72    0.68
   2   9  -2    9.69    0.99
   2   9  -2    7.66    0.61
  -1  -9   2   23.15    1.34
   1  -9  -2   23.90    1.41
   1   9  -2   23.45    1.17
   1   9  -2   29.51    2.09
   0  -9   2  116.40    5.19
   0  -9  -2  116.76    5.18
   0   9  -2   93.03    7.23
   1  -9   2    2.63    0.51
  -1  -9  -2    1.89    0.40
  -1   9  -2    2.22    0.65
  -2  -9  -2  145.77    7.04
   2  -9   2  153.34    7.17
   3  -9   2   13.25    1.21
  -3  -9  -2   13.39    1.05
  -4  -9  -2    9.44    1.01
   4  -9   2   11.38    1.38
  -5  -9  -2   29.81    1.93
   5  -9   2   23.10    2.10
   6  10  -2   31.17    2.11
   5 -10  -2   15.17    1.26
   5  10  -2   15.72    1.34
   4 -10  -2   15.31    1.19
   4 -10  -2   16.36    1.15
   4  10  -2   15.62    1.48
   4  10  -2   14.66    1.18
   3 -10  -2    5.31    0.68
   3 -10  -2    5.56    0.64
  -3 -10   2    4.49    0.50
   3  10  -2    4.89    0.85
   3  10  -2    5.84    0.64
   2 -10  -2   12.54    0.86
  -2 -10   2   11.23    0.77
   2 -10  -2   11.67    0.88
   2  10  -2   12.10    1.21
   2  10  -2   10.10    0.75
   1 -10  -2  288.35   13.30
  -1 -10   2  286.13   13.26
   1  10  -2  300.58   18.52
   1  10  -2  282.89   12.14
   0 -10   2  299.64   13.81
   0 -10  -2  299.87   13.80
   0  10  -2  302.18   19.25
  -1 -10  -2   23.07    1.29
   1 -10   2   20.07    1.31
  -1  10  -2   18.17    1.84
  -2 -10  -2   16.42    1.15
   2 -10   2   17.66    1.27
  -3 -10  -2   66.96    3.43
   3 -10   2   66.90    3.62
   4 -10   2    1.78    0.73
  -4 -10  -2    1.96    0.62
   5 -10   2   17.39    1.82
  -5 -10  -2   23.38    1.66
   6  11  -2   15.22    1.51
   5 -11  -2    1.23    0.59
   5  11  -2    1.50    0.60
   4 -11  -2   36.83    2.05
   4 -11  -2   36.48    2.18
   4  11  -2   38.14    2.90
   4  11  -2   40.12    2.10
   3 -11  -2  145.36    6.82
  -3 -11   2  146.09    6.70
   3 -11  -2  146.68    6.32
   3  11  -2  142.07    9.41
   3  11  -2  134.77    6.27
  -2 -11   2   18.53    1.14
   2 -11  -2   20.21    1.16
   2 -11  -2   19.87    1.25
   2  11  -2   19.66    1.73
   2  11  -2   18.13    1.07
  -1 -11   2   25.09    1.50
   1 -11  -2   24.81    1.54
   1  11  -2   28.05    1.32
   1  11  -2   28.84    2.23
   0 -11  -2   81.41    3.97
   0 -11   2   81.49    3.99
   0  11  -2   80.21    5.63
   1 -11   2    9.83    0.88
  -1 -11  -2   11.79    0.88
  -1  11  -2   12.50    1.41
   2 -11   2   77.68    3.85
  -2 -11  -2   71.33    3.70
   3 -11   2   49.37    2.85
  -3 -11  -2   48.94    2.67
   4 -11   2    4.84    0.95
  -4 -11  -2    6.90    0.93
  -5 -11  -2   37.70    2.39
   6  12  -2   20.81    1.75
   5 -12  -2    0.78    0.53
   5  12  -2   -0.48    0.45
   4 -12  -2   60.35    3.22
   4 -12  -2   66.26    3.04
   4  12  -2   55.78    2.99
   4  12  -2   59.77    4.32
   3 -12  -2    1.29    0.42
   3 -12  -2    1.05    0.48
  -3 -12   2    1.19    0.33
   3  12  -2    1.33    0.56
   3  12  -2    1.06    0.39
   2 -12  -2   22.16    1.43
  -2 -12   2   22.19    1.34
   2 -12  -2   23.25    1.33
   2  12  -2   22.20    1.25
   2  12  -2   26.04    2.05
  -1 -12   2  250.80   12.30
   1 -12  -2  256.36   12.34
   1  12  -2  283.36   17.21
   1  12  -2  277.09   11.26
   0 -12  -2  200.98    9.98
   0 -12   2  207.54   10.00
   0  12  -2  236.84   14.05
  -1 -12  -2   40.65    2.21
   1 -12   2   37.59    2.23
  -1  12  -2   43.94    3.31
  -2 -12  -2   12.66    1.01
   2 -12   2   13.18    1.15
  -3 -12  -2  102.08    5.04
   3 -12   2  101.74    5.23
   4 -12   2    0.39    0.65
  -4 -12  -2   -0.31    0.45
   5 -12   2   17.53    1.87
  -5 -12  -2   22.91    1.67
   6  13  -2    6.34    1.08
   5  13  -2    6.75    0.91
   4 -13  -2   35.64    2.21
   4 -13  -2   38.32    2.08
   4  13  -2   39.00    2.94
   4  13  -2   35.47    2.07
   3 -13  -2  127.22    5.64
  -3 -13   2  133.46    6.12
   3 -13  -2  130.36    6.13
   3  13  -2  123.32    8.40
   3  13  -2  115.47    5.58
   2 -13  -2   24.04    1.34
   2 -13  -2   23.45    1.47
  -2 -13   2   23.57    1.37
   2  13  -2   20.16    1.24
   2  13  -2   23.10    2.02
   1 -13  -2   20.97    1.40
  -1 -13   2   19.72    1.32
   1  13  -2   23.21    1.98
   0 -13  -2   56.19    3.18
   0 -13   2   60.84    3.21
   0  13  -2   71.63    4.64
   1 -13   2    8.68    0.86
  -1 -13  -2    7.92    0.79
  -1  13  -2    7.25    1.35
   2 -13   2  104.23    5.28
  -2 -13  -2  105.76    5.15
  -3 -13  -2   30.01    1.86
   3 -13   2   28.85    2.00
   4 -13   2   16.16    1.58
  -4 -13  -2   17.55    1.41
   5 -13   2   10.33    1.41
   5  14  -2    4.04    0.77
   4 -14  -2   26.28    1.62
   4 -14  -2   26.59    1.77
   4  14  -2   26.13    1.61
   4  14  -2   25.12    2.22
   3 -14  -2   13.41    1.02
   3 -14  -2   13.70    1.16
   3  14  -2   13.13    1.43
   3  14  -2   12.91    0.98
   2 -14  -2   32.19    1.93
  -2 -14   2   33.20    1.84
   2 -14  -2   30.66    1.72
   2  14  -2   34.45    2.67
   2  14  -2   32.43    1.68
  -1 -14   2  159.37    7.69
   1 -14  -2  165.16    7.75
   1  14  -2  162.70   10.77
   0 -14  -2  147.70    7.22
   0 -14   2  151.87    7.23
   0  14  -2  154.18   10.15
   1 -14   2   51.97    2.90
  -1 -14  -2   55.68    2.88
  -2 -14  -2   23.26    1.51
   2 -14   2   22.49    1.64
   3 -14   2   64.28    3.60
  -3 -14  -2   65.10    3.44
   4 -14   2    0.90    0.74
  -4 -14  -2    2.04    0.68
   5 -14   2    5.41    1.16
   5  15  -2    5.82    0.88
   4 -15  -2   28.26    1.92
   4 -15  -2   31.40    1.77
   4  15  -2   26.67    1.70
   3 -15  -2  139.67    6.05
   3 -15  -2  139.13    6.61
   3  15  -2  125.44    5.98
   3  15  -2  135.80    9.04
   2 -15  -2   25.09    1.66
  -2 -15   2   28.36    1.59
   2 -15  -2   26.35    1.48
   2  15  -2   23.76    1.40
   2  15  -2   26.03    2.26
  -1 -15   2   40.91    2.29
   1 -15  -2   41.39    2.35
   1  15  -2   40.68    3.22
   0 -15   2   32.45    1.86
   0 -15  -2   33.27    1.88
   0  15  -2   24.23    2.53
  -1 -15  -2    6.62    0.80
   1 -15   2    4.94    0.80
  -2 -15  -2   91.90    4.71
   2 -15   2   97.42    4.89
   3 -15   2   26.69    1.91
  -3 -15  -2   24.52    1.69
   4 -15   2    9.72    1.32
  -4 -15  -2   11.63    1.17
  -5 -15  -2   10.91    1.29
   5  16  -2    3.97    0.72
   4 -16  -2   30.28    2.01
   4 -16  -2   30.91    1.80
   4  16  -2   27.41    1.73
   3 -16  -2    7.56    1.01
   3 -16  -2    6.56    0.76
   3  16  -2    7.32    1.22
   3  16  -2    6.49    0.73
   2 -16  -2   29.53    1.68
   2 -16  -2   30.27    1.90
  -2 -16   2   30.14    1.80
   2  16  -2   32.48    2.62
  -1 -16   2   87.57    4.55
   1 -16  -2   91.47    4.60
   1  16  -2   93.70    6.41
   0 -16  -2   95.58    4.81
   0 -16   2   99.88    4.83
   0  16  -2   90.88    6.76
  -1 -16  -2   35.37    2.14
   1 -16   2   37.47    2.23
   2 -16   2   18.06    1.47
  -2 -16  -2   16.42    1.31
  -3 -16  -2   44.65    2.55
   3 -16   2   42.10    2.71
   4 -16   2    0.38    0.75
  -4 -16  -2    1.23    0.61
   5  17  -2    2.86    0.65
   4 -17  -2   18.60    1.59
   4 -17  -2   20.37    1.40
   4  17  -2   18.40    1.33
   3 -17  -2   97.81    4.81
   3 -17  -2   95.20    4.32
   3  17  -2   83.05    4.25
   3  17  -2   95.36    6.48
   2 -17  -2   15.29    1.26
   2 -17  -2   14.23    1.05
  -2 -17   2   13.39    1.11
   2  17  -2   15.99    1.66
  -1 -17   2   32.94    1.95
   1 -17  -2   32.79    2.00
   1  17  -2   28.33    2.68
   0 -17  -2   69.11    3.58
   0 -17   2   69.89    3.59
   0  17  -2   61.77    5.03
   1 -17   2    3.61    0.78
  -1 -17  -2    4.01    0.73
   2 -17   2   90.77    4.83
  -2 -17  -2   93.46    4.69
   3 -17   2   14.32    1.58
  -3 -17  -2   13.53    1.23
   4 -17   2    3.73    1.00
  -4 -17  -2    4.68    0.88
   5  18  -2    4.02    0.76
   4 -18  -2   15.41    1.46
   4  18  -2   13.91    1.17
   3 -18  -2    2.41    0.51
   3 -18  -2    2.76    0.74
   3  18  -2    1.81    0.72
   2 -18  -2   25.48    1.73
  -2 -18   2   24.82    1.62
   2 -18  -2   23.33    1.45
   2  18  -2   25.58    2.33
  -1 -18   2   79.14    4.19
   1 -18  -2   83.36    4.26
   1  18  -2   80.47    5.89
   0 -18  -2  163.79    7.98
   0 -18   2  165.22    7.98
   1 -18   2   24.77    1.81
  -1 -18  -2   25.63    1.75
   2 -18   2   14.45    1.41
  -2 -18  -2   13.57    1.22
  -3 -18  -2   37.34    2.26
   3 -18   2   32.60    2.39
  -4 -18  -2    1.64    0.68
   4 -18   2    1.06    0.82
   5  19  -2    8.66    1.05
   4 -19  -2   14.48    1.47
   3 -19  -2   62.79    3.49
   3 -19  -2   60.24    3.17
   3  19  -2   63.08    4.68
   2 -19  -2   13.15    1.25
  -2 -19   2   12.85    1.12
   2 -19  -2   12.17    1.01
   2  19  -2   14.11    1.66
  -1 -19   2   46.86    2.68
   1 -19  -2   44.21    2.69
   1  19  -2   46.18    3.79
   0 -19   2   47.45    2.73
   0 -19  -2   44.79    2.71
   1 -19   2   10.56    1.24
  -1 -19  -2   10.22    1.19
  -2 -19  -2   56.61    3.14
   2 -19   2   54.24    3.26
   3 -19   2    8.45    1.25
  -3 -19  -2   12.94    1.21
   4 -19   2   19.72    2.03
  -4 -19  -2   26.43    1.85
   4 -20  -2   18.97    1.71
   3 -20  -2    1.06    0.68
   3  20  -2    0.11    0.59
   2 -20  -2   19.93    1.35
  -2 -20   2   23.96    1.59
   2 -20  -2   22.79    1.67
   2  20  -2   20.77    2.22
   1 -20  -2   72.11    4.03
  -1 -20   2   73.85    4.01
   1  20  -2   79.04    5.72
   0 -20   2   79.32    4.28
   0 -20  -2   80.97    4.30
   1 -20   2   40.52    2.56
  -1 -20  -2   39.59    2.49
   2 -20   2   10.59    1.39
  -2 -20  -2   12.26    1.22
  -3 -20  -2   36.12    2.27
   3 -20   2   31.39    2.42
  -4 -20  -2    1.35    0.65
   4 -21  -2    6.11    1.10
   3 -21  -2   55.88    3.26
   3  21  -2   54.22    4.36
  -2 -21   2   19.02    1.50
   2 -21  -2   21.65    1.65
   2  21  -2   20.34    2.25
   1 -21  -2   31.16    2.16
  -1 -21   2   33.54    2.17
   0 -21  -2   34.52    2.19
   0 -21   2   28.24    2.09
  -1 -21  -2    9.31    1.21
   1 -21   2    9.14    1.26
  -2 -21  -2   43.23    2.72
   2 -21   2   46.00    2.89
   3 -21   2    7.48    1.27
  -3 -21  -2   12.28    1.38
   4 -22  -2   17.75    1.73
   3 -22  -2    0.74    0.70
  -2 -22   2   20.94    1.61
   2 -22  -2   20.16    1.70
   1 -22  -2   60.53    3.55
  -1 -22   2   65.03    3.58
   0 -22  -2   55.07    3.24
   0 -22   2   55.18    3.25
  -1 -22  -2   41.62    2.72
   1 -22   2   46.85    2.86
  -2 -22  -2    4.62    0.93
   2 -22   2    2.70    0.85
  -3 -22  -2   22.99    1.81
   3 -22   2   21.49    2.04
   3 -23  -2   33.10    2.38
  -2 -23   2   11.32    1.32
   2 -23  -2   11.72    1.45
   1 -23  -2   28.76    2.10
  -1 -23   2   28.50    2.07
   0 -23  -2    9.53    1.30
   0 -23   2    7.88    1.20
  -1 -23  -2    8.97    1.28
   1 -23   2    8.94    1.31
   2 -23   2   28.10    2.21
  -2 -23  -2   29.96    2.16
   3 -24  -2    0.24    0.69
   2 -24  -2   16.03    1.58
  -2 -24   2   16.09    1.51
  -1 -24   2   36.26    2.44
   1 -24  -2   36.02    2.46
   0 -24   2   20.30    1.76
   0 -24  -2   19.07    1.72
   1 -24   2   37.22    2.63
  -1 -24  -2   38.37    2.57
  -2 -24  -2   10.58    1.39
   2 -24   2    9.37    1.43
   3 -25  -2   33.49    2.47
   2 -25  -2   14.32    1.56
  -2 -25   2   14.59    1.48
   1 -25  -2   18.34    1.66
  -1 -25   2   15.01    1.57
   0 -25   2   14.27    1.67
   0 -25  -2   15.12    1.54
   1 -25   2    9.37    1.43
  -1 -25  -2   10.84    1.43
   2 -26  -2   23.16    2.02
   1 -26  -2   27.84    2.16
  -1 -26   2   27.72    2.16
   0 -26   2   29.98    2.35
   0 -26  -2   34.53    2.40
  -1 -26  -2   40.97    2.77
   1 -26   2   39.28    2.81
  -1 -27   2   22.13    1.95
   0 -27   2   16.02    1.88
   6   0  -3    1.05    0.64
   5   0  -3    7.68    0.98
   4   0  -3   16.12    1.19
   3   0  -3   45.13    2.24
   2   0  -3  171.61    7.39
   1   0  -3    0.17    0.24
  -1   0   3    0.22    0.27
   0   0   3   42.53    2.22
   1   0   3  267.28   11.96
  -1   0  -3  248.57   16.42
   2   0   3   38.91    2.25
   3   0   3   12.60    1.41
   4   0   3   26.14    2.01
   5   0   3    0.03    0.84
   6  -1  -3    4.62    0.90
   6   1  -3    3.48    0.80
   5  -1  -3   76.69    3.74
   5   1  -3   74.44    3.74
   4  -1  -3   10.05    0.97
   4   1  -3    8.93    0.90
   3  -1  -3    6.75    0.71
   3   1  -3    5.77    0.64
   2  -1  -3  257.42   10.96
   2   1  -3  258.32   10.94
  -1  -1   3  136.09    6.13
   1  -1  -3  128.88    5.68
   1   1  -3  130.38    5.67
   0  -1   3   61.60    3.14
   0   1   3   65.60    3.18
   1  -1   3    7.11    0.80
  -1   1  -3    5.18    0.86
   1   1   3    5.79    0.77
   2  -1   3   16.26    1.26
   2   1   3   17.36    1.27
  -2   1  -3   14.96    1.37
   3  -1   3  102.92    5.26
   3   1   3  103.22    5.25
   4  -1   3   81.80    4.35
   4   1   3   75.35    4.28
   5  -1   3    1.27    0.89
   5   1   3   -0.10    0.85
   6  -2  -3    1.81    0.72
   6   2  -3    1.97    0.71
   5  -2  -3   21.59    1.57
   5   2  -3   21.39    1.56
   4  -2  -3   56.77    2.75
   4   2  -3   52.37    2.73
   3  -2  -3   44.99    2.21
   3   2  -3   42.74    2.17
   2  -2  -3  133.15    5.91
   2   2  -3  138.28    5.89
  -1  -2   3    5.09    0.50
   1  -2  -3    5.23    0.51
   1  -2  -3    4.74    0.43
   1   2  -3    5.57    0.50
   0  -2   3   96.36    4.86
   0   2   3  108.98    4.95
   1  -2   3  294.10   13.31
  -1   2  -3  285.36   18.36
   1   2   3  284.75   13.32
   2  -2   3   27.08    1.62
   2   2   3   22.66    1.55
  -2   2  -3   22.32    1.83
   3  -2   3   12.56    1.37
   3   2   3   11.94    1.33
   4  -2   3   16.12    1.62
   4   2   3   17.66    1.66
   5  -2   3    1.36    0.92
   5   2   3    1.74    0.91
   6  -3  -3    2.28    0.74
   6   3  -3    1.57    0.68
   5  -3  -3   67.53    3.34
   5   3  -3   61.99    3.28
   4  -3  -3   26.37    1.60
   4   3  -3   25.64    1.57
   3  -3  -3    8.38    0.79
   3   3  -3    7.57    0.76
   2  -3  -3  168.07    7.08
   2   3  -3  159.00    7.02
   1  -3  -3   41.92    2.13
  -1  -3   3   41.70    2.14
   1  -3  -3   43.68    2.05
   1   3  -3   46.81    2.01
   0  -3   3   62.15    2.90
   0   3  -3   53.52    4.05
   1  -3   3    8.24    0.83
  -1   3  -3    7.34    1.09
   1   3   3    8.80    0.94
   2  -3   3   13.46    1.13
   2   3   3   12.72    1.12
  -2   3  -3   10.90    1.15
   3  -3   3   37.54    2.30
   3   3   3   34.65    2.28
   4  -3   3   34.31    2.37
   4   3   3   33.45    2.36
   5  -3   3    0.38    0.87
   5   3   3    0.16    0.85
   6  -4  -3    2.08    0.71
   6   4  -3    2.28    0.71
   5  -4  -3    7.74    1.01
   5   4  -3   10.35    1.09
   4  -4  -3   38.31    2.00
   4   4  -3   32.98    1.94
   3  -4  -3   60.02    2.90
   3   4  -3   61.59    2.88
   2  -4  -3   89.98    4.06
   2   4  -3   90.71    4.00
   1  -4  -3   13.54    0.81
  -1  -4   3   13.24    0.81
   1   4  -3   16.51    0.79
   1   4  -3    9.69    1.21
   0  -4   3   27.84    1.52
   0  -4  -3   27.99    1.46
   0   4  -3   24.50    2.15
   1  -4   3  320.36   14.42
  -1   4  -3  302.36   19.93
   1   4   3  314.66   14.44
   2  -4   3   12.65    1.10
  -2   4  -3   10.47    1.13
   2   4   3   10.89    1.07
   3  -4   3    1.23    0.68
   3   4   3    1.51    0.74
   4  -4   3   10.70    1.35
   4   4   3   12.75    1.52
   5  -4   3    0.29    0.87
   6  -5  -3    4.23    0.87
   6   5  -3    5.34    0.94
   5  -5  -3   50.37    2.75
   5   5  -3   51.81    2.75
   4  -5  -3   13.49    1.13
   4   5  -3   13.09    1.12
   4   5  -3   14.53    1.50
   3  -5  -3    4.42    0.59
   3   5  -3    4.56    0.58
   2  -5  -3  181.99    7.54
   2  -5  -3  168.01    7.99
   2   5  -3  169.80   11.32
   2   5  -3  176.36    7.45
  -1  -5   3  102.59    4.82
   1  -5  -3  103.14    4.84
   1   5  -3   97.35    6.89
   1   5  -3  108.50    4.44
   0  -5  -3   59.06    2.88
   0  -5   3   58.62    2.92
   0   5  -3   51.52    4.11
   0   5  -3   63.50    2.56
   1  -5   3    6.18    0.73
  -1   5  -3    3.79    0.85
   2  -5   3   10.82    1.12
  -2   5  -3    8.50    1.07
   2   5   3   10.43    1.08
   3  -5   3   49.08    2.77
   3   5   3   42.78    2.68
   4  -5   3   56.02    3.35
   4   5   3   57.17    3.33
   5  -5   3    0.37    0.89
   6  -6  -3    1.07    0.64
   6   6  -3    2.24    0.72
   5  -6  -3   15.89    1.32
   5   6  -3   14.20    1.29
   4  -6  -3   51.76    2.59
   4   6  -3   46.76    2.52
   4   6  -3   49.71    3.70
   3  -6  -3   42.11    2.17
   3   6  -3   41.26    2.11
   3   6  -3   43.47    3.20
   2  -6  -3  132.23    5.79
   2  -6  -3  126.49    6.12
   2   6  -3  128.38    5.70
   2   6  -3  141.12    8.76
   1  -6  -3    4.63    0.47
  -1  -6   3    4.97    0.50
   1   6  -3    3.65    0.79
   1   6  -3    4.67    0.42
   0  -6  -3   82.91    3.82
   0  -6   3   81.71    3.86
   0   6  -3   71.74    5.42
  -1  -6  -3  468.83   22.09
   1  -6   3  504.64   22.21
  -1   6  -3  483.46   30.80
   2  -6   3   18.69    1.39
  -2   6  -3   17.47    1.67
   3  -6   3    8.00    1.13
   4  -6   3    9.53    1.25
  -5  -6  -3    3.91    0.87
   5  -6   3    1.89    0.99
   6  -7  -3    4.28    0.85
   6   7  -3    2.27    0.77
   5  -7  -3   46.50    2.57
   5   7  -3   45.59    2.54
   4  -7  -3   14.67    1.16
   4   7  -3   13.33    1.46
   4   7  -3   12.22    1.10
   3  -7  -3   36.73    1.95
   3   7  -3   35.87    1.88
   3   7  -3   36.78    2.86
   2  -7  -3  167.68    7.87
   2  -7  -3  171.74    7.38
   2   7  -3  165.55    7.27
   2   7  -3  174.98   11.14
   1  -7  -3   97.42    4.65
  -1  -7   3   94.92    4.63
   1   7  -3   94.01    4.21
   1   7  -3  107.22    6.68
   0  -7  -3   92.09    4.25
   0  -7   3   89.66    4.28
   0   7  -3   81.46    6.01
   1  -7   3    9.12    0.92
  -1  -7  -3    6.02    0.67
  -1   7  -3    6.72    1.13
   2  -7   3   30.25    1.79
  -2  -7  -3   25.80    1.57
  -2   7  -3   24.57    2.22
   3  -7   3   37.98    2.38
  -3  -7  -3   36.69    2.13
   4  -7   3   45.82    3.00
  -4  -7  -3   50.99    2.81
  -5  -7  -3    5.22    0.99
   5  -7   3    3.39    1.04
   6  -8  -3    0.35    0.58
   6   8  -3    0.81    0.63
   5  -8  -3    9.01    1.05
   5   8  -3    6.91    0.95
   4  -8  -3   19.71    1.37
   4   8  -3   18.24    1.77
   4   8  -3   17.80    1.32
   3  -8  -3   23.79    1.37
   3  -8  -3   22.43    1.42
   3   8  -3   23.76    1.37
   3   8  -3   23.92    2.05
   2  -8  -3  107.68    5.18
   2  -8  -3  112.79    4.89
   2   8  -3  105.02    4.76
   2   8  -3  112.06    7.37
  -1  -8   3   10.91    0.80
   1  -8  -3    9.94    0.78
   1   8  -3   12.30    1.29
   0  -8   3   56.63    2.70
   0  -8  -3   55.73    2.66
   0   8  -3   42.26    3.77
   1  -8   3  147.62    6.73
  -1  -8  -3  139.79    6.61
  -1   8  -3  131.43    9.33
  -2  -8  -3   18.17    1.23
   2  -8   3   18.94    1.41
  -2   8  -3   18.24    1.83
  -3  -8  -3    9.32    0.96
   3  -8   3   13.01    1.39
   4  -8   3   14.94    1.58
  -4  -8  -3   17.18    1.42
  -5  -8  -3    2.37    0.84
   5  -8   3    2.05    0.99
   6  -9  -3    6.64    1.01
   6   9  -3    6.02    1.00
   5  -9  -3   67.86    3.31
   5   9  -3   58.91    3.23
   4  -9  -3    5.20    0.76
   4   9  -3    4.00    0.88
   4   9  -3    3.62    0.67
   3  -9  -3   29.94    1.68
   3  -9  -3   30.29    1.71
   3   9  -3   29.74    2.45
   3   9  -3   29.52    1.62
   2  -9  -3  189.30    8.18
   2  -9  -3  194.16    8.78
  -2  -9   3  176.10    8.66
   2   9  -3  202.68   12.34
   2   9  -3  182.87    8.05
  -1  -9   3   82.34    3.99
   1  -9  -3   84.08    4.02
   1   9  -3   81.18    5.72
   0  -9   3   58.36    2.95
   0  -9  -3   56.83    2.92
  -1  -9  -3    1.81    0.46
   1  -9   3    2.01    0.55
  -1   9  -3    1.97    0.76
  -2  -9  -3   12.42    0.98
   2  -9   3   12.49    1.17
  -2   9  -3   12.76    1.51
  -3  -9  -3   45.27    2.50
   3  -9   3   43.91    2.70
  -4  -9  -3   72.50    3.89
  -5  -9  -3    2.73    0.86
   5  -9   3    1.59    1.00
   6 -10  -3    3.95    0.81
   6  10  -3    4.61    0.89
   5 -10  -3    6.25    0.91
   5  10  -3    6.27    0.90
   4 -10  -3   17.44    1.32
   4  10  -3   18.36    1.77
   4  10  -3   16.69    1.28
   3 -10  -3   17.77    1.20
   3 -10  -3   17.53    1.14
   3  10  -3   15.30    1.07
   3  10  -3   14.53    1.58
   2 -10  -3   99.34    4.50
   2 -10  -3  104.49    4.81
  -2 -10   3   96.60    4.69
   2  10  -3  102.10    6.81
   2  10  -3   95.15    4.36
  -1 -10   3   56.93    2.89
   1 -10  -3   58.95    2.94
   1  10  -3   56.99    4.21
   0 -10   3   49.22    2.43
   0  10  -3   39.08    3.41
  -1 -10  -3   93.17    4.86
   1 -10   3   96.40    4.96
  -1  10  -3  113.38    7.12
  -2 -10  -3   11.44    0.93
   2 -10   3   11.83    1.15
  -2  10  -3    9.77    1.44
   3 -10   3   11.45    1.31
  -3 -10  -3    9.39    0.97
  -4 -10  -3   15.23    1.31
   4 -10   3   10.99    1.41
  -5 -10  -3    1.87    0.79
   6  11  -3    6.15    1.01
   5 -11  -3   39.34    2.30
   5  11  -3   38.93    2.30
   4 -11  -3    8.19    0.93
   4  11  -3    6.59    1.11
   4  11  -3    6.95    0.82
   3 -11  -3    4.89    0.69
   3 -11  -3    4.55    0.64
   3  11  -3    5.00    0.94
   3  11  -3    4.93    0.59
  -2 -11   3  140.10    6.69
   2 -11  -3  149.69    6.81
   2 -11  -3  143.41    6.32
   2  11  -3  149.54    9.57
   2  11  -3  134.42    6.16
   1 -11  -3   56.47    2.79
  -1 -11   3   57.55    2.74
   1  11  -3   45.07    3.91
   0 -11  -3   60.02    2.91
   0 -11   3   57.02    2.94
   0  11  -3   49.66    4.17
   1 -11   3    5.99    0.84
  -1 -11  -3    4.84    0.68
  -1  11  -3    4.63    1.08
  -2 -11  -3    8.25    0.95
   2 -11   3    8.27    1.08
  -3 -11  -3   49.44    2.68
   3 -11   3   45.69    2.85
  -4 -11  -3   46.21    2.73
   6  12  -3    7.89    1.14
   5 -12  -3   12.55    1.24
   5  12  -3   13.09    1.25
   4 -12  -3   27.53    1.66
   4  12  -3   23.90    2.20
   4  12  -3   23.38    1.57
   3 -12  -3   24.84    1.53
   3 -12  -3   22.92    1.52
   3  12  -3   27.11    2.22
   3  12  -3   22.84    1.40
  -2 -12   3   86.79    4.20
   2 -12  -3   90.52    4.31
   2 -12  -3   85.14    4.00
   2  12  -3   81.97    3.84
   2  12  -3   90.24    6.09
   1 -12  -3   20.04    1.32
  -1 -12   3   19.06    1.25
   1  12  -3   18.38    1.88
   0 -12   3   42.63    2.46
   0 -12  -3   41.02    2.43
   0  12  -3   54.67    3.75
   1 -12   3  233.96   10.55
  -1 -12  -3  225.35   10.44
  -1  12  -3  209.34   14.71
   2 -12   3   19.77    1.52
  -2 -12  -3   18.39    1.30
   3 -12   3    9.84    1.30
  -3 -12  -3   10.22    1.12
  -4 -12  -3   17.54    1.44
   4 -12   3   11.64    1.49
   5  13  -3   40.15    2.34
   4 -13  -3    8.70    0.99
   4  13  -3    8.16    1.28
   4  13  -3    7.99    0.88
   3 -13  -3    5.94    0.78
   3 -13  -3    7.88    0.86
   3  13  -3    6.69    0.68
   3  13  -3    6.70    1.15
   2 -13  -3  123.77    5.89
   2 -13  -3  116.75    5.45
  -2 -13   3  121.70    5.79
   2  13  -3  123.40    8.25
  -1 -13   3   45.42    2.45
   1 -13  -3   44.88    2.50
   1  13  -3   46.36    3.58
   0 -13  -3   61.58    3.06
   0 -13   3   60.17    3.07
   0  13  -3   50.38    4.37
  -1 -13  -3    3.98    0.72
   1 -13   3    5.22    0.83
  -1  13  -3    4.20    1.10
  -2 -13  -3   27.62    1.77
   2 -13   3   29.60    1.96
   3 -13   3   41.11    2.70
  -3 -13  -3   45.75    2.54
   4 -13   3   42.27    2.92
  -4 -13  -3   47.97    2.71
   5 -14  -3    4.86    0.86
   5  14  -3    7.15    0.93
   4 -14  -3   22.48    1.52
   4  14  -3   21.12    2.08
   4  14  -3   21.79    1.45
   3 -14  -3   43.41    2.41
   3 -14  -3   46.39    2.31
   3  14  -3   42.49    3.35
   3  14  -3   38.53    2.13
  -2 -14   3   41.35    2.29
   2 -14  -3   45.94    2.44
   2 -14  -3   42.73    2.24
   2  14  -3   41.28    3.38
  -1 -14   3   40.13    2.29
   1 -14  -3   38.70    2.33
   1  14  -3   45.52    3.42
   0 -14  -3   73.11    3.60
   0 -14   3   69.27    3.59
   0  14  -3   63.69    5.14
  -1 -14  -3  185.70    9.69
   1 -14   3  200.24    9.84
  -1  14  -3  236.60   13.99
  -2 -14  -3   15.50    1.24
   2 -14   3   16.29    1.42
   3 -14   3    7.16    1.14
  -3 -14  -3   11.49    1.22
  -4 -14  -3    7.51    1.05
   4 -14   3    4.68    1.03
   5  15  -3   29.68    1.93
   4 -15  -3   13.13    1.18
   4  15  -3   11.04    1.06
   4  15  -3   13.29    1.58
   3 -15  -3   22.87    1.55
   3 -15  -3   22.50    1.47
   3  15  -3   20.88    2.09
   2 -15  -3   51.26    2.75
   2 -15  -3   48.49    2.52
  -2 -15   3   48.76    2.62
   2  15  -3   48.65    3.83
   1 -15  -3   13.09    1.15
  -1 -15   3   12.56    1.08
   1  15  -3   12.40    1.59
   0 -15  -3   23.28    1.63
   0 -15   3   23.96    1.63
   0  15  -3   25.38    2.47
   1 -15   3    3.46    0.79
  -1 -15  -3    4.93    0.84
  -1  15  -3    4.74    1.27
  -2 -15  -3   19.88    1.46
   2 -15   3   20.59    1.64
   3 -15   3    8.23    1.18
  -3 -15  -3   11.89    1.15
  -4 -15  -3   11.25    1.31
   4 -15   3    7.55    1.26
   5  16  -3    9.04    1.02
   4 -16  -3   26.37    1.72
   4  16  -3   25.40    2.40
   3 -16  -3   34.96    2.00
   3 -16  -3   36.00    2.16
   3  16  -3   34.22    2.95
  -2 -16   3   33.15    1.97
   2 -16  -3   32.70    1.90
   2 -16  -3   35.79    2.11
   2  16  -3   34.01    2.93
   1 -16  -3    2.09    0.64
  -1 -16   3    1.46    0.52
   1  16  -3    1.71    0.79
   0 -16  -3   22.58    1.57
   0 -16   3   19.87    1.54
   0  16  -3   22.17    2.34
  -1 -16  -3  151.82    7.65
   1 -16   3  159.21    7.80
  -1  16  -3  166.23   11.12
  -2 -16  -3   11.99    1.13
   2 -16   3   11.72    1.43
  -3 -16  -3    7.17    0.98
   3 -16   3    4.78    0.99
  -4 -16  -3    7.39    1.09
   4 -17  -3   12.84    1.19
   4  17  -3   11.91    1.60
   3 -17  -3   32.02    1.87
   3 -17  -3   31.32    2.02
   3  17  -3   30.51    2.75
  -2 -17   3   48.33    2.73
   2 -17  -3   52.30    2.83
   2 -17  -3   47.90    2.53
   2  17  -3   47.43    3.88
   1 -17  -3   35.03    2.20
  -1 -17   3   34.45    2.13
   1  17  -3   35.07    3.07
   0 -17  -3   30.72    2.10
   0 -17   3   30.36    2.07
   0  17  -3   39.92    3.26
   1 -17   3    1.99    0.70
  -1 -17  -3    1.44    0.63
  -2 -17  -3   22.85    1.61
   2 -17   3   21.50    1.77
   3 -17   3   24.44    2.01
  -3 -17  -3   25.26    1.79
   4 -18  -3    3.09    0.69
   4  18  -3    5.22    1.13
   3 -18  -3   20.37    1.44
   3 -18  -3   21.61    1.59
   3  18  -3   19.38    2.09
   2 -18  -3   41.07    2.27
   2 -18  -3   43.55    2.53
   2  18  -3   40.88    3.48
  -1 -18   3   15.89    1.33
   1 -18  -3   12.63    1.32
   1  18  -3   15.94    1.90
   0 -18   3   27.39    1.86
   0 -18  -3   26.72    1.86
   0  18  -3   24.18    2.73
   1 -18   3   97.08    5.06
  -1 -18  -3   95.08    4.94
   2 -18   3   12.86    1.39
  -2 -18  -3   12.76    1.23
   3 -18   3    7.07    1.21
  -3 -18  -3    9.65    1.19
   4 -19  -3    3.53    0.73
   4  19  -3    3.16    0.94
   3 -19  -3   24.42    1.63
   3 -19  -3   26.42    1.84
   3  19  -3   23.74    2.40
   2 -19  -3   70.70    3.83
   2 -19  -3   68.74    3.46
   2  19  -3   72.60    5.36
  -1 -19   3   36.37    2.29
   1 -19  -3   33.17    2.30
   1  19  -3   39.79    3.33
   0 -19  -3   40.02    2.41
   0 -19   3   36.27    2.34
   0  19  -3   33.76    3.49
  -1 -19  -3    1.78    0.68
   1 -19   3    1.71    0.72
   2 -19   3   23.68    1.92
  -2 -19  -3   23.13    1.70
  -3 -19  -3   29.88    2.02
   3 -19   3   25.88    2.21
   4  20  -3   11.41    1.65
   3 -20  -3    9.89    1.04
   3 -20  -3    8.75    1.19
   3  20  -3   10.14    1.60
   2 -20  -3   40.77    2.48
   2 -20  -3   37.25    2.17
   2  20  -3   38.86    3.42
   1 -20  -3   42.44    2.73
  -1 -20   3   44.31    2.70
   1  20  -3   46.35    3.88
   0 -20   3   37.80    2.42
   0 -20  -3   38.58    2.45
   0  20  -3   34.22    3.59
   1 -20   3   48.50    3.06
  -1 -20  -3   51.46    2.99
   2 -20   3   15.94    1.62
  -2 -20  -3   16.70    1.46
  -3 -20  -3   18.65    1.56
   3 -20   3   18.52    1.86
   3 -21  -3   16.13    1.54
   3 -21  -3   16.48    1.33
   3  21  -3   16.33    2.02
   2 -21  -3   42.68    2.69
   2 -21  -3   41.81    2.37
   2  21  -3   45.32    3.76
  -1 -21   3   10.07    1.29
   1 -21  -3    9.44    1.31
   1  21  -3   10.87    1.85
   0 -21  -3   43.97    2.77
   0 -21   3   43.47    2.75
  -1 -21  -3   -0.34    0.58
   1 -21   3    0.34    0.65
  -2 -21  -3   23.70    1.80
   2 -21   3   21.83    1.95
   3 -22  -3    6.54    1.10
   3  22  -3    7.56    1.47
   2 -22  -3   20.92    1.51
   2 -22  -3   21.75    1.75
   2  22  -3   20.15    2.39
   1 -22  -3   33.79    2.39
  -1 -22   3   33.01    2.33
   1  22  -3   35.53    3.42
   0 -22  -3   17.34    1.60
   0 -22   3   16.26    1.58
   1 -22   3   25.36    2.06
  -1 -22  -3   25.55    1.99
  -2 -22  -3    8.07    1.19
   2 -22   3    6.93    1.21
   3 -23  -3    9.37    1.31
   3  23  -3   10.29    1.75
   2 -23  -3   37.57    2.53
   2 -23  -3   37.63    2.34
   2  23  -3   39.32    3.61
  -1 -23   3    9.74    1.35
   1 -23  -3    9.33    1.34
   0 -23  -3   21.58    1.87
   0 -23   3   20.47    1.81
  -1 -23  -3    2.50    0.86
   1 -23   3    1.08    0.80
   2 -23   3    8.60    1.42
   3 -24  -3    9.73    1.37
   3  24  -3   11.81    1.92
   2 -24  -3   19.42    1.75
   1 -24  -3   22.15    1.65
  -1 -24   3   17.38    1.73
   1 -24  -3   20.29    1.82
   0 -24  -3   26.51    2.11
   0 -24   3   25.07    2.06
   1 -24   3   82.74    4.84
  -1 -24  -3   88.24    4.79
   2 -25  -3   22.05    1.89
   1 -25  -3    4.91    1.10
  -1 -25   3    5.39    1.09
   0 -25   3   29.78    2.32
   0 -25  -3   31.78    2.37
   1 -25   3    2.38    1.04
  -1 -26   3   13.54    1.63
   0 -26   3   20.42    1.90
   6   0  -4   15.02    1.52
   5   0  -4    0.64    0.59
   4   0  -4    2.02    0.63
   3   0  -4   26.30    1.57
   2   0  -4   45.18    2.23
   1   0  -4  374.11   16.55
  -1   0   4  412.92   18.01
   0   0   4   25.42    1.58
  -1   0  -4    0.56    0.44
   1   0   4    1.99    0.59
   2   0   4   89.11    4.60
   3   0   4   25.17    1.89
   4   0   4    5.40    1.15
   6  -1  -4   -0.84    0.59
   6   1  -4   -0.48    0.62
   5  -1  -4    0.20    0.52
   5   1  -4    0.83    0.58
   4  -1  -4   38.55    2.20
   4   1  -4   40.59    2.21
   3  -1  -4  138.82    6.25
   3   1  -4  142.60    6.25
   2  -1  -4    7.80    0.77
   2   1  -4    9.49    0.79
   1  -1  -4   24.54    1.34
  -1  -1   4   24.98    1.48
   1   1  -4   23.80    1.32
   0  -1   4   64.35    3.38
   0   1   4   69.39    3.44
  -1  -1  -4    7.61    1.02
   1  -1   4   10.46    1.07
   1   1   4   10.35    1.07
  -1   1  -4    7.93    1.11
   2  -1   4   62.85    3.43
   2   1   4   62.33    3.42
   3  -1   4    2.84    0.84
   3   1   4    3.47    0.88
   4  -1   4    2.32    0.94
   4   1   4    3.94    1.03
   6  -2  -4   22.94    1.81
   6   2  -4   20.97    1.74
   5  -2  -4    1.67    0.64
   5   2  -4    2.21    0.64
   4  -2  -4    9.77    1.02
   4   2  -4   10.39    1.02
   3  -2  -4   27.05    1.56
   3   2  -4   24.95    1.56
   2  -2  -4    7.57    0.75
   2   2  -4    8.04    0.75
   1  -2  -4  206.31    9.37
  -1  -2   4  206.95    9.43
   1  -2  -4  197.48    8.70
   1   2  -4  202.19    8.67
   0  -2   4   27.09    1.56
   0   2  -4   19.90    2.05
   0   2   4   28.13    1.62
   1  -2   4    0.29    0.48
   1   2   4    0.43    0.49
  -1   2  -4    0.37    0.43
   2  -2   4   70.17    3.64
   2   2   4   62.73    3.57
   3  -2   4   35.17    2.35
   3   2   4   33.92    2.31
   4  -2   4    3.43    1.00
   4   2   4    3.50    1.00
   6  -3  -4    2.11    0.76
   6   3  -4    1.68    0.72
   5  -3  -4    1.01    0.57
   5   3  -4   -0.22    0.53
   4  -3  -4   60.63    3.09
   4   3  -4   61.20    3.07
   3  -3  -4   64.44    3.08
   3   3  -4   62.41    3.05
   2  -3  -4    8.42    0.78
   2   3  -4    8.57    0.75
  -1  -3   4   25.16    1.47
   1  -3  -4   25.08    1.40
   1  -3  -4   24.38    1.39
   1   3  -4   26.29    1.34
   0  -3   4   77.17    3.68
   0   3  -4   68.30    5.15
   1  -3   4   11.98    1.11
   1   3   4   13.40    1.15
  -1   3  -4   12.34    1.42
   2  -3   4   43.24    2.52
   2   3   4   39.36    2.47
   3  -3   4    0.76    0.72
   3   3   4    0.32    0.66
   4  -3   4    5.41    1.15
   4   3   4    6.18    1.12
   6  -4  -4   20.75    1.75
   6   4  -4   20.47    1.71
   5  -4  -4    0.67    0.56
   5   4  -4    0.41    0.55
   4  -4  -4    4.22    0.75
   4   4  -4    3.01    0.69
   3  -4  -4   21.16    1.42
   3   4  -4   24.16    1.43
   2  -4  -4   -0.11    0.22
   2  -4  -4    0.30    0.36
   2   4  -4    0.08    0.30
   1  -4  -4  146.72    6.96
  -1  -4   4  143.77    6.98
   1   4  -4  153.94    6.43
   1   4  -4  152.86    9.94
   0  -4   4   39.52    2.10
   0  -4  -4   38.71    1.99
   0   4  -4   32.02    2.93
   0   4  -4   38.43    1.76
   1  -4   4    3.86    0.73
  -1   4  -4    2.31    0.73
   1   4   4    3.07    0.71
   2  -4   4   73.95    3.82
   2   4   4   67.25    3.75
   3  -4   4   34.66    2.27
   3   4   4   29.77    2.15
   4  -4   4    7.20    1.26
   4   4   4    7.28    1.17
   6  -5  -4   -0.66    0.55
   6   5  -4   -0.40    0.61
   5  -5  -4    0.16    0.53
   5   5  -4   -0.19    0.50
   5   5  -4   -0.05    0.60
   4  -5  -4  149.24    6.71
   4   5  -4  147.30    6.65
   3  -5  -4   54.12    2.74
   3   5  -4   55.33    2.69
   2  -5  -4    1.58    0.33
   2  -5  -4    1.85    0.46
   2   5  -4    1.50    0.62
   2   5  -4    2.62    0.44
   1  -5  -4   10.20    0.77
  -1  -5   4   10.11    0.82
   1   5  -4    8.00    1.26
   1   5  -4   11.91    0.74
   0  -5  -4   81.25    3.96
   0  -5   4   81.02    4.04
   0   5  -4   84.35    3.54
   0   5  -4   76.05    5.70
   1  -5   4   49.22    2.81
  -1   5  -4   52.76    3.92
   2  -5   4   57.98    3.25
   3  -5   4    0.78    0.70
   4  -5   4    3.13    1.00
   6  -6  -4   33.64    2.26
   6   6  -4   31.56    2.17
   5  -6  -4    0.96    0.57
   5   6  -4    2.75    0.69
   5   6  -4    2.12    0.91
   4  -6  -4   21.04    1.56
   4   6  -4   24.90    2.26
   4   6  -4   22.41    1.54
   3  -6  -4    9.78    0.92
   3   6  -4    9.62    1.34
   3   6  -4    9.62    0.89
   2  -6  -4    2.48    0.50
   2  -6  -4    2.40    0.42
   2   6  -4    3.22    0.47
   2   6  -4    2.62    0.75
  -1  -6   4  156.31    7.70
   1  -6  -4  150.65    7.70
   1   6  -4  181.29   11.04
   1   6  -4  174.26    7.07
   0  -6  -4   42.36    2.30
   0  -6   4   43.84    2.39
   0   6  -4   45.18    2.01
   0   6  -4   43.14    3.45
   1  -6   4    2.19    0.62
  -1  -6  -4    1.90    0.49
  -1   6  -4    2.37    0.81
   2  -6   4   72.47    3.92
   3  -6   4   30.27    2.15
   4  -6   4    4.79    1.10
  -4  -6  -4    6.39    1.03
   6  -7  -4    0.03    0.63
   6   7  -4   -0.06    0.59
   5  -7  -4    2.79    0.71
   5   7  -4    3.61    0.99
   5   7  -4    2.79    0.68
   4  -7  -4  104.61    4.97
   4   7  -4  108.75    7.43
   4   7  -4  104.03    4.90
   3  -7  -4   42.53    2.32
   3   7  -4   46.64    3.58
   3   7  -4   43.97    2.25
   2  -7  -4   12.71    0.97
   2  -7  -4   11.75    0.87
   2   7  -4   13.45    1.53
   2   7  -4   12.44    0.86
   1  -7  -4   20.17    1.27
  -1  -7   4   20.00    1.26
   1   7  -4   20.64    1.11
   1   7  -4   24.38    2.11
   0  -7  -4  106.04    5.07
   0  -7   4  105.77    5.13
   0   7  -4  102.75    7.29
   1  -7   4   29.66    1.85
  -1  -7  -4   26.23    1.64
  -1   7  -4   28.68    2.57
  -2  -7  -4   60.75    3.29
   2  -7   4   67.13    3.55
  -3  -7  -4    1.52    0.60
   3  -7   4    0.40    0.70
  -4  -7  -4    7.26    1.09
   4  -7   4    4.77    1.09
   6  -8  -4   22.45    1.86
   6   8  -4   20.87    1.74
   5  -8  -4    2.08    0.67
   5   8  -4    1.83    0.82
   5   8  -4    1.86    0.65
   4  -8  -4    6.95    0.91
   4   8  -4    4.82    1.11
   4   8  -4    7.19    0.86
   3  -8  -4   14.05    1.13
   3   8  -4   13.78    1.03
   3   8  -4   14.27    1.67
   2  -8  -4   11.28    0.94
   2  -8  -4   11.32    0.88
   2   8  -4   11.56    0.82
   2   8  -4   13.87    1.53
  -1  -8   4  113.84    5.91
   1   8  -4  138.08    8.56
   0  -8  -4   55.44    2.82
   0  -8   4   55.84    2.89
   0   8  -4   51.66    4.15
  -1  -8  -4   10.35    0.91
   1  -8   4   11.31    1.07
  -1   8  -4    9.60    1.47
   2  -8   4   66.10    3.57
  -2  -8  -4   61.21    3.30
   3  -8   4   19.72    1.77
  -3  -8  -4   23.19    1.59
  -4  -8  -4    6.58    1.08
   4  -8   4    5.16    1.13
   6  -9  -4    0.22    0.65
   6   9  -4   -0.20    0.61
   5  -9  -4    1.82    0.68
   5   9  -4    2.67    0.89
   5   9  -4    3.53    0.74
   4  -9  -4   36.88    2.16
   4   9  -4   35.21    2.03
   4   9  -4   35.53    3.02
   3  -9  -4   58.80    3.02
   3   9  -4   63.68    4.55
   3   9  -4   59.59    2.90
   2  -9  -4    8.61    0.84
   2  -9  -4    8.78    0.79
   2   9  -4    9.29    1.27
   2   9  -4    8.67    0.70
  -1  -9   4    8.70    0.83
   1  -9  -4   11.85    0.89
   1   9  -4    8.85    1.34
   0  -9   4   65.73    3.43
   0  -9  -4   68.85    3.40
   0   9  -4   63.94    4.96
  -1  -9  -4    0.62    0.41
   1  -9   4    0.89    0.54
  -1   9  -4    0.36    0.63
   2  -9   4   52.27    2.98
  -2  -9  -4   48.64    2.72
  -3  -9  -4    6.50    0.96
   3  -9   4    5.75    1.08
  -4  -9  -4    1.87    0.75
   4  -9   4    1.98    0.93
   6  10  -4   15.76    1.54
   5 -10  -4    1.25    0.60
   5  10  -4    1.13    0.74
   5  10  -4    0.43    0.52
   4 -10  -4    4.11    0.74
   4  10  -4    3.47    0.66
   4  10  -4    2.88    0.92
   3 -10  -4   13.61    1.13
   3  10  -4   11.31    0.95
   3  10  -4   12.82    1.57
   2 -10  -4   14.09    1.07
   2 -10  -4   12.27    0.99
   2  10  -4   14.32    1.61
   1 -10  -4  117.46    5.75
  -1 -10   4  110.65    5.71
   1  10  -4  132.25    8.29
   0 -10   4   23.80    1.53
   0 -10  -4   24.04    1.48
   0  10  -4   19.46    2.23
   1 -10   4   16.09    1.35
  -1 -10  -4   15.53    1.18
  -1  10  -4   17.38    2.01
  -2 -10  -4   52.13    2.95
   2 -10   4   60.12    3.25
  -2  10  -4   56.09    4.54
   3 -10   4   17.94    1.70
  -3 -10  -4   21.30    1.55
  -4 -10  -4    5.34    0.97
   4 -10   4    3.66    1.03
   5 -11  -4    1.20    0.64
   5  11  -4    0.55    0.56
   5  11  -4   -0.11    0.62
   4 -11  -4   32.06    1.94
   4  11  -4   29.83    1.80
   4  11  -4   28.95    2.69
   3 -11  -4   63.23    3.16
   3  11  -4   63.11    3.01
   3  11  -4   62.66    4.71
   2 -11  -4    7.53    0.84
   2 -11  -4    9.08    0.90
   2  11  -4    9.04    1.30
  -1 -11   4   28.76    1.81
   1 -11  -4   32.13    1.87
   1  11  -4   35.28    2.88
   0 -11   4   50.70    2.81
   0 -11  -4   54.35    2.78
   0  11  -4   48.58    4.11
  -1 -11  -4    5.07    0.74
   1 -11   4    6.00    0.96
  -1  11  -4    5.58    1.30
  -2 -11  -4   39.32    2.40
   2 -11   4   44.98    2.66
  -2  11  -4   44.77    3.69
   3 -11   4    6.53    1.11
  -3 -11  -4    8.13    1.04
  -4 -11  -4    8.76    1.16
   4 -11   4    4.02    1.11
   5 -12  -4    4.84    0.88
   5  12  -4    3.67    1.01
   5  12  -4    4.40    0.80
   4 -12  -4   12.04    1.20
   4  12  -4   10.81    1.08
   4  12  -4   11.26    1.56
   3 -12  -4   12.81    1.14
   3  12  -4   12.64    1.59
   2 -12  -4   11.02    1.02
   2 -12  -4   11.24    0.98
   2  12  -4   10.22    1.43
  -1 -12   4  170.99    8.79
   1 -12  -4  187.88    8.87
   1  12  -4  204.79   12.60
   0 -12  -4   13.77    1.16
   0 -12   4   14.14    1.20
   0  12  -4   15.96    1.93
   1 -12   4   19.50    1.56
  -1 -12  -4   20.42    1.44
  -1  12  -4   20.79    2.31
  -2 -12  -4   46.72    2.63
   2 -12   4   50.03    2.90
  -2  12  -4   45.47    3.97
  -3 -12  -4   20.61    1.55
   3 -12   4   20.46    1.82
  -4 -12  -4   11.36    1.43
   5 -13  -4    8.47    1.10
   5  13  -4    7.09    1.42
   5  13  -4    8.51    1.04
   4 -13  -4   63.18    3.19
   4  13  -4   57.93    4.59
   3 -13  -4   61.52    3.15
   3  13  -4   63.02    4.71
   2 -13  -4   14.77    1.21
   2 -13  -4   15.78    1.21
   2  13  -4   15.78    1.80
   1 -13  -4   10.22    1.09
  -1 -13   4    9.46    1.02
   1  13  -4    9.25    1.56
   0 -13  -4   31.88    2.04
   0 -13   4   32.96    2.10
   0  13  -4   40.18    3.30
  -1 -13  -4   15.76    1.30
   1 -13   4   16.85    1.46
  -1  13  -4   21.10    2.33
   2 -13   4   37.83    2.46
  -2 -13  -4   33.77    2.19
  -2  13  -4   42.17    3.56
   3 -13   4    6.69    1.15
  -3 -13  -4    8.10    1.06
   5 -14  -4    2.77    0.76
   4 -14  -4    2.74    0.67
   4  14  -4    3.37    0.98
   3 -14  -4   22.54    1.52
   3  14  -4   21.42    2.22
   2 -14  -4    6.84    0.91
   2 -14  -4    7.65    0.89
   2  14  -4    8.31    1.45
   1 -14  -4  109.16    5.39
  -1 -14   4  102.89    5.31
   1  14  -4  111.62    7.69
   0 -14  -4   16.50    1.37
   0 -14   4   16.16    1.38
   0  14  -4   19.90    2.25
   1 -14   4   21.80    1.76
  -1 -14  -4   22.30    1.62
  -1  14  -4   31.33    2.91
   2 -14   4   35.81    2.38
  -2 -14  -4   34.45    2.18
  -3 -14  -4   25.93    1.81
   3 -14   4   25.43    2.04
   5 -15  -4    4.82    0.89
   4 -15  -4   42.75    2.40
   4  15  -4   39.90    3.44
   3 -15  -4   20.92    1.49
   3  15  -4   21.05    2.17
   2 -15  -4   13.88    1.24
   2 -15  -4   16.29    1.26
   2  15  -4   13.92    1.82
   1 -15  -4   20.95    1.50
  -1 -15   4   16.53    1.36
   1  15  -4   18.49    2.20
   0 -15  -4   37.07    2.29
   0 -15   4   36.79    2.32
   0  15  -4   40.04    3.53
  -1 -15  -4   10.29    1.09
   1 -15   4   11.77    1.38
  -1  15  -4   11.58    2.15
   2 -15   4   16.94    1.59
  -2 -15  -4   17.31    1.39
  -3 -15  -4    9.30    1.19
   3 -15   4    6.52    1.16
   4 -16  -4   10.68    1.13
   4  16  -4    9.01    1.53
   3 -16  -4    8.23    0.98
   3  16  -4    8.56    1.52
   2 -16  -4    1.25    0.56
   2 -16  -4    1.31    0.60
   2  16  -4    2.45    0.95
  -1 -16   4   64.69    3.70
   1 -16  -4   70.37    3.80
   1  16  -4   77.51    5.52
   0 -16  -4   28.56    1.91
   0 -16   4   25.82    1.86
   0  16  -4   26.25    2.87
  -1 -16  -4   13.07    1.22
   1 -16   4   13.48    1.50
  -1  16  -4   11.48    2.28
  -2 -16  -4   25.99    1.78
   2 -16   4   24.50    1.98
   3 -16   4   16.63    1.74
  -3 -16  -4   18.86    1.52
   5 -17  -4    1.91    0.77
   4 -17  -4   34.32    2.14
   4  17  -4   34.45    3.12
   3 -17  -4   25.93    1.69
   3  17  -4   23.83    2.51
   2 -17  -4   15.29    1.36
   2 -17  -4   14.74    1.30
   2  17  -4   16.25    1.99
   1 -17  -4   12.90    1.38
  -1 -17   4   10.60    1.14
   1  17  -4   12.61    1.89
   0 -17   4   34.59    2.36
   0 -17  -4   40.95    2.43
   0  17  -4   37.79    3.56
  -1 -17  -4   14.91    1.42
   1 -17   4   15.20    1.52
  -1  17  -4   20.45    2.62
  -2 -17  -4   24.88    1.78
   2 -17   4   23.45    1.97
   3 -17   4    1.00    0.88
  -3 -17  -4    2.26    0.72
   4 -18  -4    8.09    1.01
   4  18  -4    7.54    1.45
   3 -18  -4    4.73    0.80
   3  18  -4    6.54    1.41
   2 -18  -4   14.17    1.40
   2 -18  -4   15.66    1.34
   2  18  -4   15.14    1.98
   1 -18  -4   94.18    4.97
  -1 -18   4   91.13    4.86
   1  18  -4   98.22    7.05
   0 -18   4   22.10    1.82
   0 -18  -4   22.68    1.83
   0  18  -4   29.47    2.96
   1 -18   4   12.38    1.53
  -1 -18  -4   12.45    1.26
  -1  18  -4   14.68    2.47
   2 -18   4   34.70    2.49
  -2 -18  -4   34.23    2.26
   4 -19  -4   27.72    1.87
   4  19  -4   26.80    2.72
   3 -19  -4   19.98    1.50
   3  19  -4   18.76    2.24
   2 -19  -4   36.26    2.36
   2 -19  -4   34.58    2.18
   2  19  -4   35.67    3.28
   1 -19  -4    9.80    1.29
  -1 -19   4    9.18    1.31
   1  19  -4    8.08    1.65
   0 -19  -4   33.06    2.31
   0 -19   4   30.35    2.28
   0  19  -4   40.56    3.68
  -1 -19  -4    9.71    1.25
   1 -19   4    9.93    1.36
   2 -19   4   28.91    2.24
  -2 -19  -4   26.09    1.94
   4 -20  -4   10.06    1.11
   4  20  -4   10.20    1.75
   3 -20  -4    8.84    1.06
   3  20  -4   10.10    1.74
   2 -20  -4   14.70    1.47
   2 -20  -4   14.12    1.36
   2  20  -4   15.90    2.10
   1 -20  -4   55.58    3.35
   1  20  -4   55.75    4.69
   0 -20  -4   21.09    1.87
   0 -20   4   20.56    1.84
   0  20  -4   28.43    3.10
   1 -20   4   22.54    1.94
  -1 -20  -4   22.19    1.77
   2 -20   4   18.44    1.82
  -2 -20  -4   16.31    1.49
   4 -21  -4   10.96    1.18
   3 -21  -4   14.70    1.34
   3  21  -4   12.71    1.89
   2 -21  -4   29.17    1.94
   2 -21  -4   27.88    2.09
   2  21  -4   27.48    2.87
   1 -21  -4    9.79    1.40
   1  21  -4    8.36    1.79
   0 -21   4   25.50    2.10
   0 -21  -4   25.15    2.12
   0  21  -4   34.37    3.50
   1 -21   4    1.30    0.76
  -1 -21  -4    0.71    0.69
   3 -22  -4    4.88    0.82
   3  22  -4    4.67    1.29
   2 -22  -4    5.07    0.87
   2 -22  -4    4.37    1.00
   2  22  -4    4.09    1.31
   1 -22  -4   36.22    2.56
   1  22  -4   36.74    3.64
   0 -22   4    6.75    1.24
   0 -22  -4    7.51    1.29
   0  22  -4    8.92    2.04
  -1 -22  -4   22.20    1.92
   1 -22   4   24.02    2.06
   3 -23  -4   13.92    1.36
   2 -23  -4   11.37    1.47
   2 -23  -4   11.97    1.24
   2  23  -4   11.05    1.94
   1 -23  -4   13.78    1.72
   1  23  -4   15.82    2.50
   0 -23  -4   12.79    1.71
   0 -23   4   12.61    1.68
   1 -23   4    6.18    1.28
   2 -24  -4    2.27    0.89
   2 -24  -4    2.62    0.73
   1 -24  -4   43.81    3.02
   0 -24   4    8.65    1.42
   5   0  -5   17.08    1.53
   4   0  -5    0.13    0.53
   3   0  -5   70.79    3.44
   2   0  -5    0.43    0.41
   1   0  -5    2.39    0.48
   0   0   5   64.55    3.43
   1   0   5   61.87    3.40
   2   0   5   -0.26    0.67
   3   0   5    2.56    0.90
   5  -1  -5   21.53    1.71
   5   1  -5   20.80    1.68
   4  -1  -5    0.68    0.55
   4   1  -5    1.12    0.63
   3  -1  -5   40.01    2.22
   3   1  -5   42.63    2.25
   2  -1  -5   83.98    3.87
   2   1  -5   82.77    3.85
  -1  -1   5    8.06    0.91
   1  -1  -5    6.27    0.64
   1  -1  -5    8.24    0.76
   1   1  -5    7.08    0.71
   0  -1   5    9.01    1.05
   0   1  -5    7.12    1.24
   0   1   5    7.44    1.01
   1  -1   5   13.18    1.24
   1   1   5   12.77    1.36
  -1   1  -5    8.93    1.49
   2  -1   5    0.87    0.72
   2   1   5    0.68    0.70
   3  -1   5   47.37    3.02
   3   1   5   48.72    3.03
   5  -2  -5   31.51    2.12
   5   2  -5   32.90    2.15
   4  -2  -5   12.36    1.22
   4   2  -5   11.56    1.18
   3  -2  -5   26.54    1.69
   3   2  -5   29.23    1.72
   2  -2  -5    7.28    0.78
   2   2  -5    6.64    0.73
   1  -2  -5    3.85    0.58
   1  -2  -5    2.57    0.47
  -1  -2   5    4.03    0.66
   1   2  -5    2.54    0.45
   0  -2   5   69.10    3.49
   0   2  -5   62.72    4.89
   1  -2   5   79.08    3.94
   1   2   5   73.45    3.89
  -1   2  -5   67.15    5.27
   2  -2   5    0.04    0.62
   2   2   5    0.46    0.67
   3  -2   5    4.89    1.02
   3   2   5    4.54    1.02
   5  -3  -5   15.14    1.46
   5   3  -5   15.78    1.49
   4  -3  -5    3.80    0.76
   4   3  -5    2.92    0.69
   3  -3  -5   28.09    1.73
   3   3  -5   27.55    1.69
   2  -3  -5   96.89    4.61
   2   3  -5  105.51    4.59
  -1  -3   5    3.89    0.65
   1  -3  -5    2.58    0.49
   1  -3  -5    2.54    0.53
   1   3  -5    2.95    0.45
   1   3  -5    2.51    0.89
   0  -3   5   17.19    1.34
   0   3  -5   16.15    1.89
   0   3  -5   16.88    1.02
   1  -3   5   15.35    1.36
   1   3   5   13.54    1.29
  -1   3  -5   10.89    1.67
   2  -3   5   -1.81    0.55
   2   3   5   -0.20    0.55
   3  -3   5   34.78    2.39
   3   3   5   29.96    2.28
   5  -4  -5   15.94    1.51
   5   4  -5   17.78    1.50
   4  -4  -5    1.69    0.63
   4   4  -5    2.21    0.66
   3  -4  -5   18.14    1.43
   3   4  -5   26.50    1.51
   2  -4  -5    5.50    0.72
   2   4  -5    5.84    0.69
   1  -4  -5    1.98    0.47
   1  -4  -5    2.21    0.54
  -1  -4   5    2.50    0.56
   1   4  -5    1.84    0.39
   1   4  -5    1.51    0.82
   0  -4  -5   82.60    4.01
   0  -4   5   82.54    4.13
   0   4  -5   75.31    5.81
   1  -4   5   79.78    4.22
  -1   4  -5   79.68    5.82
   2  -4   5    0.20    0.68
   3  -4   5    1.56    0.86
   5  -5  -5   14.09    1.44
   5   5  -5   15.40    1.47
   5   5  -5   15.53    2.01
   4  -5  -5    2.03    0.63
   4   5  -5    1.00    0.58
   4   5  -5    0.76    0.86
   3  -5  -5   11.33    1.12
   3   5  -5   14.55    1.15
   3   5  -5   15.83    1.86
   2  -5  -5  105.12    4.66
   2   5  -5  107.66    4.55
   2   5  -5   88.02    7.04
   1  -5  -5    0.60    0.37
   1  -5  -5    0.77    0.46
   1   5  -5    0.32    0.31
   1   5  -5    0.22    0.59
   0  -5   5    7.12    0.93
   0  -5  -5    7.27    0.83
   0   5  -5    5.00    1.20
   1  -5   5   13.37    1.32
  -1  -5  -5   14.17    1.10
  -1   5  -5   11.87    1.76
   2  -5   5    0.57    0.73
   3  -5   5   30.78    2.31
   5  -6  -5   21.65    1.72
   5   6  -5   19.62    1.65
   5   6  -5   21.57    2.45
   4  -6  -5    2.63    0.68
   4   6  -5    1.55    0.60
   4   6  -5    1.77    0.96
   3  -6  -5   33.42    1.94
   3   6  -5   33.27    3.00
   3   6  -5   31.46    1.84
   2  -6  -5    4.11    0.66
   2   6  -5    3.55    1.06
   2   6  -5    3.76    0.59
   1  -6  -5    0.84    0.40
   1   6  -5    0.79    0.69
   0  -6  -5   86.55    4.27
   0  -6   5   86.50    4.37
   0   6  -5   83.78    6.23
  -1  -6  -5   69.54    3.68
   1  -6   5   74.08    3.88
  -1   6  -5   71.86    5.40
   2  -6   5    4.52    0.95
  -2  -6  -5    4.84    0.88
   3  -6   5    1.65    0.87
  -3  -6  -5    1.18    0.70
   5  -7  -5   10.70    1.25
   5   7  -5   11.78    1.23
   5   7  -5   10.79    1.80
   4  -7  -5    3.67    0.76
   4   7  -5    2.90    1.05
   4   7  -5    3.49    0.70
   3  -7  -5   27.06    1.76
   3   7  -5   29.46    1.69
   3   7  -5   28.88    2.77
   2  -7  -5   95.49    4.39
   2   7  -5   91.59    6.74
   1  -7  -5    0.66    0.39
   1   7  -5    2.00    0.81
   0  -7   5   12.25    1.17
   0  -7  -5   12.88    1.05
   0   7  -5   12.71    1.79
  -1  -7  -5   11.94    1.07
   1  -7   5   12.73    1.28
  -1   7  -5   11.99    1.77
   2  -7   5    3.80    0.92
  -2  -7  -5    3.90    0.78
   3  -7   5   32.07    2.49
  -3  -7  -5   38.28    2.44
   5  -8  -5   14.99    1.46
   5   8  -5   14.24    1.40
   5   8  -5   14.72    2.01
   4  -8  -5    2.96    0.72
   4   8  -5    2.64    0.67
   4   8  -5    1.98    0.95
   3  -8  -5   28.99    1.81
   3   8  -5   28.98    1.71
   3   8  -5   30.13    2.85
   2  -8  -5    9.89    0.99
   2   8  -5   10.42    1.67
   1  -8  -5    0.90    0.43
   1   8  -5    1.01    0.73
   0  -8  -5   68.13    3.37
   0  -8   5   66.90    3.48
   0   8  -5   58.05    4.93
   1  -8   5   45.76    2.67
  -1  -8  -5   37.95    2.39
  -1   8  -5   48.34    3.81
  -2  -8  -5    9.07    1.06
   2  -8   5    7.23    1.16
  -3  -8  -5    4.37    0.94
   3  -8   5    2.75    0.92
   5  -9  -5   10.83    1.23
   5   9  -5   14.55    1.92
   5   9  -5   13.92    1.38
   4  -9  -5    2.17    0.66
   4   9  -5    2.68    1.00
   4   9  -5    2.53    0.66
   3  -9  -5   25.27    1.69
   3   9  -5   27.31    2.63
   2  -9  -5  107.31    4.67
   2   9  -5   89.45    7.00
   1  -9  -5   12.60    1.07
   1   9  -5   14.04    1.82
   0  -9  -5    5.76    0.84
   0  -9   5    5.97    0.91
   0   9  -5    6.27    1.52
  -1  -9  -5    6.76    0.93
   1  -9   5    7.15    1.07
  -1   9  -5    6.60    1.41
   2  -9   5    1.99    0.83
  -2  -9  -5    2.90    0.74
   3  -9   5   36.72    2.66
  -3  -9  -5   40.66    2.49
   5 -10  -5   17.32    1.60
   5  10  -5   19.97    1.58
   5  10  -5   18.31    2.22
   4 -10  -5    6.41    0.90
   4  10  -5    6.25    1.41
   3 -10  -5   29.21    1.84
   3  10  -5   29.90    2.80
   2 -10  -5    4.34    0.73
   2  10  -5    3.16    1.06
   1 -10  -5    8.19    0.96
   1  10  -5    9.36    1.71
   0 -10  -5   55.66    2.94
   0 -10   5   53.57    3.00
   0  10  -5   50.75    4.39
  -1 -10  -5   30.60    2.00
   1 -10   5   34.47    2.25
  -1  10  -5   35.48    3.25
   2 -10   5    2.61    0.88
  -2 -10  -5    3.87    0.85
   3 -10   5    3.48    1.04
  -3 -10  -5    2.84    0.80
   5 -11  -5    7.85    1.05
   5  11  -5    8.82    1.64
   4 -11  -5    1.25    0.58
   4  11  -5    1.57    0.88
   3 -11  -5   33.05    1.99
   3  11  -5   30.87    2.95
   2 -11  -5   68.23    3.49
   2  11  -5   71.00    5.33
   1 -11  -5    3.82    0.74
   1  11  -5    4.63    1.20
   0 -11  -5   13.71    1.19
   0 -11   5   12.91    1.23
   0  11  -5   13.49    2.16
  -1 -11  -5   11.02    1.23
   1 -11   5    8.16    1.19
  -1  11  -5    8.20    1.70
   2 -11   5    0.18    0.72
  -2 -11  -5    0.35    0.54
   3 -11   5   32.41    2.48
  -3 -11  -5   31.89    2.19
   5 -12  -5   15.89    1.53
   5  12  -5   15.71    2.02
   4 -12  -5    0.72    0.56
   4  12  -5    0.16    0.74
   3 -12  -5   29.58    1.95
   3  12  -5   33.62    3.00
   2 -12  -5    1.95    0.62
   2  12  -5    1.08    0.86
   1 -12  -5   12.38    1.13
   1  12  -5   10.37    1.90
   0 -12  -5   46.24    2.60
   0 -12   5   42.55    2.61
   0  12  -5   46.30    4.01
  -1 -12  -5   50.76    2.93
   1 -12   5   45.97    3.04
  -1  12  -5   62.32    4.69
   2 -12   5    1.70    0.86
  -2 -12  -5    2.03    0.72
  -3 -12  -5    4.02    0.86
   3 -12   5    1.10    0.93
   5  13  -5    8.75    1.63
   4 -13  -5    4.46    0.84
   4  13  -5    4.96    1.24
   3 -13  -5   11.91    1.20
   3  13  -5   10.76    1.77
   2 -13  -5   50.13    2.77
   2  13  -5   52.16    4.22
   1 -13  -5    7.50    1.02
   1  13  -5    7.47    1.61
   0 -13  -5   10.71    1.13
   0 -13   5   11.35    1.21
   0  13  -5   11.77    2.12
  -1 -13  -5   10.41    1.13
   1 -13   5   10.36    1.27
  -1  13  -5   16.71    2.26
   2 -13   5    1.51    0.81
  -2 -13  -5    0.13    0.56
   5  14  -5   10.61    1.81
   4 -14  -5    0.39    0.55
   4  14  -5    0.17    0.74
   3 -14  -5   16.57    1.42
   3  14  -5   17.24    2.11
   2 -14  -5    1.91    0.68
   2  14  -5    2.18    1.02
   1 -14  -5   19.00    1.50
   1  14  -5   15.87    2.17
   0 -14   5   51.64    3.00
   0 -14  -5   52.73    2.95
   0  14  -5   48.41    4.42
  -1 -14  -5   54.42    3.07
  -1  14  -5   55.89    4.77
   2 -14   5    2.72    0.93
  -2 -14  -5    5.06    0.93
   4 -15  -5    4.39    0.83
   4  15  -5    4.70    1.26
   3 -15  -5   14.25    1.32
   3  15  -5   11.85    1.91
   2 -15  -5   49.35    2.73
   2  15  -5   45.57    3.99
   1 -15  -5    4.12    0.85
   1  15  -5    2.71    1.16
   0 -15   5    8.85    1.23
   0 -15  -5   12.76    1.35
   0  15  -5   11.44    2.12
  -1 -15  -5   13.22    1.29
   1 -15   5   10.95    1.37
  -1  15  -5   13.08    2.37
  -2 -15  -5    1.09    0.64
   2 -15   5    1.09    0.83
   4 -16  -5    1.48    0.66
   4  16  -5    1.33    0.91
   3 -16  -5   13.66    1.32
   3  16  -5   13.12    1.89
   2 -16  -5    2.65    0.74
   2  16  -5    3.39    1.16
   1 -16  -5    8.59    1.16
   1  16  -5    5.64    1.54
   0 -16  -5   43.31    2.56
   0 -16   5   38.09    2.55
   0  16  -5   38.80    3.85
   1 -16   5   40.87    2.72
  -1 -16  -5   39.74    2.55
  -1  16  -5   42.06    4.06
  -2 -16  -5   12.01    1.32
   2 -16   5    8.84    1.37
   4 -17  -5    3.06    0.79
   4  17  -5    3.23    1.13
   3 -17  -5   20.57    1.69
   3  17  -5   25.53    2.60
   2 -17  -5   37.52    2.35
   2  17  -5   36.69    3.45
   1 -17  -5    4.43    0.96
   1  17  -5    3.59    1.34
   0 -17  -5   13.52    1.46
   0 -17   5   11.00    1.37
   0  17  -5    9.85    2.09
  -1 -17  -5    4.31    0.92
   1 -17   5    3.96    1.01
  -1  17  -5    4.73    1.64
   2 -17   5    4.62    1.08
   3 -18  -5   33.50    2.17
   3  18  -5   32.52    3.23
   2 -18  -5    0.21    0.61
   2  18  -5    0.54    0.86
   1 -18  -5    6.68    1.15
   1  18  -5    6.68    1.69
   0 -18  -5   40.17    2.71
   0 -18   5   37.70    2.67
   0  18  -5   50.93    4.31
   1 -18   5   16.32    1.72
  -1 -18  -5   17.27    1.59
  -1  18  -5   23.44    3.05
   3 -19  -5   16.10    1.46
   3  19  -5   13.47    2.17
   2 -19  -5   37.71    2.43
   2  19  -5   36.35    3.54
   1 -19  -5    2.81    0.87
   1  19  -5    3.81    1.37
   0 -19  -5    6.70    1.22
   0  19  -5   13.54    2.37
   1 -19   5    2.92    0.98
  -1 -19  -5    6.63    1.11
  -1  19  -5    7.46    2.01
   2 -20  -5    2.28    0.74
   2  20  -5    4.01    1.32
   1 -20  -5   10.39    1.42
   1  20  -5    9.36    1.99
   0 -20  -5   22.40    2.03
   0  20  -5   27.34    3.30
   1 -20   5   10.43    1.46
   2 -21  -5   31.20    2.22
   1 -21  -5    5.42    1.18
   1  21  -5    5.25    1.70
   0 -21  -5   19.40    1.92
   0  21  -5   20.42    3.40
   1 -22  -5   16.22    1.85
   5   0  -6    0.54    0.64
   4   0  -6    6.36    0.92
   3   0  -6   12.53    1.15
   2   0  -6   45.91    2.40
   1   0  -6   43.83    2.26
   0   0   6    0.68    0.65
   0   0  -6    0.34    0.41
   0   0  -6    0.68    0.59
   1   0   6    4.53    0.96
   5  -1  -6    3.85    0.87
   5   1  -6    2.25    0.76
   4  -1  -6   30.24    1.99
   4   1  -6   30.93    2.00
   3  -1  -6    7.34    0.88
   3   1  -6    7.49    0.86
   2  -1  -6    2.90    0.60
   2   1  -6    3.93    0.64
   1  -1  -6   37.69    2.05
   1   1  -6   37.97    2.01
   0  -1   6    8.85    1.10
   0   1  -6    7.66    1.48
   1  -1   6    7.47    1.11
   1   1   6    6.34    1.04
   2  -1   6    3.30    0.96
   2   1   6    4.26    0.98
   5  -2  -6    0.78    0.65
   5   2  -6    2.25    0.78
   4  -2  -6    2.01    0.67
   4   2  -6    1.10    0.63
   3  -2  -6    7.94    0.94
   3   2  -6    7.61    0.90
   2  -2  -6   22.15    1.48
   2   2  -6   22.77    1.44
   1  -2  -6   27.61    1.64
   1   2  -6   25.22    1.52
   1   2  -6   25.82    2.65
   0  -2   6    0.26    0.56
   0  -2  -6    0.34    0.43
   0   2  -6   -0.05    0.66
   1  -2   6    6.77    1.10
   2  -2   6   34.07    2.36
   2   2   6   29.76    2.25
   5  -3  -6    3.66    0.85
   5   3  -6    5.24    0.95
   4  -3  -6   43.65    2.56
   4   3  -6   46.46    2.58
   3  -3  -6    4.81    0.79
   3   3  -6    5.42    0.79
   2  -3  -6    6.96    0.84
   2   3  -6    4.53    1.28
   2   3  -6    5.24    0.71
   1  -3  -6   41.36    2.14
   1   3  -6   33.17    3.31
   0  -3  -6    8.21    0.89
   0  -3   6    9.11    1.17
   0   3  -6    7.53    1.49
   1  -3   6    9.31    1.21
   2  -3   6    1.57    0.86
   5  -4  -6    1.84    0.71
   5   4  -6    0.97    0.69
   5   4  -6    0.71    0.94
   4  -4  -6    6.29    0.96
   4   4  -6    5.88    0.93
   4   4  -6    8.26    1.72
   3  -4  -6    8.29    0.98
   3   4  -6   10.36    1.03
   3   4  -6    8.74    1.70
   2  -4  -6   11.10    1.08
   2   4  -6   10.08    1.82
   1  -4  -6   41.15    2.17
   1   4  -6   34.02    3.39
   0  -4  -6    0.12    0.44
   0  -4   6   -0.04    0.52
   0   4  -6    0.42    0.67
   1  -4   6    8.80    1.22
  -1  -4  -6   12.49    1.16
   2  -4   6   27.04    2.23
  -2  -4  -6   33.08    2.15
   5  -5  -6    8.79    1.14
   5   5  -6    8.77    1.08
   4  -5  -6   37.10    2.40
   4   5  -6   42.08    2.43
   4   5  -6   47.03    3.96
   3  -5  -6    4.78    0.79
   3   5  -6    4.74    0.76
   3   5  -6    5.25    1.38
   2  -5  -6    2.31    0.61
   2   5  -6    3.69    1.23
   1  -5  -6   32.46    1.84
   1   5  -6   24.70    2.85
   0  -5   6    9.14    1.12
   0  -5  -6    8.64    0.94
   0   5  -6    8.87    1.66
  -1  -5  -6   26.12    1.75
   1  -5   6   22.13    1.88
   2  -5   6    2.65    0.96
  -2  -5  -6    2.36    0.82
   5  -6  -6    2.35    0.82
   5   6  -6    1.61    0.73
   5   6  -6    3.34    1.28
   4  -6  -6    3.46    0.76
   4   6  -6    3.24    0.77
   4   6  -6    3.18    1.29
   3  -6  -6    3.86    0.74
   3   6  -6    5.92    1.57
   2  -6  -6    7.72    0.97
   2   6  -6    8.47    1.68
   1  -6  -6   43.28    2.31
   1   6  -6   35.19    3.50
   0  -6  -6    3.03    0.69
   0  -6   6    2.83    0.77
   0   6  -6    1.49    0.96
   1  -6   6    8.57    1.24
  -1  -6  -6   11.21    1.11
   2  -6   6   32.13    2.49
  -2  -6  -6   38.21    2.30
   5   7  -6    8.22    1.73
   5   7  -6    7.61    1.03
   4  -7  -6   28.72    1.94
   4   7  -6   29.97    3.15
   3  -7  -6    1.83    0.62
   3   7  -6    2.98    1.20
   2  -7  -6    0.54    0.52
   2   7  -6    0.66    0.84
   1  -7  -6   50.86    2.75
   1   7  -6   48.38    4.21
   0  -7  -6   18.57    1.42
   0   7  -6   17.29    2.25
   1  -7   6   19.44    1.76
  -1  -7  -6   21.24    1.54
  -2  -7  -6    4.50    0.88
   2  -7   6    3.37    1.00
   5   8  -6    3.40    1.31
   4  -8  -6    4.09    0.81
   4   8  -6    3.94    1.40
   3  -8  -6    7.04    0.93
   3   8  -6    7.95    1.68
   2  -8  -6   17.20    1.45
   2   8  -6   16.71    2.21
   1  -8  -6   39.83    2.30
   1   8  -6   34.27    3.45
   0  -8  -6   10.22    1.07
   0   8  -6   10.62    1.93
   1  -8   6   14.16    1.52
  -1  -8  -6   13.96    1.25
  -2  -8  -6   38.32    2.37
   2  -8   6   30.84    2.49
   4  -9  -6   24.51    1.82
   4   9  -6   27.10    2.89
   3  -9  -6    6.94    0.99
   3   9  -6   10.22    1.84
   2  -9  -6    1.37    0.63
   2   9  -6    2.83    1.14
   1  -9  -6   32.39    2.12
   1   9  -6   29.22    3.16
   0  -9  -6    5.41    0.89
   0   9  -6    4.84    1.44
   1  -9   6    5.87    1.11
  -1  -9  -6   10.61    1.17
   2  -9   6    1.66    0.92
  -2  -9  -6    0.85    0.68
   4 -10  -6    1.33    0.62
   4  10  -6    1.05    1.00
   3 -10  -6    5.34    0.84
   3  10  -6    4.27    1.29
   2 -10  -6   26.70    1.87
   2  10  -6   27.84    2.92
   1 -10  -6   26.42    1.93
   1  10  -6   26.27    2.91
   0 -10  -6    1.51    0.65
   0  10  -6    2.38    1.15
   1 -10   6    4.97    1.05
  -1 -10  -6    6.81    0.96
  -2 -10  -6   34.45    2.22
   2 -10   6   32.34    2.48
   4 -11  -6   20.48    1.76
   4  11  -6   27.05    2.81
   3 -11  -6    2.82    0.72
   3  11  -6    2.12    1.09
   2 -11  -6    9.05    1.09
   2  11  -6    7.79    1.68
   1 -11  -6   31.88    2.18
   1  11  -6   39.77    3.60
   0 -11  -6   13.32    1.24
   0  11  -6   14.18    2.42
  -1 -11  -6   10.35    1.27
   1 -11   6    5.58    1.14
  -2 -11  -6    5.21    1.00
   2 -11   6    2.68    0.97
   4 -12  -6    2.19    0.72
   4  12  -6    2.16    1.14
   3 -12  -6    3.98    0.83
   3  12  -6    5.66    1.45
   2 -12  -6   20.65    1.72
   2  12  -6   24.40    2.67
   1 -12  -6   26.89    1.94
   1  12  -6   30.08    3.15
   0 -12  -6    3.35    0.81
   0  12  -6    3.08    1.26
   1 -12   6    5.67    1.12
  -1 -12  -6    8.96    1.28
   4  13  -6   34.89    3.70
   3 -13  -6    3.41    0.81
   3  13  -6    3.82    1.26
   2 -13  -6   12.41    1.34
   2  13  -6   10.50    2.00
   1 -13  -6   24.23    1.76
   1  13  -6   17.51    2.49
   0 -13  -6    5.96    0.98
   0  13  -6    6.21    1.72
   1 -13   6    9.87    1.38
  -1 -13  -6   12.86    1.51
   3 -14  -6    6.56    1.01
   3  14  -6    7.01    1.60
   2 -14  -6   15.90    1.57
   2  14  -6   12.98    2.22
   1 -14  -6   20.66    1.69
   1  14  -6   18.56    2.58
   0 -14  -6    3.78    0.90
   0  14  -6    7.28    1.79
  -1 -14  -6   10.65    1.23
   1 -14   6    9.11    1.34
   3 -15  -6    4.16    0.89
   3  15  -6    5.78    1.51
   2 -15  -6    7.95    1.16
   2  15  -6    7.75    1.72
   1 -15  -6   24.13    1.97
   1  15  -6   27.88    3.09
   0 -15  -6    4.19    0.96
   0  15  -6    3.72    1.56
  -1 -15  -6   10.77    1.42
   1 -15   6    9.71    1.42
   2 -16  -6    6.33    1.11
   2  16  -6    7.75    1.77
   1 -16  -6   16.86    1.67
   1  16  -6   16.05    2.74
   0 -16  -6   12.64    1.47
   0  16  -6    9.55    2.22
   1 -16   6    4.10    1.09
   1  17  -6   17.30    2.59
   0 -17  -6    0.75    0.73
   0  17  -6    1.19    1.16
   0 -18  -6    5.63    1.10
   4   0  -7    4.67    0.87
   3   0  -7    8.77    0.99
   2   0  -7    0.83    0.51
   1   0  -7   -0.10    0.64
   4  -1  -7    1.44    0.65
   4   1  -7    1.41    0.65
   3  -1  -7   26.17    1.80
   3   1  -7   30.49    1.88
   2  -1  -7   15.01    1.27
   1   1  -7    0.59    0.82
   1  -1   7    6.03    1.13
   4  -2  -7    0.53    0.59
   4   2  -7    0.24    0.57
   3  -2  -7    2.00    0.63
   2  -2  -7    1.71    0.58
   2   2  -7    1.58    1.05
   1  -2  -7    3.11    0.68
   1   2  -7    1.33    0.93
   1  -2   7    3.47    0.98
  -1  -2  -7    5.22    1.03
   4  -3  -7    0.43    0.57
   3  -3  -7   16.04    1.42
   3   3  -7   19.75    2.57
   2  -3  -7   14.94    1.27
   2   3  -7   11.49    2.17
   1  -3  -7    1.45    0.59
   1   3  -7    1.43    0.97
  -1  -3  -7    7.47    1.08
   1  -3   7    4.93    1.13
   4  -4  -7    0.85    0.62
   3  -4  -7    2.06    0.68
   3   4  -7    2.33    1.29
   2  -4  -7    1.65    0.61
   2   4  -7    1.81    1.15
   1  -4  -7    4.46    0.85
   1   4  -7    4.60    1.43
   0  -4  -7   37.72    2.35
   1  -4   7    4.71    1.17
  -1  -4  -7    7.93    1.19
   4  -5  -7    0.03    0.55
   3  -5  -7   14.85    1.38
   3   5  -7   18.22    2.59
   2  -5  -7   17.44    1.46
   2   5  -7   17.91    2.52
   1  -5  -7    1.89    0.71
   1   5  -7    2.04    1.07
  -1  -5  -7    8.60    1.31
   3  -6  -7    3.73    0.80
   3   6  -7    3.92    1.44
   2  -6  -7    1.10    0.58
   2   6  -7    1.82    1.17
   1  -6  -7    8.94    1.13
   1   6  -7    8.71    1.88
  -1  -6  -7    5.34    1.02
   3  -7  -7   25.78    1.95
   3   7  -7   35.04    3.45
   2  -7  -7   16.03    1.44
   2   7  -7   16.11    2.41
   1  -7  -7    4.99    0.95
   1   7  -7    3.27    1.27
  -1  -7  -7    6.30    1.16
   3  -8  -7    4.58    0.85
   3   8  -7    4.17    1.49
   2  -8  -7    4.26    0.85
   2   8  -7    2.96    1.39
   1  -8  -7    3.29    0.87
   1   8  -7    2.10    1.17
   0   8  -7   20.18    2.82
  -1  -8  -7    6.10    1.08
   3  -9  -7   25.25    1.87
   2  -9  -7   10.52    1.25
   2   9  -7    9.26    1.98
   1  -9  -7    2.25    0.80
   1   9  -7    2.04    1.19
   0   9  -7    2.11    1.30
  -1  -9  -7    5.26    1.00
   2 -10  -7    0.90    0.67
   2  10  -7    1.46    1.14
   1 -10  -7    0.68    0.66
   1  10  -7    0.55    0.93
   0  10  -7   19.00    2.61
   2 -11  -7   10.91    1.35
   2  11  -7   14.29    2.35
   1  11  -7    2.42    1.29
   0  11  -7    2.01    1.19
   1  12  -7    3.85    1.53
   0  12  -7   39.19    3.99
   0  13  -7    1.59    1.41
   1   2  -8   -0.11    0.94
   0   0   0    0.00    0.00
;
_shelx_hkl_checksum              48681
#END Tags that were not found in dictionaries
loop_
_space_group_symop_operation_xyz
'x, y, z'
'-x, y+1/2, -z'
loop_
_atom_site_type_symbol
_atom_site_label
_atom_site_fract_x
_atom_site_fract_y
_atom_site_fract_z
_atom_site_U_iso_or_equiv
_atom_site_adp_type
_atom_site_calc_flag
_atom_site_refinement_flags_adp
_atom_site_refinement_flags_posn
_atom_site_occupancy
Ag Ag1 0.21267(11) 0.85778(2) 0.42889(11) 0.02142(15) Uani d . . 1
Ag Ag2 -0.43812(12) 0.86695(3) -0.00853(11) 0.02251(16) Uani d . . 1
C C1 -0.0241(15) 0.7564(4) 0.0253(14) 0.0158(14) Uani d . . 1
C C2 0.1420(17) 0.6944(4) 0.1451(16) 0.0189(15) Uani d . . 1
H H2A 0.0193 0.6542 0.1037 0.023 Uiso calc U R 1
H H2B 0.3111 0.688 0.0739 0.023 Uiso calc U R 1
C C3 0.2383(15) 0.7006(4) 0.4247(14) 0.0133(14) Uani d . . 1
H H3 0.067 0.7047 0.4974 0.016 Uiso calc U R 1
C C4 0.4045(14) 0.6375(4) 0.5277(15) 0.0150(14) Uani d . . 1
C C5 0.3883(15) 0.5246(4) 0.6943(15) 0.0168(15) Uani d . . 1
H H5 0.5685 0.52 0.6347 0.02 Uiso calc U R 1
C C6 0.4690(18) 0.5260(5) 0.9784(17) 0.0190(16) Uani d . . 1
H H6A 0.5824 0.5668 1.0361 0.023 Uiso calc U R 1
H H6B 0.2937 0.5275 1.0433 0.023 Uiso calc U R 1
C C7 0.1968(15) 0.4652(4) 0.5919(14) 0.0159(14) Uani d . . 1
N N1 0.4188(13) 0.7603(4) 0.4921(13) 0.0156(13) Uani d . . 1
H H1A 0.5704 0.7587 0.3975 0.019 Uiso calc U R 1
H H1B 0.5137 0.7569 0.6714 0.019 Uiso calc U R 1
N N2 0.2532(13) 0.5877(3) 0.5962(13) 0.0167(13) Uani d . . 1
H H2 0.0686 0.593 0.5818 0.02 Uiso calc U R 1
N N3 0.6372(15) 0.4656(4) 1.0760(13) 0.0194(14) Uani d . . 1
H H3A 0.7042 0.4712 1.2588 0.023 Uiso calc U R 1
H H3B 0.809 0.4653 1.0059 0.023 Uiso calc U R 1
O O1 0.0592(14) 0.7892(4) -0.1334(13) 0.0318(16) Uani d . . 1
O O2 -0.2444(13) 0.7711(4) 0.1049(14) 0.0288(15) Uani d . . 1
O O3 0.6623(11) 0.6327(3) 0.5399(14) 0.0292(16) Uani d . . 1
O O4 0.2641(15) 0.4287(4) 0.4314(15) 0.0378(18) Uani d . . 1
O O5 -0.0230(12) 0.4560(3) 0.6792(13) 0.0245(14) Uani d . . 1
loop_
_atom_site_aniso_label
_atom_site_aniso_U_11
_atom_site_aniso_U_22
_atom_site_aniso_U_33
_atom_site_aniso_U_12
_atom_site_aniso_U_13
_atom_site_aniso_U_23
Ag1 0.0248(3) 0.0093(3) 0.0285(3) 0.0043(2) 0.0027(2) -0.0023(2)
Ag2 0.0272(3) 0.0131(3) 0.0264(3) 0.0049(2) 0.0044(2) -0.0023(2)
C1 0.010(3) 0.019(4) 0.017(4) -0.003(3) 0.000(3) -0.001(3)
C2 0.019(3) 0.014(4) 0.023(4) 0.003(3) 0.004(3) 0.000(3)
C3 0.013(3) 0.008(3) 0.020(4) 0.000(2) 0.006(3) 0.002(3)
C4 0.013(3) 0.010(3) 0.024(4) 0.000(2) 0.007(3) 0.004(3)
C5 0.017(3) 0.007(3) 0.029(4) 0.000(2) 0.011(3) 0.002(3)
C6 0.020(3) 0.013(4) 0.025(4) 0.000(3) 0.007(3) -0.001(3)
C7 0.017(3) 0.010(3) 0.021(4) 0.001(3) 0.005(3) 0.002(3)
N1 0.016(3) 0.008(3) 0.022(3) 0.004(2) 0.002(3) -0.001(2)
N2 0.013(3) 0.011(3) 0.029(4) 0.003(2) 0.010(3) 0.007(2)
N3 0.021(3) 0.018(4) 0.019(3) 0.003(3) 0.005(3) 0.007(3)
O1 0.032(3) 0.036(4) 0.032(3) 0.008(3) 0.017(3) 0.010(3)
O2 0.024(3) 0.020(3) 0.048(4) 0.008(3) 0.021(3) 0.012(3)
O3 0.008(2) 0.018(3) 0.065(5) 0.004(2) 0.015(3) 0.018(3)
O4 0.031(3) 0.040(5) 0.046(4) -0.011(3) 0.016(3) -0.023(3)
O5 0.016(3) 0.019(3) 0.042(4) -0.007(2) 0.015(3) -0.006(3)
loop_
_atom_type_symbol
_atom_type_description
_atom_type_scat_dispersion_real
_atom_type_scat_dispersion_imag
_atom_type_scat_source
C C 0.0033 0.0016 'International Tables Vol C Tables 4.2.6.8 and 6.1.1.4'
H H 0.0000 0.0000 'International Tables Vol C Tables 4.2.6.8 and 6.1.1.4'
N N 0.0061 0.0033 'International Tables Vol C Tables 4.2.6.8 and 6.1.1.4'
O O 0.0106 0.0060 'International Tables Vol C Tables 4.2.6.8 and 6.1.1.4'
Ag Ag -0.8971 1.1015 'International Tables Vol C Tables 4.2.6.8 and 6.1.1.4'
loop_
_geom_angle_atom_site_label_1
_geom_angle_atom_site_label_2
_geom_angle_atom_site_label_3
_geom_angle_site_symmetry_1
_geom_angle_site_symmetry_3
_geom_angle
N1 Ag1 O5 . 2_556 172.7(3)
N1 Ag1 Ag2 . 1_656 77.04(18)
O5 Ag1 Ag2 2_556 1_656 107.98(18)
N1 Ag1 Ag2 . 1_655 82.73(18)
O5 Ag1 Ag2 2_556 1_655 90.17(16)
Ag2 Ag1 Ag2 1_656 1_655 118.24(3)
O2 Ag2 N3 . 2_556 173.0(3)
O2 Ag2 Ag1 . 1_454 109.2(2)
N3 Ag2 Ag1 2_556 1_454 76.86(19)
O2 Ag2 Ag1 . 1_455 89.93(16)
N3 Ag2 Ag1 2_556 1_455 83.94(19)
Ag1 Ag2 Ag1 1_454 1_455 118.24(3)
O1 C1 O2 . . 123.8(8)
O1 C1 C2 . . 120.7(7)
O2 C1 C2 . . 115.5(7)
C3 C2 C1 . . 112.3(7)
C3 C2 H2A . . 109.1
C1 C2 H2A . . 109.1
C3 C2 H2B . . 109.1
C1 C2 H2B . . 109.1
H2A C2 H2B . . 107.9
N1 C3 C2 . . 110.4(6)
N1 C3 C4 . . 110.1(6)
C2 C3 C4 . . 108.8(6)
N1 C3 H3 . . 109.1
C2 C3 H3 . . 109.1
C4 C3 H3 . . 109.1
O3 C4 N2 . . 122.3(7)
O3 C4 C3 . . 121.3(6)
N2 C4 C3 . . 116.3(6)
N2 C5 C6 . . 110.6(7)
N2 C5 C7 . . 110.6(6)
C6 C5 C7 . . 112.5(6)
N2 C5 H5 . . 107.7
C6 C5 H5 . . 107.7
C7 C5 H5 . . 107.7
N3 C6 C5 . . 110.3(7)
N3 C6 H6A . . 109.6
C5 C6 H6A . . 109.6
N3 C6 H6B . . 109.6
C5 C6 H6B . . 109.6
H6A C6 H6B . . 108.1
O4 C7 O5 . . 124.0(8)
O4 C7 C5 . . 118.8(7)
O5 C7 C5 . . 117.2(7)
C3 N1 Ag1 . . 117.5(5)
C3 N1 H1A . . 107.9
Ag1 N1 H1A . . 107.9
C3 N1 H1B . . 107.9
Ag1 N1 H1B . . 107.9
H1A N1 H1B . . 107.2
C4 N2 C5 . . 121.2(6)
C4 N2 H2 . . 119.4
C5 N2 H2 . . 119.4
C6 N3 Ag2 . 2_546 119.2(5)
C6 N3 H3A . . 107.5
Ag2 N3 H3A 2_546 . 107.5
C6 N3 H3B . . 107.5
Ag2 N3 H3B 2_546 . 107.5
H3A N3 H3B . . 107.0
C1 O2 Ag2 . . 116.4(6)
C7 O5 Ag1 . 2_546 111.0(5)
loop_
_geom_bond_atom_site_label_1
_geom_bond_atom_site_label_2
_geom_bond_site_symmetry_2
_geom_bond_distance
Ag1 N1 . 2.173(7)
Ag1 O5 2_556 2.183(6)
Ag1 Ag2 1_656 3.1697(11)
Ag1 Ag2 1_655 3.2449(10)
Ag2 O2 . 2.154(7)
Ag2 N3 2_556 2.181(8)
Ag2 Ag1 1_454 3.1698(11)
Ag2 Ag1 1_455 3.2449(10)
C1 O1 . 1.231(10)
C1 O2 . 1.272(9)
C1 C2 . 1.534(12)
C2 C3 . 1.507(11)
C2 H2A . 0.99
C2 H2B . 0.99
C3 N1 . 1.468(10)
C3 C4 . 1.528(11)
C3 H3 . 1.0
C4 O3 . 1.231(8)
C4 N2 . 1.336(10)
C5 N2 . 1.460(10)
C5 C6 . 1.522(12)
C5 C7 . 1.526(11)
C5 H5 . 1.0
C6 N3 . 1.479(11)
C6 H6A . 0.99
C6 H6B . 0.99
C7 O4 . 1.244(10)
C7 O5 . 1.273(9)
N1 H1A . 0.99
N1 H1B . 0.99
N2 H2 . 0.88
N3 Ag2 2_546 2.181(8)
N3 H3A . 0.99
N3 H3B . 0.99
O5 Ag1 2_546 2.183(6)
